REMARK  8 active torsions:
REMARK  status: ('A' for Active; 'I' for Inactive)
REMARK    1  A    between atoms: C_15  and  C_1 
REMARK    2  A    between atoms: C_18  and  C_3 
REMARK    3  A    between atoms: S_16  and  C_4 
REMARK    4  A    between atoms: C_7  and  S_16 
REMARK    5  A    between atoms: C_19  and  N_10 
REMARK    6  A    between atoms: C_17  and  C_20 
REMARK    7  A    between atoms: O_34  and  C_18 
REMARK    8  A    between atoms: C_35  and  O_34 
ROOT
ATOM      1  C   UNL d   1       4.473  -2.356   0.791  0.00  0.00     0.176 C 
ATOM      2  N   UNL d   1       5.013  -2.791  -0.316  0.00  0.00    -0.285 N 
ATOM      3  HN  UNL d   1       6.018  -2.713  -0.471  1.00  0.00     0.188 HD
ATOM      4  C   UNL d   1       2.156  -2.825  -0.103  0.00  0.00     0.078 C 
ATOM      5  N   UNL d   1       4.199  -3.355  -1.262  0.00  0.00    -0.266 N 
ATOM      6  C   UNL d   1       2.997  -2.481   1.062  0.00  0.00     0.224 C 
ATOM      7  C   UNL d   1       2.823  -3.260  -1.177  0.00  0.00     0.139 C 
ATOM      8  O   UNL d   1       2.569  -2.341   2.199  0.00  0.00    -0.284 OA
ENDROOT
BRANCH   4   9
ATOM      9  S   UNL d   1       0.443  -2.763   0.028  0.00  0.00    -0.047 SA
BRANCH   9  10
ATOM     10  C   UNL d   1       0.226  -1.105  -0.424  0.00  0.00     0.167 A 
ATOM     11  N   UNL d   1      -0.865  -0.353  -0.069  0.00  0.00    -0.312 N 
ATOM     12  C   UNL d   1      -0.710   0.856  -0.718  0.00  0.00     0.209 A 
ATOM     13  C   UNL d   1      -1.944  -0.771   0.792  0.00  0.00     0.160 C 
ATOM     14  N   UNL d   1       0.439   0.825  -1.379  0.00  0.00    -0.279 N 
ATOM     15  N   UNL d   1       1.018  -0.402  -1.195  0.00  0.00    -0.278 N 
ATOM     16  HN  UNL d   1       0.827   1.588  -1.933  1.00  0.00     0.188 HD
ATOM     17  HN  UNL d   1       1.907  -0.712  -1.588  1.00  0.00     0.189 HD
BRANCH  12  18
ATOM     18  C   UNL d   1      -1.663   1.999  -0.700  0.00  0.00     0.450 C 
ATOM     19  F   UNL d   1      -2.816   1.733  -0.032  0.00  0.00    -0.163 F 
ATOM     20  F   UNL d   1      -1.127   3.099  -0.111  0.00  0.00    -0.163 F 
ATOM     21  F   UNL d   1      -2.039   2.365  -1.954  0.00  0.00    -0.163 F 
ENDBRANCH  12  18
ENDBRANCH   9  10
ENDBRANCH   4   9
BRANCH   1  22
ATOM     22  C   UNL d   1       5.398  -1.684   1.777  0.00  0.00     0.315 C 
ATOM     23  O   UNL d   1       5.118  -0.627   2.316  0.00  0.00    -0.257 OA
BRANCH  22  24
ATOM     24  O   UNL d   1       6.574  -2.348   1.828  0.00  0.00    -0.317 OA
BRANCH  24  25
ATOM     25  C   UNL d   1       7.666  -1.616   2.399  0.00  0.00     0.175 C 
ATOM     26  C   UNL d   1       8.265  -0.699   1.345  0.00  0.00     0.034 C 
ENDBRANCH  24  25
ENDBRANCH  22  24
ENDBRANCH   1  22
BRANCH   5  27
ATOM     27  C   UNL d   1       4.892  -4.079  -2.286  0.00  0.00     0.056 A 
ATOM     28  C   UNL d   1       4.272  -5.091  -3.038  0.00  0.00     0.032 A 
ATOM     29  C   UNL d   1       4.989  -5.853  -3.970  0.00  0.00     0.018 A 
ATOM     30  C   UNL d   1       6.353  -5.623  -4.185  0.00  0.00     0.048 A 
ATOM     31  C   UNL d   1       6.978  -4.595  -3.470  0.00  0.00     0.018 A 
ATOM     32  C   UNL d   1       6.258  -3.841  -2.536  0.00  0.00     0.032 A 
BRANCH  30  33
ATOM     33  C   UNL d   1       7.151  -6.473  -5.142  0.00  0.00     0.417 C 
ATOM     34  F   UNL d   1       6.426  -7.477  -5.712  0.00  0.00    -0.166 F 
ATOM     35  F   UNL d   1       7.671  -5.755  -6.174  0.00  0.00    -0.166 F 
ATOM     36  F   UNL d   1       8.210  -7.080  -4.537  0.00  0.00    -0.166 F 
ENDBRANCH  30  33
ENDBRANCH   5  27
TORSDOF 8
