REMARK  1 active torsions:
REMARK  status: ('A' for Active; 'I' for Inactive)
REMARK    1  A    between atoms: S_13  and  C_3 
ROOT
ATOM      1  C   UNL d   1       0.059  -0.768   0.025  0.00  0.00     0.042 A 
ATOM      2  C   UNL d   1       0.369   0.655  -0.043  0.00  0.00    -0.014 A 
ATOM      3  C   UNL d   1       1.194  -1.556   0.036  0.00  0.00     0.056 A 
ATOM      4  C   UNL d   1       1.733   0.880  -0.074  0.00  0.00     0.093 A 
ATOM      5  S   UNL d   1       2.613  -0.579  -0.041  0.00  0.00    -0.071 SA
ATOM      6  C   UNL d   1      -1.337  -1.193   0.128  0.00  0.00     0.162 C 
ATOM      7  C   UNL d   1       2.371   2.163  -0.122  0.00  0.00     0.107 C 
ATOM      8  N   UNL d   1       2.858   3.211  -0.163  0.00  0.00    -0.191 NA
ATOM      9  C   UNL d   1      -0.716   1.720  -0.053  0.00  0.00     0.050 C 
ATOM     10  C   UNL d   1      -2.113   1.163   0.348  0.00  0.00    -0.037 C 
ATOM     11  C   UNL d   1      -2.342  -0.180  -0.375  0.00  0.00     0.093 C 
ATOM     12  O   UNL d   1      -1.706  -2.237   0.654  0.00  0.00    -0.292 OA
ATOM     13  C   UNL d   1      -3.226   2.137  -0.072  0.00  0.00     0.015 C 
ATOM     14  C   UNL d   1      -2.201   0.979   1.880  0.00  0.00     0.015 C 
ENDROOT
BRANCH   3  15
ATOM     15  S   UNL d   1       1.424  -3.300   0.172  0.00  0.00    -0.126 SA
ATOM     16  C   UNL d   1       0.101  -4.051  -0.795  0.00  0.00     0.096 C 
ENDBRANCH   3  15
TORSDOF 1
