REMARK  4 active torsions:
REMARK  status: ('A' for Active; 'I' for Inactive)
REMARK       I    between atoms: N_2  and  C_1 
REMARK       I    between atoms: N_8  and  C_1 
REMARK    1  A    between atoms: C_10  and  N_2 
REMARK    2  A    between atoms: C_3  and  N_9 
REMARK    3  A    between atoms: C_4  and  C_5 
REMARK    4  A    between atoms: C_29  and  C_18 
ROOT
ATOM      1  C   UNL d   1       0.922   0.382   0.095  0.00  0.00     0.301 C 
ATOM      2  N   UNL d   1       0.398   0.363  -1.187  0.00  0.00    -0.209 NA
ATOM      3  N   UNL d   1       0.125  -0.271   1.035  0.00  0.00    -0.337 N 
ATOM      4  N   UNL d   1      -2.221  -0.708   2.790  0.00  0.00    -0.364 N 
ATOM      5  O   UNL d   1       1.969   0.949   0.395  0.00  0.00    -0.254 OA
ATOM      6  C   UNL d   1      -0.944  -1.235   0.709  0.00  0.00     0.147 C 
ATOM      7  C   UNL d   1      -2.310  -0.906   1.341  0.00  0.00     0.144 C 
ATOM      8  C   UNL d   1      -0.254   0.728   3.304  0.00  0.00     0.040 C 
ATOM      9  C   UNL d   1       0.544  -0.244   2.439  0.00  0.00     0.129 C 
ATOM     10  C   UNL d   1      -1.775   0.633   3.194  0.00  0.00     0.126 C 
ATOM     11  H   UNL d   1      -0.589   0.552  -1.146  0.00  0.00     0.138 HD
ENDROOT
BRANCH   2  12
ATOM     12  C   UNL d   1       1.080   1.016  -2.239  0.00  0.00     0.029 A 
ATOM     13  C   UNL d   1       0.563   2.237  -2.733  0.00  0.00    -0.040 A 
ATOM     14  C   UNL d   1       1.254   2.909  -3.755  0.00  0.00     0.008 A 
ATOM     15  C   UNL d   1      -0.635   2.948  -2.156  0.00  0.00     0.050 C 
ATOM     16  C   UNL d   1       2.420   2.379  -4.293  0.00  0.00     0.001 A 
ATOM     17  C   UNL d   1       2.903   1.161  -3.828  0.00  0.00     0.009 A 
ATOM     18  C   UNL d   1       2.238   0.443  -2.813  0.00  0.00    -0.036 A 
BRANCH  18  19
ATOM     19  C   UNL d   1       2.858  -0.883  -2.412  0.00  0.00     0.036 C 
ATOM     20  C   UNL d   1       1.915  -2.053  -2.155  0.00  0.00     0.010 C 
ENDBRANCH  18  19
ENDBRANCH   2  12
BRANCH   4  21
ATOM     21  C   UNL d   1      -2.706  -1.584   3.746  0.00  0.00     0.125 A 
ATOM     22  N   UNL d   1      -3.043  -1.021   4.944  0.00  0.00    -0.350 N 
ATOM     23  C   UNL d   1      -3.553  -1.776   5.944  0.00  0.00     0.106 A 
ATOM     24  HN  UNL d   1      -2.908  -0.020   5.086  1.00  0.00     0.166 HD
ATOM     25  C   UNL d   1      -3.759  -3.136   5.855  0.00  0.00     0.065 A 
ATOM     26  C   UNL d   1      -3.404  -3.738   4.655  0.00  0.00     0.045 A 
ATOM     27  C   UNL d   1      -2.872  -2.976   3.599  0.00  0.00     0.078 A 
ATOM     28 CL   UNL d   1      -2.396  -3.911   2.224  0.00  0.00    -0.080 Cl
BRANCH  25  29
ATOM     29  C   UNL d   1      -4.324  -3.893   7.012  0.00  0.00     0.418 C 
ATOM     30  F   UNL d   1      -4.433  -5.231   6.779  0.00  0.00    -0.166 F 
ATOM     31  F   UNL d   1      -3.568  -3.771   8.136  0.00  0.00    -0.166 F 
ATOM     32  F   UNL d   1      -5.572  -3.471   7.351  0.00  0.00    -0.166 F 
ENDBRANCH  25  29
ENDBRANCH   4  21
TORSDOF 4
