REMARK  4 active torsions:
REMARK  status: ('A' for Active; 'I' for Inactive)
REMARK    1  A    between atoms: C_3  and  N_1 
REMARK    2  A    between atoms: C_2  and  C_7 
REMARK       I    between atoms: N_4  and  C_2 
REMARK    3  A    between atoms: O_9  and  N_4 
REMARK    4  A    between atoms: C_8  and  O_9 
ROOT
ATOM      1  C   UNL d   1       0.297   0.833   0.740  0.00  0.00     0.102 A 
ATOM      2  C   UNL d   1      -1.449   2.515   2.163  0.00  0.00     0.034 A 
ATOM      3  C   UNL d   1       0.639   2.173   0.940  0.00  0.00     0.037 A 
ATOM      4  C   UNL d   1      -0.907   0.325   1.249  0.00  0.00     0.037 A 
ATOM      5  C   UNL d   1      -1.777   1.166   1.959  0.00  0.00     0.019 A 
ATOM      6  C   UNL d   1      -0.234   3.005   1.650  0.00  0.00     0.019 A 
ENDROOT
BRANCH   2   7
ATOM      7  C   UNL d   1      -2.324   3.481   2.901  0.00  0.00     0.275 C 
ATOM      8  N   UNL d   1      -3.513   3.012   3.392  0.00  0.00    -0.222 N 
ATOM      9  H   UNL d   1      -3.903   2.078   3.322  0.00  0.00     0.198 HD
ATOM     10  O   UNL d   1      -1.951   4.644   3.036  0.00  0.00    -0.265 OA
BRANCH   8  11
ATOM     11  O   UNL d   1      -4.310   3.967   4.070  0.00  0.00    -0.197 OA
BRANCH  11  12
ATOM     12  C   UNL d   1      -5.477   3.419   4.520  0.00  0.00     0.277 C 
ATOM     13  O   UNL d   1      -5.795   2.248   4.344  0.00  0.00    -0.264 OA
ATOM     14  C   UNL d   1      -6.315   4.440   5.225  0.00  0.00     0.128 C 
ENDBRANCH  11  12
ENDBRANCH   8  11
ENDBRANCH   2   7
BRANCH   1  15
ATOM     15  N   UNL d   1       1.203  -0.046  -0.011  0.00  0.00    -0.116 N 
ATOM     16  O   UNL d   1       2.245   0.449  -0.463  0.00  0.00    -0.532 OA
ATOM     17  O   UNL d   1       0.869  -1.232  -0.150  0.00  0.00    -0.532 OA
ENDBRANCH   1  15
TORSDOF 4
