REMARK  0 active torsions:
REMARK  status: ('A' for Active; 'I' for Inactive)
ROOT
ATOM      1  C   UNL d   1      -0.650  -1.387   0.004  0.00  0.00     0.187 A 
ATOM      2  C   UNL d   1      -1.949  -0.689   0.047  0.00  0.00     0.088 A 
ATOM      3  O   UNL d   1      -0.852   1.452  -0.055  0.00  0.00    -0.314 OA
ATOM      4  C   UNL d   1       0.547  -0.534  -0.010  0.00  0.00     0.048 A 
ATOM      5  C   UNL d   1       0.379   0.848  -0.027  0.00  0.00     0.089 A 
ATOM      6  C   UNL d   1      -1.981   0.651   0.014  0.00  0.00     0.053 A 
ATOM      7  O   UNL d   1      -0.591  -2.610  -0.004  0.00  0.00    -0.287 OA
ATOM      8  C   UNL d   1       1.829  -1.090   0.016  0.00  0.00     0.018 A 
ATOM      9  C   UNL d   1       1.493   1.687  -0.005  0.00  0.00     0.038 A 
ATOM     10  C   UNL d   1      -3.255   1.434   0.055  0.00  0.00     0.077 C 
ATOM     11  C   UNL d   1       2.943  -0.250   0.045  0.00  0.00     0.001 A 
ATOM     12  C   UNL d   1       2.775   1.137   0.039  0.00  0.00     0.003 A 
ENDROOT
TORSDOF 0
