REMARK  3 active torsions:
REMARK  status: ('A' for Active; 'I' for Inactive)
REMARK    1  A    between atoms: C_13  and  N_21 
REMARK    2  A    between atoms: S_24  and  C_14 
REMARK    3  A    between atoms: N_21  and  C_15 
ROOT
ATOM      1  S   UNL d   1       0.947  -1.677  -0.059  0.00  0.00     0.270 S 
ATOM      2  C   UNL d   1       2.122  -0.492  -0.497  0.00  0.00     0.147 C 
ATOM      3  N   UNL d   1       1.341  -1.995   1.573  0.00  0.00    -0.275 N 
ATOM      4  C   UNL d   1       1.666  -0.885   2.381  0.00  0.00     0.066 A 
ATOM      5  C   UNL d   1       2.074   0.329   1.857  0.00  0.00     0.084 A 
ATOM      6  C   UNL d   1       2.319   0.624   0.456  0.00  0.00     0.215 C 
ATOM      7  C   UNL d   1       2.922  -0.702  -1.549  0.00  0.00     0.135 C 
ATOM      8  S   UNL d   1       2.362   1.497   3.066  0.00  0.00    -0.096 SA
ATOM      9  O   UNL d   1      -0.371  -1.071  -0.062  0.00  0.00    -0.200 OA
ATOM     10  O   UNL d   1       1.175  -2.904  -0.799  0.00  0.00    -0.200 OA
ATOM     11  C   UNL d   1       1.658  -0.859   3.805  0.00  0.00     0.039 A 
ATOM     12  C   UNL d   1       2.011   0.376   4.309  0.00  0.00     0.053 A 
ATOM     13  O   UNL d   1       2.758   1.699   0.042  0.00  0.00    -0.285 OA
ATOM     14  C   UNL d   1       1.004  -3.318   2.112  0.00  0.00     0.170 C 
ENDROOT
BRANCH   7  15
ATOM     15  N   UNL d   1       4.022   0.017  -1.955  0.00  0.00    -0.200 N 
ATOM     16  H   UNL d   1       4.296   0.843  -1.433  0.00  0.00     0.183 HD
BRANCH  15  17
ATOM     17  C   UNL d   1       4.941  -0.365  -2.929  0.00  0.00     0.685 A 
ATOM     18  N   UNL d   1       4.672  -1.407  -3.703  0.00  0.00    -0.170 N 
ATOM     19  C   UNL d   1       5.589  -1.708  -4.614  0.00  0.00     0.160 A 
ATOM     20  HN  UNL d   1       3.811  -1.946  -3.605  1.00  0.00     0.186 HD
ATOM     21  N   UNL d   1       6.744  -1.069  -4.772  0.00  0.00    -0.326 N 
ATOM     22  C   UNL d   1       6.932  -0.049  -3.937  0.00  0.00     0.095 A 
ATOM     23  HN  UNL d   1       7.431  -1.338  -5.476  1.00  0.00     0.169 HD
ATOM     24  N   UNL d   1       6.060   0.346  -3.009  0.00  0.00    -0.181 N 
ATOM     25  C   UNL d   1       8.217   0.712  -4.039  0.00  0.00     0.089 C 
ATOM     26  HN  UNL d   1       6.241   1.144  -2.399  1.00  0.00     0.185 HD
BRANCH  19  27
ATOM     27  S   UNL d   1       5.187  -3.076  -5.676  0.00  0.00    -0.098 SA
ATOM     28  C   UNL d   1       6.571  -3.018  -6.835  0.00  0.00     0.099 C 
ENDBRANCH  19  27
ENDBRANCH  15  17
ENDBRANCH   7  15
TORSDOF 3
