REMARK  4 active torsions:
REMARK  status: ('A' for Active; 'I' for Inactive)
REMARK    1  A    between atoms: C_6  and  S_1 
REMARK    2  A    between atoms: C_8  and  S_1 
REMARK    3  A    between atoms: C_4  and  C_6 
REMARK    4  A    between atoms: C_12  and  C_5 
ROOT
ATOM      1  N   UNL d   1       1.496   1.256  -3.637  0.00  0.00    -0.352 N 
ATOM      2  HN  UNL d   1       1.830   0.401  -4.082  1.00  0.00     0.166 HD
ATOM      3  C   UNL d   1       0.780   1.296  -2.531  0.00  0.00     0.065 A 
ATOM      4  C   UNL d   1       1.730   2.537  -4.113  0.00  0.00     0.049 A 
ATOM      5  S   UNL d   1       0.367   2.878  -1.992  0.00  0.00    -0.085 SA
ATOM      6  C   UNL d   1       1.156   3.542  -3.359  0.00  0.00     0.081 A 
ENDROOT
BRANCH   3   7
ATOM      7  C   UNL d   1       0.375   0.098  -1.746  0.00  0.00     0.212 C 
BRANCH   7   8
ATOM      8  S   UNL d   1      -1.216  -0.451  -2.314  0.00  0.00     0.196 S 
ATOM      9  O   UNL d   1      -2.158   0.655  -2.218  0.00  0.00    -0.221 OA
ATOM     10  O   UNL d   1      -1.534  -1.704  -1.648  0.00  0.00    -0.221 OA
BRANCH   8  11
ATOM     11  C   UNL d   1      -0.957  -0.802  -4.040  0.00  0.00     0.128 A 
ATOM     12  N   UNL d   1      -0.027  -1.766  -4.267  0.00  0.00    -0.357 N 
ATOM     13  C   UNL d   1       0.256  -2.010  -5.563  0.00  0.00     0.089 A 
ATOM     14  HN  UNL d   1       0.427  -2.272  -3.507  1.00  0.00     0.166 HD
ATOM     15  C   UNL d   1      -0.333  -1.332  -6.621  0.00  0.00     0.017 A 
ATOM     16  C   UNL d   1      -1.281  -0.348  -6.342  0.00  0.00     0.004 A 
ATOM     17  C   UNL d   1      -1.612  -0.074  -5.021  0.00  0.00     0.042 A 
ENDBRANCH   8  11
ENDBRANCH   7   8
ENDBRANCH   3   7
BRANCH   4  18
ATOM     18  C   UNL d   1       2.509   2.772  -5.323  0.00  0.00    -0.009 A 
ATOM     19  C   UNL d   1       2.503   1.819  -6.352  0.00  0.00     0.015 A 
ATOM     20  C   UNL d   1       3.243   2.027  -7.522  0.00  0.00     0.024 A 
ATOM     21  C   UNL d   1       4.004   3.186  -7.662  0.00  0.00     0.034 A 
ATOM     22  C   UNL d   1       4.033   4.136  -6.644  0.00  0.00     0.024 A 
ATOM     23 CL   UNL d   1       4.919   3.444  -9.095  0.00  0.00    -0.084 Cl
ATOM     24  C   UNL d   1       3.288   3.929  -5.479  0.00  0.00     0.015 A 
ENDBRANCH   4  18
TORSDOF 4
