REMARK  8 active torsions:
REMARK  status: ('A' for Active; 'I' for Inactive)
REMARK    1  A    between atoms: C_2  and  S_1 
REMARK    2  A    between atoms: N_10  and  S_1 
REMARK    3  A    between atoms: C_16  and  N_10 
REMARK    4  A    between atoms: C_17  and  C_16 
REMARK    5  A    between atoms: C_20  and  C_17 
REMARK    6  A    between atoms: C_18  and  C_19 
REMARK    7  A    between atoms: C_19  and  C_21 
REMARK    8  A    between atoms: C_21  and  C_20 
ROOT
ATOM      1  S   UNL d   1       0.974  -0.086   0.165  0.00  0.00     0.242 S 
ATOM      2  O   UNL d   1       0.566  -1.409   0.603  0.00  0.00    -0.206 OA
ATOM      3  O   UNL d   1       0.607   1.051   0.967  0.00  0.00    -0.206 OA
ENDROOT
BRANCH   1   4
ATOM      4  C   UNL d   1       0.459   0.170  -1.569  0.00  0.00     0.087 A 
ATOM      5  C   UNL d   1       0.224  -0.945  -2.431  0.00  0.00    -0.032 A 
ATOM      6  C   UNL d   1      -0.315  -0.714  -3.731  0.00  0.00    -0.048 A 
ATOM      7  C   UNL d   1       0.538  -2.381  -2.072  0.00  0.00     0.050 C 
ATOM      8  C   UNL d   1      -0.637  -1.861  -4.676  0.00  0.00     0.049 C 
ATOM      9  C   UNL d   1      -0.553   0.609  -4.189  0.00  0.00    -0.049 A 
ATOM     10  C   UNL d   1      -0.230   1.714  -3.366  0.00  0.00    -0.048 A 
ATOM     11  C   UNL d   1      -1.143   0.805  -5.573  0.00  0.00     0.049 C 
ATOM     12  C   UNL d   1       0.283   1.503  -2.054  0.00  0.00    -0.032 A 
ATOM     13  C   UNL d   1      -0.440   3.113  -3.914  0.00  0.00     0.049 C 
ATOM     14  C   UNL d   1       0.637   2.740  -1.253  0.00  0.00     0.050 C 
ENDBRANCH   1   4
BRANCH   1  15
ATOM     15  N   UNL d   1       2.671  -0.118   0.000  0.00  0.00    -0.216 NA
ATOM     16  H   UNL d   1       2.952  -0.904  -0.582  0.00  0.00     0.139 HD
BRANCH  15  17
ATOM     17  C   UNL d   1       3.319   1.167  -0.314  0.00  0.00     0.104 C 
BRANCH  17  18
ATOM     18  C   UNL d   1       4.829   1.018  -0.422  0.00  0.00     0.015 C 
BRANCH  18  19
ATOM     19  C   UNL d   1       5.460   2.374  -0.758  0.00  0.00     0.001 C 
BRANCH  19  20
ATOM     20  C   UNL d   1       6.980   2.288  -0.878  0.00  0.00     0.000 C 
BRANCH  20  21
ATOM     21  C   UNL d   1       7.579   3.657  -1.213  0.00  0.00    -0.000 C 
BRANCH  21  22
ATOM     22  C   UNL d   1       9.100   3.587  -1.339  0.00  0.00    -0.005 C 
ATOM     23  C   UNL d   1       9.691   4.948  -1.672  0.00  0.00     0.005 C 
ENDBRANCH  21  22
ENDBRANCH  20  21
ENDBRANCH  19  20
ENDBRANCH  18  19
ENDBRANCH  17  18
ENDBRANCH  15  17
ENDBRANCH   1  15
TORSDOF 8
