REMARK  13 active torsions:
REMARK  status: ('A' for Active; 'I' for Inactive)
REMARK    1  A    between atoms: N_2  and  C_1 
REMARK    2  A    between atoms: C_4  and  C_1 
REMARK    3  A    between atoms: C_5  and  C_1 
REMARK    4  A    between atoms: N_8  and  C_1 
REMARK       I    between atoms: C_6  and  N_2 
REMARK    5  A    between atoms: C_3  and  C_11 
REMARK    6  A    between atoms: C_7  and  C_3 
REMARK    7  A    between atoms: C_10  and  C_3 
REMARK    8  A    between atoms: O_29  and  C_3 
REMARK    9  A    between atoms: C_9  and  C_6 
REMARK   10  A    between atoms: C_12  and  N_8 
REMARK   11  A    between atoms: O_30  and  C_10 
REMARK   12  A    between atoms: O_32  and  C_14 
REMARK   13  A    between atoms: C_35  and  O_32 
ROOT
ATOM      1  C   UNL d   1       1.075   0.502  -0.201  0.00  0.00     0.308 C 
ENDROOT
BRANCH   1   2
ATOM      2  N   UNL d   1       0.512  -0.806   0.229  0.00  0.00    -0.315 N 
ATOM      3  C   UNL d   1      -0.845  -1.048   0.224  0.00  0.00     0.256 C 
ATOM      4  O   UNL d   1      -1.624  -0.115   0.104  0.00  0.00    -0.267 OA
ATOM      5  H   UNL d   1       1.181  -1.559   0.177  0.00  0.00     0.165 HD
BRANCH   3   6
ATOM      6  C   UNL d   1      -1.332  -2.469   0.360  0.00  0.00     0.065 A 
ATOM      7  C   UNL d   1      -2.673  -2.800   0.046  0.00  0.00     0.084 A 
ATOM      8  C   UNL d   1      -3.139  -4.101   0.267  0.00  0.00     0.038 A 
ATOM      9  C   UNL d   1      -2.293  -5.083   0.776  0.00  0.00     0.003 A 
ATOM     10  C   UNL d   1      -0.967  -4.780   1.049  0.00  0.00     0.001 A 
ATOM     11  C   UNL d   1      -0.486  -3.475   0.853  0.00  0.00     0.020 A 
BRANCH   7  12
ATOM     12  O   UNL d   1      -3.450  -1.874  -0.601  0.00  0.00    -0.350 OA
BRANCH  12  13
ATOM     13  C   UNL d   1      -4.832  -1.805  -0.245  0.00  0.00     0.171 C 
ATOM     14  C   UNL d   1      -5.691  -2.353  -1.373  0.00  0.00     0.034 C 
ENDBRANCH  12  13
ENDBRANCH   7  12
ENDBRANCH   3   6
ENDBRANCH   1   2
BRANCH   1  15
ATOM     15  C   UNL d   1       0.740   1.786   0.648  0.00  0.00     0.441 C 
ATOM     16  F   UNL d   1      -0.572   2.103   0.699  0.00  0.00    -0.166 F 
ATOM     17  F   UNL d   1       1.127   1.696   1.944  0.00  0.00    -0.166 F 
ATOM     18  F   UNL d   1       1.373   2.881   0.143  0.00  0.00    -0.166 F 
ENDBRANCH   1  15
BRANCH   1  19
ATOM     19  C   UNL d   1       0.512   0.976  -1.611  0.00  0.00     0.441 C 
ATOM     20  F   UNL d   1       0.364  -0.086  -2.455  0.00  0.00    -0.166 F 
ATOM     21  F   UNL d   1      -0.675   1.611  -1.596  0.00  0.00    -0.166 F 
ATOM     22  F   UNL d   1       1.382   1.819  -2.232  0.00  0.00    -0.166 F 
ENDBRANCH   1  19
BRANCH   1  23
ATOM     23  N   UNL d   1       2.591   0.138  -0.250  0.00  0.00    -0.344 N 
ATOM     24  C   UNL d   1       3.174  -0.148  -1.570  0.00  0.00     0.153 C 
BRANCH  23  25
ATOM     25  C   UNL d   1       3.478   0.120   0.830  0.00  0.00     0.032 A 
ATOM     26  C   UNL d   1       3.088  -0.088   2.155  0.00  0.00     0.030 A 
ATOM     27  C   UNL d   1       4.015  -0.206   3.218  0.00  0.00     0.013 A 
ATOM     28  C   UNL d   1       5.397  -0.185   3.000  0.00  0.00    -0.005 A 
ATOM     29  C   UNL d   1       5.802   0.090   1.689  0.00  0.00     0.013 A 
ATOM     30  C   UNL d   1       4.869   0.248   0.647  0.00  0.00     0.030 A 
BRANCH  28  31
ATOM     31  C   UNL d   1       6.461  -0.469   4.074  0.00  0.00     0.271 C 
BRANCH  31  32
ATOM     32  C   UNL d   1       7.144   0.798   4.645  0.00  0.00     0.432 C 
ATOM     33  F   UNL d   1       7.200   0.817   5.999  0.00  0.00    -0.167 F 
ATOM     34  F   UNL d   1       8.442   0.857   4.229  0.00  0.00    -0.167 F 
ATOM     35  F   UNL d   1       6.562   1.952   4.258  0.00  0.00    -0.167 F 
ENDBRANCH  31  32
BRANCH  31  36
ATOM     36  C   UNL d   1       5.975  -1.235   5.316  0.00  0.00     0.307 C 
ATOM     37  O   UNL d   1       4.913  -1.075   5.904  0.00  0.00    -0.261 OA
BRANCH  36  38
ATOM     38  O   UNL d   1       6.940  -2.116   5.741  0.00  0.00    -0.324 OA
ATOM     39  C   UNL d   1       6.563  -2.892   6.882  0.00  0.00     0.213 C 
ENDBRANCH  36  38
ENDBRANCH  31  36
BRANCH  31  40
ATOM     40  O   UNL d   1       7.433  -1.336   3.398  0.00  0.00    -0.368 OA
ATOM     41  H   UNL d   1       8.173  -1.463   4.022  0.00  0.00     0.212 HD
ENDBRANCH  31  40
ENDBRANCH  28  31
ENDBRANCH  23  25
ENDBRANCH   1  23
TORSDOF 13
