REMARK  3 active torsions:
REMARK  status: ('A' for Active; 'I' for Inactive)
REMARK    1  A    between atoms: C_2  and  C_1 
REMARK    2  A    between atoms: C_3  and  C_2 
REMARK    3  A    between atoms: N_11  and  C_4 
ROOT
ATOM      1  C   UNL d   1       0.888  -1.239  -2.296  0.00  0.00     0.015 A 
ATOM      2  C   UNL d   1       0.456  -1.012  -3.611  0.00  0.00     0.027 A 
ATOM      3  C   UNL d   1       1.093  -1.633  -4.698  0.00  0.00    -0.025 A 
ATOM      4  C   UNL d   1       1.950  -2.119  -2.064  0.00  0.00     0.016 A 
ATOM      5  C   UNL d   1       2.181  -2.504  -4.460  0.00  0.00    -0.026 A 
ATOM      6  C   UNL d   1       2.594  -2.739  -3.139  0.00  0.00     0.013 A 
ATOM      7  C   UNL d   1       0.673  -1.408  -6.019  0.00  0.00     0.012 A 
ATOM      8  C   UNL d   1       2.820  -3.121  -5.547  0.00  0.00     0.012 A 
ATOM      9  C   UNL d   1       1.317  -2.032  -7.089  0.00  0.00     0.001 A 
ATOM     10  C   UNL d   1       2.389  -2.887  -6.854  0.00  0.00     0.001 A 
ENDROOT
BRANCH   1  11
ATOM     11  C   UNL d   1       0.175  -0.534  -1.193  0.00  0.00     0.183 C 
ATOM     12  O   UNL d   1      -1.002  -0.214  -1.330  0.00  0.00    -0.288 OA
BRANCH  11  13
ATOM     13  C   UNL d   1       0.955  -0.198   0.030  0.00  0.00     0.072 C 
ATOM     14  C   UNL d   1       0.364   0.393   1.078  0.00  0.00     0.088 C 
BRANCH  14  15
ATOM     15  N   UNL d   1       0.913   0.806   2.285  0.00  0.00    -0.398 N 
ATOM     16  C   UNL d   1       2.313   0.631   2.667  0.00  0.00     0.148 C 
ATOM     17  C   UNL d   1       0.093   1.443   3.319  0.00  0.00     0.148 C 
ENDBRANCH  14  15
ENDBRANCH  11  13
ENDBRANCH   1  11
TORSDOF 3
