REMARK  1 active torsions:
REMARK  status: ('A' for Active; 'I' for Inactive)
REMARK    1  A    between atoms: C_9  and  C_1 
ROOT
ATOM      1  N   UNL d   1      -3.628   2.452  -2.250  0.00  0.00    -0.197 NA
ATOM      2  C   UNL d   1      -3.105   2.149  -1.263  0.00  0.00     0.063 C 
ATOM      3  C   UNL d   1      -2.532   1.797   0.052  0.00  0.00     0.163 C 
ENDROOT
BRANCH   3   4
ATOM      4  C   UNL d   1      -1.209   1.021   0.011  0.00  0.00    -0.032 A 
ATOM      5  C   UNL d   1       0.039   1.720   0.047  0.00  0.00    -0.048 A 
ATOM      6  C   UNL d   1       1.252   0.990  -0.011  0.00  0.00    -0.049 A 
ATOM      7  C   UNL d   1       0.038   3.230   0.167  0.00  0.00     0.049 C 
ATOM      8  C   UNL d   1       2.612   1.659  -0.072  0.00  0.00     0.049 C 
ATOM      9  C   UNL d   1       1.222  -0.434  -0.009  0.00  0.00    -0.049 A 
ATOM     10  C   UNL d   1      -0.014  -1.136   0.004  0.00  0.00    -0.049 A 
ATOM     11  C   UNL d   1       2.546  -1.183  -0.016  0.00  0.00     0.049 C 
ATOM     12  C   UNL d   1      -1.232  -0.409  -0.036  0.00  0.00    -0.048 A 
ATOM     13  C   UNL d   1       0.029  -2.648   0.069  0.00  0.00     0.049 C 
ATOM     14  C   UNL d   1      -2.574  -1.111  -0.114  0.00  0.00     0.049 C 
ENDBRANCH   3   4
TORSDOF 1
