REMARK  7 active torsions:
REMARK  status: ('A' for Active; 'I' for Inactive)
REMARK    1  A    between atoms: C_3  and  S_1 
REMARK    2  A    between atoms: C_8  and  S_1 
REMARK    3  A    between atoms: C_2  and  C_4 
REMARK    4  A    between atoms: C_7  and  O_20 
REMARK    5  A    between atoms: C_9  and  C_7 
REMARK    6  A    between atoms: C_22  and  C_8 
REMARK    7  A    between atoms: O_20  and  C_22 
ROOT
ATOM      1  S   UNL d   1       1.020   0.099   0.085  0.00  0.00     0.193 S 
ATOM      2  O   UNL d   1       2.414  -0.034  -0.307  0.00  0.00    -0.221 OA
ATOM      3  O   UNL d   1       0.644   0.132   1.488  0.00  0.00    -0.221 OA
ENDROOT
BRANCH   1   4
ATOM      4  C   UNL d   1       0.168  -1.299  -0.621  0.00  0.00     0.128 A 
ATOM      5  N   UNL d   1      -0.754  -1.015  -1.577  0.00  0.00    -0.356 N 
ATOM      6  C   UNL d   1      -1.400  -2.085  -2.106  0.00  0.00     0.105 A 
ATOM      7  HN  UNL d   1      -0.948  -0.060  -1.878  1.00  0.00     0.166 HD
ATOM      8  C   UNL d   1      -1.166  -3.405  -1.732  0.00  0.00     0.063 A 
ATOM      9  C   UNL d   1      -0.205  -3.642  -0.739  0.00  0.00     0.020 A 
ATOM     10  C   UNL d   1       0.478  -2.572  -0.169  0.00  0.00     0.042 A 
BRANCH   8  11
ATOM     11  C   UNL d   1      -1.916  -4.537  -2.372  0.00  0.00     0.418 C 
ATOM     12  F   UNL d   1      -2.784  -4.136  -3.341  0.00  0.00    -0.166 F 
ATOM     13  F   UNL d   1      -1.086  -5.439  -2.965  0.00  0.00    -0.166 F 
ATOM     14  F   UNL d   1      -2.657  -5.244  -1.475  0.00  0.00    -0.166 F 
ENDBRANCH   8  11
ENDBRANCH   1   4
BRANCH   1  15
ATOM     15  C   UNL d   1       0.360   1.542  -0.714  0.00  0.00     0.174 C 
BRANCH  15  16
ATOM     16  C   UNL d   1       1.080   2.798  -0.244  0.00  0.00     0.194 C 
BRANCH  16  17
ATOM     17  O   UNL d   1       0.879   3.082   1.154  0.00  0.00    -0.317 OA
BRANCH  17  18
ATOM     18  C   UNL d   1      -0.294   3.677   1.486  0.00  0.00     0.293 C 
ATOM     19  O   UNL d   1      -1.185   3.957   0.703  0.00  0.00    -0.259 OA
BRANCH  18  20
ATOM     20  C   UNL d   1      -0.363   3.965   2.947  0.00  0.00     0.041 A 
ATOM     21  C   UNL d   1      -1.511   4.605   3.435  0.00  0.00     0.041 A 
ATOM     22  C   UNL d   1      -1.621   4.900   4.793  0.00  0.00     0.035 A 
ATOM     23 CL   UNL d   1      -3.032   5.687   5.385  0.00  0.00    -0.084 Cl
ATOM     24  C   UNL d   1      -0.597   4.564   5.677  0.00  0.00     0.024 A 
ATOM     25  C   UNL d   1       0.548   3.927   5.198  0.00  0.00     0.003 A 
ATOM     26  C   UNL d   1       0.667   3.627   3.837  0.00  0.00     0.018 A 
ENDBRANCH  18  20
ENDBRANCH  17  18
ENDBRANCH  16  17
ENDBRANCH  15  16
ENDBRANCH   1  15
TORSDOF 7
