REMARK  6 active torsions:
REMARK  status: ('A' for Active; 'I' for Inactive)
REMARK    1  A    between atoms: C_7  and  C_1 
REMARK    2  A    between atoms: C_2  and  C_8 
REMARK    3  A    between atoms: C_3  and  C_9 
REMARK    4  A    between atoms: C_16  and  C_4 
REMARK    5  A    between atoms: O_12  and  C_7 
REMARK    6  A    between atoms: C_21  and  O_12 
ROOT
ATOM      1  C   UNL d   1      -1.569   8.711   0.113  0.00  0.00     0.055 C 
ATOM      2  C   UNL d   1      -1.159   7.538   0.642  0.00  0.00     0.034 C 
ATOM      3  C   UNL d   1      -2.867   9.236   0.427  0.00  0.00     0.100 C 
ATOM      4  N   UNL d   1      -3.902   9.692   0.688  0.00  0.00    -0.191 NA
ENDROOT
BRANCH   1   5
ATOM      5  C   UNL d   1      -0.656   9.510  -0.753  0.00  0.00    -0.015 A 
ATOM      6  C   UNL d   1       0.275   8.909  -1.616  0.00  0.00     0.015 A 
ATOM      7  C   UNL d   1       1.135   9.684  -2.405  0.00  0.00     0.037 A 
ATOM      8  C   UNL d   1       1.081  11.075  -2.352  0.00  0.00     0.069 A 
ATOM      9  C   UNL d   1       0.124  11.688  -1.549  0.00  0.00     0.037 A 
ATOM     10  C   UNL d   1      -0.727  10.914  -0.750  0.00  0.00     0.015 A 
BRANCH   8  11
ATOM     11  O   UNL d   1       1.991  11.740  -3.130  0.00  0.00    -0.347 OA
BRANCH  11  12
ATOM     12  C   UNL d   1       2.366  13.030  -2.639  0.00  0.00     0.219 C 
BRANCH  12  13
ATOM     13  C   UNL d   1       3.724  13.416  -3.163  0.00  0.00     0.026 A 
ATOM     14  C   UNL d   1       3.862  14.599  -3.899  0.00  0.00     0.126 A 
ATOM     15  F   UNL d   1       2.786  15.355  -4.157  0.00  0.00    -0.205 F 
ATOM     16  C   UNL d   1       5.102  15.041  -4.356  0.00  0.00     0.043 A 
ATOM     17  C   UNL d   1       6.244  14.296  -4.085  0.00  0.00     0.005 A 
ATOM     18  C   UNL d   1       6.135  13.115  -3.351  0.00  0.00     0.024 A 
ATOM     19  C   UNL d   1       4.886  12.681  -2.887  0.00  0.00     0.045 A 
ATOM     20 CL   UNL d   1       4.857  11.241  -1.930  0.00  0.00    -0.084 Cl
ENDBRANCH  12  13
ENDBRANCH  11  12
ENDBRANCH   8  11
ENDBRANCH   1   5
BRANCH   2  21
ATOM     21  C   UNL d   1      -1.973   6.690   1.521  0.00  0.00    -0.035 A 
ATOM     22  C   UNL d   1      -2.871   5.766   0.977  0.00  0.00     0.012 A 
ATOM     23  C   UNL d   1      -3.642   4.959   1.817  0.00  0.00     0.017 A 
ATOM     24  C   UNL d   1      -3.528   5.065   3.212  0.00  0.00     0.048 A 
ATOM     25  C   UNL d   1      -2.633   6.002   3.749  0.00  0.00     0.017 A 
ATOM     26  C   UNL d   1      -1.860   6.809   2.909  0.00  0.00     0.012 A 
BRANCH  24  27
ATOM     27  C   UNL d   1      -4.357   4.173   4.105  0.00  0.00     0.417 C 
ATOM     28  F   UNL d   1      -4.143   4.380   5.435  0.00  0.00    -0.166 F 
ATOM     29  F   UNL d   1      -5.695   4.336   3.913  0.00  0.00    -0.166 F 
ATOM     30  F   UNL d   1      -4.108   2.851   3.891  0.00  0.00    -0.166 F 
ENDBRANCH  24  27
ENDBRANCH   2  21
TORSDOF 6
