REMARK  2 active torsions:
REMARK  status: ('A' for Active; 'I' for Inactive)
REMARK    1  A    between atoms: C_3  and  C_1 
REMARK    2  A    between atoms: N_9  and  C_6 
REMARK       I    between atoms: C_12  and  N_9 
REMARK       I    between atoms: N_18  and  C_12 
ROOT
ATOM      1  C   UNL d   1       1.540  -2.862  -0.048  0.00  0.00     0.053 A 
ATOM      2  N   UNL d   1       2.456  -3.016   0.977  0.00  0.00    -0.335 N 
ATOM      3  HN  UNL d   1       2.646  -2.316   1.694  1.00  0.00     0.168 HD
ATOM      4  C   UNL d   1       3.049  -4.189   0.899  0.00  0.00     0.151 A 
ATOM      5  S   UNL d   1       2.578  -5.140  -0.461  0.00  0.00    -0.063 SA
ATOM      6  C   UNL d   1       1.495  -3.905  -0.948  0.00  0.00     0.083 A 
ENDROOT
BRANCH   4   7
ATOM      7  N   UNL d   1       3.956  -4.668   1.778  0.00  0.00    -0.313 N 
ATOM      8  C   UNL d   1       4.382  -4.087   2.925  0.00  0.00     0.150 C 
ATOM      9  N   UNL d   1       4.042  -2.945   3.408  0.00  0.00    -0.376 N 
ATOM     10  N   UNL d   1       5.271  -4.836   3.616  0.00  0.00    -0.274 NA
ATOM     11  H   UNL d   1       3.356  -2.534   2.753  0.00  0.00     0.158 HD
ATOM     12  HN  UNL d   1       4.384  -2.525   4.272  1.00  0.00     0.158 HD
ATOM     13  H   UNL d   1       6.060  -5.154   3.067  0.00  0.00     0.127 HD
ATOM     14  H   UNL d   1       5.606  -4.286   4.405  0.00  0.00     0.127 HD
ATOM     15  H   UNL d   1       4.227  -5.634   1.667  0.00  0.00     0.170 HD
ENDBRANCH   4   7
BRANCH   1  16
ATOM     16  C   UNL d   1       0.752  -1.622  -0.073  0.00  0.00     0.022 A 
ATOM     17  C   UNL d   1      -0.519  -1.430  -0.566  0.00  0.00     0.088 A 
ATOM     18  S   UNL d   1      -1.071   0.171  -0.395  0.00  0.00    -0.065 SA
ATOM     19 CL   UNL d   1      -1.594  -2.574  -1.275  0.00  0.00    -0.075 Cl
ATOM     20  C   UNL d   1       0.373   0.623   0.361  0.00  0.00     0.077 A 
ATOM     21  C   UNL d   1       1.269  -0.407   0.489  0.00  0.00     0.047 A 
ATOM     22 CL   UNL d   1       0.590   2.245   0.881  0.00  0.00    -0.076 Cl
ENDBRANCH   1  16
TORSDOF 2
