REMARK  3 active torsions:
REMARK  status: ('A' for Active; 'I' for Inactive)
REMARK    1  A    between atoms: C_2  and  S_1 
REMARK    2  A    between atoms: N_3  and  S_1 
REMARK    3  A    between atoms: C_12  and  N_3 
ROOT
ATOM      1  S   UNL d   1       1.115  -0.032  -0.046  0.00  0.00     0.263 S 
ATOM      2  O   UNL d   1      -0.020   0.770  -0.447  0.00  0.00    -0.200 OA
ATOM      3  O   UNL d   1       2.298  -0.113  -0.879  0.00  0.00    -0.200 OA
ENDROOT
BRANCH   1   4
ATOM      4  C   UNL d   1       0.521  -1.691   0.226  0.00  0.00     0.080 A 
ATOM      5  C   UNL d   1       1.417  -2.763   0.111  0.00  0.00     0.035 A 
ATOM      6  C   UNL d   1       0.909  -4.045   0.230  0.00  0.00    -0.021 A 
ATOM      7  C   UNL d   1       1.609  -5.348   0.192  0.00  0.00     0.068 C 
ATOM      8  C   UNL d   1      -0.442  -4.260   0.462  0.00  0.00     0.075 A 
ATOM      9  C   UNL d   1       0.397  -6.274   0.070  0.00  0.00     0.180 C 
ATOM     10  O   UNL d   1      -0.778  -5.585   0.562  0.00  0.00    -0.350 OA
ATOM     11  C   UNL d   1      -1.341  -3.219   0.579  0.00  0.00     0.039 A 
ATOM     12  C   UNL d   1      -0.855  -1.914   0.444  0.00  0.00     0.028 A 
ENDBRANCH   1   4
BRANCH   1  13
ATOM     13  N   UNL d   1       1.546   0.524   1.468  0.00  0.00    -0.281 N 
ATOM     14  H   UNL d   1       0.946   1.240   1.871  0.00  0.00     0.179 HD
BRANCH  13  15
ATOM     15  C   UNL d   1       2.517  -0.106   2.277  0.00  0.00     0.042 A 
ATOM     16  C   UNL d   1       3.855   0.280   2.204  0.00  0.00     0.030 A 
ATOM     17  C   UNL d   1       4.782  -0.252   3.105  0.00  0.00     0.002 A 
ATOM     18  C   UNL d   1       4.370  -1.168   4.074  0.00  0.00     0.000 A 
ATOM     19  C   UNL d   1       3.031  -1.553   4.143  0.00  0.00     0.002 A 
ATOM     20  C   UNL d   1       2.104  -1.017   3.249  0.00  0.00     0.030 A 
ENDBRANCH  13  15
ENDBRANCH   1  13
TORSDOF 3
