REMARK  4 active torsions:
REMARK  status: ('A' for Active; 'I' for Inactive)
REMARK    1  A    between atoms: N_6  and  C_1 
REMARK    2  A    between atoms: N_3  and  C_2 
REMARK       I    between atoms: C_4  and  N_7 
REMARK    3  A    between atoms: C_5  and  C_4 
REMARK    4  A    between atoms: N_7  and  N_6 
ROOT
ATOM      1  N   UNL d   1      -1.437   2.367  -0.025  0.00  0.00    -0.180 NA
ATOM      2  C   UNL d   1      -1.208   3.819  -0.065  0.00  0.00     0.144 C 
ENDROOT
BRANCH   1   3
ATOM      3  C   UNL d   1      -0.455   1.559  -0.646  0.00  0.00     0.134 A 
ATOM      4  C   UNL d   1      -0.528   0.166  -0.683  0.00  0.00     0.142 A 
ATOM      5  C   UNL d   1       0.350  -0.600  -1.464  0.00  0.00     0.041 A 
ATOM      6  C   UNL d   1       1.368   0.051  -2.142  0.00  0.00     0.020 A 
ATOM      7  C   UNL d   1       1.468   1.419  -1.986  0.00  0.00     0.089 A 
ATOM      8  N   UNL d   1       0.582   2.165  -1.283  0.00  0.00    -0.353 N 
ATOM      9  HN  UNL d   1       0.692   3.178  -1.232  1.00  0.00     0.166 HD
BRANCH   4  10
ATOM     10  N   UNL d   1      -1.482  -0.547   0.133  0.00  0.00    -0.112 N 
ATOM     11  O   UNL d   1      -1.236  -0.630   1.348  0.00  0.00    -0.532 OA
ATOM     12  O   UNL d   1      -2.405  -1.114  -0.460  0.00  0.00    -0.532 OA
ENDBRANCH   4  10
ENDBRANCH   1   3
BRANCH   1  13
ATOM     13  N   UNL d   1      -2.764   2.007  -0.400  0.00  0.00    -0.279 N 
ATOM     14  C   UNL d   1      -3.820   2.329   0.441  0.00  0.00     0.269 C 
ATOM     15  O   UNL d   1      -3.685   2.770   1.578  0.00  0.00    -0.266 OA
ATOM     16  H   UNL d   1      -2.920   1.821  -1.389  0.00  0.00     0.184 HD
BRANCH  14  17
ATOM     17  C   UNL d   1      -5.191   2.169  -0.128  0.00  0.00     0.071 A 
ATOM     18  C   UNL d   1      -5.431   1.689  -1.418  0.00  0.00     0.132 A 
ATOM     19  F   UNL d   1      -4.416   1.331  -2.223  0.00  0.00    -0.205 F 
ATOM     20  C   UNL d   1      -6.727   1.589  -1.923  0.00  0.00     0.043 A 
ATOM     21  C   UNL d   1      -7.810   1.978  -1.136  0.00  0.00     0.003 A 
ATOM     22  C   UNL d   1      -7.591   2.458   0.154  0.00  0.00     0.001 A 
ATOM     23  C   UNL d   1      -6.291   2.551   0.657  0.00  0.00     0.020 A 
ENDBRANCH  14  17
ENDBRANCH   1  13
TORSDOF 4
