REMARK  9 active torsions:
REMARK  status: ('A' for Active; 'I' for Inactive)
REMARK    1  A    between atoms: C_2  and  S_1 
REMARK    2  A    between atoms: C_9  and  S_1 
REMARK    3  A    between atoms: S_3  and  N_6 
REMARK    4  A    between atoms: C_18  and  S_3 
REMARK    5  A    between atoms: N_4  and  C_10 
REMARK    6  A    between atoms: C_5  and  C_11 
REMARK    7  A    between atoms: N_6  and  C_8 
REMARK    8  A    between atoms: C_22  and  O_30 
REMARK    9  A    between atoms: O_30  and  C_36 
ROOT
ATOM      1  C   UNL d   1       0.390  -1.697   0.328  0.00  0.00     0.161 C 
ATOM      2  C   UNL d   1      -0.293  -1.997   1.442  0.00  0.00     0.132 C 
ATOM      3  C   UNL d   1       0.755  -0.384  -0.060  0.00  0.00     0.113 C 
ATOM      4  N   UNL d   1       1.071   0.678  -0.404  0.00  0.00    -0.191 NA
ENDROOT
BRANCH   1   5
ATOM      5  S   UNL d   1       0.698  -3.018  -0.739  0.00  0.00     0.233 S 
ATOM      6  O   UNL d   1      -0.396  -3.101  -1.692  0.00  0.00    -0.215 OA
ATOM      7  O   UNL d   1       1.029  -4.209   0.033  0.00  0.00    -0.215 OA
BRANCH   5   8
ATOM      8  C   UNL d   1       2.163  -2.598  -1.669  0.00  0.00     0.134 A 
ATOM      9  N   UNL d   1       3.256  -2.343  -0.906  0.00  0.00    -0.356 N 
ATOM     10  C   UNL d   1       4.416  -2.149  -1.579  0.00  0.00     0.105 A 
ATOM     11  HN  UNL d   1       3.206  -2.301   0.112  1.00  0.00     0.166 HD
ATOM     12  C   UNL d   1       4.530  -2.183  -2.965  0.00  0.00     0.063 A 
ATOM     13  C   UNL d   1       3.366  -2.424  -3.708  0.00  0.00     0.020 A 
ATOM     14  C   UNL d   1       2.157  -2.642  -3.055  0.00  0.00     0.043 A 
BRANCH  12  15
ATOM     15  C   UNL d   1       5.855  -1.988  -3.642  0.00  0.00     0.418 C 
ATOM     16  F   UNL d   1       6.889  -1.795  -2.780  0.00  0.00    -0.166 F 
ATOM     17  F   UNL d   1       6.204  -3.058  -4.409  0.00  0.00    -0.166 F 
ATOM     18  F   UNL d   1       5.858  -0.915  -4.479  0.00  0.00    -0.166 F 
ENDBRANCH  12  15
ENDBRANCH   5   8
ENDBRANCH   1   5
BRANCH   2  19
ATOM     19  N   UNL d   1      -0.768  -0.951   2.313  0.00  0.00    -0.321 N 
ATOM     20  HN  UNL d   1      -0.539   0.018   2.094  1.00  0.00     0.175 HD
BRANCH  19  21
ATOM     21  S   UNL d   1      -1.619  -1.258   3.575  0.00  0.00     0.052 S 
ATOM     22  O   UNL d   1      -1.226  -2.201   4.603  0.00  0.00    -0.245 OA
ATOM     23  C   UNL d   1      -1.941   0.307   4.359  0.00  0.00     0.142 C 
BRANCH  21  24
ATOM     24  C   UNL d   1      -3.246  -1.779   3.036  0.00  0.00     0.038 A 
ATOM     25  C   UNL d   1      -3.550  -1.841   1.676  0.00  0.00     0.024 A 
ATOM     26  C   UNL d   1      -4.763  -2.381   1.261  0.00  0.00     0.039 A 
ATOM     27  C   UNL d   1      -5.719  -2.774   2.201  0.00  0.00     0.077 A 
ATOM     28  C   UNL d   1      -5.418  -2.705   3.564  0.00  0.00     0.039 A 
ATOM     29  C   UNL d   1      -4.175  -2.218   3.986  0.00  0.00     0.024 A 
BRANCH  27  30
ATOM     30  O   UNL d   1      -6.946  -3.301   1.857  0.00  0.00    -0.294 OA
BRANCH  30  31
ATOM     31  C   UNL d   1      -7.558  -2.820   0.706  0.00  0.00     0.148 A 
ATOM     32  N   UNL d   1      -7.332  -1.542   0.312  0.00  0.00    -0.344 N 
ATOM     33  C   UNL d   1      -7.895  -1.140  -0.851  0.00  0.00     0.126 A 
ATOM     34  HN  UNL d   1      -6.762  -0.908   0.871  1.00  0.00     0.167 HD
ATOM     35  C   UNL d   1      -8.706  -1.961  -1.617  0.00  0.00     0.118 A 
ATOM     36  C   UNL d   1      -8.970  -3.261  -1.173  0.00  0.00     0.041 A 
ATOM     37  C   UNL d   1      -8.383  -3.697   0.016  0.00  0.00     0.059 A 
BRANCH  35  38
ATOM     38  N   UNL d   1      -9.256  -1.463  -2.869  0.00  0.00    -0.114 N 
ATOM     39  O   UNL d   1      -8.947  -0.315  -3.217  0.00  0.00    -0.532 OA
ATOM     40  O   UNL d   1      -9.994  -2.221  -3.513  0.00  0.00    -0.532 OA
ENDBRANCH  35  38
ENDBRANCH  30  31
ENDBRANCH  27  30
ENDBRANCH  21  24
ENDBRANCH  19  21
ENDBRANCH   2  19
TORSDOF 9
