REMARK  6 active torsions:
REMARK  status: ('A' for Active; 'I' for Inactive)
REMARK    1  A    between atoms: S_16  and  C_3 
REMARK    2  A    between atoms: C_9  and  C_4 
REMARK    3  A    between atoms: O_15  and  N_7 
REMARK    4  A    between atoms: O_20  and  C_9 
REMARK    5  A    between atoms: C_10  and  O_15 
REMARK       I    between atoms: N_14  and  C_10 
REMARK    6  A    between atoms: C_19  and  N_14 
ROOT
ATOM      1  C   UNL d   1       0.098  -0.776  -0.233  0.00  0.00     0.020 C 
ATOM      2  C   UNL d   1       0.401   0.635  -0.190  0.00  0.00    -0.020 C 
ATOM      3  C   UNL d   1       1.166  -1.526  -0.676  0.00  0.00     0.054 C 
ATOM      4  C   UNL d   1       1.759   0.873  -0.375  0.00  0.00     0.088 C 
ATOM      5  S   UNL d   1       2.584  -0.582  -0.765  0.00  0.00    -0.076 SA
ATOM      6  C   UNL d   1      -1.235  -1.245   0.106  0.00  0.00     0.046 C 
ATOM      7  N   UNL d   1      -1.350  -2.385   0.719  0.00  0.00    -0.259 N 
ATOM      8  HN  UNL d   1      -0.575  -3.010   0.935  1.00  0.00     0.194 HD
ATOM      9  C   UNL d   1      -0.677   1.677   0.033  0.00  0.00     0.050 C 
ATOM     10  C   UNL d   1      -2.068   1.099   0.447  0.00  0.00    -0.038 C 
ATOM     11  C   UNL d   1      -2.349  -0.269  -0.222  0.00  0.00     0.069 C 
ATOM     12  C   UNL d   1      -3.172   2.080   0.006  0.00  0.00     0.015 C 
ATOM     13  C   UNL d   1      -2.143   0.950   1.980  0.00  0.00     0.015 C 
ENDROOT
BRANCH   7  14
ATOM     14  O   UNL d   1      -2.699  -2.634   1.041  0.00  0.00    -0.181 OA
BRANCH  14  15
ATOM     15  C   UNL d   1      -2.902  -3.855   1.657  0.00  0.00     0.387 C 
ATOM     16  N   UNL d   1      -1.751  -4.549   1.949  0.00  0.00    -0.301 N 
ATOM     17  H   UNL d   1      -0.910  -4.023   1.732  0.00  0.00     0.171 HD
ATOM     18  O   UNL d   1      -4.051  -4.213   1.902  0.00  0.00    -0.236 OA
BRANCH  16  19
ATOM     19  C   UNL d   1      -1.642  -5.863   2.442  0.00  0.00     0.037 A 
ATOM     20  C   UNL d   1      -2.740  -6.718   2.590  0.00  0.00     0.031 A 
ATOM     21  C   UNL d   1      -2.568  -8.041   3.011  0.00  0.00     0.026 A 
ATOM     22  C   UNL d   1      -1.294  -8.514   3.304  0.00  0.00     0.034 A 
ATOM     23  C   UNL d   1      -0.193  -7.669   3.191  0.00  0.00     0.026 A 
ATOM     24 CL   UNL d   1      -1.080 -10.150   3.790  0.00  0.00    -0.084 Cl
ATOM     25  C   UNL d   1      -0.366  -6.348   2.757  0.00  0.00     0.031 A 
ENDBRANCH  16  19
ENDBRANCH  14  15
ENDBRANCH   7  14
BRANCH   3  26
ATOM     26  S   UNL d   1       1.200  -3.222  -1.153  0.00  0.00    -0.126 SA
ATOM     27  C   UNL d   1      -0.109  -3.240  -2.410  0.00  0.00     0.096 C 
ENDBRANCH   3  26
BRANCH   4  28
ATOM     28  C   UNL d   1       2.469   2.147  -0.294  0.00  0.00     0.300 C 
ATOM     29  O   UNL d   1       1.934   3.239  -0.164  0.00  0.00    -0.259 OA
BRANCH  28  30
ATOM     30  O   UNL d   1       3.821   1.965  -0.350  0.00  0.00    -0.322 OA
ATOM     31  C   UNL d   1       4.595   3.157  -0.215  0.00  0.00     0.213 C 
ENDBRANCH  28  30
ENDBRANCH   4  28
TORSDOF 6
