REMARK  2 active torsions:
REMARK  status: ('A' for Active; 'I' for Inactive)
REMARK    1  A    between atoms: S_7  and  C_1 
REMARK    2  A    between atoms: C_5  and  S_7 
ROOT
ATOM      1  C   UNL d   1      -3.179   0.190  -1.501  0.00  0.00     0.192 A 
ATOM      2  N   UNL d   1      -3.760   0.462  -2.656  0.00  0.00    -0.328 N 
ATOM      3  HN  UNL d   1      -4.749   0.636  -2.836  1.00  0.00     0.168 HD
ATOM      4  O   UNL d   1      -1.823  -0.011  -1.581  0.00  0.00    -0.285 OA
ATOM      5  C   UNL d   1      -2.726   0.456  -3.555  0.00  0.00     0.068 A 
ATOM      6  C   UNL d   1      -1.538   0.170  -2.902  0.00  0.00     0.105 A 
ATOM      7  C   UNL d   1      -2.704   0.690  -4.935  0.00  0.00     0.032 A 
ATOM      8  C   UNL d   1      -0.295   0.100  -3.520  0.00  0.00     0.040 A 
ATOM      9  C   UNL d   1      -1.469   0.632  -5.596  0.00  0.00     0.002 A 
ATOM     10  C   UNL d   1      -0.288   0.344  -4.901  0.00  0.00     0.003 A 
ENDROOT
BRANCH   1  11
ATOM     11  S   UNL d   1      -4.047   0.158   0.012  0.00  0.00    -0.051 SA
BRANCH  11  12
ATOM     12  C   UNL d   1      -4.528  -1.522   0.008  0.00  0.00    -0.009 C 
ATOM     13  C   UNL d   1      -4.130  -2.304   1.025  0.00  0.00     0.064 C 
ATOM     14  C   UNL d   1      -4.581  -3.712   1.129  0.00  0.00     0.151 C 
ATOM     15  O   UNL d   1      -4.245  -4.375   2.108  0.00  0.00    -0.293 OA
ATOM     16  C   UNL d   1      -5.505  -4.271   0.068  0.00  0.00     0.092 C 
ATOM     17  C   UNL d   1      -5.364  -3.556  -1.287  0.00  0.00    -0.036 C 
ATOM     18  C   UNL d   1      -5.456  -2.027  -1.074  0.00  0.00     0.055 C 
ATOM     19  C   UNL d   1      -6.504  -4.005  -2.218  0.00  0.00     0.015 C 
ATOM     20  C   UNL d   1      -4.024  -3.931  -1.957  0.00  0.00     0.015 C 
ENDBRANCH  11  12
ENDBRANCH   1  11
TORSDOF 2
