REMARK  3 active torsions:
REMARK  status: ('A' for Active; 'I' for Inactive)
REMARK    1  A    between atoms: C_2  and  C_1 
REMARK    2  A    between atoms: O_10  and  C_7 
REMARK    3  A    between atoms: C_15  and  O_10 
ROOT
ATOM      1  N   UNL d   1       0.784 -10.080  -4.339  0.00  0.00    -0.191 NA
ATOM      2  C   UNL d   1       0.587  -8.935  -4.301  0.00  0.00     0.099 C 
ATOM      3  C   UNL d   1       0.358  -7.522  -4.257  0.00  0.00     0.044 A 
ATOM      4  C   UNL d   1      -0.082  -4.758  -4.166  0.00  0.00     0.077 A 
ATOM      5  C   UNL d   1      -0.742  -6.963  -4.917  0.00  0.00     0.025 A 
ATOM      6  C   UNL d   1       1.244  -6.696  -3.562  0.00  0.00     0.025 A 
ATOM      7  C   UNL d   1      -0.959  -5.582  -4.875  0.00  0.00     0.039 A 
ATOM      8  C   UNL d   1       1.035  -5.316  -3.535  0.00  0.00     0.039 A 
ENDROOT
BRANCH   4   9
ATOM      9  O   UNL d   1      -0.343  -3.405  -4.195  0.00  0.00    -0.294 OA
BRANCH   9  10
ATOM     10  C   UNL d   1      -0.042  -2.671  -3.056  0.00  0.00     0.147 A 
ATOM     11  C   UNL d   1       0.350  -1.354  -3.236  0.00  0.00     0.057 A 
ATOM     12  C   UNL d   1       0.709  -0.616  -2.109  0.00  0.00     0.022 A 
ATOM     13  C   UNL d   1       0.655  -1.211  -0.842  0.00  0.00     0.063 A 
ATOM     14  C   UNL d   1       0.214  -2.523  -0.768  0.00  0.00     0.106 A 
ATOM     15  N   UNL d   1      -0.147  -3.257  -1.841  0.00  0.00    -0.346 N 
ATOM     16  HN  UNL d   1      -0.485  -4.214  -1.741  1.00  0.00     0.167 HD
BRANCH  13  17
ATOM     17  C   UNL d   1       1.058  -0.478   0.400  0.00  0.00     0.418 C 
ATOM     18  F   UNL d   1       0.930  -1.219   1.535  0.00  0.00    -0.166 F 
ATOM     19  F   UNL d   1       0.321   0.647   0.604  0.00  0.00    -0.166 F 
ATOM     20  F   UNL d   1       2.358  -0.074   0.365  0.00  0.00    -0.166 F 
ENDBRANCH  13  17
ENDBRANCH   9  10
ENDBRANCH   4   9
TORSDOF 3
