REMARK  6 active torsions:
REMARK  status: ('A' for Active; 'I' for Inactive)
REMARK    1  A    between atoms: S_2  and  N_9 
REMARK    2  A    between atoms: C_8  and  S_2 
REMARK    3  A    between atoms: S_17  and  C_3 
REMARK    4  A    between atoms: C_7  and  C_4 
REMARK       I    between atoms: N_10  and  C_7 
REMARK    5  A    between atoms: N_9  and  N_10 
REMARK    6  A    between atoms: O_21  and  N_15 
ROOT
ATOM      1  C   UNL d   1       1.295  -3.022   0.170  0.00  0.00     0.278 C 
ATOM      2  N   UNL d   1       2.527  -3.665   0.208  0.00  0.00    -0.256 N 
ATOM      3  O   UNL d   1       0.268  -3.703   0.254  0.00  0.00    -0.265 OA
ATOM      4  H   UNL d   1       3.413  -3.169   0.165  0.00  0.00     0.191 HD
ENDROOT
BRANCH   1   5
ATOM      5  C   UNL d   1       1.273  -1.556   0.033  0.00  0.00     0.082 A 
ATOM      6  C   UNL d   1       0.144  -0.745  -0.025  0.00  0.00    -0.021 A 
ATOM      7  C   UNL d   1       0.448   0.682  -0.091  0.00  0.00     0.020 A 
ATOM      8  C   UNL d   1      -1.275  -1.250   0.028  0.00  0.00     0.041 C 
ATOM      9  C   UNL d   1       1.818   0.885  -0.127  0.00  0.00     0.054 A 
ATOM     10  C   UNL d   1      -0.651   1.674  -0.078  0.00  0.00     0.044 C 
ATOM     11  S   UNL d   1       2.687  -0.605  -0.068  0.00  0.00    -0.076 SA
ATOM     12  N   UNL d   1      -0.432   2.925  -0.366  0.00  0.00    -0.271 N 
ATOM     13  C   UNL d   1      -2.032   1.128   0.301  0.00  0.00     0.060 C 
ATOM     14  HN  UNL d   1       0.475   3.314  -0.623  1.00  0.00     0.194 HD
ATOM     15  C   UNL d   1      -2.280  -0.192  -0.416  0.00  0.00     0.011 C 
BRANCH   9  16
ATOM     16  S   UNL d   1       2.715   2.407  -0.093  0.00  0.00    -0.126 SA
ATOM     17  C   UNL d   1       2.876   2.780  -1.854  0.00  0.00     0.096 C 
ENDBRANCH   9  16
BRANCH  12  18
ATOM     18  O   UNL d   1      -1.626   3.664  -0.272  0.00  0.00    -0.285 OA
ATOM     19  C   UNL d   1      -1.393   5.025  -0.604  0.00  0.00     0.237 C 
ENDBRANCH  12  18
ENDBRANCH   1   5
BRANCH   2  20
ATOM     20  N   UNL d   1       2.548  -5.134   0.328  0.00  0.00    -0.220 N 
ATOM     21  H   UNL d   1       1.652  -5.628   0.390  0.00  0.00     0.200 HD
BRANCH  20  22
ATOM     22  S   UNL d   1       4.015  -5.955   0.404  0.00  0.00     0.278 S 
ATOM     23  O   UNL d   1       4.649  -5.754  -0.881  0.00  0.00    -0.199 OA
ATOM     24  O   UNL d   1       4.700  -5.555   1.617  0.00  0.00    -0.199 OA
BRANCH  22  25
ATOM     25  C   UNL d   1       3.602  -7.678   0.543  0.00  0.00     0.102 A 
ATOM     26  C   UNL d   1       2.899  -8.191   1.634  0.00  0.00     0.057 A 
ATOM     27 CL   UNL d   1       2.274  -7.219   2.914  0.00  0.00    -0.083 Cl
ATOM     28  C   UNL d   1       2.659  -9.574   1.718  0.00  0.00     0.025 A 
ATOM     29  C   UNL d   1       3.128 -10.439   0.726  0.00  0.00     0.002 A 
ATOM     30  C   UNL d   1       3.840  -9.930  -0.355  0.00  0.00     0.002 A 
ATOM     31  C   UNL d   1       4.078  -8.556  -0.448  0.00  0.00     0.027 A 
ENDBRANCH  22  25
ENDBRANCH  20  22
ENDBRANCH   2  20
TORSDOF 6
