REMARK  4 active torsions:
REMARK  status: ('A' for Active; 'I' for Inactive)
REMARK    1  A    between atoms: C_2  and  C_1 
REMARK       I    between atoms: N_3  and  C_2 
REMARK       I    between atoms: C_4  and  N_3 
REMARK       I    between atoms: N_10  and  C_4 
REMARK    2  A    between atoms: O_18  and  C_5 
REMARK    3  A    between atoms: O_19  and  C_6 
REMARK    4  A    between atoms: C_9  and  N_10 
ROOT
ATOM      1  C   UNL d   1       0.335  -3.879  -1.275  0.00  0.00     0.265 C 
ATOM      2  N   UNL d   1       1.716  -3.792  -1.328  0.00  0.00    -0.275 N 
ATOM      3  C   UNL d   1       2.567  -4.636  -2.002  0.00  0.00     0.327 C 
ATOM      4  N   UNL d   1       2.135  -5.933  -2.156  0.00  0.00    -0.306 N 
ATOM      5  O   UNL d   1      -0.231  -4.971  -1.248  0.00  0.00    -0.267 OA
ATOM      6  O   UNL d   1       3.587  -4.141  -2.478  0.00  0.00    -0.247 OA
ATOM      7  H   UNL d   1       2.100  -2.857  -1.307  0.00  0.00     0.173 HD
ATOM      8  H   UNL d   1       1.138  -6.048  -1.965  0.00  0.00     0.170 HD
ENDROOT
BRANCH   1   9
ATOM      9  C   UNL d   1      -0.445  -2.586  -1.203  0.00  0.00     0.102 A 
ATOM     10  C   UNL d   1      -1.766  -2.579  -1.706  0.00  0.00     0.108 A 
ATOM     11  C   UNL d   1      -2.561  -1.436  -1.581  0.00  0.00     0.070 A 
ATOM     12 CL   UNL d   1      -4.206  -1.404  -2.115  0.00  0.00    -0.081 Cl
ATOM     13  C   UNL d   1      -2.038  -0.282  -1.023  0.00  0.00     0.053 A 
ATOM     14  C   UNL d   1      -0.713  -0.242  -0.569  0.00  0.00     0.070 A 
ATOM     15  C   UNL d   1       0.106  -1.390  -0.647  0.00  0.00     0.108 A 
ATOM     16 CL   UNL d   1      -0.245   1.295   0.070  0.00  0.00    -0.081 Cl
BRANCH  10  17
ATOM     17  O   UNL d   1      -2.323  -3.693  -2.283  0.00  0.00    -0.353 OA
ATOM     18  C   UNL d   1      -2.045  -3.735  -3.685  0.00  0.00     0.210 C 
ENDBRANCH  10  17
BRANCH  15  19
ATOM     19  O   UNL d   1       1.409  -1.515  -0.241  0.00  0.00    -0.353 OA
ATOM     20  C   UNL d   1       2.146  -0.449   0.333  0.00  0.00     0.210 C 
ENDBRANCH  15  19
ENDBRANCH   1   9
BRANCH   4  21
ATOM     21  C   UNL d   1       2.672  -6.825  -3.126  0.00  0.00     0.064 C 
ATOM     22  C   UNL d   1       1.757  -7.550  -3.918  0.00  0.00     0.061 C 
ATOM     23 CL   UNL d   1       0.058  -7.530  -3.581  0.00  0.00    -0.082 Cl
ATOM     24  C   UNL d   1       2.184  -8.269  -5.036  0.00  0.00     0.026 C 
ATOM     25  C   UNL d   1       3.534  -8.292  -5.369  0.00  0.00     0.002 C 
ATOM     26  C   UNL d   1       4.460  -7.675  -4.530  0.00  0.00     0.009 C 
ATOM     27  C   UNL d   1       4.050  -6.985  -3.372  0.00  0.00    -0.034 C 
ATOM     28  C   UNL d   1       5.131  -6.521  -2.434  0.00  0.00     0.050 C 
ENDBRANCH   4  21
TORSDOF 4
