REMARK  3 active torsions:
REMARK  status: ('A' for Active; 'I' for Inactive)
REMARK    1  A    between atoms: C_2  and  S_1 
REMARK    2  A    between atoms: O_7  and  S_1 
REMARK    3  A    between atoms: C_12  and  O_7 
ROOT
ATOM      1  S   UNL d   1       1.014  -0.167  -0.022  0.00  0.00     0.309 S 
ATOM      2  O   UNL d   1       2.360  -0.490   0.407  0.00  0.00    -0.192 OA
ATOM      3  O   UNL d   1       0.667   1.114  -0.601  0.00  0.00    -0.192 OA
ENDROOT
BRANCH   1   4
ATOM      4  C   UNL d   1       0.033  -0.302   1.459  0.00  0.00     0.130 A 
ATOM      5  S   UNL d   1      -1.664  -0.165   1.262  0.00  0.00    -0.067 SA
ATOM      6  C   UNL d   1      -1.933  -0.375   2.927  0.00  0.00     0.070 A 
ATOM      7 BR   UNL d   1      -3.660  -0.371   3.660  0.00  0.00    -0.042 Br
ATOM      8  C   UNL d   1      -0.767  -0.544   3.627  0.00  0.00     0.037 A 
ATOM      9  C   UNL d   1       0.377  -0.497   2.786  0.00  0.00     0.054 A 
ATOM     10 BR   UNL d   1      -0.579  -0.820   5.487  0.00  0.00    -0.049 Br
ENDBRANCH   1   4
BRANCH   1  11
ATOM     11  O   UNL d   1       0.403  -1.389  -0.908  0.00  0.00    -0.229 OA
BRANCH  11  12
ATOM     12  C   UNL d   1       0.852  -1.682  -2.170  0.00  0.00     0.089 A 
ATOM     13  C   UNL d   1       1.835  -0.979  -2.868  0.00  0.00     0.038 A 
ATOM     14  C   UNL d   1       2.197  -1.377  -4.159  0.00  0.00     0.003 A 
ATOM     15  C   UNL d   1       1.583  -2.477  -4.755  0.00  0.00     0.000 A 
ATOM     16  C   UNL d   1       0.605  -3.184  -4.060  0.00  0.00     0.003 A 
ATOM     17  C   UNL d   1       0.241  -2.787  -2.773  0.00  0.00     0.038 A 
ENDBRANCH  11  12
ENDBRANCH   1  11
TORSDOF 3
