REMARK  3 active torsions:
REMARK  status: ('A' for Active; 'I' for Inactive)
REMARK    1  A    between atoms: S_2  and  C_1 
REMARK    2  A    between atoms: C_8  and  S_2 
REMARK    3  A    between atoms: N_5  and  C_4 
ROOT
ATOM      1  S   UNL d   1       1.526   2.814   0.057  0.00  0.00     0.207 S 
ATOM      2  O   UNL d   1       0.929   3.507   1.180  0.00  0.00    -0.217 OA
ATOM      3  O   UNL d   1       2.942   2.527   0.007  0.00  0.00    -0.217 OA
ENDROOT
BRANCH   1   4
ATOM      4  C   UNL d   1       0.716   1.262   0.015  0.00  0.00     0.079 A 
ATOM      5  C   UNL d   1       1.188   0.025  -0.593  0.00  0.00     0.001 A 
ATOM      6  C   UNL d   1       0.249  -0.988  -0.383  0.00  0.00     0.151 A 
ATOM      7  C   UNL d   1       2.485  -0.173  -1.323  0.00  0.00     0.053 C 
ATOM      8  S   UNL d   1      -1.134  -0.465   0.462  0.00  0.00    -0.076 SA
ATOM      9  C   UNL d   1      -0.525   1.116   0.604  0.00  0.00     0.076 A 
BRANCH   6  10
ATOM     10  N   UNL d   1       0.315  -2.383  -0.788  0.00  0.00    -0.108 N 
ATOM     11  O   UNL d   1       1.324  -2.743  -1.407  0.00  0.00    -0.531 OA
ATOM     12  O   UNL d   1      -0.635  -3.123  -0.499  0.00  0.00    -0.531 OA
ENDBRANCH   6  10
ENDBRANCH   1   4
BRANCH   1  13
ATOM     13  C   UNL d   1       1.036   3.638  -1.436  0.00  0.00     0.064 A 
ATOM     14  C   UNL d   1      -0.067   4.500  -1.415  0.00  0.00     0.025 A 
ATOM     15  C   UNL d   1      -0.440   5.174  -2.582  0.00  0.00     0.025 A 
ATOM     16  C   UNL d   1       0.293   4.990  -3.753  0.00  0.00     0.034 A 
ATOM     17  C   UNL d   1       1.407   4.149  -3.768  0.00  0.00     0.025 A 
ATOM     18 CL   UNL d   1      -0.174   5.812  -5.190  0.00  0.00    -0.084 Cl
ATOM     19  C   UNL d   1       1.788   3.475  -2.603  0.00  0.00     0.025 A 
ENDBRANCH   1  13
TORSDOF 3
