REMARK  5 active torsions:
REMARK  status: ('A' for Active; 'I' for Inactive)
REMARK       I    between atoms: N_8  and  C_1 
REMARK    1  A    between atoms: O_10  and  C_1 
REMARK    2  A    between atoms: N_2  and  O_10 
REMARK    3  A    between atoms: C_4  and  C_7 
REMARK    4  A    between atoms: C_15  and  N_8 
REMARK    5  A    between atoms: C_26  and  O_24 
ROOT
ATOM      1  O   UNL d   1       1.584  -0.648  -0.367  0.00  0.00    -0.401 OA
ATOM      2  H   UNL d   1       1.471  -1.450   0.172  0.00  0.00     0.209 HD
ENDROOT
BRANCH   1   3
ATOM      3  C   UNL d   1       2.957  -0.293  -0.309  0.00  0.00     0.159 C 
ATOM      4  C   UNL d   1       3.187   0.938  -1.159  0.00  0.00     0.033 C 
ENDBRANCH   1   3
TORSDOF 5
