REMARK  4 active torsions:
REMARK  status: ('A' for Active; 'I' for Inactive)
REMARK    1  A    between atoms: C_2  and  S_1 
REMARK    2  A    between atoms: N_3  and  S_1 
REMARK    3  A    between atoms: C_6  and  C_16 
REMARK    4  A    between atoms: C_16  and  N_10 
ROOT
ATOM      1  N   UNL d   1       0.371   0.730  -1.190  0.00  0.00    -0.205 NA
ATOM      2  N   UNL d   1       0.996   3.090  -3.338  0.00  0.00     0.093 N 
ATOM      3  C   UNL d   1       0.759   2.157  -0.940  0.00  0.00     0.138 C 
ATOM      4  C   UNL d   1       0.326   3.144  -2.034  0.00  0.00     0.288 C 
ATOM      5  C   UNL d   1       0.198   0.645  -3.716  0.00  0.00     0.046 C 
ATOM      6  C   UNL d   1       0.926   0.168  -2.467  0.00  0.00     0.109 C 
ATOM      7  C   UNL d   1       0.397   2.083  -4.212  0.00  0.00     0.274 C 
ENDROOT
BRANCH   1   8
ATOM      8  S   UNL d   1       0.828  -0.300   0.139  0.00  0.00     0.244 S 
ATOM      9  O   UNL d   1       0.342  -1.637  -0.129  0.00  0.00    -0.206 OA
ATOM     10  O   UNL d   1       2.244  -0.068   0.372  0.00  0.00    -0.206 OA
BRANCH   8  11
ATOM     11  C   UNL d   1      -0.076   0.320   1.553  0.00  0.00     0.081 A 
ATOM     12  C   UNL d   1       0.670   0.896   2.599  0.00  0.00     0.033 A 
ATOM     13  C   UNL d   1       0.059   1.268   3.807  0.00  0.00    -0.039 A 
ATOM     14  C   UNL d   1       0.892   1.857   4.910  0.00  0.00     0.050 C 
ATOM     15  C   UNL d   1      -1.312   1.028   3.960  0.00  0.00     0.040 A 
ATOM     16  C   UNL d   1      -2.058   0.473   2.914  0.00  0.00     0.032 A 
ATOM     17 CL   UNL d   1      -2.130   1.376   5.441  0.00  0.00    -0.084 Cl
ATOM     18  C   UNL d   1      -1.462   0.129   1.687  0.00  0.00    -0.037 A 
ATOM     19  C   UNL d   1      -2.336  -0.492   0.634  0.00  0.00     0.050 C 
ENDBRANCH   8  11
ENDBRANCH   1   8
BRANCH   2  20
ATOM     20  C   UNL d   1       2.465   3.009  -3.335  0.00  0.00     0.314 C 
BRANCH  20  21
ATOM     21  C   UNL d   1       3.211   4.118  -2.632  0.00  0.00     0.009 A 
ATOM     22  C   UNL d   1       4.383   3.806  -1.928  0.00  0.00     0.125 A 
ATOM     23  C   UNL d   1       5.175   4.788  -1.346  0.00  0.00     0.062 A 
ATOM     24  F   UNL d   1       4.776   2.528  -1.821  0.00  0.00    -0.205 F 
ATOM     25  C   UNL d   1       4.798   6.120  -1.476  0.00  0.00     0.013 A 
ATOM     26  C   UNL d   1       3.640   6.463  -2.175  0.00  0.00     0.020 A 
ATOM     27 BR   UNL d   1       5.880   7.473  -0.724  0.00  0.00    -0.051 Br
ATOM     28  C   UNL d   1       2.852   5.466  -2.759  0.00  0.00     0.013 A 
ENDBRANCH  20  21
ENDBRANCH   2  20
TORSDOF 4
