REMARK  7 active torsions:
REMARK  status: ('A' for Active; 'I' for Inactive)
REMARK    1  A    between atoms: N_2  and  C_1 
REMARK    2  A    between atoms: C_6  and  C_1 
REMARK    3  A    between atoms: N_3  and  C_9 
REMARK    4  A    between atoms: N_11  and  N_4 
REMARK    5  A    between atoms: O_17  and  C_6 
REMARK    6  A    between atoms: C_16  and  N_11 
REMARK    7  A    between atoms: C_20  and  O_17 
ROOT
ATOM      1  C   UNL d   1       0.837  -0.241   0.048  0.00  0.00     0.174 C 
ATOM      2  N   UNL d   1       0.280   0.702  -0.665  0.00  0.00    -0.284 N 
ATOM      3  HN  UNL d   1       0.836   1.383  -1.183  1.00  0.00     0.188 HD
ENDROOT
BRANCH   2   4
ATOM      4  N   UNL d   1      -1.075   0.730  -0.681  0.00  0.00    -0.299 N 
ATOM      5  H   UNL d   1      -1.593   0.495   0.162  0.00  0.00     0.187 HD
BRANCH   4   6
ATOM      6  C   UNL d   1      -1.736   1.456  -1.680  0.00  0.00     0.048 A 
ATOM      7  C   UNL d   1      -1.039   2.028  -2.754  0.00  0.00     0.033 A 
ATOM      8  C   UNL d   1      -1.708   2.652  -3.805  0.00  0.00     0.038 A 
ATOM      9  C   UNL d   1      -3.106   2.702  -3.793  0.00  0.00     0.103 A 
ATOM     10  C   UNL d   1      -3.826   2.131  -2.736  0.00  0.00     0.038 A 
ATOM     11  C   UNL d   1      -3.138   1.507  -1.690  0.00  0.00     0.033 A 
BRANCH   9  12
ATOM     12  N   UNL d   1      -3.816   3.349  -4.899  0.00  0.00    -0.116 N 
ATOM     13  O   UNL d   1      -3.140   3.826  -5.822  0.00  0.00    -0.532 OA
ATOM     14  O   UNL d   1      -5.054   3.377  -4.851  0.00  0.00    -0.532 OA
ENDBRANCH   9  12
ENDBRANCH   4   6
ENDBRANCH   2   4
BRANCH   1  15
ATOM     15  N   UNL d   1       0.224  -1.286   0.743  0.00  0.00    -0.261 NA
ATOM     16  C   UNL d   1      -0.842  -2.064   0.115  0.00  0.00     0.112 A 
ATOM     17  C   UNL d   1       0.525  -2.655   0.315  0.00  0.00     0.112 A 
ENDBRANCH   1  15
BRANCH   1  18
ATOM     18  C   UNL d   1       2.381  -0.141   0.175  0.00  0.00     0.323 C 
ATOM     19  O   UNL d   1       3.100  -1.125   0.181  0.00  0.00    -0.256 OA
BRANCH  18  20
ATOM     20  O   UNL d   1       2.739   1.138   0.404  0.00  0.00    -0.316 OA
BRANCH  20  21
ATOM     21  C   UNL d   1       4.061   1.331   0.921  0.00  0.00     0.175 C 
ATOM     22  C   UNL d   1       3.960   1.374   2.434  0.00  0.00     0.034 C 
ENDBRANCH  20  21
ENDBRANCH  18  20
ENDBRANCH   1  18
TORSDOF 7
