REMARK  6 active torsions:
REMARK  status: ('A' for Active; 'I' for Inactive)
REMARK    1  A    between atoms: N_2  and  C_1 
REMARK    2  A    between atoms: C_3  and  S_15 
REMARK    3  A    between atoms: N_10  and  C_5 
REMARK    4  A    between atoms: C_12  and  C_16 
REMARK    5  A    between atoms: S_15  and  C_13 
REMARK    6  A    between atoms: N_25  and  C_17 
ROOT
ATOM      1  S   UNL d   1       1.216  -3.007   0.288  0.00  0.00    -0.061 SA
ENDROOT
BRANCH   1   2
ATOM      2  C   UNL d   1       2.960  -2.939   0.184  0.00  0.00     0.135 A 
ATOM      3  S   UNL d   1       3.971  -2.563   1.506  0.00  0.00    -0.026 SA
ATOM      4  C   UNL d   1       5.325  -2.787   0.448  0.00  0.00     0.166 A 
ATOM      5  N   UNL d   1       4.962  -3.116  -0.781  0.00  0.00    -0.278 N 
ATOM      6  N   UNL d   1       3.593  -3.212  -0.933  0.00  0.00    -0.286 N 
ATOM      7  HN  UNL d   1       5.625  -3.281  -1.538  1.00  0.00     0.189 HD
ATOM      8  HN  UNL d   1       3.131  -3.464  -1.807  1.00  0.00     0.188 HD
BRANCH   4   9
ATOM      9  N   UNL d   1       6.569  -2.609   0.962  0.00  0.00    -0.332 N 
ATOM     10  C   UNL d   1       7.546  -2.728   0.125  0.00  0.00     0.179 C 
ATOM     11  HN  UNL d   1       6.723  -2.395   1.947  1.00  0.00     0.168 HD
BRANCH  10  12
ATOM     12  N   UNL d   1       8.885  -2.604   0.423  0.00  0.00    -0.386 N 
ATOM     13  C   UNL d   1       9.338  -2.234   1.755  0.00  0.00     0.149 C 
ATOM     14  C   UNL d   1       9.907  -2.632  -0.609  0.00  0.00     0.149 C 
ENDBRANCH  10  12
ENDBRANCH   4   9
ENDBRANCH   1   2
BRANCH   1  15
ATOM     15  C   UNL d   1       0.818  -1.378  -0.343  0.00  0.00     0.040 A 
ATOM     16  C   UNL d   1       0.032  -0.451   0.357  0.00  0.00     0.120 A 
ATOM     17  C   UNL d   1      -0.375   0.772  -0.207  0.00  0.00     0.053 A 
ATOM     18  C   UNL d   1       0.015   1.099  -1.513  0.00  0.00     0.050 A 
ATOM     19  C   UNL d   1       0.820   0.192  -2.218  0.00  0.00     0.017 A 
ATOM     20  C   UNL d   1       1.205  -1.029  -1.646  0.00  0.00     0.022 A 
BRANCH  16  21
ATOM     21  N   UNL d   1      -0.408  -0.723   1.712  0.00  0.00    -0.114 N 
ATOM     22  O   UNL d   1       0.468  -0.810   2.582  0.00  0.00    -0.532 OA
ATOM     23  O   UNL d   1      -1.629  -0.793   1.899  0.00  0.00    -0.532 OA
ENDBRANCH  16  21
BRANCH  18  24
ATOM     24  C   UNL d   1      -0.424   2.390  -2.166  0.00  0.00     0.417 C 
ATOM     25  F   UNL d   1      -1.253   3.135  -1.384  0.00  0.00    -0.166 F 
ATOM     26  F   UNL d   1       0.625   3.197  -2.477  0.00  0.00    -0.166 F 
ATOM     27  F   UNL d   1      -1.097   2.177  -3.329  0.00  0.00    -0.166 F 
ENDBRANCH  18  24
ENDBRANCH   1  15
TORSDOF 6
