REMARK  5 active torsions:
REMARK  status: ('A' for Active; 'I' for Inactive)
REMARK    1  A    between atoms: S_2  and  N_1 
REMARK    2  A    between atoms: C_13  and  S_2 
REMARK    3  A    between atoms: C_12  and  C_5 
REMARK    4  A    between atoms: O_21  and  C_12 
REMARK    5  A    between atoms: C_25  and  O_21 
ROOT
ATOM      1  N   UNL d   1       0.981  -0.702  -0.027  0.00  0.00    -0.175 N 
ATOM      2  C   UNL d   1      -0.327  -1.172  -0.046  0.00  0.00     0.106 A 
ATOM      3  C   UNL d   1      -0.769  -2.530  -0.065  0.00  0.00     0.130 A 
ATOM      4  C   UNL d   1      -1.867  -4.442  -0.369  0.00  0.00     0.132 A 
ATOM      5  C   UNL d   1      -1.875  -3.062  -0.692  0.00  0.00     0.079 A 
ATOM      6  N   UNL d   1      -0.829  -4.725   0.432  0.00  0.00    -0.255 N 
ATOM      7  HN  UNL d   1      -0.582  -5.637   0.818  1.00  0.00     0.195 HD
ATOM      8  O   UNL d   1      -0.164  -3.536   0.629  0.00  0.00    -0.235 OA
ATOM      9  N   UNL d   1       1.028   0.666   0.080  0.00  0.00    -0.295 N 
ATOM     10  HN  UNL d   1       1.852   1.256   0.194  1.00  0.00     0.187 HD
ATOM     11  C   UNL d   1      -1.125  -0.040  -0.069  0.00  0.00     0.054 A 
ATOM     12  C   UNL d   1      -0.244   1.047   0.003  0.00  0.00     0.111 A 
ENDROOT
BRANCH   1  13
ATOM     13  S   UNL d   1       2.411  -1.697   0.005  0.00  0.00     0.282 S 
ATOM     14  O   UNL d   1       2.092  -2.910  -0.720  0.00  0.00    -0.198 OA
ATOM     15  O   UNL d   1       3.505  -0.840  -0.421  0.00  0.00    -0.198 OA
BRANCH  13  16
ATOM     16  C   UNL d   1       2.647  -2.043   1.727  0.00  0.00     0.081 A 
ATOM     17  C   UNL d   1       2.692  -3.362   2.182  0.00  0.00     0.026 A 
ATOM     18  C   UNL d   1       2.920  -3.613   3.538  0.00  0.00     0.008 A 
ATOM     19  C   UNL d   1       3.111  -2.556   4.439  0.00  0.00    -0.062 A 
ATOM     20  C   UNL d   1       3.076  -1.238   3.966  0.00  0.00     0.008 A 
ATOM     21  C   UNL d   1       3.364  -2.847   5.890  0.00  0.00     0.048 C 
ATOM     22  C   UNL d   1       2.849  -0.979   2.613  0.00  0.00     0.026 A 
ENDBRANCH  13  16
ENDBRANCH   1  13
BRANCH   4  23
ATOM     23  C   UNL d   1      -2.864  -5.438  -0.745  0.00  0.00     0.311 C 
ATOM     24  O   UNL d   1      -3.885  -5.153  -1.363  0.00  0.00    -0.258 OA
BRANCH  23  25
ATOM     25  O   UNL d   1      -2.582  -6.677  -0.247  0.00  0.00    -0.317 OA
BRANCH  25  26
ATOM     26  C   UNL d   1      -3.702  -7.555  -0.100  0.00  0.00     0.175 C 
ATOM     27  C   UNL d   1      -4.360  -7.252   1.234  0.00  0.00     0.034 C 
ENDBRANCH  25  26
ENDBRANCH  23  25
ENDBRANCH   4  23
TORSDOF 5
