REMARK  3 active torsions:
REMARK  status: ('A' for Active; 'I' for Inactive)
REMARK    1  A    between atoms: C_2  and  S_1 
REMARK    2  A    between atoms: N_4  and  S_1 
REMARK    3  A    between atoms: N_11  and  N_4 
ROOT
ATOM      1  C   UNL d   1      -0.437  -0.638   1.507  0.00  0.00     0.106 A 
ATOM      2  C   UNL d   1      -1.439  -1.544   1.135  0.00  0.00     0.108 A 
ATOM      3  C   UNL d   1      -2.343  -2.126   2.127  0.00  0.00     0.086 A 
ATOM      4  N   UNL d   1      -1.774  -2.038  -0.064  0.00  0.00    -0.238 N 
ATOM      5  HN  UNL d   1      -1.347  -1.812  -0.963  1.00  0.00     0.197 HD
ATOM      6  O   UNL d   1      -2.819  -2.920   0.164  0.00  0.00    -0.156 OA
ATOM      7  N   UNL d   1      -3.171  -2.968   1.501  0.00  0.00    -0.239 N 
ATOM      8  HN  UNL d   1      -3.910  -3.531   1.922  1.00  0.00     0.197 HD
ATOM      9  C   UNL d   1      -0.409  -0.298   2.882  0.00  0.00     0.027 A 
ATOM     10  C   UNL d   1      -1.294  -0.862   3.836  0.00  0.00     0.004 A 
ATOM     11  C   UNL d   1      -2.277  -1.808   3.498  0.00  0.00     0.034 A 
ENDROOT
BRANCH   1  12
ATOM     12  S   UNL d   1       0.834  -0.104   0.417  0.00  0.00     0.257 S 
ATOM     13  O   UNL d   1       1.342  -1.270  -0.259  0.00  0.00    -0.205 OA
ATOM     14  O   UNL d   1       1.692   0.741   1.223  0.00  0.00    -0.205 OA
BRANCH  12  15
ATOM     15  N   UNL d   1      -0.021   0.879  -0.739  0.00  0.00    -0.145 NA
ATOM     16  H   UNL d   1      -0.586   0.207  -1.284  0.00  0.00     0.160 HD
BRANCH  15  17
ATOM     17  N   UNL d   1       0.899   1.529  -1.659  0.00  0.00    -0.234 NA
ATOM     18  C   UNL d   1       0.145   2.198  -2.756  0.00  0.00     0.135 C 
ATOM     19  C   UNL d   1      -0.645   3.436  -2.286  0.00  0.00     0.183 C 
ATOM     20  O   UNL d   1       0.182   4.381  -1.594  0.00  0.00    -0.389 OA
ATOM     21  C   UNL d   1       0.877   3.750  -0.507  0.00  0.00     0.183 C 
ATOM     22  C   UNL d   1       1.731   2.598  -1.038  0.00  0.00     0.135 C 
ENDBRANCH  15  17
ENDBRANCH  12  15
ENDBRANCH   1  12
TORSDOF 3
