REMARK  8 active torsions:
REMARK  status: ('A' for Active; 'I' for Inactive)
REMARK    1  A    between atoms: C_2  and  C_1 
REMARK    2  A    between atoms: C_15  and  C_3 
REMARK    3  A    between atoms: C_10  and  C_16 
REMARK    4  A    between atoms: C_11  and  C_17 
REMARK    5  A    between atoms: O_26  and  C_15 
REMARK    6  A    between atoms: C_19  and  C_20 
REMARK    7  A    between atoms: N_34  and  C_20 
REMARK    8  A    between atoms: N_21  and  O_26 
ROOT
ATOM      1  C   UNL d   1      -3.020  -4.263   0.286  0.00  0.00     0.109 C 
ATOM      2  N   UNL d   1      -2.073  -3.403   0.521  0.00  0.00    -0.246 N 
ATOM      3  HN  UNL d   1      -1.160  -3.641   0.910  1.00  0.00     0.196 HD
ENDROOT
BRANCH   2   4
ATOM      4  O   UNL d   1      -2.477  -2.087   0.166  0.00  0.00    -0.193 OA
BRANCH   4   5
ATOM      5  C   UNL d   1      -1.495  -1.163   0.448  0.00  0.00     0.320 C 
ATOM      6  O   UNL d   1      -0.408  -1.418   0.955  0.00  0.00    -0.257 OA
BRANCH   5   7
ATOM      7  C   UNL d   1      -1.887   0.192   0.082  0.00  0.00     0.102 A 
ATOM      8  C   UNL d   1      -1.033   1.254  -0.228  0.00  0.00     0.137 A 
ATOM      9  O   UNL d   1      -1.809   2.369  -0.409  0.00  0.00    -0.235 OA
ATOM     10  N   UNL d   1      -3.137   2.067  -0.293  0.00  0.00    -0.264 N 
ATOM     11  C   UNL d   1      -3.195   0.764  -0.014  0.00  0.00     0.048 A 
ATOM     12  HN  UNL d   1      -3.923   2.707  -0.398  1.00  0.00     0.194 HD
ATOM     13  C   UNL d   1      -4.544   0.169   0.154  0.00  0.00     0.071 C 
BRANCH   8  14
ATOM     14  C   UNL d   1       0.387   1.358  -0.429  0.00  0.00     0.083 A 
ATOM     15  C   UNL d   1       1.215   2.468  -0.275  0.00  0.00     0.043 A 
ATOM     16  N   UNL d   1       2.536   2.269  -0.666  0.00  0.00    -0.298 N 
ATOM     17  C   UNL d   1       0.860   3.826   0.217  0.00  0.00     0.071 C 
ATOM     18  N   UNL d   1       2.739   1.048  -1.123  0.00  0.00    -0.269 N 
ATOM     19  HN  UNL d   1       3.262   2.983  -0.605  1.00  0.00     0.187 HD
ATOM     20  S   UNL d   1       1.360   0.113  -1.102  0.00  0.00     0.006 SA
ATOM     21  HN  UNL d   1       3.643   0.713  -1.455  1.00  0.00     0.195 HD
ENDBRANCH   8  14
ENDBRANCH   5   7
ENDBRANCH   4   5
ENDBRANCH   2   4
BRANCH   1  22
ATOM     22  C   UNL d   1      -2.799  -5.717   0.586  0.00  0.00     0.005 A 
ATOM     23  C   UNL d   1      -1.827  -6.133   1.504  0.00  0.00     0.031 A 
ATOM     24  C   UNL d   1      -1.703  -7.496   1.849  0.00  0.00     0.049 A 
ATOM     25  C   UNL d   1      -2.561  -8.436   1.249  0.00  0.00     0.032 A 
ATOM     26  C   UNL d   1      -3.529  -8.037   0.316  0.00  0.00     0.049 A 
ATOM     27  C   UNL d   1      -3.625  -6.678  -0.020  0.00  0.00     0.031 A 
BRANCH  24  28
ATOM     28  C   UNL d   1      -0.683  -7.937   2.876  0.00  0.00     0.417 C 
ATOM     29  F   UNL d   1      -0.756  -9.267   3.167  0.00  0.00    -0.166 F 
ATOM     30  F   UNL d   1       0.597  -7.711   2.478  0.00  0.00    -0.166 F 
ATOM     31  F   UNL d   1      -0.834  -7.292   4.066  0.00  0.00    -0.166 F 
ENDBRANCH  24  28
BRANCH  26  32
ATOM     32  C   UNL d   1      -4.488  -9.028  -0.303  0.00  0.00     0.417 C 
ATOM     33  F   UNL d   1      -4.364 -10.290   0.190  0.00  0.00    -0.166 F 
ATOM     34  F   UNL d   1      -5.787  -8.671  -0.098  0.00  0.00    -0.166 F 
ATOM     35  F   UNL d   1      -4.336  -9.129  -1.651  0.00  0.00    -0.166 F 
ENDBRANCH  26  32
ENDBRANCH   1  22
BRANCH   1  36
ATOM     36  N   UNL d   1      -4.254  -3.892  -0.212  0.00  0.00    -0.286 NA
ATOM     37  H   UNL d   1      -5.048  -4.414   0.148  0.00  0.00     0.125 HD
ATOM     38  H   UNL d   1      -4.413  -2.895  -0.167  0.00  0.00     0.125 HD
ENDBRANCH   1  36
TORSDOF 8
