REMARK  3 active torsions:
REMARK  status: ('A' for Active; 'I' for Inactive)
REMARK    1  A    between atoms: N_7  and  C_3 
REMARK    2  A    between atoms: C_10  and  C_4 
REMARK    3  A    between atoms: C_14  and  N_7 
ROOT
ATOM      1  C   UNL d   1       0.758   1.224  -0.199  0.00  0.00     0.071 C 
ATOM      2  C   UNL d   1       1.480  -0.072  -0.053  0.00  0.00     0.173 C 
ATOM      3  C   UNL d   1       1.344   2.272  -0.802  0.00  0.00     0.107 C 
ATOM      4  C   UNL d   1       0.640  -1.331  -0.248  0.00  0.00     0.094 C 
ATOM      5  C   UNL d   1      -0.705   1.312   0.042  0.00  0.00     0.164 C 
ATOM      6  C   UNL d   1      -0.777  -1.174   0.325  0.00  0.00     0.025 C 
ATOM      7  O   UNL d   1       2.704  -0.089   0.081  0.00  0.00    -0.291 OA
ATOM      8  C   UNL d   1      -1.492   0.052  -0.223  0.00  0.00     0.085 C 
ATOM      9  O   UNL d   1      -1.254   2.369   0.327  0.00  0.00    -0.292 OA
ENDROOT
BRANCH   3  10
ATOM     10  N   UNL d   1       2.614   2.346  -1.323  0.00  0.00    -0.364 N 
ATOM     11  H   UNL d   1       3.200   1.518  -1.185  0.00  0.00     0.165 HD
BRANCH  10  12
ATOM     12  C   UNL d   1       3.155   3.371  -2.109  0.00  0.00     0.047 A 
ATOM     13  C   UNL d   1       4.096   3.084  -3.101  0.00  0.00     0.117 A 
ATOM     14  N   UNL d   1       4.624   3.989  -3.963  0.00  0.00    -0.373 N 
ATOM     15  C   UNL d   1       4.190   5.259  -3.836  0.00  0.00     0.088 A 
ATOM     16  HN  UNL d   1       5.311   3.723  -4.668  1.00  0.00     0.164 HD
ATOM     17  C   UNL d   1       3.252   5.658  -2.900  0.00  0.00     0.019 A 
ATOM     18  C   UNL d   1       2.722   4.697  -2.040  0.00  0.00     0.032 A 
ENDBRANCH  10  12
ENDBRANCH   3  10
BRANCH   4  19
ATOM     19  C   UNL d   1       1.289  -2.597   0.288  0.00  0.00    -0.046 A 
ATOM     20  C   UNL d   1       1.530  -2.779   1.659  0.00  0.00     0.008 A 
ATOM     21  C   UNL d   1       2.064  -3.980   2.132  0.00  0.00     0.001 A 
ATOM     22  C   UNL d   1       2.373  -5.007   1.243  0.00  0.00     0.000 A 
ATOM     23  C   UNL d   1       2.160  -4.831  -0.122  0.00  0.00     0.001 A 
ATOM     24  C   UNL d   1       1.623  -3.634  -0.597  0.00  0.00     0.008 A 
ENDBRANCH   4  19
TORSDOF 3
