REMARK  12 active torsions:
REMARK  status: ('A' for Active; 'I' for Inactive)
REMARK    1  A    between atoms: S_3  and  C_1 
REMARK    2  A    between atoms: C_8  and  S_3 
REMARK       I    between atoms: N_10  and  C_8 
REMARK    3  A    between atoms: C_13  and  C_9 
REMARK    4  A    between atoms: C_16  and  C_13 
REMARK    5  A    between atoms: C_23  and  C_16 
REMARK    6  A    between atoms: C_17  and  C_18 
REMARK    7  A    between atoms: C_18  and  C_22 
REMARK    8  A    between atoms: C_19  and  C_24 
REMARK    9  A    between atoms: C_20  and  C_19 
REMARK   10  A    between atoms: C_21  and  C_20 
REMARK   11  A    between atoms: C_22  and  C_21 
REMARK   12  A    between atoms: C_24  and  C_23 
ROOT
ATOM      1  C   UNL d   1       0.254   1.349  -0.649  0.00  0.00     0.171 C 
ATOM      2  N   UNL d   1       0.407   0.201  -1.385  0.00  0.00    -0.319 N 
ATOM      3  N   UNL d   1       1.372   1.602  -0.009  0.00  0.00    -0.278 N 
ATOM      4  HN  UNL d   1       1.570   2.432   0.549  1.00  0.00     0.189 HD
ATOM      5  N   UNL d   1       2.227   0.549  -0.223  0.00  0.00    -0.287 N 
ATOM      6  HN  UNL d   1       3.177   0.468   0.139  1.00  0.00     0.188 HD
ATOM      7  C   UNL d   1       1.610  -0.338  -0.976  0.00  0.00     0.099 C 
ATOM      8  C   UNL d   1      -0.448  -0.340  -2.410  0.00  0.00     0.159 C 
ENDROOT
BRANCH   7   9
ATOM      9  C   UNL d   1       2.115  -1.714  -1.274  0.00  0.00     0.078 C 
BRANCH   9  10
ATOM     10  C   UNL d   1       1.740  -2.692  -0.147  0.00  0.00     0.007 C 
BRANCH  10  11
ATOM     11  C   UNL d   1       2.326  -4.103  -0.301  0.00  0.00     0.000 C 
BRANCH  11  12
ATOM     12  C   UNL d   1       3.856  -4.122  -0.293  0.00  0.00     0.000 C 
BRANCH  12  13
ATOM     13  C   UNL d   1       4.413  -5.542  -0.397  0.00  0.00     0.000 C 
BRANCH  13  14
ATOM     14  C   UNL d   1       5.944  -5.523  -0.428  0.00  0.00     0.000 C 
BRANCH  14  15
ATOM     15  C   UNL d   1       6.500  -6.939  -0.556  0.00  0.00     0.000 C 
BRANCH  15  16
ATOM     16  C   UNL d   1       8.028  -6.951  -0.588  0.00  0.00     0.000 C 
BRANCH  16  17
ATOM     17  C   UNL d   1       8.544  -8.384  -0.717  0.00  0.00    -0.000 C 
BRANCH  17  18
ATOM     18  C   UNL d   1      10.069  -8.439  -0.747  0.00  0.00    -0.005 C 
ATOM     19  C   UNL d   1      10.560  -9.873  -0.873  0.00  0.00     0.005 C 
ENDBRANCH  17  18
ENDBRANCH  16  17
ENDBRANCH  15  16
ENDBRANCH  14  15
ENDBRANCH  13  14
ENDBRANCH  12  13
ENDBRANCH  11  12
ENDBRANCH  10  11
ENDBRANCH   9  10
ENDBRANCH   7   9
BRANCH   1  20
ATOM     20  S   UNL d   1      -1.255   2.125  -0.293  0.00  0.00     0.009 SA
BRANCH  20  21
ATOM     21  C   UNL d   1      -1.240   3.379  -1.517  0.00  0.00     0.288 C 
ATOM     22  N   UNL d   1      -1.374   4.705  -1.114  0.00  0.00    -0.351 N 
ATOM     23  C   UNL d   1      -1.558   5.701  -2.163  0.00  0.00     0.152 C 
ATOM     24  C   UNL d   1      -1.481   5.209   0.247  0.00  0.00     0.152 C 
ATOM     25  O   UNL d   1      -1.199   3.043  -2.701  0.00  0.00    -0.260 OA
ENDBRANCH  20  21
ENDBRANCH   1  20
TORSDOF 12
