REMARK  4 active torsions:
REMARK  status: ('A' for Active; 'I' for Inactive)
REMARK    1  A    between atoms: N_2  and  S_1 
REMARK    2  A    between atoms: C_6  and  S_1 
REMARK       I    between atoms: C_3  and  N_2 
REMARK       I    between atoms: N_5  and  C_3 
REMARK    3  A    between atoms: C_4  and  C_8 
REMARK    4  A    between atoms: C_8  and  N_7 
ROOT
ATOM      1  N   UNL d   1       1.055   1.806  -1.324  0.00  0.00    -0.232 N 
ATOM      2  C   UNL d   1       0.657   2.664  -0.305  0.00  0.00     0.332 C 
ATOM      3  N   UNL d   1       1.607   2.964   0.654  0.00  0.00    -0.330 N 
ATOM      4  N   UNL d   1       2.512   2.556   3.424  0.00  0.00     0.096 N 
ATOM      5  O   UNL d   1      -0.460   3.157  -0.288  0.00  0.00    -0.246 OA
ATOM      6  C   UNL d   1       2.807   2.170   0.932  0.00  0.00     0.158 C 
ATOM      7  C   UNL d   1       1.281   3.953   1.688  0.00  0.00     0.158 C 
ATOM      8  C   UNL d   1       2.739   1.560   2.350  0.00  0.00     0.292 C 
ATOM      9  C   UNL d   1       1.296   3.335   3.101  0.00  0.00     0.292 C 
ATOM     10  H   UNL d   1       2.021   1.562  -1.474  0.00  0.00     0.183 HD
ENDROOT
BRANCH   1  11
ATOM     11  S   UNL d   1       0.067   1.207  -2.515  0.00  0.00     0.266 S 
ATOM     12  O   UNL d   1      -1.067   0.543  -1.906  0.00  0.00    -0.200 OA
ATOM     13  O   UNL d   1       0.952   0.477  -3.401  0.00  0.00    -0.200 OA
BRANCH  11  14
ATOM     14  C   UNL d   1      -0.498   2.640  -3.391  0.00  0.00     0.080 A 
ATOM     15  C   UNL d   1       0.228   3.120  -4.485  0.00  0.00     0.026 A 
ATOM     16  C   UNL d   1      -0.260   4.212  -5.209  0.00  0.00     0.008 A 
ATOM     17  C   UNL d   1      -1.471   4.821  -4.851  0.00  0.00    -0.062 A 
ATOM     18  C   UNL d   1      -2.191   4.324  -3.758  0.00  0.00     0.008 A 
ATOM     19  C   UNL d   1      -1.996   5.980  -5.645  0.00  0.00     0.048 C 
ATOM     20  C   UNL d   1      -1.715   3.228  -3.038  0.00  0.00     0.026 A 
ENDBRANCH  11  14
ENDBRANCH   1  11
BRANCH   4  21
ATOM     21  C   UNL d   1       3.716   3.381   3.621  0.00  0.00     0.316 C 
BRANCH  21  22
ATOM     22  C   UNL d   1       3.660   4.371   4.758  0.00  0.00     0.030 A 
ATOM     23  C   UNL d   1       3.843   5.732   4.471  0.00  0.00     0.126 A 
ATOM     24  F   UNL d   1       3.990   6.132   3.199  0.00  0.00    -0.205 F 
ATOM     25  C   UNL d   1       3.895   6.700   5.470  0.00  0.00     0.043 A 
ATOM     26  C   UNL d   1       3.753   6.322   6.800  0.00  0.00     0.005 A 
ATOM     27  C   UNL d   1       3.553   4.978   7.115  0.00  0.00     0.024 A 
ATOM     28  C   UNL d   1       3.513   4.007   6.104  0.00  0.00     0.045 A 
ATOM     29 CL   UNL d   1       3.315   2.363   6.598  0.00  0.00    -0.084 Cl
ENDBRANCH  21  22
ENDBRANCH   4  21
TORSDOF 4
