REMARK  5 active torsions:
REMARK  status: ('A' for Active; 'I' for Inactive)
REMARK    1  A    between atoms: C_4  and  C_1 
REMARK    2  A    between atoms: C_8  and  C_1 
REMARK    3  A    between atoms: C_2  and  C_3 
REMARK    4  A    between atoms: C_7  and  C_2 
REMARK    5  A    between atoms: C_3  and  C_4 
ROOT
ATOM      1  C   UNL d   1       1.047  -2.606  -0.045  0.00  0.00     0.091 C 
ENDROOT
BRANCH   1   2
ATOM      2  C   UNL d   1       0.260  -3.898  -0.136  0.00  0.00     0.160 C 
ATOM      3  O   UNL d   1      -0.968  -3.918  -0.137  0.00  0.00    -0.292 OA
BRANCH   2   4
ATOM      4  C   UNL d   1       1.037  -5.178  -0.220  0.00  0.00     0.010 A 
ATOM      5  C   UNL d   1       2.440  -5.190  -0.240  0.00  0.00     0.015 A 
ATOM      6  C   UNL d   1       3.138  -6.397  -0.326  0.00  0.00     0.001 A 
ATOM      7  C   UNL d   1       2.441  -7.601  -0.388  0.00  0.00     0.000 A 
ATOM      8  C   UNL d   1       1.047  -7.602  -0.364  0.00  0.00     0.001 A 
ATOM      9  C   UNL d   1       0.345  -6.395  -0.282  0.00  0.00     0.015 A 
ENDBRANCH   2   4
ENDBRANCH   1   2
BRANCH   1  10
ATOM     10  C   UNL d   1       0.184  -1.345  -0.036  0.00  0.00     0.091 C 
BRANCH  10  11
ATOM     11  C   UNL d   1       1.078  -0.116   0.020  0.00  0.00     0.160 C 
ATOM     12  O   UNL d   1       2.304  -0.211   0.088  0.00  0.00    -0.292 OA
BRANCH  11  13
ATOM     13  C   UNL d   1       0.461   1.244  -0.005  0.00  0.00     0.010 A 
ATOM     14  C   UNL d   1      -0.921   1.440  -0.095  0.00  0.00     0.015 A 
ATOM     15  C   UNL d   1      -1.442   2.738  -0.115  0.00  0.00     0.001 A 
ATOM     16  C   UNL d   1      -0.590   3.841  -0.047  0.00  0.00     0.000 A 
ATOM     17  C   UNL d   1       0.787   3.652   0.042  0.00  0.00     0.001 A 
ATOM     18  C   UNL d   1       1.310   2.359   0.062  0.00  0.00     0.015 A 
ENDBRANCH  11  13
ENDBRANCH  10  11
ENDBRANCH   1  10
TORSDOF 5
