REMARK  4 active torsions:
REMARK  status: ('A' for Active; 'I' for Inactive)
REMARK    1  A    between atoms: C_6  and  C_1 
REMARK    2  A    between atoms: C_4  and  C_7 
REMARK       I    between atoms: N_9  and  C_6 
REMARK    3  A    between atoms: C_15  and  N_9 
REMARK    4  A    between atoms: C_16  and  C_15 
ROOT
ATOM      1  C   UNL d   1      -1.698   0.204  -0.013  0.00  0.00     0.054 A 
ATOM      2  N   UNL d   1       0.555   1.098  -0.028  0.00  0.00    -0.355 N 
ATOM      3  HN  UNL d   1       1.175   1.907  -0.069  1.00  0.00     0.166 HD
ATOM      4  C   UNL d   1      -0.805   1.275  -0.070  0.00  0.00     0.021 A 
ATOM      5  C   UNL d   1       1.078  -0.158   0.069  0.00  0.00     0.117 A 
ATOM      6  C   UNL d   1      -1.123  -1.078   0.110  0.00  0.00     0.021 A 
ATOM      7  C   UNL d   1       0.254  -1.268   0.149  0.00  0.00     0.035 A 
ATOM      8  C   UNL d   1      -1.206   2.712  -0.183  0.00  0.00     0.069 C 
ENDROOT
BRANCH   1   9
ATOM      9  C   UNL d   1      -3.192   0.206  -0.107  0.00  0.00     0.253 C 
ATOM     10  N   UNL d   1      -3.956   1.362  -0.157  0.00  0.00    -0.353 N 
ATOM     11  H   UNL d   1      -3.595   2.276   0.057  0.00  0.00     0.163 HD
ATOM     12  O   UNL d   1      -3.758  -0.894  -0.138  0.00  0.00    -0.268 OA
BRANCH  10  13
ATOM     13  C   UNL d   1      -5.395   1.170  -0.187  0.00  0.00     0.161 C 
BRANCH  13  14
ATOM     14  C   UNL d   1      -6.278   2.389  -0.248  0.00  0.00    -0.041 A 
ATOM     15  C   UNL d   1      -5.940   3.567  -0.925  0.00  0.00     0.009 A 
ATOM     16  C   UNL d   1      -6.876   4.601  -1.052  0.00  0.00     0.001 A 
ATOM     17  C   UNL d   1      -8.160   4.465  -0.525  0.00  0.00     0.000 A 
ATOM     18  C   UNL d   1      -8.514   3.297   0.140  0.00  0.00     0.001 A 
ATOM     19  C   UNL d   1      -7.581   2.270   0.276  0.00  0.00     0.009 A 
ENDBRANCH  13  14
ENDBRANCH  10  13
ENDBRANCH   1   9
BRANCH   5  20
ATOM     20  C   UNL d   1       2.587  -0.375   0.081  0.00  0.00     0.432 C 
ATOM     21  F   UNL d   1       3.325   0.763  -0.043  0.00  0.00    -0.165 F 
ATOM     22  F   UNL d   1       3.017  -0.975   1.232  0.00  0.00    -0.165 F 
ATOM     23  F   UNL d   1       3.001  -1.198  -0.928  0.00  0.00    -0.165 F 
ENDBRANCH   5  20
TORSDOF 4
