REMARK  9 active torsions:
REMARK  status: ('A' for Active; 'I' for Inactive)
REMARK    1  A    between atoms: N_2  and  S_1 
REMARK    2  A    between atoms: C_3  and  S_1 
REMARK    3  A    between atoms: C_13  and  N_4 
REMARK    4  A    between atoms: C_17  and  C_13 
REMARK    5  A    between atoms: C_19  and  C_16 
REMARK    6  A    between atoms: C_18  and  C_17 
REMARK    7  A    between atoms: C_22  and  C_19 
REMARK    8  A    between atoms: C_24  and  C_22 
REMARK    9  A    between atoms: C_23  and  C_24 
ROOT
ATOM      1  N   UNL d   1       0.600   0.736   1.244  0.00  0.00    -0.203 NA
ATOM      2  N   UNL d   1       1.800   3.450   1.610  0.00  0.00     0.091 N 
ATOM      3  C   UNL d   1      -0.205   1.966   0.961  0.00  0.00     0.138 C 
ATOM      4  C   UNL d   1       1.607   1.020   2.310  0.00  0.00     0.138 C 
ATOM      5  C   UNL d   1       0.701   3.188   0.647  0.00  0.00     0.287 C 
ATOM      6  C   UNL d   1       2.519   2.188   1.895  0.00  0.00     0.287 C 
ENDROOT
BRANCH   1   7
ATOM      7  S   UNL d   1       1.218  -0.096  -0.119  0.00  0.00     0.243 S 
ATOM      8  O   UNL d   1       2.373  -0.861   0.295  0.00  0.00    -0.206 OA
ATOM      9  O   UNL d   1       1.290   0.824  -1.234  0.00  0.00    -0.206 OA
BRANCH   7  10
ATOM     10  C   UNL d   1      -0.052  -1.284  -0.478  0.00  0.00     0.074 A 
ATOM     11  C   UNL d   1      -0.677  -1.292  -1.728  0.00  0.00     0.025 A 
ATOM     12  C   UNL d   1      -1.540  -2.340  -2.057  0.00  0.00     0.009 A 
ATOM     13  C   UNL d   1      -1.780  -3.379  -1.146  0.00  0.00    -0.058 A 
ATOM     14  C   UNL d   1      -1.151  -3.349   0.108  0.00  0.00     0.009 A 
ATOM     15  C   UNL d   1      -0.294  -2.302   0.446  0.00  0.00     0.025 A 
BRANCH  13  16
ATOM     16  C   UNL d   1      -2.704  -4.518  -1.512  0.00  0.00     0.038 C 
BRANCH  16  17
ATOM     17  C   UNL d   1      -3.909  -4.650  -0.575  0.00  0.00     0.005 C 
BRANCH  17  18
ATOM     18  C   UNL d   1      -4.793  -3.400  -0.575  0.00  0.00    -0.000 C 
BRANCH  18  19
ATOM     19  C   UNL d   1      -5.938  -3.531   0.425  0.00  0.00    -0.005 C 
ATOM     20  C   UNL d   1      -6.797  -2.276   0.440  0.00  0.00     0.005 C 
ENDBRANCH  18  19
ENDBRANCH  17  18
ENDBRANCH  16  17
ENDBRANCH  13  16
ENDBRANCH   7  10
ENDBRANCH   1   7
BRANCH   2  21
ATOM     21  C   UNL d   1       1.320   4.154   2.811  0.00  0.00     0.277 C 
BRANCH  21  22
ATOM     22  C   UNL d   1       2.469   4.662   3.701  0.00  0.00     0.068 C 
BRANCH  22  23
ATOM     23  C   UNL d   1       1.981   5.439   4.899  0.00  0.00    -0.057 A 
ATOM     24  C   UNL d   1       1.644   4.772   6.084  0.00  0.00     0.007 A 
ATOM     25  C   UNL d   1       1.237   5.490   7.208  0.00  0.00     0.001 A 
ATOM     26  C   UNL d   1       1.156   6.880   7.155  0.00  0.00     0.000 A 
ATOM     27  C   UNL d   1       1.470   7.552   5.974  0.00  0.00     0.001 A 
ATOM     28  C   UNL d   1       1.877   6.835   4.848  0.00  0.00     0.007 A 
ENDBRANCH  22  23
ENDBRANCH  21  22
ENDBRANCH   2  21
TORSDOF 9
