REMARK  4 active torsions:
REMARK  status: ('A' for Active; 'I' for Inactive)
REMARK    1  A    between atoms: C_3  and  C_1 
REMARK    2  A    between atoms: C_6  and  C_1 
REMARK    3  A    between atoms: C_2  and  C_3 
REMARK    4  A    between atoms: N_7  and  C_6 
ROOT
ATOM      1  C   UNL d   1       0.964   0.093   0.011  0.00  0.00     0.101 C 
ATOM      2  C   UNL d   1       0.285   1.233   0.284  0.00  0.00     0.060 C 
ATOM      3  S   UNL d   1      -1.446   1.284   0.521  0.00  0.00    -0.121 SA
ATOM      4  S   UNL d   1       1.145   2.737   0.589  0.00  0.00    -0.121 SA
ATOM      5  C   UNL d   1      -1.204   3.942  -0.278  0.00  0.00     0.021 C 
ATOM      6  C   UNL d   1      -1.928   2.636  -0.576  0.00  0.00     0.081 C 
ATOM      7  C   UNL d   1       0.292   3.862  -0.544  0.00  0.00     0.081 C 
ENDROOT
BRANCH   1   8
ATOM      8  C   UNL d   1       0.332  -1.263  -0.102  0.00  0.00     0.205 C 
ATOM      9  O   UNL d   1      -0.635  -1.597   0.575  0.00  0.00    -0.286 OA
BRANCH   8  10
ATOM     10  C   UNL d   1       0.984  -2.206  -1.009  0.00  0.00     0.047 A 
ATOM     11  C   UNL d   1       0.901  -3.589  -0.896  0.00  0.00     0.063 A 
ATOM     12  O   UNL d   1       1.623  -4.194  -1.879  0.00  0.00    -0.326 OA
ATOM     13  C   UNL d   1       0.228  -4.516   0.043  0.00  0.00     0.077 C 
ATOM     14  C   UNL d   1       2.168  -3.216  -2.638  0.00  0.00     0.143 A 
ATOM     15  C   UNL d   1       1.794  -1.982  -2.168  0.00  0.00     0.042 A 
ENDBRANCH   8  10
ENDBRANCH   1   8
BRANCH   1  16
ATOM     16  C   UNL d   1       2.484   0.093   0.011  0.00  0.00    -0.031 C 
BRANCH  16  17
ATOM     17  N   UNL d   1       3.745   0.093   0.011  0.00  0.00    -0.365 N 
ATOM     18  HN2 UNL d   1       2.725   0.093   0.011  1.00  0.00     0.165 HD
ATOM     19  HN1 UNL d   1       4.765   0.093   0.011  1.00  0.00     0.165 HD
ENDBRANCH  16  17
ENDBRANCH   1  16
TORSDOF 4
