REMARK  1 active torsions:
REMARK  status: ('A' for Active; 'I' for Inactive)
REMARK    1  A    between atoms: C_12  and  C_4 
ROOT
ATOM      1  C   UNL d   1      -1.132  -0.864   0.080  0.00  0.00     0.048 A 
ATOM      2  C   UNL d   1      -0.698   0.399   0.067  0.00  0.00     0.058 A 
ATOM      3  C   UNL d   1       0.040  -1.747   0.117  0.00  0.00     0.194 A 
ATOM      4  C   UNL d   1      -2.557  -1.243   0.011  0.00  0.00     0.157 C 
ATOM      5  N   UNL d   1      -1.569   1.438   0.024  0.00  0.00    -0.332 N 
ATOM      6  C   UNL d   1      -2.925   1.253   0.043  0.00  0.00     0.173 C 
ATOM      7  C   UNL d   1       0.746   0.447   0.058  0.00  0.00     0.006 A 
ATOM      8  N   UNL d   1      -3.383  -0.032   0.110  0.00  0.00    -0.354 N 
ATOM      9  C   UNL d   1       1.212  -0.868   0.073  0.00  0.00     0.027 A 
ATOM     10  S   UNL d   1      -3.974   2.540   0.001  0.00  0.00    -0.041 SA
ATOM     11  O   UNL d   1       0.044  -2.959   0.194  0.00  0.00    -0.287 OA
ATOM     12  C   UNL d   1       1.644   1.499   0.023  0.00  0.00     0.014 A 
ATOM     13  C   UNL d   1       2.554  -1.194   0.045  0.00  0.00     0.016 A 
ATOM     14  C   UNL d   1       3.013   1.198  -0.001  0.00  0.00     0.001 A 
ATOM     15  C   UNL d   1       3.464  -0.137   0.007  0.00  0.00     0.001 A 
ATOM     16  H   UNL d   1      -1.231   2.393  -0.009  0.00  0.00     0.168 HD
ATOM     17  H   UNL d   1      -4.387  -0.153   0.082  0.00  0.00     0.163 HD
ENDROOT
BRANCH   4  18
ATOM     18  C   UNL d   1      -2.903  -1.998  -1.259  0.00  0.00    -0.031 A 
ATOM     19  C   UNL d   1      -3.393  -3.311  -1.191  0.00  0.00     0.009 A 
ATOM     20  C   UNL d   1      -3.642  -4.037  -2.358  0.00  0.00     0.001 A 
ATOM     21  C   UNL d   1      -3.407  -3.460  -3.604  0.00  0.00     0.000 A 
ATOM     22  C   UNL d   1      -2.946  -2.149  -3.689  0.00  0.00     0.001 A 
ATOM     23  C   UNL d   1      -2.702  -1.420  -2.526  0.00  0.00     0.009 A 
ENDBRANCH   4  18
TORSDOF 1
