REMARK  3 active torsions:
REMARK  status: ('A' for Active; 'I' for Inactive)
REMARK    1  A    between atoms: C_7  and  C_1 
REMARK    2  A    between atoms: C_8  and  CA_2 
REMARK    3  A    between atoms: O_9  and  C_8 
ROOT
ATOM      1  C   UNL d   1       0.598  -1.087   0.073  0.00  0.00     0.111 A 
ATOM      2  CA  UNL d   1       0.048  -0.349   1.106  0.00  0.00     0.069 A 
ATOM      3  N   UNL d   1      -0.867   0.559   0.601  0.00  0.00    -0.346 N 
ATOM      4  HN  UNL d   1      -1.430   1.239   1.111  1.00  0.00     0.167 HD
ATOM      5  C   UNL d   1      -0.836   0.333  -0.693  0.00  0.00     0.234 A 
ATOM      6  O   UNL d   1       0.019  -0.647  -1.091  0.00  0.00    -0.303 OA
ENDROOT
BRANCH   1   7
ATOM      7  C   UNL d   1       1.569  -2.167  -0.039  0.00  0.00    -0.000 A 
ATOM      8  C   UNL d   1       1.504  -3.087  -1.096  0.00  0.00     0.014 A 
ATOM      9  C   UNL d   1       2.388  -4.168  -1.159  0.00  0.00     0.001 A 
ATOM     10  C   UNL d   1       3.352  -4.340  -0.169  0.00  0.00     0.000 A 
ATOM     11  C   UNL d   1       3.448  -3.421   0.872  0.00  0.00     0.001 A 
ATOM     12  C   UNL d   1       2.568  -2.338   0.930  0.00  0.00     0.014 A 
ENDBRANCH   1   7
BRANCH   2  13
ATOM     13  C   UNL d   1       0.285  -0.435   2.572  0.00  0.00     0.224 C 
BRANCH  13  14
ATOM     14  O   UNL d   1      -0.865  -0.048   3.324  0.00  0.00    -0.395 OA
ATOM     15  H   UNL d   1      -1.362   0.548   2.732  0.00  0.00     0.209 HD
ENDBRANCH  13  14
ENDBRANCH   2  13
TORSDOF 3
