REMARK  9 active torsions:
REMARK  status: ('A' for Active; 'I' for Inactive)
REMARK    1  A    between atoms: N_2  and  C_1 
REMARK    2  A    between atoms: C_3  and  C_1 
REMARK    3  A    between atoms: C_4  and  C_1 
REMARK    4  A    between atoms: N_5  and  C_1 
REMARK       I    between atoms: C_6  and  N_2 
REMARK    5  A    between atoms: O_14  and  C_4 
REMARK    6  A    between atoms: C_12  and  N_5 
REMARK    7  A    between atoms: O_13  and  C_6 
REMARK    8  A    between atoms: C_21  and  O_13 
REMARK    9  A    between atoms: C_22  and  O_14 
ROOT
ATOM      1  C   UNL d   1       0.939  -0.038  -0.167  0.00  0.00     0.282 C 
ENDROOT
BRANCH   1   2
ATOM      2  N   UNL d   1       0.402  -0.508  -1.428  0.00  0.00    -0.298 N 
ATOM      3  C   UNL d   1      -0.931  -0.642  -1.630  0.00  0.00     0.362 C 
ATOM      4  O   UNL d   1      -1.772  -0.516  -0.760  0.00  0.00    -0.238 OA
ATOM      5  H   UNL d   1       1.012  -0.527  -2.226  0.00  0.00     0.167 HD
BRANCH   3   6
ATOM      6  O   UNL d   1      -1.145  -0.972  -2.921  0.00  0.00    -0.304 OA
BRANCH   6   7
ATOM      7  C   UNL d   1      -2.471  -1.422  -3.218  0.00  0.00     0.176 C 
ATOM      8  C   UNL d   1      -2.504  -2.925  -3.018  0.00  0.00     0.034 C 
ENDBRANCH   6   7
ENDBRANCH   3   6
ENDBRANCH   1   2
BRANCH   1   9
ATOM      9  C   UNL d   1       0.380  -0.654   1.168  0.00  0.00     0.436 C 
ATOM     10  F   UNL d   1      -0.258  -1.836   0.974  0.00  0.00    -0.166 F 
ATOM     11  F   UNL d   1       1.392  -0.922   2.042  0.00  0.00    -0.166 F 
ATOM     12  F   UNL d   1      -0.475   0.159   1.832  0.00  0.00    -0.166 F 
ENDBRANCH   1   9
BRANCH   1  13
ATOM     13  C   UNL d   1       0.611   1.481  -0.088  0.00  0.00     0.312 C 
ATOM     14  O   UNL d   1      -0.106   2.093  -0.867  0.00  0.00    -0.260 OA
BRANCH  13  15
ATOM     15  O   UNL d   1       1.293   2.079   0.940  0.00  0.00    -0.319 OA
BRANCH  15  16
ATOM     16  C   UNL d   1       0.997   3.477   1.107  0.00  0.00     0.174 C 
ATOM     17  C   UNL d   1       1.834   4.306   0.150  0.00  0.00     0.034 C 
ENDBRANCH  15  16
ENDBRANCH  13  15
ENDBRANCH   1  13
BRANCH   1  18
ATOM     18  N   UNL d   1       2.420  -0.196  -0.375  0.00  0.00    -0.250 NA
ATOM     19  H   UNL d   1       2.936   0.456   0.219  0.00  0.00     0.131 HD
BRANCH  18  20
ATOM     20  C   UNL d   1       3.059  -1.438  -0.417  0.00  0.00     0.011 A 
ATOM     21  C   UNL d   1       2.400  -2.668  -0.525  0.00  0.00     0.025 A 
ATOM     22  C   UNL d   1       3.106  -3.872  -0.633  0.00  0.00     0.025 A 
ATOM     23  C   UNL d   1       4.495  -3.859  -0.677  0.00  0.00     0.034 A 
ATOM     24  C   UNL d   1       5.176  -2.649  -0.615  0.00  0.00     0.025 A 
ATOM     25 CL   UNL d   1       5.362  -5.335  -0.825  0.00  0.00    -0.084 Cl
ATOM     26  C   UNL d   1       4.465  -1.452  -0.493  0.00  0.00     0.025 A 
ENDBRANCH  18  20
ENDBRANCH   1  18
TORSDOF 9
