REMARK  2 active torsions:
REMARK  status: ('A' for Active; 'I' for Inactive)
REMARK    1  A    between atoms: C_6  and  N_1 
REMARK    2  A    between atoms: C_12  and  C_6 
ROOT
ATOM      1  N   UNL d   1       1.033  -0.722   0.103  0.00  0.00    -0.253 N 
ATOM      2  N   UNL d   1       0.614  -0.546  -1.204  0.00  0.00    -0.300 N 
ATOM      3  HN  UNL d   1       1.174  -0.882  -1.988  1.00  0.00     0.187 HD
ATOM      4  C   UNL d   1       0.320  -0.288   1.212  0.00  0.00     0.262 A 
ATOM      5  C   UNL d   1      -0.959   0.399   0.933  0.00  0.00     0.078 A 
ATOM      6  C   UNL d   1      -0.515   0.060  -1.396  0.00  0.00     0.022 A 
ATOM      7  C   UNL d   1      -1.380   0.578  -0.319  0.00  0.00     0.031 A 
ATOM      8  O   UNL d   1       0.676  -0.423   2.380  0.00  0.00    -0.267 OA
ATOM      9  C   UNL d   1      -0.985   0.282  -2.810  0.00  0.00     0.069 C 
ENDROOT
BRANCH   1  10
ATOM     10  C   UNL d   1       2.320  -1.381   0.290  0.00  0.00     0.191 C 
BRANCH  10  11
ATOM     11  C   UNL d   1       2.198  -2.887   0.375  0.00  0.00    -0.037 A 
ATOM     12  C   UNL d   1       2.233  -3.670  -0.789  0.00  0.00     0.034 A 
ATOM     13  C   UNL d   1       2.115  -5.063  -0.717  0.00  0.00     0.056 A 
ATOM     14 CL   UNL d   1       2.179  -5.953  -2.197  0.00  0.00    -0.083 Cl
ATOM     15  C   UNL d   1       1.954  -5.685   0.526  0.00  0.00     0.055 A 
ATOM     16  C   UNL d   1       1.912  -4.912   1.689  0.00  0.00     0.026 A 
ATOM     17 CL   UNL d   1       1.796  -7.398   0.693  0.00  0.00    -0.083 Cl
ATOM     18  C   UNL d   1       2.029  -3.521   1.614  0.00  0.00     0.011 A 
ENDBRANCH  10  11
ENDBRANCH   1  10
TORSDOF 2
