REMARK  6 active torsions:
REMARK  status: ('A' for Active; 'I' for Inactive)
REMARK    1  A    between atoms: N_3  and  C_1 
REMARK    2  A    between atoms: N_4  and  C_1 
REMARK    3  A    between atoms: C_2  and  C_7 
REMARK    4  A    between atoms: O_17  and  C_2 
REMARK    5  A    between atoms: C_9  and  N_3 
REMARK    6  A    between atoms: C_12  and  N_4 
ROOT
ATOM      1  C   UNL d   1       0.982  -0.130   0.171  0.00  0.00     0.176 C 
ATOM      2  S   UNL d   1       0.517  -1.100  -1.122  0.00  0.00    -0.041 SA
ENDROOT
BRANCH   1   3
ATOM      3  N   UNL d   1       2.258  -0.113   0.742  0.00  0.00    -0.333 N 
ATOM      4  H   UNL d   1       2.226  -0.156   1.755  0.00  0.00     0.168 HD
BRANCH   3   5
ATOM      5  C   UNL d   1       3.459  -0.536   0.134  0.00  0.00     0.035 A 
ATOM      6  C   UNL d   1       3.727  -0.285  -1.216  0.00  0.00     0.055 A 
ATOM      7  C   UNL d   1       4.907  -0.746  -1.804  0.00  0.00     0.058 A 
ATOM      8 CL   UNL d   1       5.152  -0.409  -3.481  0.00  0.00    -0.082 Cl
ATOM      9  C   UNL d   1       5.838  -1.448  -1.034  0.00  0.00     0.055 A 
ATOM     10  C   UNL d   1       5.599  -1.648   0.329  0.00  0.00     0.028 A 
ATOM     11 CL   UNL d   1       7.295  -2.091  -1.702  0.00  0.00    -0.083 Cl
ATOM     12  C   UNL d   1       4.421  -1.177   0.917  0.00  0.00     0.031 A 
ENDBRANCH   3   5
ENDBRANCH   1   3
BRANCH   1  13
ATOM     13  N   UNL d   1       0.160   0.774   0.852  0.00  0.00    -0.333 N 
ATOM     14  H   UNL d   1       0.616   1.659   1.043  0.00  0.00     0.168 HD
BRANCH  13  15
ATOM     15  C   UNL d   1      -1.251   0.782   0.865  0.00  0.00     0.035 A 
ATOM     16  C   UNL d   1      -1.976  -0.409   0.926  0.00  0.00     0.047 A 
ATOM     17  C   UNL d   1      -3.374  -0.401   0.890  0.00  0.00     0.041 A 
ATOM     18  C   UNL d   1      -4.051   0.822   0.842  0.00  0.00     0.018 A 
ATOM     19  C   UNL d   1      -3.331   2.020   0.842  0.00  0.00     0.003 A 
ATOM     20  C   UNL d   1      -1.933   2.002   0.866  0.00  0.00     0.029 A 
BRANCH  17  21
ATOM     21  C   UNL d   1      -4.154  -1.667   0.881  0.00  0.00     0.293 C 
ATOM     22  O   UNL d   1      -5.375  -1.711   0.875  0.00  0.00    -0.259 OA
BRANCH  21  23
ATOM     23  O   UNL d   1      -3.318  -2.733   0.862  0.00  0.00    -0.323 OA
ATOM     24  C   UNL d   1      -3.963  -4.003   0.776  0.00  0.00     0.213 C 
ENDBRANCH  21  23
ENDBRANCH  17  21
ENDBRANCH  13  15
ENDBRANCH   1  13
TORSDOF 6
