REMARK  5 active torsions:
REMARK  status: ('A' for Active; 'I' for Inactive)
REMARK    1  A    between atoms: C_10  and  C_3 
REMARK    2  A    between atoms: C_14  and  C_4 
REMARK    3  A    between atoms: S_13  and  C_9 
REMARK    4  A    between atoms: C_17  and  S_13 
REMARK    5  A    between atoms: C_19  and  C_17 
ROOT
ATOM      1  N   UNL d   1       2.638   2.573   0.984  0.00  0.00    -0.335 N 
ATOM      2  HN  UNL d   1       1.941   2.632   1.727  1.00  0.00     0.168 HD
ATOM      3  C   UNL d   1       3.710   3.377   0.965  0.00  0.00     0.144 A 
ATOM      4  C   UNL d   1       2.521   1.681  -0.024  0.00  0.00     0.062 A 
ATOM      5  N   UNL d   1       4.660   3.361   0.016  0.00  0.00    -0.347 N 
ATOM      6  HN  UNL d   1       5.454   4.000   0.039  1.00  0.00     0.167 HD
ATOM      7  C   UNL d   1       3.447   1.579  -1.038  0.00  0.00     0.049 A 
ATOM      8  C   UNL d   1       4.505   2.453  -0.968  0.00  0.00     0.092 A 
ENDROOT
BRANCH   4   9
ATOM      9  C   UNL d   1       1.345   0.812   0.004  0.00  0.00     0.066 A 
ATOM     10  N   UNL d   1       1.138  -0.198  -0.933  0.00  0.00    -0.348 N 
ATOM     11  C   UNL d   1      -0.006  -0.817  -0.698  0.00  0.00     0.084 A 
ATOM     12  HN  UNL d   1       1.779  -0.426  -1.693  1.00  0.00     0.166 HD
ATOM     13  S   UNL d   1      -0.868  -0.236   0.680  0.00  0.00    -0.081 SA
ATOM     14  C   UNL d   1       0.353   0.924   0.958  0.00  0.00     0.083 A 
BRANCH  11  15
ATOM     15  C   UNL d   1      -0.518  -1.958  -1.480  0.00  0.00    -0.002 A 
ATOM     16  C   UNL d   1       0.390  -2.832  -2.098  0.00  0.00     0.014 A 
ATOM     17  C   UNL d   1      -0.058  -3.941  -2.823  0.00  0.00     0.001 A 
ATOM     18  C   UNL d   1      -1.423  -4.186  -2.951  0.00  0.00     0.000 A 
ATOM     19  C   UNL d   1      -2.340  -3.319  -2.363  0.00  0.00     0.001 A 
ATOM     20  C   UNL d   1      -1.891  -2.212  -1.636  0.00  0.00     0.014 A 
ENDBRANCH  11  15
ENDBRANCH   4   9
BRANCH   3  21
ATOM     21  S   UNL d   1       3.881   4.474   2.348  0.00  0.00    -0.089 SA
BRANCH  21  22
ATOM     22  C   UNL d   1       4.806   5.828   1.569  0.00  0.00     0.121 C 
BRANCH  22  23
ATOM     23  C   UNL d   1       5.082   6.939   2.559  0.00  0.00    -0.048 A 
ATOM     24  C   UNL d   1       6.238   6.907   3.357  0.00  0.00     0.009 A 
ATOM     25  C   UNL d   1       6.492   7.924   4.282  0.00  0.00     0.024 A 
ATOM     26  C   UNL d   1       5.591   8.976   4.419  0.00  0.00     0.034 A 
ATOM     27  C   UNL d   1       4.433   9.017   3.645  0.00  0.00     0.024 A 
ATOM     28 CL   UNL d   1       5.906  10.230   5.554  0.00  0.00    -0.084 Cl
ATOM     29  C   UNL d   1       4.178   8.000   2.720  0.00  0.00     0.009 A 
ENDBRANCH  22  23
ENDBRANCH  21  22
ENDBRANCH   3  21
TORSDOF 5
