REMARK  4 active torsions:
REMARK  status: ('A' for Active; 'I' for Inactive)
REMARK    1  A    between atoms: N_9  and  C_1 
REMARK    2  A    between atoms: C_15  and  N_2 
REMARK    3  A    between atoms: C_3  and  C_15 
REMARK    4  A    between atoms: S_18  and  C_10 
ROOT
ATOM      1  C   UNL d   1      -0.293  -1.381   0.183  0.00  0.00     0.150 A 
ATOM      2  N   UNL d   1       0.991   0.405   0.197  0.00  0.00    -0.287 N 
ATOM      3  N   UNL d   1      -0.265   0.895   0.075  0.00  0.00    -0.300 N 
ATOM      4  HN  UNL d   1      -0.548   1.872   0.007  1.00  0.00     0.187 HD
ATOM      5  C   UNL d   1       1.022  -0.963   0.350  0.00  0.00     0.060 A 
ATOM      6  C   UNL d   1      -1.051  -0.188   0.064  0.00  0.00     0.057 A 
ATOM      7  C   UNL d   1       2.271  -1.733   0.606  0.00  0.00     0.072 C 
ATOM      8  C   UNL d   1      -2.522  -0.021  -0.077  0.00  0.00     0.072 C 
ENDROOT
BRANCH   2   9
ATOM      9  C   UNL d   1       2.113   1.311  -0.025  0.00  0.00     0.227 C 
BRANCH   9  10
ATOM     10  C   UNL d   1       2.592   1.941   1.232  0.00  0.00     0.120 A 
ATOM     11  N   UNL d   1       2.110   3.102   1.796  0.00  0.00    -0.318 N 
ATOM     12  C   UNL d   1       2.963   3.386   2.829  0.00  0.00     0.159 A 
ATOM     13  C   UNL d   1       0.961   3.868   1.390  0.00  0.00     0.160 C 
ATOM     14  N   UNL d   1       3.856   2.433   2.940  0.00  0.00    -0.278 N 
ATOM     15  N   UNL d   1       3.628   1.527   1.936  0.00  0.00    -0.285 N 
ATOM     16  HN  UNL d   1       4.589   2.375   3.646  1.00  0.00     0.189 HD
ATOM     17  HN  UNL d   1       4.168   0.678   1.763  1.00  0.00     0.188 HD
BRANCH  12  18
ATOM     18  S   UNL d   1       2.894   4.797   3.824  0.00  0.00    -0.105 SA
ATOM     19  H   UNL d   1       2.145   5.593   3.051  0.00  0.00     0.110 HD
ENDBRANCH  12  18
ENDBRANCH   9  10
ENDBRANCH   2   9
BRANCH   1  20
ATOM     20  N   UNL d   1      -0.778  -2.737   0.132  0.00  0.00    -0.112 N 
ATOM     21  O   UNL d   1       0.058  -3.647   0.172  0.00  0.00    -0.532 OA
ATOM     22  O   UNL d   1      -2.001  -2.895   0.021  0.00  0.00    -0.532 OA
ENDBRANCH   1  20
TORSDOF 4
