REMARK  3 active torsions:
REMARK  status: ('A' for Active; 'I' for Inactive)
REMARK    1  A    between atoms: C_2  and  S_1 
REMARK    2  A    between atoms: N_3  and  S_1 
REMARK    3  A    between atoms: N_5  and  C_6 
REMARK       I    between atoms: C_10  and  N_5 
ROOT
ATOM      1  C   UNL d   1       0.476  -0.567   1.632  0.00  0.00     0.076 A 
ATOM      2  C   UNL d   1       0.264   0.290   2.712  0.00  0.00     0.050 A 
ATOM      3  C   UNL d   1      -0.350  -1.636   4.097  0.00  0.00     0.056 A 
ATOM      4  C   UNL d   1      -0.151  -0.247   3.934  0.00  0.00     0.062 A 
ATOM      5  C   UNL d   1       0.293  -1.943   1.771  0.00  0.00     0.027 A 
ATOM      6  C   UNL d   1      -0.115  -2.472   3.001  0.00  0.00     0.033 A 
ATOM      7 CL   UNL d   1      -0.409   0.844   5.254  0.00  0.00    -0.082 Cl
ENDROOT
BRANCH   1   8
ATOM      8  S   UNL d   1       1.067   0.094   0.096  0.00  0.00     0.243 S 
ATOM      9  O   UNL d   1       0.979  -0.945  -0.912  0.00  0.00    -0.206 OA
ATOM     10  O   UNL d   1       2.319   0.758   0.384  0.00  0.00    -0.206 OA
BRANCH   8  11
ATOM     11  N   UNL d   1      -0.082   1.291  -0.316  0.00  0.00    -0.206 NA
ATOM     12  C   UNL d   1      -1.445   0.809  -0.671  0.00  0.00     0.107 C 
ATOM     13  C   UNL d   1      -1.536   0.967  -2.180  0.00  0.00     0.017 C 
ATOM     14  C   UNL d   1      -0.770   2.250  -2.425  0.00  0.00     0.017 C 
ATOM     15  C   UNL d   1       0.381   2.180  -1.431  0.00  0.00     0.107 C 
ENDBRANCH   8  11
ENDBRANCH   1   8
BRANCH   3  16
ATOM     16  N   UNL d   1      -0.780  -2.121   5.360  0.00  0.00    -0.326 N 
ATOM     17  C   UNL d   1      -1.037  -3.429   5.720  0.00  0.00     0.218 C 
ATOM     18  O   UNL d   1      -0.926  -4.420   5.007  0.00  0.00    -0.274 OA
ATOM     19  C   UNL d   1      -1.525  -3.572   7.142  0.00  0.00     0.117 C 
ATOM     20  H   UNL d   1      -0.915  -1.403   6.065  0.00  0.00     0.169 HD
ENDBRANCH   3  16
TORSDOF 3
