REMARK  4 active torsions:
REMARK  status: ('A' for Active; 'I' for Inactive)
REMARK    1  A    between atoms: C_5  and  C_1 
REMARK    2  A    between atoms: O_11  and  C_14 
REMARK    3  A    between atoms: C_16  and  O_11 
REMARK    4  A    between atoms: C_12  and  C_16 
ROOT
ATOM      1  C   UNL d   1       0.003  -2.312   0.926  0.00  0.00    -0.035 A 
ATOM      2  C   UNL d   1      -0.090  -2.002   2.293  0.00  0.00     0.012 A 
ATOM      3  C   UNL d   1      -0.006  -3.667   0.554  0.00  0.00     0.012 A 
ATOM      4  C   UNL d   1      -0.279  -4.351   2.858  0.00  0.00     0.069 A 
ATOM      5  C   UNL d   1      -0.222  -3.014   3.248  0.00  0.00     0.037 A 
ATOM      6  C   UNL d   1      -0.138  -4.677   1.511  0.00  0.00     0.037 A 
ENDROOT
BRANCH   4   7
ATOM      7  O   UNL d   1      -0.471  -5.251   3.871  0.00  0.00    -0.347 OA
BRANCH   7   8
ATOM      8  C   UNL d   1      -1.029  -6.505   3.476  0.00  0.00     0.214 C 
BRANCH   8   9
ATOM      9  C   UNL d   1      -1.660  -7.170   4.677  0.00  0.00    -0.032 A 
ATOM     10  C   UNL d   1      -2.641  -6.496   5.422  0.00  0.00     0.035 A 
ATOM     11  C   UNL d   1      -3.273  -7.121   6.502  0.00  0.00     0.056 A 
ATOM     12 CL   UNL d   1      -4.477  -6.226   7.359  0.00  0.00    -0.083 Cl
ATOM     13  C   UNL d   1      -2.928  -8.432   6.844  0.00  0.00     0.055 A 
ATOM     14  C   UNL d   1      -1.952  -9.109   6.106  0.00  0.00     0.026 A 
ATOM     15 CL   UNL d   1      -3.671  -9.276   8.156  0.00  0.00    -0.083 Cl
ATOM     16  C   UNL d   1      -1.323  -8.483   5.027  0.00  0.00     0.011 A 
ENDBRANCH   8   9
ENDBRANCH   7   8
ENDBRANCH   4   7
BRANCH   1  17
ATOM     17  C   UNL d   1       0.082  -1.244  -0.146  0.00  0.00     0.141 C 
ATOM     18  S   UNL d   1       1.530  -0.156   0.044  0.00  0.00    -0.148 SA
ATOM     19  C   UNL d   1       0.686   1.381  -0.403  0.00  0.00     0.085 C 
ATOM     20  C   UNL d   1      -0.697   1.336   0.214  0.00  0.00     0.085 C 
ATOM     21  S   UNL d   1      -1.447  -0.249  -0.232  0.00  0.00    -0.148 SA
ENDBRANCH   1  17
TORSDOF 4
