REMARK  4 active torsions:
REMARK  status: ('A' for Active; 'I' for Inactive)
REMARK    1  A    between atoms: C_7  and  C_1 
REMARK    2  A    between atoms: C_11  and  C_5 
REMARK       I    between atoms: N_8  and  C_7 
REMARK    3  A    between atoms: N_10  and  N_8 
REMARK       I    between atoms: C_9  and  N_10 
REMARK    4  A    between atoms: C_16  and  C_9 
ROOT
ATOM      1  C   UNL d   1      -0.092  -1.137  -0.016  0.00  0.00     0.098 A 
ATOM      2  S   UNL d   1       1.430  -0.346  -0.032  0.00  0.00    -0.064 SA
ATOM      3  N   UNL d   1      -0.662   1.136  -0.038  0.00  0.00    -0.352 N 
ATOM      4  HN  UNL d   1      -1.276   1.949  -0.069  1.00  0.00     0.166 HD
ATOM      5  C   UNL d   1       0.655   1.194  -0.013  0.00  0.00     0.085 A 
ATOM      6  C   UNL d   1      -1.099  -0.183  -0.019  0.00  0.00     0.029 A 
ATOM      7  C   UNL d   1      -2.568  -0.428  -0.003  0.00  0.00     0.070 C 
ENDROOT
BRANCH   1   8
ATOM      8  C   UNL d   1      -0.230  -2.585   0.002  0.00  0.00     0.279 C 
ATOM      9  N   UNL d   1       0.940  -3.328  -0.030  0.00  0.00    -0.263 N 
ATOM     10  H   UNL d   1       1.869  -2.913  -0.078  0.00  0.00     0.190 HD
ATOM     11  O   UNL d   1      -1.319  -3.161   0.044  0.00  0.00    -0.265 OA
BRANCH   9  12
ATOM     12  N   UNL d   1       0.861  -4.728  -0.023  0.00  0.00    -0.267 N 
ATOM     13  C   UNL d   1       2.031  -5.462  -0.059  0.00  0.00     0.239 C 
ATOM     14  O   UNL d   1       3.135  -4.921  -0.105  0.00  0.00    -0.271 OA
ATOM     15  H   UNL d   1      -0.068  -5.135   0.068  0.00  0.00     0.190 HD
BRANCH  13  16
ATOM     16  C   UNL d   1       1.828  -6.977   0.003  0.00  0.00     0.071 C 
ATOM     17  C   UNL d   1       1.001  -7.481  -1.179  0.00  0.00     0.019 C 
ATOM     18  C   UNL d   1       3.168  -7.712   0.045  0.00  0.00     0.019 C 
ENDBRANCH  13  16
ENDBRANCH   9  12
ENDBRANCH   1   8
BRANCH   5  19
ATOM     19  C   UNL d   1       1.428   2.451  -0.006  0.00  0.00    -0.002 A 
ATOM     20  C   UNL d   1       0.872   3.611  -0.574  0.00  0.00     0.016 A 
ATOM     21  C   UNL d   1       1.575   4.822  -0.582  0.00  0.00     0.024 A 
ATOM     22  C   UNL d   1       2.841   4.890  -0.010  0.00  0.00     0.034 A 
ATOM     23  C   UNL d   1       3.407   3.760   0.573  0.00  0.00     0.024 A 
ATOM     24 CL   UNL d   1       3.710   6.375  -0.014  0.00  0.00    -0.084 Cl
ATOM     25  C   UNL d   1       2.704   2.549   0.577  0.00  0.00     0.016 A 
ENDBRANCH   5  19
TORSDOF 4
