REMARK  5 active torsions:
REMARK  status: ('A' for Active; 'I' for Inactive)
REMARK    1  A    between atoms: C_7  and  N_1 
REMARK    2  A    between atoms: S_8  and  C_2 
REMARK    3  A    between atoms: C_20  and  S_8 
REMARK    4  A    between atoms: C_9  and  N_12 
REMARK    5  A    between atoms: C_11  and  C_20 
REMARK       I    between atoms: N_12  and  C_11 
ROOT
ATOM      1  N   UNL d   1      -0.176   0.623  -0.900  0.00  0.00    -0.241 N 
ATOM      2  C   UNL d   1       1.083   0.597  -0.375  0.00  0.00     0.170 A 
ATOM      3  C   UNL d   1      -0.966  -0.024   0.029  0.00  0.00     0.347 A 
ATOM      4  N   UNL d   1       1.174   0.026   0.795  0.00  0.00    -0.275 N 
ATOM      5  HN  UNL d   1       2.007  -0.098   1.371  1.00  0.00     0.189 HD
ATOM      6  N   UNL d   1      -0.103  -0.366   1.069  0.00  0.00    -0.249 N 
ATOM      7  O   UNL d   1      -2.166  -0.235   0.018  0.00  0.00    -0.245 OA
ATOM      8  H   UNL d   1      -0.372  -0.824   1.934  0.00  0.00     0.192 HD
ENDROOT
BRANCH   2   9
ATOM      9  S   UNL d   1       2.466   1.185  -1.257  0.00  0.00    -0.083 SA
BRANCH   9  10
ATOM     10  C   UNL d   1       3.787   0.689  -0.135  0.00  0.00     0.185 C 
BRANCH  10  11
ATOM     11  C   UNL d   1       5.178   1.179  -0.501  0.00  0.00     0.231 C 
ATOM     12  N   UNL d   1       5.294   2.055  -1.565  0.00  0.00    -0.326 N 
ATOM     13  H   UNL d   1       4.424   2.364  -1.989  0.00  0.00     0.169 HD
ATOM     14  O   UNL d   1       6.119   0.811   0.207  0.00  0.00    -0.272 OA
BRANCH  12  15
ATOM     15  C   UNL d   1       6.489   2.683  -2.000  0.00  0.00     0.037 A 
ATOM     16  C   UNL d   1       7.763   2.271  -1.592  0.00  0.00     0.053 A 
ATOM     17  C   UNL d   1       8.899   2.988  -1.970  0.00  0.00     0.037 A 
ATOM     18 CL   UNL d   1      10.450   2.476  -1.423  0.00  0.00    -0.084 Cl
ATOM     19  C   UNL d   1       8.791   4.117  -2.771  0.00  0.00     0.048 A 
ATOM     20  C   UNL d   1       7.532   4.502  -3.221  0.00  0.00     0.037 A 
ATOM     21  C   UNL d   1       6.386   3.786  -2.856  0.00  0.00     0.053 A 
ATOM     22 CL   UNL d   1       7.386   5.899  -4.218  0.00  0.00    -0.084 Cl
ENDBRANCH  12  15
ENDBRANCH  10  11
ENDBRANCH   9  10
ENDBRANCH   2   9
BRANCH   1  23
ATOM     23  C   UNL d   1      -0.639   1.172  -2.110  0.00  0.00     0.049 A 
ATOM     24  C   UNL d   1      -0.201   2.429  -2.538  0.00  0.00     0.072 A 
ATOM     25  C   UNL d   1      -0.591   2.920  -3.777  0.00  0.00     0.118 A 
ATOM     26  F   UNL d   1      -0.150   4.121  -4.173  0.00  0.00    -0.206 F 
ATOM     27  C   UNL d   1      -1.420   2.182  -4.610  0.00  0.00     0.042 A 
ATOM     28  C   UNL d   1      -1.903   0.950  -4.175  0.00  0.00     0.005 A 
ATOM     29  C   UNL d   1      -1.533   0.456  -2.919  0.00  0.00     0.030 A 
ENDBRANCH   1  23
TORSDOF 5
