REMARK  7 active torsions:
REMARK  status: ('A' for Active; 'I' for Inactive)
REMARK    1  A    between atoms: S_2  and  N_1 
REMARK    2  A    between atoms: S_3  and  N_1 
REMARK    3  A    between atoms: C_4  and  N_1 
REMARK    4  A    between atoms: C_5  and  S_2 
REMARK    5  A    between atoms: C_6  and  S_3 
REMARK    6  A    between atoms: O_19  and  C_15 
REMARK    7  A    between atoms: C_21  and  O_19 
ROOT
ATOM      1  N   UNL d   1       0.879  -0.015   0.201  0.00  0.00    -0.156 N 
ENDROOT
BRANCH   1   2
ATOM      2  S   UNL d   1      -0.017  -1.419   0.121  0.00  0.00     0.278 S 
ATOM      3  O   UNL d   1      -0.365  -1.779   1.480  0.00  0.00    -0.199 OA
ATOM      4  O   UNL d   1      -1.052  -1.302  -0.884  0.00  0.00    -0.199 OA
BRANCH   2   5
ATOM      5  C   UNL d   1       1.088  -2.690  -0.470  0.00  0.00     0.082 A 
ATOM      6  C   UNL d   1       1.716  -3.531   0.454  0.00  0.00     0.049 A 
ATOM      7  C   UNL d   1       2.558  -4.538  -0.008  0.00  0.00     0.035 A 
ATOM      8 CL   UNL d   1       3.356  -5.560   1.121  0.00  0.00    -0.084 Cl
ATOM      9  C   UNL d   1       2.760  -4.722  -1.375  0.00  0.00     0.024 A 
ATOM     10  C   UNL d   1       2.110  -3.895  -2.295  0.00  0.00     0.003 A 
ATOM     11  C   UNL d   1       1.265  -2.879  -1.846  0.00  0.00     0.025 A 
ENDBRANCH   2   5
ENDBRANCH   1   2
BRANCH   1  12
ATOM     12  S   UNL d   1       0.143   1.466  -0.029  0.00  0.00     0.278 S 
ATOM     13  O   UNL d   1       1.072   2.502   0.388  0.00  0.00    -0.199 OA
ATOM     14  O   UNL d   1      -0.423   1.524  -1.360  0.00  0.00    -0.199 OA
BRANCH  12  15
ATOM     15  C   UNL d   1      -1.184   1.493   1.161  0.00  0.00     0.082 A 
ATOM     16  C   UNL d   1      -2.452   1.015   0.820  0.00  0.00     0.049 A 
ATOM     17  C   UNL d   1      -3.471   1.060   1.770  0.00  0.00     0.035 A 
ATOM     18 CL   UNL d   1      -5.025   0.428   1.387  0.00  0.00    -0.084 Cl
ATOM     19  C   UNL d   1      -3.246   1.611   3.032  0.00  0.00     0.024 A 
ATOM     20  C   UNL d   1      -1.990   2.126   3.353  0.00  0.00     0.003 A 
ATOM     21  C   UNL d   1      -0.956   2.068   2.419  0.00  0.00     0.025 A 
ENDBRANCH  12  15
ENDBRANCH   1  12
BRANCH   1  22
ATOM     22  C   UNL d   1       2.294  -0.068   0.047  0.00  0.00     0.078 A 
ATOM     23  C   UNL d   1       2.905   0.160  -1.182  0.00  0.00     0.121 A 
ATOM     24  N   UNL d   1       4.234   0.040  -1.391  0.00  0.00    -0.344 N 
ATOM     25  C   UNL d   1       5.001  -0.280  -0.323  0.00  0.00     0.148 A 
ATOM     26  HN  UNL d   1       4.642   0.183  -2.315  1.00  0.00     0.167 HD
ATOM     27  C   UNL d   1       4.484  -0.543   0.937  0.00  0.00     0.059 A 
ATOM     28  C   UNL d   1       3.105  -0.434   1.123  0.00  0.00     0.037 A 
BRANCH  25  29
ATOM     29  O   UNL d   1       6.380  -0.381  -0.468  0.00  0.00    -0.292 OA
BRANCH  29  30
ATOM     30  C   UNL d   1       6.965   0.324  -1.492  0.00  0.00     0.094 A 
ATOM     31  C   UNL d   1       6.617   1.632  -1.834  0.00  0.00     0.064 A 
ATOM     32  C   UNL d   1       7.264   2.249  -2.897  0.00  0.00     0.052 A 
ATOM     33 CL   UNL d   1       6.811   3.830  -3.389  0.00  0.00    -0.083 Cl
ATOM     34  C   UNL d   1       8.273   1.558  -3.551  0.00  0.00     0.111 A 
ATOM     35  N   UNL d   1       8.675   0.309  -3.211  0.00  0.00    -0.371 N 
ATOM     36  C   UNL d   1       8.008  -0.278  -2.186  0.00  0.00     0.124 A 
ATOM     37  HN  UNL d   1       9.436  -0.163  -3.698  1.00  0.00     0.164 HD
ENDBRANCH  29  30
ENDBRANCH  25  29
ENDBRANCH   1  22
TORSDOF 7
