REMARK  5 active torsions:
REMARK  status: ('A' for Active; 'I' for Inactive)
REMARK    1  A    between atoms: S_9  and  C_1 
REMARK    2  A    between atoms: N_8  and  C_2 
REMARK    3  A    between atoms: C_22  and  N_6 
REMARK    4  A    between atoms: C_7  and  S_9 
REMARK    5  A    between atoms: C_14  and  C_16 
ROOT
ATOM      1  C   UNL d   1       2.360   0.101   0.262  0.00  0.00     0.154 A 
ATOM      2  N   UNL d   1       1.666  -1.015   0.260  0.00  0.00    -0.334 N 
ATOM      3  HN  UNL d   1       2.026  -1.966   0.343  1.00  0.00     0.168 HD
ATOM      4  N   UNL d   1       1.566   1.202   0.036  0.00  0.00    -0.321 N 
ATOM      5  C   UNL d   1       0.360  -0.635   0.123  0.00  0.00     0.062 A 
ATOM      6  C   UNL d   1       0.253   0.748   0.020  0.00  0.00     0.063 A 
ATOM      7  C   UNL d   1      -2.057  -0.806   0.011  0.00  0.00     0.050 A 
ATOM      8  C   UNL d   1      -0.797  -1.429   0.105  0.00  0.00     0.048 A 
ATOM      9  C   UNL d   1      -0.987   1.396  -0.066  0.00  0.00     0.033 A 
ATOM     10  C   UNL d   1      -2.134   0.594  -0.062  0.00  0.00     0.018 A 
ENDROOT
BRANCH   1  11
ATOM     11  S   UNL d   1       4.074   0.164   0.505  0.00  0.00    -0.028 SA
BRANCH  11  12
ATOM     12  C   UNL d   1       4.220  -0.787   1.972  0.00  0.00     0.121 A 
ATOM     13  S   UNL d   1       3.117  -0.751   3.297  0.00  0.00    -0.039 SA
ATOM     14  C   UNL d   1       4.118  -1.837   4.131  0.00  0.00     0.161 A 
ATOM     15  C   UNL d   1       5.246  -2.126   3.405  0.00  0.00     0.133 A 
ATOM     16  N   UNL d   1       5.310  -1.504   2.171  0.00  0.00    -0.352 N 
ATOM     17  HN  UNL d   1       6.085  -1.587   1.512  1.00  0.00     0.166 HD
BRANCH  14  18
ATOM     18  N   UNL d   1       3.781  -2.334   5.426  0.00  0.00    -0.107 N 
ATOM     19  O   UNL d   1       4.569  -3.150   5.922  0.00  0.00    -0.531 OA
ATOM     20  O   UNL d   1       2.747  -1.917   5.963  0.00  0.00    -0.531 OA
ENDBRANCH  14  18
ENDBRANCH  11  12
ENDBRANCH   1  11
BRANCH   4  21
ATOM     21  C   UNL d   1       1.923   2.614  -0.105  0.00  0.00     0.084 C 
ATOM     22  C   UNL d   1       2.037   3.302   1.255  0.00  0.00     0.032 C 
ATOM     23  C   UNL d   1       3.133   2.920  -0.992  0.00  0.00     0.032 C 
ENDBRANCH   4  21
BRANCH   7  24
ATOM     24  C   UNL d   1      -3.322  -1.627   0.004  0.00  0.00     0.417 C 
ATOM     25  F   UNL d   1      -3.107  -2.971   0.036  0.00  0.00    -0.166 F 
ATOM     26  F   UNL d   1      -4.125  -1.351   1.069  0.00  0.00    -0.166 F 
ATOM     27  F   UNL d   1      -4.083  -1.398  -1.103  0.00  0.00    -0.166 F 
ENDBRANCH   7  24
TORSDOF 5
