REMARK  2 active torsions:
REMARK  status: ('A' for Active; 'I' for Inactive)
REMARK    1  A    between atoms: O_7  and  C_2 
REMARK    2  A    between atoms: C_8  and  O_7 
ROOT
ATOM      1  C   UNL d   1       2.674  -0.532   0.008  0.00  0.00     0.109 A 
ATOM      2  C   UNL d   1       1.581  -1.316   0.001  0.00  0.00     0.113 A 
ATOM      3  C   UNL d   1       2.536   0.964  -0.061  0.00  0.00     0.267 A 
ATOM      4  N   UNL d   1       1.244   1.492  -0.029  0.00  0.00    -0.317 N 
ATOM      5  C   UNL d   1       0.229  -0.731  -0.036  0.00  0.00     0.026 A 
ATOM      6  C   UNL d   1       0.082   0.666  -0.033  0.00  0.00     0.050 A 
ATOM      7  O   UNL d   1       3.533   1.684  -0.106  0.00  0.00    -0.267 OA
ATOM      8  I   UNL d   1       4.605  -1.287   0.214  0.00  0.00    -0.036 I 
ATOM      9  C   UNL d   1       1.097   2.941   0.014  0.00  0.00     0.159 C 
ATOM     10  C   UNL d   1      -0.920  -1.543  -0.053  0.00  0.00     0.016 A 
ATOM     11  C   UNL d   1      -1.213   1.216  -0.035  0.00  0.00     0.031 A 
ATOM     12  C   UNL d   1      -2.198  -0.983  -0.059  0.00  0.00     0.001 A 
ATOM     13  C   UNL d   1      -2.343   0.398  -0.048  0.00  0.00     0.002 A 
ENDROOT
BRANCH   2  14
ATOM     14  O   UNL d   1       1.629  -2.712   0.200  0.00  0.00    -0.277 OA
BRANCH  14  15
ATOM     15  C   UNL d   1       1.909  -3.460  -0.915  0.00  0.00     0.260 C 
ATOM     16  O   UNL d   1       2.170  -3.035  -2.033  0.00  0.00    -0.265 OA
ATOM     17  C   UNL d   1       1.853  -4.919  -0.564  0.00  0.00     0.126 C 
ENDBRANCH  14  15
ENDBRANCH   2  14
TORSDOF 2
