REMARK  5 active torsions:
REMARK  status: ('A' for Active; 'I' for Inactive)
REMARK    1  A    between atoms: C_2  and  C_1 
REMARK       I    between atoms: N_5  and  C_2 
REMARK    2  A    between atoms: C_11  and  N_5 
REMARK    3  A    between atoms: C_6  and  S_7 
REMARK    4  A    between atoms: S_7  and  C_15 
REMARK    5  A    between atoms: C_15  and  C_11 
ROOT
ATOM      1  C   UNL d   1       1.061  -2.440  -0.595  0.00  0.00     0.254 C 
ATOM      2  O   UNL d   1       0.530  -3.417  -1.113  0.00  0.00    -0.268 OA
ATOM      3  N   UNL d   1       2.325  -2.485  -0.052  0.00  0.00    -0.356 N 
ATOM      4  H   UNL d   1       2.657  -1.702   0.504  0.00  0.00     0.162 HD
ENDROOT
BRANCH   1   5
ATOM      5  C   UNL d   1       0.337  -1.141  -0.546  0.00  0.00     0.070 A 
ATOM      6  C   UNL d   1       0.859   0.006   0.056  0.00  0.00     0.132 A 
ATOM      7  F   UNL d   1       2.062  -0.006   0.652  0.00  0.00    -0.205 F 
ATOM      8  C   UNL d   1       0.144   1.203   0.060  0.00  0.00     0.043 A 
ATOM      9  C   UNL d   1      -1.110   1.266  -0.545  0.00  0.00     0.003 A 
ATOM     10  C   UNL d   1      -1.647   0.131  -1.149  0.00  0.00     0.001 A 
ATOM     11  C   UNL d   1      -0.927  -1.067  -1.150  0.00  0.00     0.020 A 
ENDBRANCH   1   5
BRANCH   3  12
ATOM     12  C   UNL d   1       3.074  -3.721   0.040  0.00  0.00     0.133 C 
BRANCH  12  13
ATOM     13  C   UNL d   1       4.583  -3.483   0.079  0.00  0.00     0.094 C 
BRANCH  13  14
ATOM     14  S   UNL d   1       5.066  -2.498   1.551  0.00  0.00    -0.159 SA
BRANCH  14  15
ATOM     15  C   UNL d   1       6.906  -2.415   1.364  0.00  0.00    -0.003 C 
ATOM     16  C   UNL d   1       7.282  -1.626   0.104  0.00  0.00     0.026 C 
ATOM     17  C   UNL d   1       7.450  -1.675   2.598  0.00  0.00     0.026 C 
ATOM     18  C   UNL d   1       7.511  -3.822   1.326  0.00  0.00     0.026 C 
ENDBRANCH  14  15
ENDBRANCH  13  14
ENDBRANCH  12  13
ENDBRANCH   3  12
TORSDOF 5
