REMARK  2 active torsions:
REMARK  status: ('A' for Active; 'I' for Inactive)
REMARK    1  A    between atoms: O_10  and  C_2 
REMARK    2  A    between atoms: C_13  and  O_10 
ROOT
ATOM      1  C   UNL d   1      -1.553  -0.279  -0.076  0.00  0.00     0.122 A 
ATOM      2  C   UNL d   1      -1.077  -1.535  -0.094  0.00  0.00     0.145 A 
ATOM      3  C   UNL d   1      -0.690   0.929  -0.014  0.00  0.00     0.207 A 
ATOM      4  C   UNL d   1       0.408  -1.744  -0.034  0.00  0.00     0.218 A 
ATOM      5  C   UNL d   1       1.291  -0.563  -0.015  0.00  0.00     0.031 A 
ATOM      6  C   UNL d   1       0.765   0.723  -0.009  0.00  0.00     0.030 A 
ATOM      7  O   UNL d   1       0.929  -2.854  -0.002  0.00  0.00    -0.284 OA
ATOM      8  O   UNL d   1      -1.141   2.068   0.028  0.00  0.00    -0.286 OA
ATOM      9 CL   UNL d   1      -3.264   0.032  -0.127  0.00  0.00    -0.077 Cl
ATOM     10  C   UNL d   1       2.683  -0.744  -0.003  0.00  0.00     0.016 A 
ATOM     11  C   UNL d   1       1.625   1.831   0.003  0.00  0.00     0.016 A 
ATOM     12  C   UNL d   1       3.008   1.647   0.011  0.00  0.00     0.001 A 
ATOM     13  C   UNL d   1       3.538   0.359   0.010  0.00  0.00     0.001 A 
ENDROOT
BRANCH   2  14
ATOM     14  O   UNL d   1      -1.987  -2.589  -0.163  0.00  0.00    -0.346 OA
BRANCH  14  15
ATOM     15  C   UNL d   1      -1.502  -3.929  -0.217  0.00  0.00     0.171 C 
ATOM     16  C   UNL d   1      -2.696  -4.861  -0.331  0.00  0.00     0.034 C 
ENDBRANCH  14  15
ENDBRANCH   2  14
TORSDOF 2
