REMARK  5 active torsions:
REMARK  status: ('A' for Active; 'I' for Inactive)
REMARK    1  A    between atoms: N_4  and  S_1 
REMARK    2  A    between atoms: C_8  and  S_1 
REMARK    3  A    between atoms: C_5  and  C_2 
REMARK    4  A    between atoms: C_3  and  N_4 
REMARK    5  A    between atoms: O_15  and  C_5 
ROOT
ATOM      1  N   UNL d   1       0.669  -1.517  -0.301  0.00  0.00    -0.180 NA
ATOM      2  H   UNL d   1      -0.291  -1.792  -0.076  0.00  0.00     0.146 HD
ENDROOT
BRANCH   1   3
ATOM      3  C   UNL d   1       1.038  -1.973  -1.596  0.00  0.00     0.046 A 
ATOM      4  C   UNL d   1       2.310  -2.294  -2.049  0.00  0.00     0.102 A 
ATOM      5  S   UNL d   1       2.261  -2.806  -3.697  0.00  0.00    -0.094 SA
ATOM      6  C   UNL d   1       0.573  -2.632  -3.790  0.00  0.00     0.052 A 
ATOM      7  C   UNL d   1       0.041  -2.190  -2.603  0.00  0.00     0.033 A 
BRANCH   4   8
ATOM      8  C   UNL d   1       3.571  -2.268  -1.320  0.00  0.00     0.301 C 
ATOM      9  O   UNL d   1       3.709  -1.950  -0.144  0.00  0.00    -0.259 OA
BRANCH   8  10
ATOM     10  O   UNL d   1       4.605  -2.685  -2.112  0.00  0.00    -0.322 OA
ATOM     11  C   UNL d   1       5.897  -2.732  -1.504  0.00  0.00     0.213 C 
ENDBRANCH   8  10
ENDBRANCH   4   8
ENDBRANCH   1   3
BRANCH   1  12
ATOM     12  S   UNL d   1       0.660   0.186  -0.078  0.00  0.00     0.245 S 
ATOM     13  O   UNL d   1      -0.689   0.602  -0.403  0.00  0.00    -0.206 OA
ATOM     14  O   UNL d   1       1.817   0.779  -0.710  0.00  0.00    -0.206 OA
BRANCH  12  15
ATOM     15  C   UNL d   1       0.862   0.338   1.682  0.00  0.00     0.074 A 
ATOM     16  C   UNL d   1       2.028  -0.138   2.287  0.00  0.00     0.026 A 
ATOM     17  C   UNL d   1       2.189  -0.016   3.670  0.00  0.00     0.025 A 
ATOM     18  C   UNL d   1       1.191   0.586   4.436  0.00  0.00     0.034 A 
ATOM     19  C   UNL d   1       0.032   1.075   3.832  0.00  0.00     0.025 A 
ATOM     20 CL   UNL d   1       1.390   0.730   6.139  0.00  0.00    -0.084 Cl
ATOM     21  C   UNL d   1      -0.136   0.952   2.449  0.00  0.00     0.026 A 
ENDBRANCH  12  15
ENDBRANCH   1  12
TORSDOF 5
