REMARK  9 active torsions:
REMARK  status: ('A' for Active; 'I' for Inactive)
REMARK    1  A    between atoms: N_5  and  S_1 
REMARK    2  A    between atoms: C_10  and  S_1 
REMARK    3  A    between atoms: C_15  and  C_2 
REMARK    4  A    between atoms: C_4  and  C_3 
REMARK    5  A    between atoms: N_12  and  N_5 
REMARK    6  A    between atoms: C_6  and  C_13 
REMARK    7  A    between atoms: C_7  and  C_14 
REMARK    8  A    between atoms: C_11  and  N_12 
REMARK    9  A    between atoms: O_34  and  C_15 
ROOT
ATOM      1  N   UNL d   1       0.364  -0.694   1.227  0.00  0.00    -0.208 N 
ATOM      2  H   UNL d   1      -0.534  -0.291   1.505  0.00  0.00     0.201 HD
ENDROOT
BRANCH   1   3
ATOM      3  S   UNL d   1       1.102  -0.113  -0.176  0.00  0.00     0.276 S 
ATOM      4  O   UNL d   1       2.498   0.101   0.124  0.00  0.00    -0.199 OA
ATOM      5  O   UNL d   1       0.258   0.910  -0.740  0.00  0.00    -0.199 OA
BRANCH   3   6
ATOM      6  C   UNL d   1       0.989  -1.547  -1.229  0.00  0.00     0.082 A 
ATOM      7  C   UNL d   1      -0.272  -2.046  -1.565  0.00  0.00     0.041 A 
ATOM      8  C   UNL d   1      -0.383  -3.193  -2.365  0.00  0.00     0.050 A 
ATOM      9  C   UNL d   1       0.793  -3.818  -2.825  0.00  0.00     0.032 A 
ATOM     10  C   UNL d   1       2.065  -3.300  -2.517  0.00  0.00     0.050 A 
ATOM     11  C   UNL d   1       2.154  -2.165  -1.698  0.00  0.00     0.041 A 
BRANCH   8  12
ATOM     12  C   UNL d   1      -1.736  -3.748  -2.748  0.00  0.00     0.417 C 
ATOM     13  F   UNL d   1      -2.778  -3.014  -2.270  0.00  0.00    -0.166 F 
ATOM     14  F   UNL d   1      -1.905  -3.807  -4.097  0.00  0.00    -0.166 F 
ATOM     15  F   UNL d   1      -1.926  -5.015  -2.289  0.00  0.00    -0.166 F 
ENDBRANCH   8  12
BRANCH  10  16
ATOM     16  C   UNL d   1       3.309  -3.943  -3.093  0.00  0.00     0.417 C 
ATOM     17  F   UNL d   1       4.459  -3.299  -2.753  0.00  0.00    -0.166 F 
ATOM     18  F   UNL d   1       3.465  -5.232  -2.688  0.00  0.00    -0.166 F 
ATOM     19  F   UNL d   1       3.285  -3.975  -4.454  0.00  0.00    -0.166 F 
ENDBRANCH  10  16
ENDBRANCH   3   6
ENDBRANCH   1   3
BRANCH   1  20
ATOM     20  N   UNL d   1       0.994  -1.758   1.989  0.00  0.00    -0.122 N 
ATOM     21  H   UNL d   1       1.986  -1.926   1.831  0.00  0.00     0.206 HD
BRANCH  20  22
ATOM     22  C   UNL d   1       0.535  -2.309   3.177  0.00  0.00     0.697 A 
ATOM     23  N   UNL d   1       1.460  -2.899   3.940  0.00  0.00    -0.184 N 
ATOM     24  C   UNL d   1       1.114  -3.412   5.164  0.00  0.00     0.150 A 
ATOM     25  HN  UNL d   1       2.423  -2.969   3.611  1.00  0.00     0.184 HD
ATOM     26  C   UNL d   1      -0.203  -3.403   5.585  0.00  0.00     0.087 A 
ATOM     27  C   UNL d   1      -1.094  -2.806   4.707  0.00  0.00     0.126 A 
ATOM     28  N   UNL d   1      -0.753  -2.238   3.523  0.00  0.00    -0.199 N 
ATOM     29  HN  UNL d   1      -1.444  -1.782   2.927  1.00  0.00     0.183 HD
BRANCH  24  30
ATOM     30  C   UNL d   1       2.299  -3.911   5.966  0.00  0.00     0.434 C 
ATOM     31  F   UNL d   1       2.077  -4.267   7.257  0.00  0.00    -0.165 F 
ATOM     32  F   UNL d   1       2.896  -4.989   5.377  0.00  0.00    -0.165 F 
ATOM     33  F   UNL d   1       3.280  -2.959   6.049  0.00  0.00    -0.165 F 
ENDBRANCH  24  30
BRANCH  26  34
ATOM     34  C   UNL d   1      -0.771  -3.900   6.856  0.00  0.00     0.296 C 
ATOM     35  O   UNL d   1      -1.727  -3.388   7.394  0.00  0.00    -0.259 OA
BRANCH  34  36
ATOM     36  O   UNL d   1      -0.137  -5.023   7.252  0.00  0.00    -0.322 OA
ATOM     37  C   UNL d   1      -0.558  -5.534   8.520  0.00  0.00     0.213 C 
ENDBRANCH  34  36
ENDBRANCH  26  34
ENDBRANCH  20  22
ENDBRANCH   1  20
TORSDOF 9
