REMARK  8 active torsions:
REMARK  status: ('A' for Active; 'I' for Inactive)
REMARK    1  A    between atoms: C_3  and  C_1 
REMARK    2  A    between atoms: N_2  and  C_3 
REMARK       I    between atoms: C_4  and  N_7 
REMARK    3  A    between atoms: C_20  and  C_4 
REMARK    4  A    between atoms: N_7  and  C_15 
REMARK    5  A    between atoms: C_8  and  C_21 
REMARK    6  A    between atoms: O_19  and  C_8 
REMARK    7  A    between atoms: S_16  and  C_20 
REMARK    8  A    between atoms: C_21  and  S_16 
ROOT
ATOM      1  N   UNL d   1      -1.349   2.939   0.098  0.00  0.00     0.092 N 
ATOM      2  C   UNL d   1      -3.415   3.705  -1.101  0.00  0.00     0.055 C 
ATOM      3  C   UNL d   1      -3.434   3.493   1.375  0.00  0.00     0.055 C 
ATOM      4  C   UNL d   1      -2.119   2.899  -1.147  0.00  0.00     0.275 C 
ATOM      5  C   UNL d   1      -2.120   2.711   1.319  0.00  0.00     0.275 C 
ATOM      6  C   UNL d   1      -4.267   3.323   0.107  0.00  0.00     0.087 C 
ENDROOT
BRANCH   6   7
ATOM      7  N   UNL d   1      -4.821   1.972  -0.011  0.00  0.00    -0.356 N 
ATOM      8  C   UNL d   1      -5.991   1.732  -0.708  0.00  0.00     0.227 C 
ATOM      9  O   UNL d   1      -6.662   2.636  -1.207  0.00  0.00    -0.273 OA
ATOM     10  H   UNL d   1      -4.195   1.193   0.160  0.00  0.00     0.162 HD
BRANCH   8  11
ATOM     11  C   UNL d   1      -6.388   0.261  -0.768  0.00  0.00     0.177 C 
BRANCH  11  12
ATOM     12  S   UNL d   1      -7.380  -0.153  -2.253  0.00  0.00    -0.149 SA
BRANCH  12  13
ATOM     13  C   UNL d   1      -6.178   0.292  -3.551  0.00  0.00     0.184 C 
BRANCH  13  14
ATOM     14  C   UNL d   1      -5.002  -0.656  -3.515  0.00  0.00     0.149 C 
ATOM     15  O   UNL d   1      -3.841  -0.303  -3.364  0.00  0.00    -0.649 OA
BRANCH  14  16
ATOM     16  O   UNL d   1      -5.355  -1.960  -3.642  0.00  0.00    -0.776 OA
ATOM     17  H   UNL d   1      -6.331  -2.069  -3.665  0.00  0.00     0.167 HD
ENDBRANCH  14  16
ENDBRANCH  13  14
ENDBRANCH  12  13
ENDBRANCH  11  12
ENDBRANCH   8  11
ENDBRANCH   6   7
BRANCH   1  18
ATOM     18  C   UNL d   1      -0.108   2.131   0.041  0.00  0.00     0.315 C 
BRANCH  18  19
ATOM     19  C   UNL d   1      -0.246   0.656  -0.291  0.00  0.00     0.030 A 
ATOM     20  C   UNL d   1      -0.454  -0.270   0.740  0.00  0.00     0.126 A 
ATOM     21  F   UNL d   1      -0.502   0.147   2.015  0.00  0.00    -0.205 F 
ATOM     22  C   UNL d   1      -0.612  -1.635   0.497  0.00  0.00     0.043 A 
ATOM     23  C   UNL d   1      -0.567  -2.115  -0.807  0.00  0.00     0.005 A 
ATOM     24  C   UNL d   1      -0.342  -1.223  -1.853  0.00  0.00     0.024 A 
ATOM     25  C   UNL d   1      -0.165   0.145  -1.599  0.00  0.00     0.045 A 
ATOM     26 CL   UNL d   1       0.188   1.143  -2.968  0.00  0.00    -0.084 Cl
ENDBRANCH  18  19
ENDBRANCH   1  18
TORSDOF 8
