REMARK  5 active torsions:
REMARK  status: ('A' for Active; 'I' for Inactive)
REMARK    1  A    between atoms: S_2  and  C_1 
REMARK    2  A    between atoms: C_10  and  S_2 
REMARK    3  A    between atoms: C_7  and  C_3 
REMARK    4  A    between atoms: N_11  and  C_4 
REMARK    5  A    between atoms: O_13  and  C_7 
ROOT
ATOM      1  C   UNL d   1      -0.656  -1.232  -0.030  0.00  0.00     0.093 A 
ATOM      2  C   UNL d   1      -0.176   1.062  -0.035  0.00  0.00     0.107 A 
ATOM      3  C   UNL d   1      -1.178   0.101   0.028  0.00  0.00     0.071 A 
ATOM      4  S   UNL d   1       1.376   0.325  -0.131  0.00  0.00    -0.092 SA
ATOM      5  C   UNL d   1       0.719  -1.242  -0.100  0.00  0.00     0.076 A 
ENDROOT
BRANCH   1   6
ATOM      6  S   UNL d   1      -1.583  -2.698   0.019  0.00  0.00     0.181 S 
ATOM      7  O   UNL d   1      -0.602  -3.761  -0.096  0.00  0.00    -0.222 OA
ATOM      8  O   UNL d   1      -2.403  -2.542   1.204  0.00  0.00    -0.222 OA
BRANCH   6   9
ATOM      9  C   UNL d   1      -2.640  -2.708  -1.427  0.00  0.00     0.105 C 
ATOM     10  C   UNL d   1      -1.867  -2.540  -2.729  0.00  0.00     0.026 C 
ATOM     11  C   UNL d   1      -3.439  -4.011  -1.456  0.00  0.00     0.026 C 
ENDBRANCH   6   9
ENDBRANCH   1   6
BRANCH   3  12
ATOM     12  N   UNL d   1      -2.497   0.407   0.134  0.00  0.00    -0.397 N 
ATOM     13  H   UNL d   1      -2.759   1.382   0.315  0.00  0.00     0.156 HD
ATOM     14  H   UNL d   1      -3.117  -0.224   0.646  0.00  0.00     0.156 HD
ENDBRANCH   3  12
BRANCH   2  15
ATOM     15  C   UNL d   1      -0.309   2.515   0.003  0.00  0.00     0.302 C 
ATOM     16  O   UNL d   1      -1.369   3.122   0.134  0.00  0.00    -0.259 OA
BRANCH  15  17
ATOM     17  O   UNL d   1       0.906   3.127  -0.126  0.00  0.00    -0.322 OA
ATOM     18  C   UNL d   1       0.882   4.553  -0.115  0.00  0.00     0.213 C 
ENDBRANCH  15  17
ENDBRANCH   2  15
TORSDOF 5
