REMARK  2 active torsions:
REMARK  status: ('A' for Active; 'I' for Inactive)
REMARK    1  A    between atoms: C_15  and  C_6 
REMARK    2  A    between atoms: C_12  and  C_7 
ROOT
ATOM      1  N   UNL d   1       0.887  -0.533   0.788  0.00  0.00    -0.348 N 
ATOM      2  HN  UNL d   1       1.416  -0.957   1.550  1.00  0.00     0.166 HD
ATOM      3  C   UNL d   1       0.182  -1.205  -0.102  0.00  0.00     0.091 A 
ATOM      4  S   UNL d   1      -0.787  -3.573  -1.212  0.00  0.00    -0.085 SA
ATOM      5  C   UNL d   1       0.061  -2.646  -0.044  0.00  0.00     0.039 A 
ATOM      6  C   UNL d   1       0.807   0.830   0.543  0.00  0.00     0.050 A 
ATOM      7  C   UNL d   1      -0.532  -5.048  -0.378  0.00  0.00     0.032 A 
ATOM      8  S   UNL d   1      -0.587  -0.229  -1.296  0.00  0.00    -0.081 SA
ATOM      9  C   UNL d   1       0.054   1.174  -0.561  0.00  0.00     0.082 A 
ATOM     10  C   UNL d   1       0.589  -3.468   0.933  0.00  0.00     0.023 A 
ATOM     11  C   UNL d   1       0.264  -4.842   0.735  0.00  0.00     0.023 A 
ENDROOT
BRANCH   6  12
ATOM     12  C   UNL d   1       1.510   1.801   1.374  0.00  0.00    -0.009 A 
ATOM     13  C   UNL d   1       2.710   1.436   2.000  0.00  0.00     0.014 A 
ATOM     14  C   UNL d   1       3.426   2.364   2.761  0.00  0.00     0.001 A 
ATOM     15  C   UNL d   1       2.944   3.663   2.915  0.00  0.00     0.000 A 
ATOM     16  C   UNL d   1       1.740   4.032   2.319  0.00  0.00     0.001 A 
ATOM     17  C   UNL d   1       1.026   3.106   1.554  0.00  0.00     0.014 A 
ENDBRANCH   6  12
BRANCH   7  18
ATOM     18  C   UNL d   1      -1.110  -6.308  -0.861  0.00  0.00     0.049 A 
ATOM     19  N   UNL d   1      -0.384  -7.412  -0.554  0.00  0.00    -0.365 N 
ATOM     20  C   UNL d   1      -0.889  -8.609  -0.924  0.00  0.00     0.088 A 
ATOM     21  HN  UNL d   1       0.508  -7.340  -0.064  1.00  0.00     0.165 HD
ATOM     22  C   UNL d   1      -2.099  -8.769  -1.576  0.00  0.00     0.017 A 
ATOM     23  C   UNL d   1      -2.836  -7.630  -1.877  0.00  0.00     0.004 A 
ATOM     24  C   UNL d   1      -2.336  -6.380  -1.519  0.00  0.00     0.031 A 
ENDBRANCH   7  18
TORSDOF 2
