REMARK  3 active torsions:
REMARK  status: ('A' for Active; 'I' for Inactive)
REMARK    1  A    between atoms: C_10  and  N_1 
REMARK    2  A    between atoms: C_8  and  C_5 
REMARK    3  A    between atoms: N_7  and  C_12 
ROOT
ATOM      1  N   UNL d   1       0.961  -0.646   0.038  0.00  0.00    -0.255 N 
ATOM      2  C   UNL d   1      -0.344  -1.111   0.155  0.00  0.00     0.076 C 
ATOM      3  N   UNL d   1       1.005   0.713   0.073  0.00  0.00    -0.289 N 
ATOM      4  HN  UNL d   1       1.833   1.303   0.152  1.00  0.00     0.187 HD
ATOM      5  C   UNL d   1      -0.277   1.113  -0.018  0.00  0.00     0.135 C 
ATOM      6  C   UNL d   1      -1.151  -0.000   0.005  0.00  0.00     0.069 C 
ATOM      7  C   UNL d   1      -0.747  -2.451   0.492  0.00  0.00     0.033 A 
ATOM      8  S   UNL d   1      -2.087  -3.206  -0.259  0.00  0.00    -0.100 SA
ATOM      9  C   UNL d   1      -0.183  -3.272   1.452  0.00  0.00     0.021 A 
ATOM     10  C   UNL d   1      -1.894  -4.630   0.669  0.00  0.00     0.050 A 
ATOM     11  C   UNL d   1      -0.834  -4.537   1.542  0.00  0.00     0.008 A 
ENDROOT
BRANCH   1  12
ATOM     12  C   UNL d   1       2.175  -1.382  -0.093  0.00  0.00     0.057 A 
ATOM     13  C   UNL d   1       2.194  -2.654  -0.685  0.00  0.00     0.034 A 
ATOM     14  C   UNL d   1       3.385  -3.383  -0.751  0.00  0.00     0.038 A 
ATOM     15  C   UNL d   1       4.562  -2.835  -0.226  0.00  0.00     0.103 A 
ATOM     16  C   UNL d   1       4.563  -1.548   0.327  0.00  0.00     0.038 A 
ATOM     17  C   UNL d   1       3.372  -0.816   0.375  0.00  0.00     0.034 A 
BRANCH  15  18
ATOM     18  N   UNL d   1       5.801  -3.623  -0.247  0.00  0.00    -0.116 N 
ATOM     19  O   UNL d   1       5.767  -4.735  -0.790  0.00  0.00    -0.532 OA
ATOM     20  O   UNL d   1       6.804  -3.133   0.292  0.00  0.00    -0.532 OA
ENDBRANCH  15  18
ENDBRANCH   1  12
BRANCH   5  21
ATOM     21  C   UNL d   1      -0.695   2.559  -0.075  0.00  0.00     0.434 C 
ATOM     22  F   UNL d   1       0.340   3.432   0.033  0.00  0.00    -0.165 F 
ATOM     23  F   UNL d   1      -1.333   2.848  -1.241  0.00  0.00    -0.165 F 
ATOM     24  F   UNL d   1      -1.568   2.862   0.925  0.00  0.00    -0.165 F 
ENDBRANCH   5  21
TORSDOF 3
