REMARK  7 active torsions:
REMARK  status: ('A' for Active; 'I' for Inactive)
REMARK    1  A    between atoms: N_4  and  S_1 
REMARK    2  A    between atoms: C_10  and  S_1 
REMARK    3  A    between atoms: S_2  and  N_6 
REMARK    4  A    between atoms: C_11  and  S_2 
REMARK    5  A    between atoms: N_3  and  C_8 
REMARK    6  A    between atoms: C_5  and  N_4 
REMARK    7  A    between atoms: N_6  and  C_7 
ROOT
ATOM      1  C   UNL d   1       1.094   2.307   2.020  0.00  0.00     0.052 A 
ATOM      2  C   UNL d   1       2.335   1.665   2.192  0.00  0.00     0.065 A 
ATOM      3  C   UNL d   1       0.758   2.300   4.415  0.00  0.00     0.104 A 
ATOM      4  C   UNL d   1       0.305   2.627   3.131  0.00  0.00     0.062 A 
ATOM      5  C   UNL d   1       2.800   1.392   3.482  0.00  0.00     0.034 A 
ATOM      6  C   UNL d   1       2.016   1.709   4.596  0.00  0.00     0.038 A 
ENDROOT
BRANCH   1   7
ATOM      7  N   UNL d   1       0.504   2.413   0.704  0.00  0.00    -0.179 NA
ATOM      8  H   UNL d   1      -0.112   3.219   0.599  0.00  0.00     0.146 HD
BRANCH   7   9
ATOM      9  S   UNL d   1      -0.312   0.980   0.269  0.00  0.00     0.245 S 
ATOM     10  O   UNL d   1      -1.385   0.798   1.225  0.00  0.00    -0.206 OA
ATOM     11  O   UNL d   1       0.675  -0.059   0.048  0.00  0.00    -0.206 OA
BRANCH   9  12
ATOM     12  C   UNL d   1      -1.055   1.382  -1.289  0.00  0.00     0.074 A 
ATOM     13  C   UNL d   1      -0.428   0.973  -2.467  0.00  0.00     0.025 A 
ATOM     14  C   UNL d   1      -1.154   0.961  -3.658  0.00  0.00     0.008 A 
ATOM     15  C   UNL d   1      -2.501   1.353  -3.672  0.00  0.00    -0.062 A 
ATOM     16  C   UNL d   1      -3.087   1.849  -2.501  0.00  0.00     0.008 A 
ATOM     17  C   UNL d   1      -3.329   1.126  -4.904  0.00  0.00     0.048 C 
ATOM     18  C   UNL d   1      -2.367   1.863  -1.307  0.00  0.00     0.025 A 
ENDBRANCH   9  12
ENDBRANCH   7   9
ENDBRANCH   1   7
BRANCH   2  19
ATOM     19  N   UNL d   1       2.958   1.052   1.074  0.00  0.00    -0.279 N 
ATOM     20  H   UNL d   1       2.510   0.216   0.678  0.00  0.00     0.179 HD
BRANCH  19  21
ATOM     21  S   UNL d   1       4.466   1.444   0.510  0.00  0.00     0.263 S 
ATOM     22  O   UNL d   1       5.254   2.000   1.591  0.00  0.00    -0.200 OA
ATOM     23  O   UNL d   1       4.935   0.308  -0.249  0.00  0.00    -0.200 OA
BRANCH  21  24
ATOM     24  C   UNL d   1       4.145   2.748  -0.666  0.00  0.00     0.079 A 
ATOM     25  C   UNL d   1       4.416   4.075  -0.330  0.00  0.00     0.026 A 
ATOM     26  C   UNL d   1       4.340   5.065  -1.314  0.00  0.00     0.008 A 
ATOM     27  C   UNL d   1       4.005   4.737  -2.636  0.00  0.00    -0.062 A 
ATOM     28  C   UNL d   1       3.706   3.407  -2.954  0.00  0.00     0.008 A 
ATOM     29  C   UNL d   1       3.981   5.808  -3.690  0.00  0.00     0.048 C 
ATOM     30  C   UNL d   1       3.783   2.411  -1.976  0.00  0.00     0.026 A 
ENDBRANCH  21  24
ENDBRANCH  19  21
ENDBRANCH   2  19
BRANCH   3  31
ATOM     31  N   UNL d   1      -0.134   2.500   5.567  0.00  0.00    -0.116 N 
ATOM     32  O   UNL d   1      -1.250   2.993   5.349  0.00  0.00    -0.532 OA
ATOM     33  O   UNL d   1       0.280   2.161   6.684  0.00  0.00    -0.532 OA
ENDBRANCH   3  31
TORSDOF 7
