REMARK  6 active torsions:
REMARK  status: ('A' for Active; 'I' for Inactive)
REMARK    1  A    between atoms: C_19  and  N_1 
REMARK    2  A    between atoms: C_4  and  C_6 
REMARK    3  A    between atoms: C_10  and  N_20 
REMARK    4  A    between atoms: C_24  and  C_19 
REMARK    5  A    between atoms: N_20  and  C_25 
REMARK    6  A    between atoms: C_25  and  C_24 
ROOT
ATOM      1  N   UNL d   1       3.119  -5.445   0.250  0.00  0.00    -0.277 NA
ATOM      2  H   UNL d   1       2.481  -5.693  -0.503  0.00  0.00     0.129 HD
ENDROOT
BRANCH   1   3
ATOM      3  C   UNL d   1       4.169  -6.385   0.286  0.00  0.00     0.102 A 
ATOM      4  N   UNL d   1       5.445  -5.939   0.372  0.00  0.00    -0.355 N 
ATOM      5  C   UNL d   1       6.447  -6.846   0.433  0.00  0.00     0.105 A 
ATOM      6  HN  UNL d   1       5.647  -4.939   0.391  1.00  0.00     0.166 HD
ATOM      7  C   UNL d   1       6.255  -8.217   0.429  0.00  0.00     0.065 A 
ATOM      8  C   UNL d   1       4.939  -8.679   0.357  0.00  0.00     0.044 A 
ATOM      9  C   UNL d   1       3.889  -7.761   0.282  0.00  0.00     0.073 A 
ATOM     10 CL   UNL d   1       2.274  -8.365   0.169  0.00  0.00    -0.081 Cl
BRANCH   7  11
ATOM     11  C   UNL d   1       7.439  -9.129   0.493  0.00  0.00     0.418 C 
ATOM     12  F   UNL d   1       7.109 -10.449   0.493  0.00  0.00    -0.166 F 
ATOM     13  F   UNL d   1       8.282  -8.954  -0.561  0.00  0.00    -0.166 F 
ATOM     14  F   UNL d   1       8.190  -8.930   1.610  0.00  0.00    -0.166 F 
ENDBRANCH   7  11
ENDBRANCH   1   3
BRANCH   1  15
ATOM     15  C   UNL d   1       3.552  -4.051   0.213  0.00  0.00     0.095 C 
BRANCH  15  16
ATOM     16  C   UNL d   1       2.337  -3.128   0.150  0.00  0.00     0.035 C 
BRANCH  16  17
ATOM     17  C   UNL d   1       2.783  -1.667   0.119  0.00  0.00     0.136 C 
BRANCH  17  18
ATOM     18  N   UNL d   1       1.657  -0.752   0.031  0.00  0.00    -0.288 N 
ATOM     19  C   UNL d   1       1.003  -0.263   1.123  0.00  0.00     0.235 C 
ATOM     20  C   UNL d   1      -0.086   0.678   0.661  0.00  0.00     0.050 C 
ATOM     21  O   UNL d   1       1.262  -0.520   2.290  0.00  0.00    -0.272 OA
ATOM     22  C   UNL d   1      -1.426   0.375   1.331  0.00  0.00     0.020 C 
ATOM     23  C   UNL d   1       0.210   2.113   1.107  0.00  0.00     0.020 C 
ATOM     24  C   UNL d   1      -0.100   0.511  -0.860  0.00  0.00     0.122 C 
ATOM     25  C   UNL d   1      -2.191   1.692   1.317  0.00  0.00     0.001 C 
ATOM     26  C   UNL d   1      -1.149   2.799   1.195  0.00  0.00     0.001 C 
ATOM     27  C   UNL d   1       1.074  -0.383  -1.147  0.00  0.00     0.227 C 
ATOM     28  O   UNL d   1       1.416  -0.733  -2.267  0.00  0.00    -0.273 OA
ENDBRANCH  17  18
ENDBRANCH  16  17
ENDBRANCH  15  16
ENDBRANCH   1  15
TORSDOF 6
