REMARK  5 active torsions:
REMARK  status: ('A' for Active; 'I' for Inactive)
REMARK    1  A    between atoms: C_6  and  S_1 
REMARK    2  A    between atoms: C_8  and  S_1 
REMARK    3  A    between atoms: C_4  and  C_6 
REMARK    4  A    between atoms: C_11  and  C_5 
REMARK    5  A    between atoms: C_10  and  C_8 
ROOT
ATOM      1  N   UNL d   1       0.523  -1.735   2.530  0.00  0.00    -0.352 N 
ATOM      2  HN  UNL d   1      -0.009  -2.170   1.776  1.00  0.00     0.166 HD
ATOM      3  C   UNL d   1       0.842  -0.460   2.584  0.00  0.00     0.065 A 
ATOM      4  C   UNL d   1       1.010  -2.404   3.641  0.00  0.00     0.049 A 
ATOM      5  S   UNL d   1       1.672   0.025   4.009  0.00  0.00    -0.085 SA
ATOM      6  C   UNL d   1       1.654  -1.597   4.559  0.00  0.00     0.081 A 
ENDROOT
BRANCH   3   7
ATOM      7  C   UNL d   1       0.487   0.527   1.535  0.00  0.00     0.205 C 
BRANCH   7   8
ATOM      8  S   UNL d   1       1.767   0.527   0.291  0.00  0.00     0.156 S 
ATOM      9  O   UNL d   1       3.044   0.776   0.943  0.00  0.00    -0.227 OA
ATOM     10  O   UNL d   1       1.344   1.444  -0.758  0.00  0.00    -0.227 OA
BRANCH   8  11
ATOM     11  C   UNL d   1       1.817  -1.129  -0.389  0.00  0.00     0.205 C 
BRANCH  11  12
ATOM     12  C   UNL d   1       0.505  -1.490  -0.972  0.00  0.00     0.066 A 
ATOM     13  O   UNL d   1      -0.101  -2.592  -0.446  0.00  0.00    -0.326 OA
ATOM     14  C   UNL d   1      -1.268  -2.767  -1.114  0.00  0.00     0.142 A 
ATOM     15  C   UNL d   1      -1.423  -1.793  -2.071  0.00  0.00     0.027 A 
ATOM     16  C   UNL d   1      -0.271  -0.975  -1.991  0.00  0.00     0.035 A 
ENDBRANCH  11  12
ENDBRANCH   8  11
ENDBRANCH   7   8
ENDBRANCH   3   7
BRANCH   4  17
ATOM     17  C   UNL d   1       0.812  -3.838   3.807  0.00  0.00    -0.009 A 
ATOM     18  C   UNL d   1       1.731  -4.629   4.513  0.00  0.00     0.015 A 
ATOM     19  C   UNL d   1       1.513  -6.001   4.673  0.00  0.00     0.024 A 
ATOM     20  C   UNL d   1       0.376  -6.591   4.124  0.00  0.00     0.034 A 
ATOM     21  C   UNL d   1      -0.538  -5.823   3.407  0.00  0.00     0.024 A 
ATOM     22 CL   UNL d   1       0.103  -8.275   4.335  0.00  0.00    -0.084 Cl
ATOM     23  C   UNL d   1      -0.317  -4.452   3.244  0.00  0.00     0.015 A 
ENDBRANCH   4  17
TORSDOF 5
