REMARK  8 active torsions:
REMARK  status: ('A' for Active; 'I' for Inactive)
REMARK    1  A    between atoms: C_3  and  S_1 
REMARK    2  A    between atoms: N_9  and  S_1 
REMARK       I    between atoms: C_2  and  N_6 
REMARK    3  A    between atoms: C_11  and  C_2 
REMARK    4  A    between atoms: N_6  and  C_16 
REMARK    5  A    between atoms: C_7  and  C_13 
REMARK    6  A    between atoms: O_17  and  C_7 
REMARK    7  A    between atoms: C_8  and  C_11 
REMARK    8  A    between atoms: C_13  and  C_8 
ROOT
ATOM      1  C   UNL d   1      -0.149  -6.783   0.099  0.00  0.00     0.222 C 
ATOM      2  N   UNL d   1      -0.579  -5.708   0.859  0.00  0.00    -0.327 N 
ATOM      3  O   UNL d   1       0.598  -6.729  -0.875  0.00  0.00    -0.273 OA
ATOM      4  H   UNL d   1      -1.091  -5.910   1.718  0.00  0.00     0.169 HD
ENDROOT
BRANCH   2   5
ATOM      5  C   UNL d   1      -0.268  -4.350   0.612  0.00  0.00     0.034 A 
ATOM      6  C   UNL d   1       0.249  -3.894  -0.605  0.00  0.00     0.031 A 
ATOM      7  C   UNL d   1       0.578  -2.547  -0.786  0.00  0.00     0.027 A 
ATOM      8  C   UNL d   1       0.393  -1.650   0.262  0.00  0.00     0.074 A 
ATOM      9  C   UNL d   1      -0.151  -2.080   1.476  0.00  0.00     0.027 A 
ATOM     10  C   UNL d   1      -0.492  -3.428   1.643  0.00  0.00     0.031 A 
BRANCH   8  11
ATOM     11  S   UNL d   1       0.862   0.037   0.048  0.00  0.00     0.239 S 
ATOM     12  O   UNL d   1       0.743   0.728   1.308  0.00  0.00    -0.206 OA
ATOM     13  O   UNL d   1       0.267   0.537  -1.172  0.00  0.00    -0.206 OA
BRANCH  11  14
ATOM     14  N   UNL d   1       2.516  -0.074  -0.241  0.00  0.00    -0.225 NA
ATOM     15  H   UNL d   1       3.031   0.270   0.569  0.00  0.00     0.136 HD
ATOM     16  H   UNL d   1       2.743   0.409  -1.110  0.00  0.00     0.136 HD
ENDBRANCH  11  14
ENDBRANCH   8  11
ENDBRANCH   2   5
BRANCH   1  17
ATOM     17  C   UNL d   1      -0.624  -8.137   0.600  0.00  0.00     0.112 C 
BRANCH  17  18
ATOM     18  C   UNL d   1       0.328  -8.836   1.610  0.00  0.00    -0.030 C 
ATOM     19  C   UNL d   1      -0.201 -10.265   1.851  0.00  0.00     0.016 C 
ATOM     20  C   UNL d   1       1.750  -8.970   1.021  0.00  0.00     0.016 C 
BRANCH  18  21
ATOM     21  C   UNL d   1       0.450  -8.079   2.951  0.00  0.00     0.119 C 
BRANCH  21  22
ATOM     22  C   UNL d   1      -0.873  -7.837   3.631  0.00  0.00     0.140 C 
ATOM     23  O   UNL d   1      -1.593  -6.887   3.349  0.00  0.00    -0.650 OA
BRANCH  22  24
ATOM     24  O   UNL d   1      -1.211  -8.779   4.533  0.00  0.00    -0.776 OA
ATOM     25  H   UNL d   1      -0.552  -9.495   4.638  0.00  0.00     0.167 HD
ENDBRANCH  22  24
ENDBRANCH  21  22
ENDBRANCH  18  21
ENDBRANCH  17  18
ENDBRANCH   1  17
TORSDOF 8
