REMARK  6 active torsions:
REMARK  status: ('A' for Active; 'I' for Inactive)
REMARK    1  A    between atoms: C_2  and  S_1 
REMARK    2  A    between atoms: N_5  and  S_1 
REMARK    3  A    between atoms: C_9  and  N_5 
REMARK    4  A    between atoms: C_14  and  N_5 
REMARK    5  A    between atoms: C_10  and  C_9 
REMARK    6  A    between atoms: C_18  and  C_14 
ROOT
ATOM      1  N   UNL d   1       0.582   0.269   1.301  0.00  0.00    -0.297 N 
ENDROOT
BRANCH   1   2
ATOM      2  S   UNL d   1       1.280  -0.205  -0.170  0.00  0.00     0.278 S 
ATOM      3  O   UNL d   1       2.614  -0.723   0.036  0.00  0.00    -0.199 OA
ATOM      4  O   UNL d   1       0.329  -0.950  -0.966  0.00  0.00    -0.199 OA
BRANCH   2   5
ATOM      5  C   UNL d   1       1.575   1.220  -1.145  0.00  0.00     0.165 A 
ATOM      6  N   UNL d   1       1.186   2.509  -0.807  0.00  0.00    -0.340 N 
ATOM      7  C   UNL d   1       1.636   3.263  -1.789  0.00  0.00     0.183 A 
ATOM      8  HN  UNL d   1       0.667   2.807   0.018  1.00  0.00     0.167 HD
ATOM      9  N   UNL d   1       2.281   2.522  -2.740  0.00  0.00    -0.354 N 
ATOM     10  C   UNL d   1       2.244   1.217  -2.354  0.00  0.00     0.135 A 
ATOM     11  C   UNL d   1       2.904   3.034  -3.932  0.00  0.00     0.156 C 
ENDBRANCH   2   5
ENDBRANCH   1   2
BRANCH   1  12
ATOM     12  C   UNL d   1      -0.871   0.578   1.284  0.00  0.00     0.181 C 
BRANCH  12  13
ATOM     13  C   UNL d   1      -1.726  -0.662   1.166  0.00  0.00     0.001 C 
ATOM     14  S   UNL d   1      -2.808  -0.827  -0.164  0.00  0.00    -0.105 SA
ATOM     15  C   UNL d   1      -3.173  -2.445   0.245  0.00  0.00     0.050 C 
ATOM     16  C   UNL d   1      -2.596  -2.817   1.437  0.00  0.00     0.008 C 
ATOM     17  C   UNL d   1      -1.813  -1.766   1.998  0.00  0.00     0.017 C 
ENDBRANCH  12  13
ENDBRANCH   1  12
BRANCH   1  18
ATOM     18  C   UNL d   1       1.074  -0.359   2.538  0.00  0.00     0.174 C 
BRANCH  18  19
ATOM     19  C   UNL d   1       2.527  -0.135   2.877  0.00  0.00    -0.040 A 
ATOM     20  C   UNL d   1       3.063   1.152   3.017  0.00  0.00     0.009 A 
ATOM     21  C   UNL d   1       4.418   1.319   3.318  0.00  0.00     0.001 A 
ATOM     22  C   UNL d   1       5.244   0.206   3.481  0.00  0.00     0.000 A 
ATOM     23  C   UNL d   1       4.720  -1.076   3.352  0.00  0.00     0.001 A 
ATOM     24  C   UNL d   1       3.367  -1.246   3.062  0.00  0.00     0.009 A 
ENDBRANCH  18  19
ENDBRANCH   1  18
TORSDOF 6
