REMARK  2 active torsions:
REMARK  status: ('A' for Active; 'I' for Inactive)
REMARK       I    between atoms: N_2  and  C_1 
REMARK    1  A    between atoms: C_3  and  C_1 
REMARK    2  A    between atoms: C_4  and  N_2 
ROOT
ATOM      1  C   UNL d   1       1.082  -0.118   0.018  0.00  0.00     0.262 C 
ATOM      2  N   UNL d   1       0.445   0.676   0.953  0.00  0.00    -0.308 N 
ATOM      3  O   UNL d   1       2.268  -0.070  -0.288  0.00  0.00    -0.267 OA
ATOM      4  H   UNL d   1      -0.531   0.507   1.161  0.00  0.00     0.170 HD
ENDROOT
BRANCH   2   5
ATOM      5  C   UNL d   1       1.062   1.674   1.730  0.00  0.00     0.125 A 
ATOM      6  N   UNL d   1       2.372   1.933   1.558  0.00  0.00    -0.351 N 
ATOM      7  C   UNL d   1       2.945   2.892   2.313  0.00  0.00     0.096 A 
ATOM      8  HN  UNL d   1       2.919   1.414   0.871  1.00  0.00     0.166 HD
ATOM      9  C   UNL d   1       2.265   3.641   3.262  0.00  0.00    -0.045 A 
ATOM     10  C   UNL d   1       0.909   3.370   3.439  0.00  0.00     0.031 A 
ATOM     11  C   UNL d   1       2.978   4.698   4.042  0.00  0.00     0.049 C 
ATOM     12  C   UNL d   1       0.299   2.376   2.669  0.00  0.00     0.055 A 
ATOM     13 BR   UNL d   1      -1.548   2.030   2.941  0.00  0.00    -0.047 Br
ENDBRANCH   2   5
BRANCH   1  14
ATOM     14  C   UNL d   1       0.234  -1.147  -0.642  0.00  0.00     0.092 A 
ATOM     15  C   UNL d   1       0.437  -1.551  -1.971  0.00  0.00     0.052 A 
ATOM     16 CL   UNL d   1       1.574  -0.810  -3.043  0.00  0.00    -0.083 Cl
ATOM     17  C   UNL d   1      -0.344  -2.580  -2.521  0.00  0.00     0.025 A 
ATOM     18  C   UNL d   1      -1.327  -3.212  -1.762  0.00  0.00     0.005 A 
ATOM     19  C   UNL d   1      -1.541  -2.811  -0.449  0.00  0.00     0.043 A 
ATOM     20  C   UNL d   1      -0.766  -1.790   0.099  0.00  0.00     0.133 A 
ATOM     21  F   UNL d   1      -1.014  -1.438   1.370  0.00  0.00    -0.205 F 
ENDBRANCH   1  14
TORSDOF 2
