REMARK  6 active torsions:
REMARK  status: ('A' for Active; 'I' for Inactive)
REMARK    1  A    between atoms: C_4  and  C_1 
REMARK    2  A    between atoms: N_6  and  C_5 
REMARK       I    between atoms: C_9  and  N_6 
REMARK    3  A    between atoms: O_14  and  C_9 
REMARK    4  A    between atoms: N_10  and  O_14 
REMARK    5  A    between atoms: C_15  and  C_12 
REMARK    6  A    between atoms: N_21  and  C_12 
ROOT
ATOM      1  N   UNL d   1       2.969   1.381  -0.147  0.00  0.00    -0.286 N 
ATOM      2  C   UNL d   1       1.801   0.697   0.065  0.00  0.00     0.388 C 
ATOM      3  O   UNL d   1       0.733   1.320   0.095  0.00  0.00    -0.236 OA
ATOM      4  H   UNL d   1       2.838   2.373  -0.246  0.00  0.00     0.172 HD
ENDROOT
BRANCH   1   5
ATOM      5  C   UNL d   1       4.254   0.895  -0.060  0.00  0.00     0.117 A 
ATOM      6  N   UNL d   1       4.548  -0.437   0.131  0.00  0.00    -0.336 N 
ATOM      7  C   UNL d   1       5.850  -0.628   0.198  0.00  0.00     0.087 A 
ATOM      8  HN  UNL d   1       3.851  -1.177   0.210  1.00  0.00     0.168 HD
ATOM      9  S   UNL d   1       6.791   0.810   0.013  0.00  0.00    -0.080 SA
ATOM     10  C   UNL d   1       5.355   1.724  -0.131  0.00  0.00     0.100 A 
BRANCH   7  11
ATOM     11  C   UNL d   1       6.512  -1.928   0.427  0.00  0.00     0.021 A 
ATOM     12  C   UNL d   1       6.107  -3.109  -0.231  0.00  0.00     0.068 A 
ATOM     13  C   UNL d   1       6.733  -4.332   0.077  0.00  0.00     0.056 A 
ATOM     14 CL   UNL d   1       4.882  -3.067  -1.467  0.00  0.00    -0.082 Cl
ATOM     15 CL   UNL d   1       6.283  -5.829  -0.669  0.00  0.00    -0.083 Cl
ATOM     16  C   UNL d   1       7.772  -4.386   1.013  0.00  0.00     0.026 A 
ATOM     17  C   UNL d   1       8.195  -3.226   1.650  0.00  0.00     0.003 A 
ATOM     18  C   UNL d   1       7.566  -2.013   1.364  0.00  0.00     0.016 A 
ENDBRANCH   7  11
ENDBRANCH   1   5
BRANCH   2  19
ATOM     19  O   UNL d   1       1.914  -0.656   0.216  0.00  0.00    -0.179 OA
BRANCH  19  20
ATOM     20  N   UNL d   1       1.054  -1.079   1.251  0.00  0.00    -0.244 N 
ATOM     21  C   UNL d   1       0.683  -2.312   1.087  0.00  0.00     0.109 C 
ATOM     22  HN  UNL d   1       0.762  -0.491   2.030  1.00  0.00     0.196 HD
BRANCH  21  23
ATOM     23  C   UNL d   1      -0.124  -2.939   2.172  0.00  0.00     0.004 A 
ATOM     24  C   UNL d   1      -0.951  -2.147   2.975  0.00  0.00     0.016 A 
ATOM     25  C   UNL d   1      -1.808  -2.751   3.898  0.00  0.00     0.024 A 
ATOM     26  C   UNL d   1      -1.818  -4.141   4.024  0.00  0.00     0.034 A 
ATOM     27  C   UNL d   1      -0.943  -4.929   3.278  0.00  0.00     0.024 A 
ATOM     28 CL   UNL d   1      -2.944  -4.893   5.085  0.00  0.00    -0.084 Cl
ATOM     29  C   UNL d   1      -0.088  -4.327   2.353  0.00  0.00     0.016 A 
ENDBRANCH  21  23
BRANCH  21  30
ATOM     30  N   UNL d   1       0.944  -3.060  -0.041  0.00  0.00    -0.286 NA
ATOM     31  H   UNL d   1       1.218  -2.477  -0.828  0.00  0.00     0.125 HD
ATOM     32  H   UNL d   1       0.211  -3.715  -0.299  0.00  0.00     0.125 HD
ENDBRANCH  21  30
ENDBRANCH  19  20
ENDBRANCH   2  19
TORSDOF 6
