REMARK  4 active torsions:
REMARK  status: ('A' for Active; 'I' for Inactive)
REMARK    1  A    between atoms: C_18  and  N_1 
REMARK    2  A    between atoms: C_11  and  C_5 
REMARK    3  A    between atoms: C_7  and  C_8 
REMARK       I    between atoms: C_8  and  N_17 
REMARK    4  A    between atoms: N_17  and  C_29 
ROOT
ATOM      1  C   UNL d   1       2.033  -1.428   0.058  0.00  0.00     0.057 A 
ATOM      2  C   UNL d   1       2.059  -2.571  -0.749  0.00  0.00     0.034 A 
ATOM      3  C   UNL d   1       3.178  -1.057   0.767  0.00  0.00     0.034 A 
ATOM      4  C   UNL d   1       4.345  -3.028  -0.054  0.00  0.00     0.035 A 
ATOM      5  C   UNL d   1       4.318  -1.871   0.729  0.00  0.00     0.032 A 
ATOM      6  C   UNL d   1       3.214  -3.358  -0.810  0.00  0.00     0.032 A 
ENDROOT
BRANCH   1   7
ATOM      7  N   UNL d   1       0.854  -0.639   0.162  0.00  0.00    -0.255 N 
ATOM      8  C   UNL d   1      -0.472  -1.048   0.090  0.00  0.00     0.076 C 
ATOM      9  C   UNL d   1      -1.209   0.109  -0.056  0.00  0.00     0.069 C 
ATOM     10  C   UNL d   1      -0.948  -2.391   0.282  0.00  0.00     0.033 A 
ATOM     11  C   UNL d   1      -0.297   1.174   0.154  0.00  0.00     0.135 C 
ATOM     12  N   UNL d   1       0.948   0.704   0.360  0.00  0.00    -0.289 N 
ATOM     13  HN  UNL d   1       1.780   1.238   0.610  1.00  0.00     0.187 HD
ATOM     14  S   UNL d   1      -2.275  -3.020  -0.599  0.00  0.00    -0.100 SA
ATOM     15  C   UNL d   1      -0.474  -3.315   1.198  0.00  0.00     0.021 A 
ATOM     16  C   UNL d   1      -2.201  -4.517   0.227  0.00  0.00     0.050 A 
ATOM     17  C   UNL d   1      -1.187  -4.543   1.159  0.00  0.00     0.008 A 
BRANCH  11  18
ATOM     18  C   UNL d   1      -0.660   2.634   0.215  0.00  0.00     0.434 C 
ATOM     19  F   UNL d   1       0.378   3.447   0.541  0.00  0.00    -0.165 F 
ATOM     20  F   UNL d   1      -1.148   3.077  -0.976  0.00  0.00    -0.165 F 
ATOM     21  F   UNL d   1      -1.638   2.863   1.135  0.00  0.00    -0.165 F 
ENDBRANCH  11  18
ENDBRANCH   1   7
BRANCH   4  22
ATOM     22  N   UNL d   1       5.464  -3.877  -0.172  0.00  0.00    -0.322 N 
ATOM     23  C   UNL d   1       6.634  -3.842   0.576  0.00  0.00     0.266 C 
ATOM     24  O   UNL d   1       6.777  -3.146   1.575  0.00  0.00    -0.267 OA
ATOM     25  H   UNL d   1       5.396  -4.605  -0.870  0.00  0.00     0.169 HD
BRANCH  23  26
ATOM     26  C   UNL d   1       7.691  -4.722   0.109  0.00  0.00     0.114 A 
ATOM     27  C   UNL d   1       8.912  -5.045   0.692  0.00  0.00     0.046 A 
ATOM     28  N   UNL d   1       9.710  -5.897  -0.071  0.00  0.00    -0.298 N 
ATOM     29  C   UNL d   1       9.468  -4.600   1.997  0.00  0.00     0.071 C 
ATOM     30  N   UNL d   1       9.133  -6.230  -1.210  0.00  0.00    -0.269 N 
ATOM     31  HN  UNL d   1      10.631  -6.225   0.218  1.00  0.00     0.187 HD
ATOM     32  S   UNL d   1       7.633  -5.537  -1.400  0.00  0.00     0.009 SA
ATOM     33  HN  UNL d   1       9.561  -6.847  -1.901  1.00  0.00     0.195 HD
ENDBRANCH  23  26
ENDBRANCH   4  22
TORSDOF 4
