REMARK  6 active torsions:
REMARK  status: ('A' for Active; 'I' for Inactive)
REMARK    1  A    between atoms: C_11  and  C_1 
REMARK    2  A    between atoms: C_2  and  N_12 
REMARK    3  A    between atoms: C_16  and  N_3 
REMARK    4  A    between atoms: C_18  and  C_6 
REMARK       I    between atoms: N_12  and  C_11 
REMARK    5  A    between atoms: O_21  and  C_15 
REMARK    6  A    between atoms: C_27  and  C_18 
ROOT
ATOM      1  C   UNL d   1      -0.675   2.241  -0.350  0.00  0.00     0.260 C 
ATOM      2  N   UNL d   1      -0.756   3.070   0.739  0.00  0.00    -0.307 N 
ATOM      3  O   UNL d   1      -0.850   2.531  -1.517  0.00  0.00    -0.267 OA
ATOM      4  H   UNL d   1      -0.665   2.686   1.669  0.00  0.00     0.170 HD
ENDROOT
BRANCH   1   5
ATOM      5  C   UNL d   1      -0.327   0.873  -0.017  0.00  0.00     0.073 C 
ATOM      6  C   UNL d   1       0.949   0.354   0.194  0.00  0.00     0.051 C 
ATOM      7  N   UNL d   1       0.788  -1.034   0.198  0.00  0.00    -0.260 N 
ATOM      8  N   UNL d   1      -0.530  -1.357   0.348  0.00  0.00    -0.304 N 
ATOM      9  C   UNL d   1      -1.184  -0.232   0.074  0.00  0.00     0.126 C 
ATOM     10  HN  UNL d   1      -0.925  -2.260   0.612  1.00  0.00     0.186 HD
BRANCH   6  11
ATOM     11  C   UNL d   1       2.240   1.083   0.415  0.00  0.00     0.060 C 
BRANCH  11  12
ATOM     12  C   UNL d   1       2.769   1.786  -0.837  0.00  0.00     0.002 C 
ATOM     13  C   UNL d   1       4.166   2.344  -0.600  0.00  0.00     0.005 C 
ENDBRANCH  11  12
ENDBRANCH   6  11
BRANCH   7  14
ATOM     14  C   UNL d   1       1.734  -2.093   0.025  0.00  0.00     0.056 A 
ATOM     15  C   UNL d   1       1.367  -3.397   0.399  0.00  0.00     0.031 A 
ATOM     16  C   UNL d   1       2.234  -4.472   0.185  0.00  0.00     0.002 A 
ATOM     17  C   UNL d   1       3.469  -4.261  -0.420  0.00  0.00     0.000 A 
ATOM     18  C   UNL d   1       3.837  -2.976  -0.811  0.00  0.00     0.002 A 
ATOM     19  C   UNL d   1       2.977  -1.895  -0.589  0.00  0.00     0.031 A 
ENDBRANCH   7  14
ENDBRANCH   1   5
BRANCH   2  20
ATOM     20  C   UNL d   1      -0.545   4.435   0.711  0.00  0.00     0.138 C 
ATOM     21  N   UNL d   1      -0.412   5.054   1.895  0.00  0.00    -0.282 N 
ATOM     22  N   UNL d   1      -0.016   6.296   1.548  0.00  0.00    -0.294 N 
ATOM     23  HN  UNL d   1      -0.573   4.677   2.829  1.00  0.00     0.189 HD
ATOM     24  C   UNL d   1      -0.522   7.425   2.300  0.00  0.00     0.178 C 
ATOM     25  C   UNL d   1       0.442   6.360   0.257  0.00  0.00     0.067 C 
ATOM     26  C   UNL d   1      -0.264   5.328  -0.360  0.00  0.00     0.071 C 
ATOM     27  C   UNL d   1       1.256   7.261  -0.444  0.00  0.00     0.032 C 
ATOM     28  C   UNL d   1      -0.435   5.448  -1.755  0.00  0.00     0.084 C 
ATOM     29  C   UNL d   1       0.426   6.268  -2.488  0.00  0.00     0.038 C 
ATOM     30  C   UNL d   1       1.314   7.115  -1.834  0.00  0.00     0.005 C 
BRANCH  28  31
ATOM     31  O   UNL d   1      -1.606   5.029  -2.350  0.00  0.00    -0.355 OA
ATOM     32  C   UNL d   1      -2.511   6.146  -2.383  0.00  0.00     0.210 C 
ENDBRANCH  28  31
ENDBRANCH   2  20
TORSDOF 6
