REMARK  7 active torsions:
REMARK  status: ('A' for Active; 'I' for Inactive)
REMARK    1  A    between atoms: C_2  and  S_1 
REMARK    2  A    between atoms: N_9  and  S_1 
REMARK    3  A    between atoms: C_10  and  C_3 
REMARK    4  A    between atoms: S_4  and  C_11 
REMARK    5  A    between atoms: N_8  and  S_4 
REMARK    6  A    between atoms: C_18  and  N_9 
REMARK    7  A    between atoms: O_23  and  C_10 
ROOT
ATOM      1  N   UNL d   1       0.715   0.302   1.435  0.00  0.00    -0.181 NA
ATOM      2  H   UNL d   1       1.399   0.269   0.668  0.00  0.00     0.146 HD
ENDROOT
BRANCH   1   3
ATOM      3  S   UNL d   1       0.377   1.927   1.771  0.00  0.00     0.249 S 
ATOM      4  O   UNL d   1       0.263   2.622   0.508  0.00  0.00    -0.205 OA
ATOM      5  O   UNL d   1      -0.672   1.994   2.765  0.00  0.00    -0.205 OA
BRANCH   3   6
ATOM      6  C   UNL d   1       1.756   2.674   2.496  0.00  0.00     0.122 A 
ATOM      7  C   UNL d   1       3.052   2.792   1.882  0.00  0.00     0.094 A 
ATOM      8  C   UNL d   1       3.819   3.519   2.780  0.00  0.00     0.067 A 
ATOM      9  C   UNL d   1       5.216   4.008   2.832  0.00  0.00     0.078 C 
ATOM     10  O   UNL d   1       3.082   3.829   3.880  0.00  0.00    -0.318 OA
ATOM     11  C   UNL d   1       1.826   3.333   3.708  0.00  0.00     0.073 A 
ATOM     12  C   UNL d   1       0.900   3.639   4.818  0.00  0.00     0.078 C 
BRANCH   7  13
ATOM     13  C   UNL d   1       3.473   2.247   0.602  0.00  0.00     0.297 C 
ATOM     14  O   UNL d   1       2.937   1.266   0.099  0.00  0.00    -0.259 OA
BRANCH  13  15
ATOM     15  O   UNL d   1       4.533   2.909   0.064  0.00  0.00    -0.322 OA
ATOM     16  C   UNL d   1       5.004   2.390  -1.181  0.00  0.00     0.213 C 
ENDBRANCH  13  15
ENDBRANCH   7  13
ENDBRANCH   3   6
ENDBRANCH   1   3
BRANCH   1  17
ATOM     17  C   UNL d   1       1.012  -0.543   2.547  0.00  0.00     0.022 A 
ATOM     18  C   UNL d   1      -0.018  -1.107   3.303  0.00  0.00     0.026 A 
ATOM     19  C   UNL d   1       0.286  -1.929   4.394  0.00  0.00     0.026 A 
ATOM     20  C   UNL d   1       1.626  -2.150   4.740  0.00  0.00     0.074 A 
ATOM     21  C   UNL d   1       2.656  -1.568   3.999  0.00  0.00     0.026 A 
ATOM     22  C   UNL d   1       2.343  -0.767   2.899  0.00  0.00     0.026 A 
BRANCH  20  23
ATOM     23  S   UNL d   1       2.010  -3.221   6.107  0.00  0.00     0.243 S 
ATOM     24  O   UNL d   1       1.363  -4.488   5.837  0.00  0.00    -0.206 OA
ATOM     25  O   UNL d   1       3.432  -3.142   6.361  0.00  0.00    -0.206 OA
BRANCH  23  26
ATOM     26  N   UNL d   1       1.212  -2.469   7.406  0.00  0.00    -0.202 NA
ATOM     27  C   UNL d   1       1.799  -1.188   7.912  0.00  0.00     0.134 C 
ATOM     28  C   UNL d   1       2.885  -1.432   8.970  0.00  0.00     0.183 C 
ATOM     29  O   UNL d   1       2.406  -2.260  10.039  0.00  0.00    -0.389 OA
ATOM     30  C   UNL d   1       1.983  -3.534   9.531  0.00  0.00     0.183 C 
ATOM     31  C   UNL d   1       0.831  -3.363   8.541  0.00  0.00     0.134 C 
ENDBRANCH  23  26
ENDBRANCH  20  23
ENDBRANCH   1  17
TORSDOF 7
