REMARK  5 active torsions:
REMARK  status: ('A' for Active; 'I' for Inactive)
REMARK    1  A    between atoms: C_3  and  C_1 
REMARK    2  A    between atoms: C_12  and  C_2 
REMARK    3  A    between atoms: C_4  and  C_9 
REMARK       I    between atoms: N_23  and  C_12 
REMARK       I    between atoms: C_18  and  N_24 
REMARK       I    between atoms: N_22  and  C_18 
REMARK    4  A    between atoms: C_20  and  N_22 
REMARK    5  A    between atoms: N_24  and  N_23 
ROOT
ATOM      1  C   UNL d   1      -0.994   0.615  -0.689  0.00  0.00     0.057 A 
ATOM      2  C   UNL d   1      -1.480  -0.600  -0.106  0.00  0.00     0.139 A 
ATOM      3  N   UNL d   1      -0.604  -1.043   0.822  0.00  0.00    -0.255 N 
ATOM      4  HN  UNL d   1      -0.667  -1.913   1.352  1.00  0.00     0.195 HD
ATOM      5  O   UNL d   1       0.387  -0.100   0.914  0.00  0.00    -0.241 OA
ATOM      6  C   UNL d   1       0.151   0.900   0.030  0.00  0.00     0.087 A 
ATOM      7  C   UNL d   1       1.119   2.014   0.078  0.00  0.00     0.080 C 
ENDROOT
BRANCH   2   8
ATOM      8  C   UNL d   1      -2.697  -1.387  -0.319  0.00  0.00     0.289 C 
ATOM      9  N   UNL d   1      -3.850  -0.638  -0.541  0.00  0.00    -0.261 N 
ATOM     10  H   UNL d   1      -3.709   0.280  -0.965  0.00  0.00     0.190 HD
ATOM     11  O   UNL d   1      -2.730  -2.617  -0.268  0.00  0.00    -0.264 OA
BRANCH   9  12
ATOM     12  N   UNL d   1      -5.010  -1.336  -0.899  0.00  0.00    -0.248 N 
ATOM     13  C   UNL d   1      -6.292  -0.870  -0.691  0.00  0.00     0.339 C 
ATOM     14  N   UNL d   1      -6.360   0.382  -0.120  0.00  0.00    -0.307 N 
ATOM     15  O   UNL d   1      -7.246  -1.550  -1.057  0.00  0.00    -0.245 OA
ATOM     16  H   UNL d   1      -5.559   0.957  -0.306  0.00  0.00     0.171 HD
ATOM     17  H   UNL d   1      -4.908  -2.313  -1.177  0.00  0.00     0.192 HD
BRANCH  14  18
ATOM     18  C   UNL d   1      -7.546   1.033   0.300  0.00  0.00     0.048 A 
ATOM     19  C   UNL d   1      -8.533   0.363   1.059  0.00  0.00    -0.035 A 
ATOM     20  C   UNL d   1      -9.670   1.075   1.495  0.00  0.00     0.009 A 
ATOM     21  C   UNL d   1      -8.447  -1.058   1.556  0.00  0.00     0.050 C 
ATOM     22  C   UNL d   1      -9.830   2.425   1.216  0.00  0.00     0.001 A 
ATOM     23  C   UNL d   1      -8.854   3.090   0.489  0.00  0.00     0.009 A 
ATOM     24  C   UNL d   1      -7.703   2.418   0.032  0.00  0.00    -0.035 A 
ATOM     25  C   UNL d   1      -6.772   3.251  -0.812  0.00  0.00     0.050 C 
ENDBRANCH  14  18
ENDBRANCH   9  12
ENDBRANCH   2   8
BRANCH   1  26
ATOM     26  C   UNL d   1      -1.564   1.392  -1.798  0.00  0.00     0.055 A 
ATOM     27  N   UNL d   1      -2.912   1.265  -2.106  0.00  0.00    -0.347 N 
ATOM     28  C   UNL d   1      -3.223   2.047  -3.133  0.00  0.00     0.102 A 
ATOM     29  HN  UNL d   1      -3.568   0.658  -1.615  1.00  0.00     0.167 HD
ATOM     30  S   UNL d   1      -1.939   3.015  -3.728  0.00  0.00    -0.080 SA
ATOM     31  C   UNL d   1      -0.872   2.262  -2.617  0.00  0.00     0.082 A 
BRANCH  28  32
ATOM     32  C   UNL d   1      -4.607   2.067  -3.739  0.00  0.00     0.073 A 
ATOM     33  N   UNL d   1      -5.056   3.019  -4.643  0.00  0.00    -0.352 N 
ATOM     34  C   UNL d   1      -6.309   2.761  -4.974  0.00  0.00     0.047 A 
ATOM     35  HN  UNL d   1      -4.504   3.799  -4.998  1.00  0.00     0.166 HD
ATOM     36  C   UNL d   1      -7.134   3.555  -5.924  0.00  0.00     0.076 C 
ATOM     37  S   UNL d   1      -7.011   1.384  -4.224  0.00  0.00    -0.087 SA
ATOM     38  C   UNL d   1      -5.529   1.090  -3.440  0.00  0.00     0.083 A 
ENDBRANCH  28  32
ENDBRANCH   1  26
TORSDOF 5
