REMARK  4 active torsions:
REMARK  status: ('A' for Active; 'I' for Inactive)
REMARK    1  A    between atoms: C_3  and  N_1 
REMARK    2  A    between atoms: C_7  and  C_3 
REMARK    3  A    between atoms: C_11  and  C_7 
REMARK    4  A    between atoms: O_12  and  C_7 
ROOT
ATOM      1  C   UNL d   1      -2.773  -0.173  -0.117  0.00  0.00     0.166 C 
ENDROOT
BRANCH   1   2
ATOM      2  N   UNL d   1      -3.158  -0.914   1.100  0.00  0.00    -0.341 N 
ATOM      3  C   UNL d   1      -2.527  -0.711   2.335  0.00  0.00     0.100 A 
ATOM      4  N   UNL d   1      -1.518   0.073   2.564  0.00  0.00    -0.385 N 
ATOM      5  C   UNL d   1      -3.025  -1.455   3.541  0.00  0.00     0.048 A 
ATOM      6  H   UNL d   1      -1.211   0.538   1.715  0.00  0.00     0.157 HD
ATOM      7  HN  UNL d   1      -1.088   0.206   3.480  1.00  0.00     0.157 HD
ATOM      8  C   UNL d   1      -4.076  -2.275   3.394  0.00  0.00     0.005 A 
ATOM      9  C   UNL d   1      -4.730  -2.436   2.114  0.00  0.00     0.017 A 
ATOM     10  C   UNL d   1      -4.261  -1.770   1.051  0.00  0.00     0.092 A 
ENDBRANCH   1   2
BRANCH   1  11
ATOM     11  C   UNL d   1      -3.562   1.150  -0.258  0.00  0.00     0.169 C 
BRANCH  11  12
ATOM     12  C   UNL d   1      -3.085   1.985  -1.433  0.00  0.00    -0.028 A 
ATOM     13  C   UNL d   1      -3.182   1.496  -2.747  0.00  0.00     0.010 A 
ATOM     14  C   UNL d   1      -2.797   2.280  -3.833  0.00  0.00     0.001 A 
ATOM     15  C   UNL d   1      -2.308   3.567  -3.623  0.00  0.00     0.000 A 
ATOM     16  C   UNL d   1      -2.204   4.068  -2.325  0.00  0.00     0.001 A 
ATOM     17  C   UNL d   1      -2.591   3.284  -1.236  0.00  0.00     0.010 A 
ENDBRANCH  11  12
BRANCH  11  18
ATOM     18  O   UNL d   1      -4.959   0.877  -0.450  0.00  0.00    -0.389 OA
ATOM     19  H   UNL d   1      -5.308   1.522  -1.089  0.00  0.00     0.210 HD
ENDBRANCH  11  18
ENDBRANCH   1  11
TORSDOF 4
