REMARK  8 active torsions:
REMARK  status: ('A' for Active; 'I' for Inactive)
REMARK    1  A    between atoms: C_4  and  C_1 
REMARK    2  A    between atoms: C_2  and  C_3 
REMARK    3  A    between atoms: C_3  and  O_12 
REMARK    4  A    between atoms: O_11  and  C_4 
REMARK    5  A    between atoms: O_12  and  C_5 
REMARK    6  A    between atoms: C_6  and  O_11 
REMARK    7  A    between atoms: C_20  and  C_7 
REMARK    8  A    between atoms: C_19  and  C_8 
ROOT
ATOM      1  C   UNL d   1       1.174  -5.257   0.278  0.00  0.00     0.087 C 
ATOM      2  C   UNL d   1      -1.346  -4.190  -0.165  0.00  0.00     0.087 C 
ATOM      3  C   UNL d   1       0.570  -4.522   1.322  0.00  0.00    -0.014 C 
ATOM      4  C   UNL d   1      -0.866  -5.120  -1.104  0.00  0.00    -0.014 C 
ATOM      5  C   UNL d   1      -0.682  -3.964   1.048  0.00  0.00     0.048 C 
ATOM      6  C   UNL d   1       0.466  -5.579  -0.895  0.00  0.00     0.048 C 
ENDROOT
BRANCH   1   7
ATOM      7  O   UNL d   1       2.571  -5.583   0.462  0.00  0.00    -0.274 OA
BRANCH   7   8
ATOM      8  C   UNL d   1       3.487  -6.336  -0.278  0.00  0.00     0.300 C 
ATOM      9  O   UNL d   1       3.234  -7.051  -1.233  0.00  0.00    -0.259 OA
BRANCH   8  10
ATOM     10  C   UNL d   1       4.877  -5.944   0.119  0.00  0.00     0.061 A 
ATOM     11  C   UNL d   1       5.352  -5.861   1.437  0.00  0.00     0.051 A 
ATOM     12  C   UNL d   1       6.611  -5.307   1.712  0.00  0.00     0.048 A 
ATOM     13 CL   UNL d   1       4.534  -6.544   2.784  0.00  0.00    -0.083 Cl
ATOM     14  C   UNL d   1       7.447  -4.928   0.669  0.00  0.00     0.035 A 
ATOM     15  C   UNL d   1       7.042  -5.114  -0.649  0.00  0.00     0.025 A 
ATOM     16 CL   UNL d   1       8.994  -4.263   1.012  0.00  0.00    -0.084 Cl
ATOM     17  C   UNL d   1       5.758  -5.608  -0.922  0.00  0.00     0.021 A 
ENDBRANCH   8  10
ENDBRANCH   7   8
ENDBRANCH   1   7
BRANCH   3  18
ATOM     18  C   UNL d   1       1.192  -4.366   2.717  0.00  0.00    -0.021 C 
ATOM     19  C   UNL d   1       2.497  -3.550   2.646  0.00  0.00     0.019 C 
ATOM     20  C   UNL d   1       0.298  -3.624   3.747  0.00  0.00     0.019 C 
ATOM     21  C   UNL d   1       1.378  -5.780   3.308  0.00  0.00     0.019 C 
ENDBRANCH   3  18
BRANCH   4  22
ATOM     22  C   UNL d   1      -1.724  -5.625  -2.290  0.00  0.00    -0.021 C 
ATOM     23  C   UNL d   1      -1.515  -4.705  -3.507  0.00  0.00     0.019 C 
ATOM     24  C   UNL d   1      -1.355  -7.074  -2.696  0.00  0.00     0.019 C 
ATOM     25  C   UNL d   1      -3.243  -5.681  -1.970  0.00  0.00     0.019 C 
ENDBRANCH   4  22
BRANCH   2  26
ATOM     26  O   UNL d   1      -2.542  -3.475  -0.365  0.00  0.00    -0.274 OA
BRANCH  26  27
ATOM     27  C   UNL d   1      -2.377  -2.097  -0.353  0.00  0.00     0.300 C 
ATOM     28  O   UNL d   1      -1.345  -1.454  -0.314  0.00  0.00    -0.259 OA
BRANCH  27  29
ATOM     29  C   UNL d   1      -3.703  -1.453  -0.392  0.00  0.00     0.061 A 
ATOM     30  C   UNL d   1      -4.125  -0.613   0.646  0.00  0.00     0.051 A 
ATOM     31  C   UNL d   1      -5.321   0.100   0.520  0.00  0.00     0.048 A 
ATOM     32 CL   UNL d   1      -3.235  -0.435   2.117  0.00  0.00    -0.083 Cl
ATOM     33  C   UNL d   1      -6.086  -0.031  -0.638  0.00  0.00     0.035 A 
ATOM     34  C   UNL d   1      -5.679  -0.882  -1.666  0.00  0.00     0.025 A 
ATOM     35 CL   UNL d   1      -7.537   0.877  -0.810  0.00  0.00    -0.084 Cl
ATOM     36  C   UNL d   1      -4.483  -1.594  -1.546  0.00  0.00     0.021 A 
ENDBRANCH  27  29
ENDBRANCH  26  27
ENDBRANCH   2  26
TORSDOF 8
