REMARK  6 active torsions:
REMARK  status: ('A' for Active; 'I' for Inactive)
REMARK    1  A    between atoms: C_7  and  C_1 
REMARK    2  A    between atoms: C_5  and  C_2 
REMARK    3  A    between atoms: N_19  and  C_2 
REMARK    4  A    between atoms: N_3  and  O_8 
REMARK    5  A    between atoms: C_6  and  C_9 
REMARK    6  A    between atoms: O_8  and  C_6 
ROOT
ATOM      1  C   UNL d   1      -2.431   6.159  -3.295  0.00  0.00     0.147 C 
ATOM      2  N   UNL d   1      -2.130   4.965  -2.868  0.00  0.00    -0.239 N 
ATOM      3  HN  UNL d   1      -2.700   4.136  -3.032  1.00  0.00     0.196 HD
ENDROOT
BRANCH   2   4
ATOM      4  O   UNL d   1      -0.924   4.964  -2.155  0.00  0.00    -0.193 OA
BRANCH   4   5
ATOM      5  C   UNL d   1      -0.489   3.724  -1.760  0.00  0.00     0.315 C 
ATOM      6  O   UNL d   1       0.521   3.623  -1.068  0.00  0.00    -0.257 OA
BRANCH   5   7
ATOM      7  C   UNL d   1      -1.238   2.467  -2.090  0.00  0.00     0.042 A 
ATOM      8  C   UNL d   1      -1.184   1.419  -1.152  0.00  0.00     0.034 A 
ATOM      9  C   UNL d   1      -1.820   0.188  -1.394  0.00  0.00     0.048 A 
ATOM     10  C   UNL d   1      -2.547   0.025  -2.582  0.00  0.00     0.016 A 
ATOM     11  C   UNL d   1      -2.583   1.044  -3.532  0.00  0.00     0.002 A 
ATOM     12  C   UNL d   1      -1.900   2.241  -3.302  0.00  0.00     0.018 A 
BRANCH   9  13
ATOM     13  C   UNL d   1      -1.715  -0.958  -0.418  0.00  0.00     0.417 C 
ATOM     14  F   UNL d   1      -0.940  -0.686   0.667  0.00  0.00    -0.166 F 
ATOM     15  F   UNL d   1      -1.179  -2.073  -0.988  0.00  0.00    -0.166 F 
ATOM     16  F   UNL d   1      -2.927  -1.337   0.073  0.00  0.00    -0.166 F 
ENDBRANCH   9  13
ENDBRANCH   5   7
ENDBRANCH   4   5
ENDBRANCH   2   4
BRANCH   1  17
ATOM     17  C   UNL d   1      -3.629   6.290  -4.192  0.00  0.00     0.093 A 
ATOM     18  N   UNL d   1      -3.950   7.546  -4.607  0.00  0.00    -0.360 N 
ATOM     19  C   UNL d   1      -4.996   7.606  -5.466  0.00  0.00     0.105 A 
ATOM     20  HN  UNL d   1      -3.443   8.375  -4.297  1.00  0.00     0.165 HD
ATOM     21  C   UNL d   1      -5.695   6.480  -5.883  0.00  0.00     0.104 A 
ATOM     22  N   UNL d   1      -5.385   5.235  -5.459  0.00  0.00    -0.372 N 
ATOM     23  C   UNL d   1      -4.336   5.166  -4.603  0.00  0.00     0.121 A 
ATOM     24  HN  UNL d   1      -5.902   4.409  -5.760  1.00  0.00     0.164 HD
ENDBRANCH   1  17
BRANCH   1  25
ATOM     25  N   UNL d   1      -1.724   7.299  -2.986  0.00  0.00    -0.382 N 
ATOM     26  H   UNL d   1      -1.153   7.235  -2.147  0.00  0.00     0.157 HD
ATOM     27  H   UNL d   1      -2.244   8.167  -3.085  0.00  0.00     0.157 HD
ENDBRANCH   1  25
TORSDOF 6
