REMARK  3 active torsions:
REMARK  status: ('A' for Active; 'I' for Inactive)
REMARK    1  A    between atoms: N_5  and  C_1 
REMARK       I    between atoms: C_2  and  N_3 
REMARK    2  A    between atoms: C_4  and  C_2 
REMARK    3  A    between atoms: N_3  and  C_6 
ROOT
ATOM      1  C   UNL d   1      -0.655   1.300   0.135  0.00  0.00     0.109 A 
ATOM      2  C   UNL d   1       0.750   1.114   0.129  0.00  0.00     0.073 A 
ATOM      3  N   UNL d   1      -1.504   0.254   0.092  0.00  0.00    -0.355 N 
ATOM      4  HN  UNL d   1      -2.514   0.393   0.109  1.00  0.00     0.166 HD
ATOM      5  C   UNL d   1       1.272  -0.172   0.041  0.00  0.00     0.034 A 
ATOM      6  C   UNL d   1      -0.967  -0.986   0.025  0.00  0.00     0.089 A 
ATOM      7  C   UNL d   1       0.395  -1.248  -0.001  0.00  0.00     0.019 A 
ENDROOT
BRANCH   2   8
ATOM      8  N   UNL d   1       1.562   2.252   0.312  0.00  0.00    -0.320 N 
ATOM      9  C   UNL d   1       2.804   2.474  -0.234  0.00  0.00     0.263 C 
ATOM     10  O   UNL d   1       3.387   1.662  -0.953  0.00  0.00    -0.267 OA
ATOM     11  H   UNL d   1       1.057   3.063   0.656  0.00  0.00     0.169 HD
BRANCH   9  12
ATOM     12  C   UNL d   1       3.344   3.806   0.018  0.00  0.00     0.072 A 
ATOM     13  S   UNL d   1       2.781   4.787   1.309  0.00  0.00    -0.097 SA
ATOM     14  C   UNL d   1       3.901   6.026   0.950  0.00  0.00     0.050 A 
ATOM     15  C   UNL d   1       4.669   5.724  -0.152  0.00  0.00     0.009 A 
ATOM     16  C   UNL d   1       4.346   4.445  -0.691  0.00  0.00     0.025 A 
ENDBRANCH   9  12
ENDBRANCH   2   8
BRANCH   1  17
ATOM     17  N   UNL d   1      -1.151   2.618   0.222  0.00  0.00    -0.263 NA
ATOM     18  C   UNL d   1      -2.551   2.719   0.672  0.00  0.00     0.123 C 
ATOM     19  C   UNL d   1      -2.823   4.201   0.996  0.00  0.00     0.182 C 
ATOM     20  O   UNL d   1      -2.581   5.055  -0.140  0.00  0.00    -0.389 OA
ATOM     21  C   UNL d   1      -1.238   4.891  -0.632  0.00  0.00     0.182 C 
ATOM     22  C   UNL d   1      -0.960   3.425  -1.008  0.00  0.00     0.123 C 
ENDBRANCH   1  17
TORSDOF 3
