REMARK  7 active torsions:
REMARK  status: ('A' for Active; 'I' for Inactive)
REMARK    1  A    between atoms: N_2  and  C_1 
REMARK    2  A    between atoms: C_3  and  C_1 
REMARK    3  A    between atoms: C_4  and  C_1 
REMARK    4  A    between atoms: O_6  and  C_1 
REMARK       I    between atoms: C_5  and  N_2 
REMARK    5  A    between atoms: C_8  and  C_5 
REMARK    6  A    between atoms: C_15  and  O_6 
REMARK    7  A    between atoms: C_17  and  C_15 
ROOT
ATOM      1  C   UNL d   1       0.891   0.033  -0.072  0.00  0.00     0.337 C 
ENDROOT
BRANCH   1   2
ATOM      2  N   UNL d   1       0.344   0.747  -1.265  0.00  0.00    -0.310 N 
ATOM      3  C   UNL d   1       0.038   0.136  -2.452  0.00  0.00     0.254 C 
ATOM      4  O   UNL d   1       0.136  -1.069  -2.619  0.00  0.00    -0.268 OA
ATOM      5  H   UNL d   1       0.224   1.744  -1.164  0.00  0.00     0.166 HD
BRANCH   3   6
ATOM      6  C   UNL d   1      -0.439   1.015  -3.550  0.00  0.00     0.032 A 
ATOM      7  C   UNL d   1      -0.015   2.346  -3.683  0.00  0.00     0.017 A 
ATOM      8  C   UNL d   1      -0.496   3.125  -4.736  0.00  0.00     0.001 A 
ATOM      9  C   UNL d   1      -1.387   2.580  -5.662  0.00  0.00     0.000 A 
ATOM     10  C   UNL d   1      -1.797   1.249  -5.542  0.00  0.00     0.001 A 
ATOM     11  C   UNL d   1      -1.319   0.470  -4.492  0.00  0.00     0.017 A 
ENDBRANCH   3   6
ENDBRANCH   1   2
BRANCH   1  12
ATOM     12  C   UNL d   1       0.307  -1.374   0.261  0.00  0.00     0.447 C 
ATOM     13  F   UNL d   1      -1.036  -1.406   0.087  0.00  0.00    -0.166 F 
ATOM     14  F   UNL d   1       0.824  -2.375  -0.483  0.00  0.00    -0.166 F 
ATOM     15  F   UNL d   1       0.542  -1.723   1.552  0.00  0.00    -0.166 F 
ENDBRANCH   1  12
BRANCH   1  16
ATOM     16  C   UNL d   1       0.473   0.840   1.192  0.00  0.00     0.447 C 
ATOM     17  F   UNL d   1       0.540   2.178   0.924  0.00  0.00    -0.166 F 
ATOM     18  F   UNL d   1      -0.797   0.606   1.583  0.00  0.00    -0.166 F 
ATOM     19  F   UNL d   1       1.278   0.619   2.252  0.00  0.00    -0.166 F 
ENDBRANCH   1  16
BRANCH   1  20
ATOM     20  O   UNL d   1       2.338   0.101  -0.170  0.00  0.00    -0.342 OA
BRANCH  20  21
ATOM     21  C   UNL d   1       2.930  -0.586  -1.266  0.00  0.00     0.210 C 
BRANCH  21  22
ATOM     22  C   UNL d   1       4.427  -0.579  -1.078  0.00  0.00    -0.034 A 
ATOM     23  C   UNL d   1       5.067  -1.647  -0.426  0.00  0.00     0.012 A 
ATOM     24  C   UNL d   1       6.455  -1.652  -0.281  0.00  0.00     0.043 A 
ATOM     25  C   UNL d   1       7.201  -0.589  -0.776  0.00  0.00     0.116 A 
ATOM     26  C   UNL d   1       6.585   0.485  -1.406  0.00  0.00     0.043 A 
ATOM     27  F   UNL d   1       8.534  -0.600  -0.645  0.00  0.00    -0.206 F 
ATOM     28  C   UNL d   1       5.197   0.492  -1.553  0.00  0.00     0.012 A 
ENDBRANCH  21  22
ENDBRANCH  20  21
ENDBRANCH   1  20
TORSDOF 7
