REMARK  2 active torsions:
REMARK  status: ('A' for Active; 'I' for Inactive)
REMARK    1  A    between atoms: C_4  and  C_1 
REMARK    2  A    between atoms: N_13  and  C_5 
ROOT
ATOM      1  N   UNL d   1      -0.069  -1.002  -0.086  0.00  0.00    -0.329 N 
ATOM      2  HN  UNL d   1      -0.114  -2.021  -0.092  1.00  0.00     0.168 HD
ATOM      3  C   UNL d   1      -1.194  -0.246  -0.019  0.00  0.00     0.120 A 
ATOM      4  C   UNL d   1       1.096  -0.359  -0.144  0.00  0.00     0.155 A 
ATOM      5  N   UNL d   1       1.236   0.967  -0.102  0.00  0.00    -0.337 N 
ATOM      6  HN  UNL d   1       2.158   1.403  -0.121  1.00  0.00     0.168 HD
ATOM      7  C   UNL d   1      -1.141   1.138   0.007  0.00  0.00     0.059 A 
ATOM      8  C   UNL d   1       0.113   1.708  -0.035  0.00  0.00     0.010 A 
ATOM      9  C   UNL d   1       0.272   3.199  -0.019  0.00  0.00     0.068 C 
ENDROOT
BRANCH   3  10
ATOM     10  C   UNL d   1      -2.550  -0.928   0.024  0.00  0.00     0.432 C 
ATOM     11  F   UNL d   1      -2.500  -2.289   0.004  0.00  0.00    -0.165 F 
ATOM     12  F   UNL d   1      -3.258  -0.599   1.145  0.00  0.00    -0.165 F 
ATOM     13  F   UNL d   1      -3.346  -0.568  -1.025  0.00  0.00    -0.165 F 
ENDBRANCH   3  10
BRANCH   4  14
ATOM     14  N   UNL d   1       2.241  -1.121  -0.206  0.00  0.00    -0.274 NA
ATOM     15  H   UNL d   1       2.069  -2.039   0.178  0.00  0.00     0.127 HD
ATOM     16  H   UNL d   1       3.022  -0.599   0.166  0.00  0.00     0.127 HD
ENDBRANCH   4  14
TORSDOF 2
