REMARK  6 active torsions:
REMARK  status: ('A' for Active; 'I' for Inactive)
REMARK    1  A    between atoms: C_5  and  C_3 
REMARK    2  A    between atoms: C_12  and  N_4 
REMARK    3  A    between atoms: S_16  and  C_11 
REMARK    4  A    between atoms: C_15  and  C_18 
REMARK    5  A    between atoms: C_17  and  C_15 
REMARK    6  A    between atoms: C_18  and  S_16 
ROOT
ATOM      1  C   UNL d   1       2.538   1.315  -0.274  0.00  0.00     0.067 A 
ATOM      2  N   UNL d   1       3.149   1.239  -1.481  0.00  0.00    -0.335 N 
ATOM      3  HN  UNL d   1       2.764   0.681  -2.243  1.00  0.00     0.168 HD
ATOM      4  C   UNL d   1       4.287   1.939  -1.623  0.00  0.00     0.145 A 
ATOM      5  N   UNL d   1       4.847   2.683  -0.655  0.00  0.00    -0.347 N 
ATOM      6  HN  UNL d   1       5.726   3.178  -0.805  1.00  0.00     0.167 HD
ATOM      7  C   UNL d   1       3.017   2.101   0.755  0.00  0.00     0.049 A 
ATOM      8  C   UNL d   1       4.200   2.747   0.516  0.00  0.00     0.092 A 
ENDROOT
BRANCH   1   9
ATOM      9  C   UNL d   1       1.267   0.539  -0.116  0.00  0.00     0.125 C 
ATOM     10  N   UNL d   1       0.519   0.267  -1.154  0.00  0.00    -0.288 N 
ATOM     11  N   UNL d   1      -0.689  -0.368  -0.948  0.00  0.00    -0.267 N 
ATOM     12  HN  UNL d   1       0.821   0.518  -2.095  1.00  0.00     0.188 HD
ATOM     13  C   UNL d   1      -1.159  -0.673   0.311  0.00  0.00     0.120 C 
ATOM     14  C   UNL d   1      -0.488  -0.475   1.444  0.00  0.00     0.076 C 
ATOM     15  C   UNL d   1       0.854   0.083   1.281  0.00  0.00     0.203 C 
ATOM     16  O   UNL d   1       1.609   0.160   2.242  0.00  0.00    -0.286 OA
BRANCH  11  17
ATOM     17  C   UNL d   1      -1.421  -0.667  -2.145  0.00  0.00     0.056 A 
ATOM     18  C   UNL d   1      -0.740  -0.937  -3.346  0.00  0.00     0.034 A 
ATOM     19  C   UNL d   1      -1.429  -1.268  -4.518  0.00  0.00     0.044 A 
ATOM     20  C   UNL d   1      -2.816  -1.316  -4.503  0.00  0.00     0.116 A 
ATOM     21  C   UNL d   1      -3.523  -1.037  -3.342  0.00  0.00     0.044 A 
ATOM     22  F   UNL d   1      -3.480  -1.630  -5.621  0.00  0.00    -0.206 F 
ATOM     23  C   UNL d   1      -2.830  -0.716  -2.170  0.00  0.00     0.034 A 
ENDBRANCH  11  17
ENDBRANCH   1   9
BRANCH   4  24
ATOM     24  S   UNL d   1       5.061   1.966  -3.225  0.00  0.00    -0.086 SA
BRANCH  24  25
ATOM     25  C   UNL d   1       6.569   2.906  -2.821  0.00  0.00     0.166 C 
BRANCH  25  26
ATOM     26  C   UNL d   1       7.355   3.223  -4.076  0.00  0.00     0.169 C 
ATOM     27  O   UNL d   1       8.257   2.476  -4.462  0.00  0.00    -0.291 OA
BRANCH  26  28
ATOM     28  C   UNL d   1       7.040   4.454  -4.873  0.00  0.00     0.011 A 
ATOM     29  C   UNL d   1       6.049   5.371  -4.505  0.00  0.00     0.015 A 
ATOM     30  C   UNL d   1       5.727   6.440  -5.350  0.00  0.00     0.007 A 
ATOM     31  C   UNL d   1       6.389   6.610  -6.571  0.00  0.00    -0.062 A 
ATOM     32  C   UNL d   1       7.422   5.733  -6.910  0.00  0.00     0.007 A 
ATOM     33  C   UNL d   1       5.929   7.668  -7.531  0.00  0.00     0.048 C 
ATOM     34  C   UNL d   1       7.748   4.667  -6.065  0.00  0.00     0.015 A 
ENDBRANCH  26  28
ENDBRANCH  25  26
ENDBRANCH  24  25
ENDBRANCH   4  24
TORSDOF 6
