REMARK  4 active torsions:
REMARK  status: ('A' for Active; 'I' for Inactive)
REMARK    1  A    between atoms: C_8  and  C_3 
REMARK    2  A    between atoms: C_15  and  C_7 
REMARK    3  A    between atoms: O_12  and  C_15 
REMARK    4  A    between atoms: C_13  and  O_12 
ROOT
ATOM      1  N   UNL d   1       1.033  -0.673   0.267  0.00  0.00    -0.277 N 
ATOM      2  HN  UNL d   1       1.862  -1.261   0.351  1.00  0.00     0.189 HD
ATOM      3  C   UNL d   1      -0.212  -1.085   0.123  0.00  0.00     0.174 A 
ATOM      4  O   UNL d   1      -1.099  -0.044   0.050  0.00  0.00    -0.275 OA
ATOM      5  N   UNL d   1       0.997   0.709   0.280  0.00  0.00    -0.279 N 
ATOM      6  HN  UNL d   1       1.793   1.341   0.371  1.00  0.00     0.189 HD
ATOM      7  C   UNL d   1      -0.270   1.047   0.151  0.00  0.00     0.165 A 
ENDROOT
BRANCH   7   8
ATOM      8  C   UNL d   1      -0.893   2.383  -0.044  0.00  0.00     0.261 C 
BRANCH   8   9
ATOM      9  O   UNL d   1      -1.268   2.896   1.234  0.00  0.00    -0.342 OA
BRANCH   9  10
ATOM     10  C   UNL d   1      -1.706   4.195   1.300  0.00  0.00     0.091 A 
ATOM     11  C   UNL d   1      -2.447   4.932   0.362  0.00  0.00     0.067 A 
ATOM     12 CL   UNL d   1      -2.988   4.341  -1.170  0.00  0.00    -0.081 Cl
ATOM     13  C   UNL d   1      -2.856   6.242   0.659  0.00  0.00     0.026 A 
ATOM     14  C   UNL d   1      -2.547   6.831   1.882  0.00  0.00     0.002 A 
ATOM     15  C   UNL d   1      -1.820   6.110   2.822  0.00  0.00     0.003 A 
ATOM     16  C   UNL d   1      -1.409   4.806   2.533  0.00  0.00     0.038 A 
ENDBRANCH   9  10
ENDBRANCH   8   9
ENDBRANCH   7   8
BRANCH   3  17
ATOM     17  C   UNL d   1      -0.746  -2.438   0.007  0.00  0.00     0.018 A 
ATOM     18  C   UNL d   1      -2.116  -2.692  -0.153  0.00  0.00     0.041 A 
ATOM     19  C   UNL d   1      -2.598  -4.005  -0.253  0.00  0.00     0.056 A 
ATOM     20 CL   UNL d   1      -4.300  -4.224  -0.449  0.00  0.00    -0.083 Cl
ATOM     21  C   UNL d   1      -1.708  -5.084  -0.194  0.00  0.00     0.055 A 
ATOM     22  C   UNL d   1      -0.341  -4.842  -0.042  0.00  0.00     0.026 A 
ATOM     23 CL   UNL d   1      -2.229  -6.727  -0.300  0.00  0.00    -0.083 Cl
ATOM     24  C   UNL d   1       0.134  -3.532   0.057  0.00  0.00     0.017 A 
ENDBRANCH   3  17
TORSDOF 4
