REMARK  3 active torsions:
REMARK  status: ('A' for Active; 'I' for Inactive)
REMARK       I    between atoms: N_2  and  C_1 
REMARK       I    between atoms: N_3  and  C_1 
REMARK    1  A    between atoms: C_4  and  N_3 
REMARK    2  A    between atoms: C_12  and  N_5 
REMARK    3  A    between atoms: C_19  and  C_12 
ROOT
ATOM      1  C   UNL d   1       0.900   0.096  -0.212  0.00  0.00     0.323 C 
ATOM      2  N   UNL d   1       0.508   0.884   0.863  0.00  0.00    -0.331 N 
ATOM      3  N   UNL d   1       0.673  -1.252  -0.034  0.00  0.00    -0.306 N 
ATOM      4  N   UNL d   1      -0.265   2.756   3.015  0.00  0.00     0.095 N 
ATOM      5  O   UNL d   1       1.482   0.574  -1.183  0.00  0.00    -0.247 OA
ATOM      6  C   UNL d   1       0.925   2.288   0.825  0.00  0.00     0.158 C 
ATOM      7  C   UNL d   1      -0.676   0.609   1.687  0.00  0.00     0.158 C 
ATOM      8  C   UNL d   1       0.981   2.905   2.230  0.00  0.00     0.292 C 
ATOM      9  C   UNL d   1      -0.614   1.316   3.061  0.00  0.00     0.292 C 
ATOM     10  H   UNL d   1       0.659  -1.541   0.936  0.00  0.00     0.171 HD
ENDROOT
BRANCH   3  11
ATOM     11  C   UNL d   1       1.164  -2.236  -0.924  0.00  0.00     0.075 A 
ATOM     12  C   UNL d   1       1.643  -3.431  -0.373  0.00  0.00     0.146 A 
ATOM     13  C   UNL d   1       2.262  -4.392  -1.161  0.00  0.00     0.086 A 
ATOM     14  F   UNL d   1       1.562  -3.626   0.953  0.00  0.00    -0.204 F 
ATOM     15  C   UNL d   1       2.366  -4.168  -2.526  0.00  0.00     0.119 A 
ATOM     16  C   UNL d   1       1.844  -3.017  -3.109  0.00  0.00     0.044 A 
ATOM     17  F   UNL d   1       2.986  -5.072  -3.296  0.00  0.00    -0.206 F 
ATOM     18  C   UNL d   1       1.238  -2.047  -2.306  0.00  0.00     0.036 A 
ENDBRANCH   3  11
BRANCH   4  19
ATOM     19  C   UNL d   1      -1.385   3.549   2.475  0.00  0.00     0.311 C 
BRANCH  19  20
ATOM     20  C   UNL d   1      -1.124   5.037   2.406  0.00  0.00    -0.030 A 
ATOM     21  C   UNL d   1      -1.125   5.700   1.168  0.00  0.00     0.009 A 
ATOM     22  C   UNL d   1      -0.907   7.076   1.099  0.00  0.00     0.001 A 
ATOM     23  C   UNL d   1      -0.687   7.806   2.265  0.00  0.00     0.000 A 
ATOM     24  C   UNL d   1      -0.677   7.160   3.500  0.00  0.00     0.001 A 
ATOM     25  C   UNL d   1      -0.893   5.782   3.572  0.00  0.00     0.009 A 
ENDBRANCH  19  20
ENDBRANCH   4  19
TORSDOF 3
