REMARK  4 active torsions:
REMARK  status: ('A' for Active; 'I' for Inactive)
REMARK    1  A    between atoms: C_5  and  C_1 
REMARK    2  A    between atoms: C_8  and  C_4 
REMARK       I    between atoms: N_10  and  C_5 
REMARK       I    between atoms: C_9  and  N_12 
REMARK       I    between atoms: N_13  and  C_9 
REMARK    3  A    between atoms: N_12  and  N_10 
REMARK    4  A    between atoms: C_19  and  N_13 
ROOT
ATOM      1  C   UNL d   1       2.058   1.697   0.309  0.00  0.00     0.287 C 
ATOM      2  N   UNL d   1       1.952   3.014   0.708  0.00  0.00    -0.261 N 
ATOM      3  O   UNL d   1       1.293   1.182  -0.505  0.00  0.00    -0.264 OA
ATOM      4  H   UNL d   1       2.734   3.456   1.194  0.00  0.00     0.190 HD
ENDROOT
BRANCH   2   5
ATOM      5  N   UNL d   1       1.017   3.861   0.075  0.00  0.00    -0.248 N 
ATOM      6  C   UNL d   1       1.467   5.123  -0.291  0.00  0.00     0.339 C 
ATOM      7  N   UNL d   1       0.510   5.823  -0.999  0.00  0.00    -0.308 N 
ATOM      8  O   UNL d   1       2.576   5.525   0.045  0.00  0.00    -0.245 OA
ATOM      9  H   UNL d   1      -0.392   5.378  -1.083  0.00  0.00     0.170 HD
ATOM     10  H   UNL d   1       0.340   3.377  -0.510  0.00  0.00     0.192 HD
BRANCH   7  11
ATOM     11  C   UNL d   1       0.622   7.128  -1.528  0.00  0.00     0.036 A 
ATOM     12  C   UNL d   1       1.798   7.882  -1.495  0.00  0.00     0.031 A 
ATOM     13  C   UNL d   1       1.840   9.167  -2.050  0.00  0.00     0.026 A 
ATOM     14  C   UNL d   1       0.704   9.705  -2.645  0.00  0.00     0.034 A 
ATOM     15  C   UNL d   1      -0.478   8.967  -2.687  0.00  0.00     0.026 A 
ATOM     16 CL   UNL d   1       0.761  11.280  -3.336  0.00  0.00    -0.084 Cl
ATOM     17  C   UNL d   1      -0.518   7.684  -2.130  0.00  0.00     0.031 A 
ENDBRANCH   7  11
ENDBRANCH   2   5
BRANCH   1  18
ATOM     18  C   UNL d   1       3.155   0.976   0.960  0.00  0.00     0.110 A 
ATOM     19  N   UNL d   1       3.933   1.565   1.964  0.00  0.00    -0.345 N 
ATOM     20  C   UNL d   1       4.807   0.697   2.443  0.00  0.00     0.091 A 
ATOM     21  HN  UNL d   1       3.838   2.530   2.282  1.00  0.00     0.167 HD
ATOM     22  S   UNL d   1       4.786  -0.843   1.670  0.00  0.00    -0.080 SA
ATOM     23  C   UNL d   1       3.495  -0.332   0.672  0.00  0.00     0.087 A 
BRANCH  20  24
ATOM     24  C   UNL d   1       5.685   1.035   3.545  0.00  0.00     0.038 A 
ATOM     25  S   UNL d   1       6.808  -0.066   4.242  0.00  0.00    -0.099 SA
ATOM     26  C   UNL d   1       7.332   1.072   5.403  0.00  0.00     0.050 A 
ATOM     27  C   UNL d   1       6.682   2.277   5.269  0.00  0.00     0.008 A 
ATOM     28  C   UNL d   1       5.739   2.256   4.199  0.00  0.00     0.022 A 
ENDBRANCH  20  24
ENDBRANCH   1  18
TORSDOF 4
