REMARK  8 active torsions:
REMARK  status: ('A' for Active; 'I' for Inactive)
REMARK    1  A    between atoms: C_8  and  C_1 
REMARK    2  A    between atoms: C_10  and  N_2 
REMARK    3  A    between atoms: C_7  and  C_9 
REMARK       I    between atoms: N_16  and  C_8 
REMARK    4  A    between atoms: C_29  and  N_16 
REMARK    5  A    between atoms: C_21  and  C_28 
REMARK    6  A    between atoms: S_25  and  C_31 
REMARK    7  A    between atoms: C_28  and  S_25 
REMARK    8  A    between atoms: C_31  and  C_29 
ROOT
ATOM      1  C   UNL d   1      -0.794   2.602   0.023  0.00  0.00     0.255 C 
ATOM      2  O   UNL d   1      -0.015   3.543   0.099  0.00  0.00    -0.268 OA
ATOM      3  N   UNL d   1      -2.154   2.798  -0.071  0.00  0.00    -0.356 N 
ATOM      4  H   UNL d   1      -2.785   2.026   0.083  0.00  0.00     0.162 HD
ENDROOT
BRANCH   1   5
ATOM      5  C   UNL d   1      -0.345   1.213   0.026  0.00  0.00     0.073 C 
ATOM      6  C   UNL d   1       0.986   0.800   0.046  0.00  0.00     0.048 C 
ATOM      7  N   UNL d   1       0.977  -0.588   0.049  0.00  0.00    -0.260 N 
ATOM      8  C   UNL d   1       2.200   1.664  -0.025  0.00  0.00     0.071 C 
ATOM      9  N   UNL d   1      -0.285  -1.065  -0.120  0.00  0.00    -0.304 N 
ATOM     10  C   UNL d   1      -1.066   0.010  -0.052  0.00  0.00     0.126 C 
ATOM     11  HN  UNL d   1      -0.570  -2.033  -0.266  1.00  0.00     0.186 HD
BRANCH   7  12
ATOM     12  C   UNL d   1       2.052  -1.512   0.200  0.00  0.00     0.056 A 
ATOM     13  C   UNL d   1       3.212  -1.173   0.911  0.00  0.00     0.034 A 
ATOM     14  C   UNL d   1       4.255  -2.093   1.034  0.00  0.00     0.044 A 
ATOM     15  C   UNL d   1       4.130  -3.355   0.468  0.00  0.00     0.116 A 
ATOM     16  C   UNL d   1       2.977  -3.721  -0.216  0.00  0.00     0.044 A 
ATOM     17  F   UNL d   1       5.130  -4.237   0.597  0.00  0.00    -0.206 F 
ATOM     18  C   UNL d   1       1.931  -2.803  -0.344  0.00  0.00     0.034 A 
ENDBRANCH   7  12
ENDBRANCH   1   5
BRANCH   3  19
ATOM     19  C   UNL d   1      -2.686   4.148   0.009  0.00  0.00     0.133 C 
BRANCH  19  20
ATOM     20  C   UNL d   1      -4.214   4.188   0.063  0.00  0.00     0.093 C 
BRANCH  20  21
ATOM     21  S   UNL d   1      -4.787   3.327   1.568  0.00  0.00    -0.163 SA
BRANCH  21  22
ATOM     22  C   UNL d   1      -6.578   3.572   1.390  0.00  0.00     0.112 C 
BRANCH  22  23
ATOM     23  C   UNL d   1      -7.314   2.950   2.552  0.00  0.00    -0.048 A 
ATOM     24  C   UNL d   1      -7.732   1.611   2.495  0.00  0.00     0.024 A 
ATOM     25  C   UNL d   1      -8.419   1.020   3.567  0.00  0.00     0.048 A 
ATOM     26  C   UNL d   1      -8.660   1.780   4.721  0.00  0.00     0.016 A 
ATOM     27  C   UNL d   1      -8.227   3.104   4.798  0.00  0.00     0.001 A 
ATOM     28  C   UNL d   1      -7.559   3.686   3.721  0.00  0.00     0.008 A 
BRANCH  25  29
ATOM     29  C   UNL d   1      -8.908  -0.405   3.486  0.00  0.00     0.417 C 
ATOM     30  F   UNL d   1      -8.612  -1.016   2.304  0.00  0.00    -0.166 F 
ATOM     31  F   UNL d   1      -8.384  -1.200   4.459  0.00  0.00    -0.166 F 
ATOM     32  F   UNL d   1     -10.261  -0.496   3.619  0.00  0.00    -0.166 F 
ENDBRANCH  25  29
ENDBRANCH  22  23
ENDBRANCH  21  22
ENDBRANCH  20  21
ENDBRANCH  19  20
ENDBRANCH   3  19
TORSDOF 8
