REMARK  9 active torsions:
REMARK  status: ('A' for Active; 'I' for Inactive)
REMARK    1  A    between atoms: C_9  and  N_1 
REMARK    2  A    between atoms: C_11  and  C_2 
REMARK    3  A    between atoms: S_8  and  C_5 
REMARK    4  A    between atoms: C_12  and  S_8 
REMARK    5  A    between atoms: C_14  and  C_9 
REMARK    6  A    between atoms: C_10  and  C_12 
REMARK    7  A    between atoms: C_15  and  C_10 
REMARK    8  A    between atoms: O_16  and  C_14 
REMARK    9  A    between atoms: O_17  and  C_14 
ROOT
ATOM      1  N   UNL d   1      -0.231  -1.114  -0.212  0.00  0.00    -0.306 N 
ATOM      2  C   UNL d   1       0.966  -0.433  -0.401  0.00  0.00     0.134 A 
ATOM      3  N   UNL d   1       0.692   0.860  -0.464  0.00  0.00    -0.283 N 
ATOM      4  HN  UNL d   1       1.381   1.604  -0.571  1.00  0.00     0.188 HD
ATOM      5  C   UNL d   1      -1.201  -0.140  -0.209  0.00  0.00     0.163 A 
ATOM      6  N   UNL d   1      -0.661   1.041  -0.363  0.00  0.00    -0.278 N 
ATOM      7  HN  UNL d   1      -1.156   1.932  -0.400  1.00  0.00     0.189 HD
ENDROOT
BRANCH   5   8
ATOM      8  S   UNL d   1      -2.899  -0.431  -0.036  0.00  0.00    -0.085 SA
BRANCH   8   9
ATOM      9  C   UNL d   1      -3.559   0.582  -1.395  0.00  0.00     0.166 C 
BRANCH   9  10
ATOM     10  C   UNL d   1      -3.257  -0.006  -2.767  0.00  0.00     0.169 C 
ATOM     11  O   UNL d   1      -2.507  -0.969  -2.945  0.00  0.00    -0.291 OA
BRANCH  10  12
ATOM     12  C   UNL d   1      -3.918   0.612  -3.966  0.00  0.00     0.010 A 
ATOM     13  C   UNL d   1      -4.866   1.640  -3.869  0.00  0.00     0.015 A 
ATOM     14  C   UNL d   1      -5.476   2.150  -5.023  0.00  0.00     0.001 A 
ATOM     15  C   UNL d   1      -5.138   1.644  -6.278  0.00  0.00     0.000 A 
ATOM     16  C   UNL d   1      -4.190   0.632  -6.385  0.00  0.00     0.001 A 
ATOM     17  C   UNL d   1      -3.584   0.117  -5.236  0.00  0.00     0.015 A 
ENDBRANCH  10  12
ENDBRANCH   9  10
ENDBRANCH   8   9
ENDBRANCH   5   8
BRANCH   1  18
ATOM     18  C   UNL d   1      -0.460  -2.544  -0.182  0.00  0.00     0.193 C 
BRANCH  18  19
ATOM     19  C   UNL d   1       0.211  -3.345   0.949  0.00  0.00     0.276 C 
BRANCH  19  20
ATOM     20  O   UNL d   1      -0.281  -2.868   2.207  0.00  0.00    -0.364 OA
ATOM     21  C   UNL d   1       0.363  -3.505   3.306  0.00  0.00     0.204 C 
ENDBRANCH  19  20
BRANCH  19  22
ATOM     22  O   UNL d   1      -0.109  -4.741   0.837  0.00  0.00    -0.364 OA
ATOM     23  C   UNL d   1       0.399  -5.377  -0.325  0.00  0.00     0.204 C 
ENDBRANCH  19  22
ENDBRANCH  18  19
ENDBRANCH   1  18
BRANCH   2  24
ATOM     24  C   UNL d   1       2.335  -0.969  -0.440  0.00  0.00     0.009 A 
ATOM     25  C   UNL d   1       2.684  -2.172  -1.066  0.00  0.00     0.015 A 
ATOM     26  C   UNL d   1       3.992  -2.666  -0.993  0.00  0.00     0.001 A 
ATOM     27  C   UNL d   1       4.983  -1.934  -0.344  0.00  0.00     0.000 A 
ATOM     28  C   UNL d   1       4.673  -0.698   0.213  0.00  0.00     0.001 A 
ATOM     29  C   UNL d   1       3.361  -0.222   0.164  0.00  0.00     0.015 A 
ENDBRANCH   2  24
TORSDOF 9
