REMARK  8 active torsions:
REMARK  status: ('A' for Active; 'I' for Inactive)
REMARK    1  A    between atoms: S_9  and  C_1 
REMARK    2  A    between atoms: C_5  and  C_10 
REMARK    3  A    between atoms: C_10  and  S_9 
REMARK    4  A    between atoms: C_25  and  N_11 
REMARK    5  A    between atoms: C_18  and  C_13 
REMARK    6  A    between atoms: O_24  and  C_15 
REMARK    7  A    between atoms: C_16  and  C_26 
REMARK    8  A    between atoms: C_26  and  C_25 
ROOT
ATOM      1  C   UNL d   1       0.059   1.342  -0.093  0.00  0.00     0.144 A 
ATOM      2  N   UNL d   1       1.153   0.573  -0.130  0.00  0.00    -0.336 N 
ATOM      3  HN  UNL d   1       2.092   0.969  -0.164  1.00  0.00     0.168 HD
ATOM      4  N   UNL d   1      -1.201   0.870  -0.062  0.00  0.00    -0.347 N 
ATOM      5  HN  UNL d   1      -2.007   1.495  -0.047  1.00  0.00     0.167 HD
ATOM      6  C   UNL d   1       0.939  -0.755  -0.120  0.00  0.00     0.050 A 
ATOM      7  C   UNL d   1      -1.347  -0.469  -0.052  0.00  0.00     0.092 A 
ATOM      8  C   UNL d   1      -0.299  -1.349  -0.076  0.00  0.00     0.048 A 
ENDROOT
BRANCH   6   9
ATOM      9  C   UNL d   1       2.171  -1.561  -0.134  0.00  0.00     0.112 C 
ATOM     10  N   UNL d   1       2.172  -2.846   0.007  0.00  0.00    -0.397 N 
ATOM     11  HN  UNL d   1       1.319  -3.401   0.078  1.00  0.00     0.158 HD
BRANCH  10  12
ATOM     12  C   UNL d   1       3.528  -3.432   0.056  0.00  0.00     0.123 C 
BRANCH  12  13
ATOM     13  C   UNL d   1       4.220  -3.034   1.369  0.00  0.00     0.061 C 
BRANCH  13  14
ATOM     14  C   UNL d   1       5.619  -3.524   1.653  0.00  0.00    -0.023 A 
ATOM     15  C   UNL d   1       6.308  -3.160   2.829  0.00  0.00     0.074 A 
ATOM     16  C   UNL d   1       7.585  -3.686   3.079  0.00  0.00     0.037 A 
ATOM     17  C   UNL d   1       8.197  -4.555   2.180  0.00  0.00     0.003 A 
ATOM     18  C   UNL d   1       7.531  -4.918   1.019  0.00  0.00     0.001 A 
ATOM     19  C   UNL d   1       6.259  -4.406   0.757  0.00  0.00     0.010 A 
BRANCH  15  20
ATOM     20  O   UNL d   1       5.837  -2.414   3.878  0.00  0.00    -0.355 OA
ATOM     21  C   UNL d   1       5.083  -1.242   3.605  0.00  0.00     0.210 C 
ENDBRANCH  15  20
ENDBRANCH  13  14
ENDBRANCH  12  13
ENDBRANCH  10  12
ENDBRANCH   6   9
BRANCH   1  22
ATOM     22  S   UNL d   1       0.352   3.090  -0.088  0.00  0.00    -0.089 SA
BRANCH  22  23
ATOM     23  C   UNL d   1      -1.354   3.711  -0.137  0.00  0.00     0.122 C 
BRANCH  23  24
ATOM     24  C   UNL d   1      -1.379   5.223  -0.181  0.00  0.00    -0.027 A 
ATOM     25  C   UNL d   1      -1.383   6.020   0.977  0.00  0.00     0.042 A 
ATOM     26  C   UNL d   1      -1.406   7.415   0.886  0.00  0.00     0.048 A 
ATOM     27 CL   UNL d   1      -1.357   5.329   2.561  0.00  0.00    -0.084 Cl
ATOM     28  C   UNL d   1      -1.416   8.026  -0.364  0.00  0.00     0.035 A 
ATOM     29  C   UNL d   1      -1.391   7.259  -1.525  0.00  0.00     0.024 A 
ATOM     30 CL   UNL d   1      -1.459   9.742  -0.476  0.00  0.00    -0.084 Cl
ATOM     31  C   UNL d   1      -1.369   5.866  -1.434  0.00  0.00     0.011 A 
ENDBRANCH  23  24
ENDBRANCH  22  23
ENDBRANCH   1  22
TORSDOF 8
