REMARK  8 active torsions:
REMARK  status: ('A' for Active; 'I' for Inactive)
REMARK    1  A    between atoms: C_8  and  C_1 
REMARK    2  A    between atoms: N_13  and  C_2 
REMARK    3  A    between atoms: C_5  and  C_3 
REMARK    4  A    between atoms: C_9  and  C_5 
REMARK    5  A    between atoms: O_18  and  C_8 
REMARK    6  A    between atoms: O_19  and  C_9 
REMARK    7  A    between atoms: C_22  and  O_18 
REMARK    8  A    between atoms: C_23  and  O_19 
ROOT
ATOM      1  C   UNL d   1      -1.170   2.191   1.232  0.00  0.00     0.205 C 
ATOM      2  C   UNL d   1       0.098   2.947   1.385  0.00  0.00     0.075 C 
ATOM      3  N   UNL d   1       1.110   3.499   1.501  0.00  0.00    -0.196 NA
ENDROOT
BRANCH   1   4
ATOM      4  C   UNL d   1      -1.228   1.366  -0.089  0.00  0.00     0.091 C 
ATOM      5  C   UNL d   1      -2.512   0.543  -0.215  0.00  0.00     0.073 C 
ATOM      6  C   UNL d   1      -2.497  -0.799  -0.053  0.00  0.00     0.134 C 
ATOM      7  O   UNL d   1      -1.339  -1.471   0.321  0.00  0.00    -0.298 OA
ATOM      8  C   UNL d   1      -0.130  -0.892   0.043  0.00  0.00     0.084 A 
ATOM      9  C   UNL d   1      -0.013   0.464  -0.264  0.00  0.00    -0.012 A 
ATOM     10  C   UNL d   1       0.991  -1.721   0.080  0.00  0.00     0.039 A 
ATOM     11  C   UNL d   1       1.243   0.959  -0.651  0.00  0.00     0.034 A 
ATOM     12  C   UNL d   1       2.365   0.129  -0.616  0.00  0.00     0.034 A 
ATOM     13 CL   UNL d   1       3.911   0.766  -1.019  0.00  0.00    -0.084 Cl
ATOM     14  C   UNL d   1       2.246  -1.204  -0.233  0.00  0.00     0.026 A 
BRANCH   5  15
ATOM     15  C   UNL d   1      -3.741   1.309  -0.562  0.00  0.00     0.293 C 
ATOM     16  O   UNL d   1      -3.701   2.449  -1.003  0.00  0.00    -0.259 OA
BRANCH  15  17
ATOM     17  O   UNL d   1      -4.867   0.621  -0.246  0.00  0.00    -0.318 OA
BRANCH  17  18
ATOM     18  C   UNL d   1      -6.128   1.264  -0.487  0.00  0.00     0.174 C 
ATOM     19  C   UNL d   1      -6.567   1.042  -1.922  0.00  0.00     0.034 C 
ENDBRANCH  17  18
ENDBRANCH  15  17
ENDBRANCH   5  15
BRANCH   6  20
ATOM     20  N   UNL d   1      -3.563  -1.655  -0.189  0.00  0.00    -0.282 NA
ATOM     21  H   UNL d   1      -4.465  -1.198  -0.050  0.00  0.00     0.126 HD
ATOM     22  H   UNL d   1      -3.451  -2.491   0.378  0.00  0.00     0.126 HD
ENDBRANCH   6  20
ENDBRANCH   1   4
BRANCH   1  23
ATOM     23  C   UNL d   1      -1.387   1.308   2.443  0.00  0.00     0.277 C 
ATOM     24  O   UNL d   1      -2.491   1.017   2.894  0.00  0.00    -0.264 OA
BRANCH  23  25
ATOM     25  O   UNL d   1      -0.207   0.853   2.943  0.00  0.00    -0.321 OA
BRANCH  25  26
ATOM     26  C   UNL d   1      -0.233   0.009   4.101  0.00  0.00     0.174 C 
ATOM     27  C   UNL d   1      -0.469   0.830   5.354  0.00  0.00     0.034 C 
ENDBRANCH  25  26
ENDBRANCH  23  25
ENDBRANCH   1  23
TORSDOF 8
