REMARK  8 active torsions:
REMARK  status: ('A' for Active; 'I' for Inactive)
REMARK    1  A    between atoms: C_4  and  C_1 
REMARK       I    between atoms: C_2  and  N_8 
REMARK    2  A    between atoms: C_11  and  C_2 
REMARK    3  A    between atoms: N_3  and  C_4 
REMARK    4  A    between atoms: C_7  and  C_13 
REMARK    5  A    between atoms: O_21  and  C_7 
REMARK    6  A    between atoms: N_8  and  C_16 
REMARK    7  A    between atoms: C_9  and  C_11 
REMARK    8  A    between atoms: C_13  and  C_9 
ROOT
ATOM      1  N   UNL d   1      -1.265   3.040   0.089  0.00  0.00     0.092 N 
ATOM      2  C   UNL d   1      -3.348   3.685  -1.118  0.00  0.00     0.055 C 
ATOM      3  C   UNL d   1      -3.367   3.526   1.370  0.00  0.00     0.055 C 
ATOM      4  C   UNL d   1      -4.203   3.349   0.104  0.00  0.00     0.087 C 
ATOM      5  C   UNL d   1      -2.050   2.878  -1.143  0.00  0.00     0.275 C 
ATOM      6  C   UNL d   1      -2.049   2.759   1.302  0.00  0.00     0.275 C 
ENDROOT
BRANCH   4   7
ATOM      7  N   UNL d   1      -4.805   2.016   0.024  0.00  0.00    -0.356 N 
ATOM      8  C   UNL d   1      -5.875   1.758  -0.808  0.00  0.00     0.218 C 
ATOM      9  O   UNL d   1      -6.348   2.601  -1.564  0.00  0.00    -0.274 OA
ATOM     10  H   UNL d   1      -4.279   1.224   0.375  0.00  0.00     0.162 HD
BRANCH   8  11
ATOM     11  C   UNL d   1      -6.372   0.319  -0.744  0.00  0.00     0.112 C 
BRANCH  11  12
ATOM     12  C   UNL d   1      -7.724   0.038  -1.463  0.00  0.00    -0.030 C 
ATOM     13  C   UNL d   1      -8.044  -1.467  -1.321  0.00  0.00     0.016 C 
ATOM     14  C   UNL d   1      -8.867   0.806  -0.762  0.00  0.00     0.016 C 
BRANCH  12  15
ATOM     15  C   UNL d   1      -7.723   0.420  -2.965  0.00  0.00     0.119 C 
BRANCH  15  16
ATOM     16  C   UNL d   1      -6.565  -0.151  -3.751  0.00  0.00     0.140 C 
ATOM     17  O   UNL d   1      -6.447  -1.326  -4.051  0.00  0.00    -0.650 OA
BRANCH  16  18
ATOM     18  O   UNL d   1      -5.624   0.775  -4.071  0.00  0.00    -0.776 OA
ATOM     19  H   UNL d   1      -5.838   1.677  -3.753  0.00  0.00     0.167 HD
ENDBRANCH  16  18
ENDBRANCH  15  16
ENDBRANCH  12  15
ENDBRANCH  11  12
ENDBRANCH   8  11
ENDBRANCH   4   7
BRANCH   1  20
ATOM     20  C   UNL d   1      -0.070   2.166   0.086  0.00  0.00     0.315 C 
BRANCH  20  21
ATOM     21  C   UNL d   1       0.983   2.506  -0.939  0.00  0.00     0.030 A 
ATOM     22  C   UNL d   1       1.314   1.554  -1.914  0.00  0.00     0.126 A 
ATOM     23  F   UNL d   1       0.664   0.381  -1.951  0.00  0.00    -0.205 F 
ATOM     24  C   UNL d   1       2.322   1.773  -2.850  0.00  0.00     0.043 A 
ATOM     25  C   UNL d   1       3.028   2.970  -2.833  0.00  0.00     0.005 A 
ATOM     26  C   UNL d   1       2.719   3.936  -1.876  0.00  0.00     0.024 A 
ATOM     27  C   UNL d   1       1.709   3.705  -0.931  0.00  0.00     0.045 A 
ATOM     28 CL   UNL d   1       1.440   4.935   0.253  0.00  0.00    -0.084 Cl
ENDBRANCH  20  21
ENDBRANCH   1  20
TORSDOF 8
