REMARK  3 active torsions:
REMARK  status: ('A' for Active; 'I' for Inactive)
REMARK       I    between atoms: N_2  and  C_1 
REMARK       I    between atoms: N_7  and  C_1 
REMARK    1  A    between atoms: C_3  and  N_2 
REMARK    2  A    between atoms: C_4  and  C_10 
REMARK    3  A    between atoms: C_10  and  N_7 
ROOT
ATOM      1  C   UNL d   1       0.918  -0.113   0.017  0.00  0.00     0.320 C 
ATOM      2  N   UNL d   1       0.310   0.703  -0.914  0.00  0.00    -0.306 N 
ATOM      3  N   UNL d   1       0.062  -0.376   1.061  0.00  0.00    -0.342 N 
ATOM      4  O   UNL d   1       2.075  -0.500  -0.018  0.00  0.00    -0.247 OA
ATOM      5  H   UNL d   1      -0.388   1.325  -0.525  0.00  0.00     0.171 HD
ATOM      6  H   UNL d   1      -0.927  -0.357   0.867  0.00  0.00     0.164 HD
ENDROOT
BRANCH   2   7
ATOM      7  C   UNL d   1       0.964   1.185  -2.068  0.00  0.00     0.075 A 
ATOM      8  C   UNL d   1       0.695   2.492  -2.481  0.00  0.00     0.143 A 
ATOM      9  F   UNL d   1      -0.168   3.246  -1.779  0.00  0.00    -0.204 F 
ATOM     10  C   UNL d   1       1.343   3.050  -3.578  0.00  0.00     0.044 A 
ATOM     11  C   UNL d   1       2.247   2.278  -4.306  0.00  0.00     0.003 A 
ATOM     12  C   UNL d   1       2.496   0.957  -3.927  0.00  0.00     0.002 A 
ATOM     13  C   UNL d   1       1.863   0.412  -2.805  0.00  0.00     0.033 A 
ENDBRANCH   2   7
BRANCH   3  14
ATOM     14  C   UNL d   1       0.509  -1.055   2.254  0.00  0.00     0.129 C 
BRANCH  14  15
ATOM     15  C   UNL d   1      -0.021  -0.317   3.445  0.00  0.00     0.003 A 
ATOM     16  C   UNL d   1       0.370   1.123   3.688  0.00  0.00     0.007 A 
ATOM     17  C   UNL d   1       0.894   0.042   4.590  0.00  0.00     0.007 A 
ENDBRANCH  14  15
ENDBRANCH   3  14
TORSDOF 3
