REMARK  4 active torsions:
REMARK  status: ('A' for Active; 'I' for Inactive)
REMARK    1  A    between atoms: C_3  and  C_1 
REMARK       I    between atoms: N_4  and  C_1 
REMARK    2  A    between atoms: C_6  and  C_2 
REMARK    3  A    between atoms: C_5  and  N_4 
REMARK       I    between atoms: N_10  and  C_6 
REMARK    4  A    between atoms: N_12  and  N_10 
ROOT
ATOM      1  C   UNL d   1      -1.908  -0.835  -0.744  0.00  0.00     0.060 A 
ATOM      2  C   UNL d   1      -1.104  -1.173   0.360  0.00  0.00     0.050 A 
ATOM      3  C   UNL d   1      -3.310  -0.927  -0.648  0.00  0.00     0.019 A 
ATOM      4  C   UNL d   1      -1.726  -1.648   1.525  0.00  0.00     0.030 A 
ATOM      5  C   UNL d   1      -3.910  -1.382   0.525  0.00  0.00     0.001 A 
ATOM      6  C   UNL d   1      -3.118  -1.752   1.606  0.00  0.00     0.002 A 
ENDROOT
BRANCH   2   7
ATOM      7  N   UNL d   1       0.298  -0.971   0.332  0.00  0.00    -0.322 N 
ATOM      8  C   UNL d   1       1.206  -1.767   1.005  0.00  0.00     0.257 C 
ATOM      9  O   UNL d   1       0.958  -2.885   1.433  0.00  0.00    -0.267 OA
ATOM     10  H   UNL d   1       0.644  -0.294  -0.346  0.00  0.00     0.169 HD
BRANCH   8  11
ATOM     11  C   UNL d   1       2.592  -1.254   1.168  0.00  0.00     0.054 A 
ATOM     12  C   UNL d   1       2.892   0.019   1.670  0.00  0.00     0.049 A 
ATOM     13 CL   UNL d   1       1.699   1.234   1.958  0.00  0.00    -0.083 Cl
ATOM     14  C   UNL d   1       4.213   0.335   2.021  0.00  0.00     0.025 A 
ATOM     15  C   UNL d   1       5.235  -0.604   1.868  0.00  0.00     0.002 A 
ATOM     16  C   UNL d   1       4.948  -1.857   1.335  0.00  0.00     0.001 A 
ATOM     17  C   UNL d   1       3.633  -2.183   0.992  0.00  0.00     0.019 A 
ENDBRANCH   8  11
ENDBRANCH   2   7
BRANCH   1  18
ATOM     18  C   UNL d   1      -1.281  -0.481  -2.048  0.00  0.00     0.268 C 
ATOM     19  O   UNL d   1      -0.216   0.131  -2.093  0.00  0.00    -0.266 OA
ATOM     20  N   UNL d   1      -1.946  -0.956  -3.177  0.00  0.00    -0.290 N 
ATOM     21  H   UNL d   1      -2.771  -1.544  -3.091  0.00  0.00     0.183 HD
BRANCH  20  22
ATOM     22  N   UNL d   1      -1.441  -0.677  -4.461  0.00  0.00    -0.247 NA
ATOM     23  H   UNL d   1      -0.525  -0.226  -4.332  0.00  0.00     0.143 HD
ATOM     24  H   UNL d   1      -1.236  -1.561  -4.932  0.00  0.00     0.143 HD
ENDBRANCH  20  22
ENDBRANCH   1  18
TORSDOF 4
