REMARK  3 active torsions:
REMARK  status: ('A' for Active; 'I' for Inactive)
REMARK    1  A    between atoms: C_2  and  C_1 
REMARK    2  A    between atoms: O_5  and  C_2 
REMARK    3  A    between atoms: C_11  and  O_5 
ROOT
ATOM      1  C   UNL d   1       1.296  -1.601  -0.298  0.00  0.00     0.075 A 
ATOM      2  C   UNL d   1       2.002  -0.441  -0.004  0.00  0.00     0.091 A 
ATOM      3  C   UNL d   1       1.351   0.789   0.116  0.00  0.00    -0.020 A 
ATOM      4  C   UNL d   1      -0.096  -1.474  -0.492  0.00  0.00     0.039 A 
ATOM      5  O   UNL d   1       3.350  -0.336   0.238  0.00  0.00    -0.349 OA
ATOM      6  C   UNL d   1      -0.015   0.916  -0.072  0.00  0.00     0.029 A 
ATOM      7  C   UNL d   1      -0.735  -0.231  -0.388  0.00  0.00     0.012 A 
ATOM      8 BR   UNL d   1      -2.602  -0.117  -0.663  0.00  0.00    -0.051 Br
ATOM      9  C   UNL d   1       3.612   1.089   0.267  0.00  0.00     0.180 C 
ATOM     10  C   UNL d   1       2.310   1.833   0.542  0.00  0.00     0.068 C 
ENDROOT
BRANCH   1  11
ATOM     11  C   UNL d   1       1.857  -2.973  -0.406  0.00  0.00     0.301 C 
ATOM     12  O   UNL d   1       1.116  -3.937  -0.575  0.00  0.00    -0.259 OA
BRANCH  11  13
ATOM     13  O   UNL d   1       3.240  -3.008  -0.322  0.00  0.00    -0.275 OA
BRANCH  13  14
ATOM     14  C   UNL d   1       4.023  -4.196  -0.350  0.00  0.00     0.079 A 
ATOM     15  C   UNL d   1       5.404  -3.988  -0.375  0.00  0.00     0.038 A 
ATOM     16  C   UNL d   1       6.280  -5.078  -0.349  0.00  0.00     0.009 A 
ATOM     17  C   UNL d   1       5.784  -6.385  -0.287  0.00  0.00    -0.062 A 
ATOM     18  C   UNL d   1       4.400  -6.586  -0.301  0.00  0.00     0.009 A 
ATOM     19  C   UNL d   1       6.731  -7.548  -0.204  0.00  0.00     0.048 C 
ATOM     20  C   UNL d   1       3.520  -5.496  -0.324  0.00  0.00     0.038 A 
ENDBRANCH  13  14
ENDBRANCH  11  13
ENDBRANCH   1  11
TORSDOF 3
