REMARK  5 active torsions:
REMARK  status: ('A' for Active; 'I' for Inactive)
REMARK    1  A    between atoms: C_9  and  C_3 
REMARK    2  A    between atoms: C_5  and  C_7 
REMARK    3  A    between atoms: C_7  and  O_10 
REMARK    4  A    between atoms: C_16  and  C_9 
REMARK    5  A    between atoms: O_10  and  C_18 
ROOT
ATOM      1  C   UNL d   1      -3.118   1.053  -0.238  0.00  0.00    -0.034 A 
ATOM      2  C   UNL d   1      -5.665  -0.093  -0.077  0.00  0.00     0.079 A 
ATOM      3  C   UNL d   1      -3.369  -0.003   0.648  0.00  0.00     0.014 A 
ATOM      4  C   UNL d   1      -4.145   1.516  -1.064  0.00  0.00     0.014 A 
ATOM      5  C   UNL d   1      -4.640  -0.577   0.729  0.00  0.00     0.038 A 
ATOM      6  C   UNL d   1      -5.420   0.944  -0.983  0.00  0.00     0.038 A 
ENDROOT
BRANCH   2   7
ATOM      7  O   UNL d   1      -7.011  -0.536  -0.013  0.00  0.00    -0.275 OA
BRANCH   7   8
ATOM      8  C   UNL d   1      -7.493  -1.577   0.769  0.00  0.00     0.300 C 
ATOM      9  O   UNL d   1      -6.858  -2.327   1.494  0.00  0.00    -0.259 OA
BRANCH   8  10
ATOM     10  C   UNL d   1      -8.974  -1.550   0.767  0.00  0.00     0.061 A 
ATOM     11  C   UNL d   1      -9.761  -1.364  -0.377  0.00  0.00     0.051 A 
ATOM     12  C   UNL d   1     -11.155  -1.290  -0.260  0.00  0.00     0.048 A 
ATOM     13 CL   UNL d   1      -9.105  -1.279  -1.972  0.00  0.00    -0.083 Cl
ATOM     14  C   UNL d   1     -11.762  -1.428   0.989  0.00  0.00     0.035 A 
ATOM     15  C   UNL d   1     -10.992  -1.665   2.124  0.00  0.00     0.025 A 
ATOM     16 CL   UNL d   1     -13.472  -1.307   1.127  0.00  0.00    -0.084 Cl
ATOM     17  C   UNL d   1      -9.602  -1.730   2.013  0.00  0.00     0.021 A 
ENDBRANCH   8  10
ENDBRANCH   7   8
ENDBRANCH   2   7
BRANCH   1  18
ATOM     18  C   UNL d   1      -1.778   1.637  -0.285  0.00  0.00     0.046 C 
BRANCH  18  19
ATOM     19  C   UNL d   1      -0.798   1.155  -1.052  0.00  0.00     0.105 A 
ATOM     20  C   UNL d   1       0.618   1.642  -1.064  0.00  0.00     0.276 A 
ATOM     21  N   UNL d   1       1.243   0.834  -1.972  0.00  0.00    -0.274 N 
ATOM     22  O   UNL d   1       1.097   2.535  -0.395  0.00  0.00    -0.266 OA
ATOM     23  C   UNL d   1       0.381  -0.084  -2.511  0.00  0.00     0.327 A 
ATOM     24  H   UNL d   1       2.218   0.886  -2.203  0.00  0.00     0.173 HD
ATOM     25  N   UNL d   1      -0.864   0.124  -1.944  0.00  0.00    -0.304 N 
ATOM     26  O   UNL d   1       0.655  -0.935  -3.337  0.00  0.00    -0.247 OA
ATOM     27  H   UNL d   1      -1.684  -0.422  -2.163  0.00  0.00     0.171 HD
ENDBRANCH  18  19
ENDBRANCH   1  18
TORSDOF 5
