REMARK  5 active torsions:
REMARK  status: ('A' for Active; 'I' for Inactive)
REMARK    1  A    between atoms: S_13  and  C_2 
REMARK    2  A    between atoms: C_6  and  C_4 
REMARK       I    between atoms: N_12  and  C_6 
REMARK    3  A    between atoms: N_8  and  N_12 
REMARK    4  A    between atoms: O_19  and  N_10 
REMARK    5  A    between atoms: C_17  and  C_16 
ROOT
ATOM      1  C   UNL d   1       0.442   0.701  -0.077  0.00  0.00     0.020 A 
ATOM      2  C   UNL d   1       1.809   0.928  -0.103  0.00  0.00     0.054 A 
ATOM      3  C   UNL d   1       0.158  -0.725  -0.017  0.00  0.00    -0.021 A 
ATOM      4  C   UNL d   1       1.303  -1.508   0.043  0.00  0.00     0.082 A 
ATOM      5  S   UNL d   1       2.703  -0.542  -0.061  0.00  0.00    -0.076 SA
ATOM      6  C   UNL d   1      -0.666   1.677  -0.070  0.00  0.00     0.044 C 
ATOM      7  N   UNL d   1      -0.444   2.925  -0.355  0.00  0.00    -0.271 N 
ATOM      8  HN  UNL d   1       0.467   3.309  -0.607  1.00  0.00     0.194 HD
ATOM      9  C   UNL d   1      -1.254  -1.251   0.034  0.00  0.00     0.041 C 
ATOM     10  C   UNL d   1      -2.044   1.121   0.296  0.00  0.00     0.060 C 
ATOM     11  C   UNL d   1      -2.275  -0.209  -0.410  0.00  0.00     0.011 C 
ENDROOT
BRANCH   4  12
ATOM     12  C   UNL d   1       1.352  -2.969   0.193  0.00  0.00     0.277 C 
ATOM     13  N   UNL d   1       2.612  -3.567   0.223  0.00  0.00    -0.266 N 
ATOM     14  H   UNL d   1       3.455  -3.010   0.155  0.00  0.00     0.190 HD
ATOM     15  O   UNL d   1       0.324  -3.640   0.294  0.00  0.00    -0.265 OA
BRANCH  13  16
ATOM     16  N   UNL d   1       2.675  -4.923   0.364  0.00  0.00    -0.308 N 
ATOM     17  C   UNL d   1       3.839  -5.482   0.396  0.00  0.00     0.118 C 
ATOM     18  HN  UNL d   1       1.825  -5.481   0.442  1.00  0.00     0.186 HD
BRANCH  17  19
ATOM     19  C   UNL d   1       3.952  -6.954   0.540  0.00  0.00    -0.019 A 
ATOM     20  C   UNL d   1       2.802  -7.743   0.683  0.00  0.00     0.014 A 
ATOM     21  C   UNL d   1       2.913  -9.130   0.807  0.00  0.00     0.024 A 
ATOM     22  C   UNL d   1       4.173  -9.726   0.786  0.00  0.00     0.034 A 
ATOM     23  C   UNL d   1       5.322  -8.945   0.647  0.00  0.00     0.024 A 
ATOM     24 CL   UNL d   1       4.313 -11.434   0.930  0.00  0.00    -0.084 Cl
ATOM     25  C   UNL d   1       5.214  -7.554   0.525  0.00  0.00     0.014 A 
ENDBRANCH  17  19
ENDBRANCH  13  16
ENDBRANCH   4  12
BRANCH   2  26
ATOM     26  S   UNL d   1       2.686   2.459  -0.078  0.00  0.00    -0.126 SA
ATOM     27  C   UNL d   1       2.829   2.790  -1.848  0.00  0.00     0.096 C 
ENDBRANCH   2  26
BRANCH   7  28
ATOM     28  O   UNL d   1      -1.629   3.676  -0.268  0.00  0.00    -0.285 OA
ATOM     29  C   UNL d   1      -1.366   5.026  -0.619  0.00  0.00     0.237 C 
ENDBRANCH   7  28
TORSDOF 5
