REMARK  12 active torsions:
REMARK  status: ('A' for Active; 'I' for Inactive)
REMARK    1  A    between atoms: S_8  and  C_1 
REMARK    2  A    between atoms: C_9  and  S_8 
REMARK    3  A    between atoms: C_10  and  C_9 
REMARK    4  A    between atoms: C_18  and  C_10 
REMARK    5  A    between atoms: C_11  and  C_12 
REMARK    6  A    between atoms: C_12  and  C_17 
REMARK    7  A    between atoms: C_13  and  C_19 
REMARK    8  A    between atoms: C_14  and  C_13 
REMARK    9  A    between atoms: C_15  and  C_14 
REMARK   10  A    between atoms: C_16  and  C_15 
REMARK   11  A    between atoms: C_17  and  C_16 
REMARK   12  A    between atoms: C_19  and  C_18 
ROOT
ATOM      1  C   UNL d   1      -3.145   4.224  -0.007  0.00  0.00     0.010 C 
ENDROOT
BRANCH   1   2
ATOM      2  C   UNL d   1      -2.631   2.780  -0.006  0.00  0.00     0.082 C 
BRANCH   2   3
ATOM      3  S   UNL d   1      -0.799   2.817  -0.002  0.00  0.00    -0.092 SA
BRANCH   3   4
ATOM      4  C   UNL d   1      -0.392   1.143  -0.002  0.00  0.00     0.160 A 
ATOM      5  N   UNL d   1       0.910   0.719   0.004  0.00  0.00    -0.331 N 
ATOM      6  C   UNL d   1       0.845  -0.645   0.002  0.00  0.00     0.199 A 
ATOM      7  H   UNL d   1       1.734   1.295   0.007  0.00  0.00     0.168 HD
ATOM      8  N   UNL d   1      -0.411  -1.024  -0.004  0.00  0.00    -0.294 N 
ATOM      9  N   UNL d   1      -1.196   0.108  -0.006  0.00  0.00    -0.279 N 
ATOM     10  HN  UNL d   1      -0.748  -1.987  -0.006  1.00  0.00     0.187 HD
ATOM     11  HN  UNL d   1      -2.215   0.137  -0.009  1.00  0.00     0.189 HD
ENDBRANCH   3   4
ENDBRANCH   2   3
ENDBRANCH   1   2
BRANCH   1  12
ATOM     12  C   UNL d   1      -4.674   4.290  -0.011  0.00  0.00     0.001 C 
BRANCH  12  13
ATOM     13  C   UNL d   1      -5.157   5.741  -0.014  0.00  0.00     0.000 C 
BRANCH  13  14
ATOM     14  C   UNL d   1      -6.681   5.807  -0.016  0.00  0.00     0.000 C 
BRANCH  14  15
ATOM     15  C   UNL d   1      -7.165   7.253  -0.019  0.00  0.00     0.000 C 
BRANCH  15  16
ATOM     16  C   UNL d   1      -8.688   7.309  -0.021  0.00  0.00     0.000 C 
BRANCH  16  17
ATOM     17  C   UNL d   1      -9.174   8.753  -0.024  0.00  0.00     0.000 C 
BRANCH  17  18
ATOM     18  C   UNL d   1     -10.698   8.809  -0.024  0.00  0.00     0.000 C 
BRANCH  18  19
ATOM     19  C   UNL d   1     -11.183  10.254  -0.029  0.00  0.00    -0.000 C 
BRANCH  19  20
ATOM     20  C   UNL d   1     -12.707  10.320  -0.030  0.00  0.00    -0.005 C 
ATOM     21  C   UNL d   1     -13.187  11.761  -0.035  0.00  0.00     0.005 C 
ENDBRANCH  19  20
ENDBRANCH  18  19
ENDBRANCH  17  18
ENDBRANCH  16  17
ENDBRANCH  15  16
ENDBRANCH  14  15
ENDBRANCH  13  14
ENDBRANCH  12  13
ENDBRANCH   1  12
TORSDOF 12
