REMARK  5 active torsions:
REMARK  status: ('A' for Active; 'I' for Inactive)
REMARK    1  A    between atoms: C_6  and  S_1 
REMARK    2  A    between atoms: C_7  and  S_1 
REMARK       I    between atoms: N_2  and  C_4 
REMARK       I    between atoms: C_3  and  N_2 
REMARK       I    between atoms: N_5  and  C_3 
REMARK    3  A    between atoms: C_4  and  C_8 
REMARK    4  A    between atoms: C_9  and  N_5 
REMARK    5  A    between atoms: C_15  and  C_7 
ROOT
ATOM      1  C   UNL d   1       0.555  -5.106  -1.049  0.00  0.00     0.033 A 
ATOM      2  C   UNL d   1       0.407  -4.076  -0.096  0.00  0.00     0.025 A 
ATOM      3  C   UNL d   1       0.872  -2.777  -0.381  0.00  0.00    -0.043 A 
ATOM      4  C   UNL d   1       1.090  -4.831  -2.318  0.00  0.00     0.017 A 
ATOM      5  C   UNL d   1       1.583  -3.564  -2.598  0.00  0.00     0.002 A 
ATOM      6  C   UNL d   1       1.496  -2.564  -1.633  0.00  0.00     0.008 A 
ENDROOT
BRANCH   1   7
ATOM      7  C   UNL d   1       0.628  -6.548  -0.608  0.00  0.00     0.259 C 
ATOM      8  N   UNL d   1       1.984  -6.896  -0.587  0.00  0.00    -0.275 N 
ATOM      9  C   UNL d   1       2.844  -7.897  -0.259  0.00  0.00     0.327 C 
ATOM     10  H   UNL d   1       2.593  -6.116  -0.778  0.00  0.00     0.173 HD
ATOM     11  N   UNL d   1       2.402  -9.115   0.152  0.00  0.00    -0.307 N 
ATOM     12  O   UNL d   1       4.020  -7.529  -0.326  0.00  0.00    -0.247 OA
ATOM     13  H   UNL d   1       1.410  -9.220   0.340  0.00  0.00     0.170 HD
ATOM     14  O   UNL d   1      -0.329  -7.242  -0.340  0.00  0.00    -0.267 OA
BRANCH  11  15
ATOM     15  C   UNL d   1       3.298 -10.023   0.810  0.00  0.00     0.058 C 
ATOM     16  C   UNL d   1       2.835 -10.871   1.825  0.00  0.00     0.060 C 
ATOM     17 CL   UNL d   1       1.147 -11.095   2.107  0.00  0.00    -0.082 Cl
ATOM     18  C   UNL d   1       3.744 -11.504   2.687  0.00  0.00     0.026 C 
ATOM     19  C   UNL d   1       5.120 -11.335   2.516  0.00  0.00     0.002 C 
ATOM     20  C   UNL d   1       5.590 -10.611   1.430  0.00  0.00     0.002 C 
ATOM     21  C   UNL d   1       4.684  -9.991   0.569  0.00  0.00     0.031 C 
ENDBRANCH  11  15
ENDBRANCH   1   7
BRANCH   3  22
ATOM     22  C   UNL d   1       0.761  -1.526   0.471  0.00  0.00     0.184 C 
BRANCH  22  23
ATOM     23  S   UNL d   1       0.196  -1.654   2.142  0.00  0.00     0.179 S 
ATOM     24  O   UNL d   1       0.231  -0.320   2.718  0.00  0.00    -0.222 OA
ATOM     25  O   UNL d   1      -1.036  -2.429   2.178  0.00  0.00    -0.222 OA
BRANCH  23  26
ATOM     26  C   UNL d   1       1.452  -2.577   2.989  0.00  0.00     0.059 A 
ATOM     27  C   UNL d   1       2.707  -1.991   3.199  0.00  0.00     0.025 A 
ATOM     28  C   UNL d   1       3.699  -2.719   3.855  0.00  0.00     0.025 A 
ATOM     29  C   UNL d   1       3.425  -4.011   4.305  0.00  0.00     0.034 A 
ATOM     30  C   UNL d   1       2.163  -4.579   4.123  0.00  0.00     0.025 A 
ATOM     31 CL   UNL d   1       4.655  -4.913   5.096  0.00  0.00    -0.084 Cl
ATOM     32  C   UNL d   1       1.166  -3.856   3.473  0.00  0.00     0.025 A 
ENDBRANCH  23  26
ENDBRANCH  22  23
ENDBRANCH   3  22
TORSDOF 5
