REMARK  4 active torsions:
REMARK  status: ('A' for Active; 'I' for Inactive)
REMARK    1  A    between atoms: C_2  and  S_1 
REMARK    2  A    between atoms: N_9  and  S_1 
REMARK    3  A    between atoms: C_6  and  C_3 
REMARK       I    between atoms: N_8  and  C_6 
REMARK    4  A    between atoms: C_13  and  N_8 
ROOT
ATOM      1  C   UNL d   1       0.274  -0.084  -1.539  0.00  0.00     0.186 A 
ATOM      2  C   UNL d   1      -0.501   0.469  -3.608  0.00  0.00     0.065 A 
ATOM      3  C   UNL d   1      -0.254   0.959  -2.293  0.00  0.00     0.070 A 
ATOM      4  O   UNL d   1       0.235  -1.223  -2.309  0.00  0.00    -0.301 OA
ATOM      5  C   UNL d   1      -0.243  -0.890  -3.533  0.00  0.00     0.066 A 
ATOM      6  C   UNL d   1      -0.374  -2.002  -4.504  0.00  0.00     0.078 C 
ENDROOT
BRANCH   2   7
ATOM      7  C   UNL d   1      -0.944   1.141  -4.827  0.00  0.00     0.258 C 
ATOM      8  N   UNL d   1      -1.150   2.505  -4.712  0.00  0.00    -0.323 N 
ATOM      9  H   UNL d   1      -0.868   2.948  -3.847  0.00  0.00     0.169 HD
ATOM     10  O   UNL d   1      -1.092   0.493  -5.860  0.00  0.00    -0.267 OA
BRANCH   8  11
ATOM     11  C   UNL d   1      -1.750   3.343  -5.676  0.00  0.00     0.035 A 
ATOM     12  C   UNL d   1      -2.306   2.865  -6.868  0.00  0.00     0.031 A 
ATOM     13  C   UNL d   1      -2.990   3.721  -7.736  0.00  0.00     0.026 A 
ATOM     14  C   UNL d   1      -3.114   5.068  -7.422  0.00  0.00     0.034 A 
ATOM     15  C   UNL d   1      -2.530   5.572  -6.263  0.00  0.00     0.026 A 
ATOM     16 CL   UNL d   1      -4.009   6.105  -8.460  0.00  0.00    -0.084 Cl
ATOM     17  C   UNL d   1      -1.849   4.711  -5.392  0.00  0.00     0.031 A 
ENDBRANCH   8  11
ENDBRANCH   2   7
BRANCH   1  18
ATOM     18  S   UNL d   1       0.969  -0.094   0.119  0.00  0.00     0.265 S 
ATOM     19  O   UNL d   1      -0.183   0.015   0.991  0.00  0.00    -0.204 OA
ATOM     20  O   UNL d   1       1.981   0.939   0.072  0.00  0.00    -0.204 OA
BRANCH  18  21
ATOM     21  N   UNL d   1       1.726  -1.596   0.377  0.00  0.00    -0.213 NA
ATOM     22  C   UNL d   1       0.819  -2.747   0.534  0.00  0.00     0.129 C 
ATOM     23  C   UNL d   1       2.885  -1.883  -0.491  0.00  0.00     0.129 C 
ENDBRANCH  18  21
ENDBRANCH   1  18
TORSDOF 4
