REMARK  4 active torsions:
REMARK  status: ('A' for Active; 'I' for Inactive)
REMARK    1  A    between atoms: C_2  and  S_1 
REMARK    2  A    between atoms: N_3  and  S_1 
REMARK    3  A    between atoms: C_15  and  N_3 
REMARK    4  A    between atoms: C_13  and  C_15 
ROOT
ATOM      1  S   UNL d   1       1.082  -0.102   0.043  0.00  0.00     0.241 S 
ATOM      2  O   UNL d   1       0.834  -1.169   0.983  0.00  0.00    -0.206 OA
ATOM      3  O   UNL d   1       2.391   0.486  -0.133  0.00  0.00    -0.206 OA
ENDROOT
BRANCH   1   4
ATOM      4  C   UNL d   1      -0.054   1.212   0.442  0.00  0.00     0.076 A 
ATOM      5  C   UNL d   1      -1.196   0.918   1.195  0.00  0.00     0.050 A 
ATOM      6  C   UNL d   1      -2.064   1.948   1.569  0.00  0.00     0.057 A 
ATOM      7 CL   UNL d   1      -3.456   1.524   2.501  0.00  0.00    -0.083 Cl
ATOM      8  C   UNL d   1      -1.786   3.269   1.194  0.00  0.00     0.055 A 
ATOM      9  C   UNL d   1      -0.632   3.555   0.454  0.00  0.00     0.027 A 
ATOM     10 CL   UNL d   1      -2.818   4.588   1.617  0.00  0.00    -0.083 Cl
ATOM     11  C   UNL d   1       0.243   2.530   0.085  0.00  0.00     0.026 A 
ENDBRANCH   1   4
BRANCH   1  12
ATOM     12  N   UNL d   1       0.519  -0.629  -1.457  0.00  0.00    -0.211 NA
ATOM     13  H   UNL d   1      -0.475  -0.852  -1.444  0.00  0.00     0.140 HD
BRANCH  12  14
ATOM     14  C   UNL d   1       0.970   0.128  -2.628  0.00  0.00     0.143 C 
BRANCH  14  15
ATOM     15  C   UNL d   1       0.394  -0.421  -3.912  0.00  0.00    -0.041 A 
ATOM     16  C   UNL d   1      -0.339   0.405  -4.775  0.00  0.00     0.032 A 
ATOM     17  C   UNL d   1      -0.824  -0.093  -5.987  0.00  0.00     0.036 A 
ATOM     18 CL   UNL d   1      -1.708   0.946  -7.035  0.00  0.00    -0.084 Cl
ATOM     19  C   UNL d   1      -0.590  -1.413  -6.359  0.00  0.00     0.047 A 
ATOM     20  C   UNL d   1       0.133  -2.240  -5.503  0.00  0.00     0.036 A 
ATOM     21  C   UNL d   1       0.624  -1.755  -4.289  0.00  0.00     0.032 A 
ATOM     22 CL   UNL d   1       0.435  -3.873  -5.955  0.00  0.00    -0.084 Cl
ENDBRANCH  14  15
ENDBRANCH  12  14
ENDBRANCH   1  12
TORSDOF 4
