REMARK  7 active torsions:
REMARK  status: ('A' for Active; 'I' for Inactive)
REMARK    1  A    between atoms: C_2  and  C_1 
REMARK    2  A    between atoms: C_13  and  C_5 
REMARK    3  A    between atoms: C_6  and  C_12 
REMARK    4  A    between atoms: N_20  and  C_6 
REMARK    5  A    between atoms: O_23  and  N_10 
REMARK    6  A    between atoms: O_19  and  C_13 
REMARK    7  A    between atoms: C_22  and  O_19 
ROOT
ATOM      1  C   UNL d   1      -1.768  11.890  -3.927  0.00  0.00     0.004 A 
ATOM      2  C   UNL d   1      -2.880  11.040  -3.981  0.00  0.00     0.017 A 
ATOM      3  C   UNL d   1      -1.922  13.244  -4.233  0.00  0.00     0.017 A 
ATOM      4  C   UNL d   1      -4.296  12.905  -4.608  0.00  0.00     0.069 A 
ATOM      5  C   UNL d   1      -3.183  13.748  -4.557  0.00  0.00     0.037 A 
ATOM      6  C   UNL d   1      -4.143  11.546  -4.327  0.00  0.00     0.037 A 
ENDROOT
BRANCH   4   7
ATOM      7  O   UNL d   1      -5.479  13.539  -4.862  0.00  0.00    -0.345 OA
BRANCH   7   8
ATOM      8  C   UNL d   1      -6.484  12.792  -5.549  0.00  0.00     0.234 C 
BRANCH   8   9
ATOM      9  C   UNL d   1      -7.678  13.693  -5.797  0.00  0.00     0.055 A 
ATOM     10  N   UNL d   1      -8.848  13.320  -5.197  0.00  0.00    -0.365 N 
ATOM     11  C   UNL d   1      -9.928  14.121  -5.351  0.00  0.00     0.104 A 
ATOM     12  HN  UNL d   1      -8.905  12.462  -4.647  1.00  0.00     0.165 HD
ATOM     13  C   UNL d   1      -9.923  15.297  -6.083  0.00  0.00     0.064 A 
ATOM     14  C   UNL d   1      -8.727  15.655  -6.713  0.00  0.00     0.043 A 
ATOM     15  C   UNL d   1      -7.594  14.848  -6.578  0.00  0.00     0.059 A 
ATOM     16 CL   UNL d   1      -6.155  15.328  -7.397  0.00  0.00    -0.082 Cl
BRANCH  13  17
ATOM     17  C   UNL d   1     -11.167  16.123  -6.172  0.00  0.00     0.418 C 
ATOM     18  F   UNL d   1     -11.012  17.264  -6.897  0.00  0.00    -0.166 F 
ATOM     19  F   UNL d   1     -11.620  16.517  -4.950  0.00  0.00    -0.166 F 
ATOM     20  F   UNL d   1     -12.198  15.449  -6.753  0.00  0.00    -0.166 F 
ENDBRANCH  13  17
ENDBRANCH   8   9
ENDBRANCH   7   8
ENDBRANCH   4   7
BRANCH   1  21
ATOM     21  C   UNL d   1      -0.424  11.379  -3.522  0.00  0.00     0.108 C 
ATOM     22  N   UNL d   1       0.636  11.998  -3.961  0.00  0.00    -0.258 N 
ATOM     23  HN  UNL d   1       0.616  12.801  -4.589  1.00  0.00     0.195 HD
BRANCH  22  24
ATOM     24  O   UNL d   1       1.809  11.413  -3.456  0.00  0.00    -0.289 OA
ATOM     25  H   UNL d   1       2.503  11.913  -3.926  0.00  0.00     0.244 HD
ENDBRANCH  22  24
BRANCH  21  26
ATOM     26  N   UNL d   1      -0.344  10.295  -2.679  0.00  0.00    -0.287 NA
ATOM     27  H   UNL d   1      -1.010  10.305  -1.916  0.00  0.00     0.125 HD
ATOM     28  H   UNL d   1       0.613  10.215  -2.339  0.00  0.00     0.125 HD
ENDBRANCH  21  26
ENDBRANCH   1  21
TORSDOF 7
