REMARK  10 active torsions:
REMARK  status: ('A' for Active; 'I' for Inactive)
REMARK    1  A    between atoms: C_15  and  N_1 
REMARK    2  A    between atoms: N_3  and  C_16 
REMARK    3  A    between atoms: O_22  and  C_5 
REMARK    4  A    between atoms: O_23  and  C_6 
REMARK    5  A    between atoms: O_26  and  C_7 
REMARK    6  A    between atoms: O_27  and  C_8 
REMARK    7  A    between atoms: C_17  and  C_9 
REMARK    8  A    between atoms: C_18  and  C_10 
REMARK    9  A    between atoms: C_21  and  C_19 
REMARK   10  A    between atoms: C_20  and  C_21 
ROOT
ATOM      1  C   UNL d   1       6.747  -0.006   0.191  0.00  0.00     0.077 C 
ENDROOT
BRANCH   1   2
ATOM      2  C   UNL d   1       7.421   1.345   0.220  0.00  0.00    -0.054 A 
ATOM      3  C   UNL d   1       7.653   2.012   1.429  0.00  0.00     0.010 A 
ATOM      4  C   UNL d   1       8.371   3.215   1.452  0.00  0.00     0.030 A 
ATOM      5  C   UNL d   1       8.872   3.785   0.277  0.00  0.00     0.031 A 
ATOM      6  C   UNL d   1       8.619   3.123  -0.931  0.00  0.00     0.030 A 
ATOM      7  C   UNL d   1       7.888   1.929  -0.963  0.00  0.00     0.010 A 
BRANCH   5   8
ATOM      8  N   UNL d   1       9.669   4.941   0.397  0.00  0.00    -0.365 N 
ATOM      9  C   UNL d   1       9.690   5.812  -0.559  0.00  0.00     0.100 C 
ATOM     10  HN  UNL d   1      10.229   5.090   1.236  1.00  0.00     0.165 HD
BRANCH   9  11
ATOM     11  C   UNL d   1      10.525   7.031  -0.497  0.00  0.00    -0.018 A 
ATOM     12  C   UNL d   1      11.284   7.337   0.638  0.00  0.00     0.052 A 
ATOM     13  C   UNL d   1      12.050   8.502   0.652  0.00  0.00     0.099 A 
ATOM     14  C   UNL d   1      12.064   9.354  -0.456  0.00  0.00     0.098 A 
ATOM     15  C   UNL d   1      11.313   9.046  -1.590  0.00  0.00     0.040 A 
ATOM     16  C   UNL d   1      10.541   7.881  -1.611  0.00  0.00     0.016 A 
BRANCH  13  17
ATOM     17  O   UNL d   1      12.794   8.825   1.750  0.00  0.00    -0.358 OA
ATOM     18  H   UNL d   1      12.688   8.137   2.422  0.00  0.00     0.217 HD
ENDBRANCH  13  17
BRANCH  14  19
ATOM     19  O   UNL d   1      12.819  10.490  -0.420  0.00  0.00    -0.358 OA
ATOM     20  H   UNL d   1      12.716  10.973  -1.255  0.00  0.00     0.217 HD
ENDBRANCH  14  19
ENDBRANCH   9  11
ENDBRANCH   5   8
ENDBRANCH   1   2
BRANCH   1  21
ATOM     21  C   UNL d   1       5.240   0.014   0.106  0.00  0.00    -0.054 A 
ATOM     22  C   UNL d   1       4.586   0.025  -1.132  0.00  0.00     0.010 A 
ATOM     23  C   UNL d   1       3.187  -0.030  -1.199  0.00  0.00     0.030 A 
ATOM     24  C   UNL d   1       2.408  -0.095  -0.040  0.00  0.00     0.031 A 
ATOM     25  C   UNL d   1       3.068  -0.106   1.194  0.00  0.00     0.030 A 
ATOM     26  C   UNL d   1       4.464  -0.034   1.270  0.00  0.00     0.010 A 
BRANCH  24  27
ATOM     27  N   UNL d   1       1.012  -0.226  -0.187  0.00  0.00    -0.365 N 
ATOM     28  C   UNL d   1       0.229   0.288   0.707  0.00  0.00     0.100 C 
ATOM     29  HN  UNL d   1       0.623  -0.720  -0.989  1.00  0.00     0.165 HD
BRANCH  28  30
ATOM     30  C   UNL d   1      -1.243   0.166   0.636  0.00  0.00    -0.018 A 
ATOM     31  C   UNL d   1      -1.870  -0.440  -0.455  0.00  0.00     0.052 A 
ATOM     32  C   UNL d   1      -3.262  -0.531  -0.475  0.00  0.00     0.099 A 
ATOM     33  C   UNL d   1      -4.020  -0.026   0.586  0.00  0.00     0.098 A 
ATOM     34  C   UNL d   1      -3.392   0.572   1.676  0.00  0.00     0.040 A 
ATOM     35  C   UNL d   1      -1.999   0.669   1.701  0.00  0.00     0.016 A 
BRANCH  32  36
ATOM     36  O   UNL d   1      -3.901  -1.115  -1.533  0.00  0.00    -0.358 OA
ATOM     37  H   UNL d   1      -3.240  -1.416  -2.175  0.00  0.00     0.217 HD
ENDBRANCH  32  36
BRANCH  33  38
ATOM     38  O   UNL d   1      -5.382  -0.125   0.547  0.00  0.00    -0.358 OA
ATOM     39  H   UNL d   1      -5.757   0.281   1.342  0.00  0.00     0.217 HD
ENDBRANCH  33  38
ENDBRANCH  28  30
ENDBRANCH  24  27
ENDBRANCH   1  21
TORSDOF 10
