REMARK  0 active torsions:
REMARK  status: ('A' for Active; 'I' for Inactive)
ROOT
ATOM      1  C   UNL d   1      -0.696   1.237   0.001  0.00  0.00     0.024 A 
ATOM      2  C   UNL d   1      -1.420   0.022  -0.001  0.00  0.00    -0.038 A 
ATOM      3  C   UNL d   1       0.720   1.244   0.001  0.00  0.00    -0.038 A 
ATOM      4  C   UNL d   1       0.721  -1.217   0.002  0.00  0.00    -0.049 A 
ATOM      5  C   UNL d   1       1.434   0.007  -0.002  0.00  0.00    -0.048 A 
ATOM      6  C   UNL d   1      -0.706  -1.206   0.001  0.00  0.00    -0.048 A 
ATOM      7 BR   UNL d   1      -1.648   2.906   0.003  0.00  0.00    -0.050 Br
ATOM      8  C   UNL d   1      -1.441  -2.535   0.003  0.00  0.00     0.049 C 
ATOM      9  C   UNL d   1       2.949   0.067  -0.009  0.00  0.00     0.049 C 
ATOM     10  C   UNL d   1       1.522   2.531   0.004  0.00  0.00     0.050 C 
ATOM     11  C   UNL d   1      -2.933  -0.016  -0.006  0.00  0.00     0.050 C 
ATOM     12  C   UNL d   1       1.414  -2.565   0.005  0.00  0.00     0.049 C 
ENDROOT
TORSDOF 0
