REMARK  2 active torsions:
REMARK  status: ('A' for Active; 'I' for Inactive)
REMARK    1  A    between atoms: C_2  and  S_1 
REMARK    2  A    between atoms: N_3  and  S_1 
ROOT
ATOM      1  S   UNL d   1       1.097   0.001  -0.047  0.00  0.00     0.266 S 
ATOM      2  O   UNL d   1       2.077  -1.071   0.039  0.00  0.00    -0.200 OA
ATOM      3  O   UNL d   1       1.512   1.234  -0.673  0.00  0.00    -0.200 OA
ENDROOT
BRANCH   1   4
ATOM      4  C   UNL d   1       0.554   0.334   1.688  0.00  0.00     0.092 C 
ATOM      5  C   UNL d   1       0.165  -0.750   2.537  0.00  0.00    -0.032 C 
ATOM      6  C   UNL d   1      -0.254  -0.492   3.880  0.00  0.00    -0.048 C 
ATOM      7  C   UNL d   1       0.258  -2.205   2.154  0.00  0.00     0.050 C 
ATOM      8  C   UNL d   1      -0.639  -1.620   4.825  0.00  0.00     0.049 C 
ATOM      9  C   UNL d   1      -0.277   0.827   4.387  0.00  0.00    -0.049 C 
ATOM     10  C   UNL d   1       0.113   1.901   3.557  0.00  0.00    -0.048 C 
ATOM     11  C   UNL d   1      -0.630   1.046   5.846  0.00  0.00     0.049 C 
ATOM     12  C   UNL d   1       0.632   1.649   2.246  0.00  0.00    -0.032 C 
ATOM     13  C   UNL d   1       0.021   3.312   4.107  0.00  0.00     0.049 C 
ATOM     14  C   UNL d   1       1.323   2.816   1.573  0.00  0.00     0.050 C 
ENDBRANCH   1   4
BRANCH   1  15
ATOM     15  N   UNL d   1      -0.273  -0.561  -0.898  0.00  0.00    -0.271 N 
ATOM     16  C   UNL d   1      -1.375   0.282  -1.317  0.00  0.00     0.051 A 
ATOM     17  C   UNL d   1      -2.647  -0.305  -1.492  0.00  0.00    -0.030 A 
ATOM     18  C   UNL d   1      -1.212   1.615  -1.698  0.00  0.00     0.031 A 
ATOM     19  C   UNL d   1      -3.726   0.467  -1.962  0.00  0.00     0.016 A 
ATOM     20  C   UNL d   1      -2.889  -1.783  -1.301  0.00  0.00     0.042 C 
ATOM     21  C   UNL d   1      -3.556   1.810  -2.301  0.00  0.00    -0.061 A 
ATOM     22  C   UNL d   1      -2.287   2.373  -2.180  0.00  0.00     0.009 A 
ATOM     23  C   UNL d   1      -4.714   2.612  -2.814  0.00  0.00     0.048 C 
ATOM     24  C   UNL d   1      -1.720  -2.493  -0.637  0.00  0.00     0.026 C 
ATOM     25  C   UNL d   1      -0.406  -1.995  -1.218  0.00  0.00     0.142 C 
ENDBRANCH   1  15
TORSDOF 2
