REMARK  5 active torsions:
REMARK  status: ('A' for Active; 'I' for Inactive)
REMARK    1  A    between atoms: S_2  and  C_1 
REMARK    2  A    between atoms: C_9  and  S_2 
REMARK    3  A    between atoms: C_5  and  C_4 
REMARK       I    between atoms: N_8  and  C_5 
REMARK    4  A    between atoms: C_12  and  C_16 
REMARK    5  A    between atoms: O_27  and  C_17 
ROOT
ATOM      1  C   UNL d   1       1.519   0.511  -2.385  0.00  0.00     0.078 A 
ATOM      2  C   UNL d   1       1.915  -0.654  -1.619  0.00  0.00    -0.017 A 
ATOM      3  C   UNL d   1       0.798  -1.368  -1.149  0.00  0.00     0.080 A 
ATOM      4  S   UNL d   1      -0.660  -0.562  -1.542  0.00  0.00    -0.094 SA
ATOM      5  C   UNL d   1       0.147   0.654  -2.416  0.00  0.00     0.075 A 
ATOM      6  C   UNL d   1       3.322  -1.078  -1.302  0.00  0.00     0.051 C 
ENDROOT
BRANCH   3   7
ATOM      7  C   UNL d   1       0.835  -2.517  -0.216  0.00  0.00     0.261 C 
ATOM      8  N   UNL d   1      -0.042  -3.640  -0.322  0.00  0.00    -0.347 N 
ATOM      9  C   UNL d   1      -0.007  -4.550   0.823  0.00  0.00     0.127 C 
ATOM     10  C   UNL d   1      -1.191  -3.735  -1.220  0.00  0.00     0.127 C 
ATOM     11  C   UNL d   1      -0.673  -5.924   0.668  0.00  0.00     0.029 C 
ATOM     12  C   UNL d   1      -1.910  -6.024  -0.247  0.00  0.00     0.024 C 
ATOM     13  C   UNL d   1      -1.653  -5.168  -1.498  0.00  0.00     0.029 C 
ATOM     14  O   UNL d   1       1.679  -2.518   0.680  0.00  0.00    -0.267 OA
BRANCH  12  15
ATOM     15  C   UNL d   1      -3.283  -5.831   0.420  0.00  0.00    -0.021 A 
ATOM     16  C   UNL d   1      -4.399  -6.671   0.165  0.00  0.00     0.074 A 
ATOM     17  C   UNL d   1      -5.639  -6.410   0.783  0.00  0.00     0.037 A 
ATOM     18  C   UNL d   1      -5.772  -5.406   1.733  0.00  0.00     0.003 A 
ATOM     19  C   UNL d   1      -4.675  -4.619   2.041  0.00  0.00     0.001 A 
ATOM     20  C   UNL d   1      -3.457  -4.809   1.375  0.00  0.00     0.010 A 
BRANCH  16  21
ATOM     21  O   UNL d   1      -4.251  -7.752  -0.679  0.00  0.00    -0.355 OA
ATOM     22  C   UNL d   1      -5.199  -8.812  -0.465  0.00  0.00     0.210 C 
ENDBRANCH  16  21
ENDBRANCH  12  15
ENDBRANCH   3   7
BRANCH   1  23
ATOM     23  S   UNL d   1       2.549   1.714  -3.125  0.00  0.00     0.207 S 
ATOM     24  O   UNL d   1       3.812   1.067  -3.423  0.00  0.00    -0.217 OA
ATOM     25  O   UNL d   1       1.735   2.294  -4.183  0.00  0.00    -0.217 OA
BRANCH  23  26
ATOM     26  C   UNL d   1       2.790   2.939  -1.869  0.00  0.00     0.064 A 
ATOM     27  C   UNL d   1       3.901   2.868  -1.023  0.00  0.00     0.025 A 
ATOM     28  C   UNL d   1       4.064   3.830  -0.021  0.00  0.00     0.025 A 
ATOM     29  C   UNL d   1       3.131   4.860   0.116  0.00  0.00     0.034 A 
ATOM     30  C   UNL d   1       2.043   4.952  -0.751  0.00  0.00     0.025 A 
ATOM     31 CL   UNL d   1       3.325   6.030   1.361  0.00  0.00    -0.084 Cl
ATOM     32  C   UNL d   1       1.872   3.990  -1.753  0.00  0.00     0.025 A 
ENDBRANCH  23  26
ENDBRANCH   1  23
TORSDOF 5
