REMARK  4 active torsions:
REMARK  status: ('A' for Active; 'I' for Inactive)
REMARK    1  A    between atoms: N_2  and  C_4 
REMARK    2  A    between atoms: C_8  and  C_5 
REMARK    3  A    between atoms: O_13  and  C_8 
REMARK    4  A    between atoms: C_16  and  O_13 
ROOT
ATOM      1  N   UNL d   1      -1.644   0.949  -0.008  0.00  0.00    -0.349 N 
ATOM      2  C   UNL d   1      -0.305   0.622   0.025  0.00  0.00     0.076 A 
ATOM      3  C   UNL d   1       0.848   1.433   0.021  0.00  0.00     0.130 A 
ATOM      4  C   UNL d   1      -2.426  -0.182  -0.057  0.00  0.00     0.109 A 
ATOM      5  C   UNL d   1      -1.565  -1.262   0.031  0.00  0.00     0.049 A 
ATOM      6  C   UNL d   1      -0.233  -0.771   0.051  0.00  0.00    -0.005 A 
ATOM      7  C   UNL d   1       2.100   0.790   0.031  0.00  0.00     0.038 A 
ATOM      8  C   UNL d   1       1.032  -1.390   0.068  0.00  0.00     0.014 A 
ATOM      9  C   UNL d   1       2.187  -0.602   0.053  0.00  0.00     0.003 A 
ATOM     10  H   UNL d   1      -2.003   1.897  -0.051  0.00  0.00     0.166 HD
ENDROOT
BRANCH   4  11
ATOM     11  C   UNL d   1      -3.858  -0.195  -0.225  0.00  0.00     0.310 C 
ATOM     12  O   UNL d   1      -4.554  -1.199  -0.279  0.00  0.00    -0.258 OA
BRANCH  11  13
ATOM     13  O   UNL d   1      -4.298   1.082  -0.411  0.00  0.00    -0.317 OA
BRANCH  13  14
ATOM     14  C   UNL d   1      -5.632   1.201  -0.926  0.00  0.00     0.175 C 
ATOM     15  C   UNL d   1      -5.564   1.207  -2.443  0.00  0.00     0.034 C 
ENDBRANCH  13  14
ENDBRANCH  11  13
ENDBRANCH   4  11
BRANCH   3  16
ATOM     16  N   UNL d   1       0.796   2.898  -0.008  0.00  0.00    -0.113 N 
ATOM     17  O   UNL d   1      -0.329   3.425  -0.034  0.00  0.00    -0.532 OA
ATOM     18  O   UNL d   1       1.865   3.523  -0.006  0.00  0.00    -0.532 OA
ENDBRANCH   3  16
TORSDOF 4
