REMARK  4 active torsions:
REMARK  status: ('A' for Active; 'I' for Inactive)
REMARK    1  A    between atoms: S_16  and  C_4 
REMARK    2  A    between atoms: O_14  and  N_7 
REMARK    3  A    between atoms: C_9  and  O_14 
REMARK       I    between atoms: N_13  and  C_9 
REMARK    4  A    between atoms: C_17  and  N_13 
ROOT
ATOM      1  C   UNL d   1       0.302   0.475   0.481  0.00  0.00     0.019 A 
ATOM      2  C   UNL d   1       0.249  -0.913   0.088  0.00  0.00    -0.037 A 
ATOM      3  C   UNL d   1      -0.901   1.310   0.411  0.00  0.00     0.046 C 
ATOM      4  C   UNL d   1       1.594   0.847   0.829  0.00  0.00     0.053 A 
ATOM      5  S   UNL d   1       2.719  -0.423   0.564  0.00  0.00    -0.093 SA
ATOM      6  C   UNL d   1       1.499  -1.494   0.064  0.00  0.00     0.059 A 
ATOM      7  N   UNL d   1      -0.847   2.531   0.842  0.00  0.00    -0.259 N 
ATOM      8  HN  UNL d   1      -0.095   2.904   1.422  1.00  0.00     0.194 HD
ATOM      9  C   UNL d   1      -1.010  -1.615  -0.320  0.00  0.00     0.049 C 
ATOM     10  C   UNL d   1      -2.307  -0.808  -0.071  0.00  0.00    -0.038 C 
ATOM     11  C   UNL d   1      -2.119   0.712  -0.288  0.00  0.00     0.069 C 
ATOM     12  C   UNL d   1      -2.838  -1.074   1.352  0.00  0.00     0.015 C 
ATOM     13  C   UNL d   1      -3.372  -1.297  -1.075  0.00  0.00     0.015 C 
ENDROOT
BRANCH   7  14
ATOM     14  O   UNL d   1      -1.961   3.280   0.406  0.00  0.00    -0.181 OA
BRANCH  14  15
ATOM     15  C   UNL d   1      -2.094   4.413   1.159  0.00  0.00     0.387 C 
ATOM     16  N   UNL d   1      -2.465   5.543   0.471  0.00  0.00    -0.301 N 
ATOM     17  H   UNL d   1      -2.632   6.312   1.107  0.00  0.00     0.171 HD
ATOM     18  O   UNL d   1      -1.956   4.455   2.381  0.00  0.00    -0.236 OA
BRANCH  16  19
ATOM     19  C   UNL d   1      -2.442   5.845  -0.901  0.00  0.00     0.036 A 
ATOM     20  C   UNL d   1      -2.082   4.957  -1.920  0.00  0.00     0.029 A 
ATOM     21  C   UNL d   1      -2.014   5.388  -3.252  0.00  0.00     0.002 A 
ATOM     22  C   UNL d   1      -2.302   6.707  -3.581  0.00  0.00     0.000 A 
ATOM     23  C   UNL d   1      -2.670   7.602  -2.581  0.00  0.00     0.002 A 
ATOM     24  C   UNL d   1      -2.743   7.172  -1.255  0.00  0.00     0.029 A 
ENDBRANCH  16  19
ENDBRANCH  14  15
ENDBRANCH   7  14
BRANCH   4  25
ATOM     25  S   UNL d   1       2.211   2.383   1.433  0.00  0.00    -0.126 SA
ATOM     26  C   UNL d   1       1.682   2.248   3.158  0.00  0.00     0.096 C 
ENDBRANCH   4  25
TORSDOF 4
