REMARK  4 active torsions:
REMARK  status: ('A' for Active; 'I' for Inactive)
REMARK    1  A    between atoms: O_2  and  C_1 
REMARK    2  A    between atoms: C_7  and  O_2 
REMARK    3  A    between atoms: N_3  and  C_8 
REMARK       I    between atoms: C_5  and  N_3 
REMARK    4  A    between atoms: C_10  and  C_5 
ROOT
ATOM      1  N   UNL d   1      -0.402   0.723   3.164  0.00  0.00    -0.197 NA
ATOM      2  C   UNL d   1      -0.028  -0.280   3.605  0.00  0.00     0.068 C 
ATOM      3  C   UNL d   1       0.495  -1.512   4.189  0.00  0.00     0.226 C 
ENDROOT
BRANCH   3   4
ATOM      4  C   UNL d   1       0.810  -2.543   3.129  0.00  0.00     0.235 C 
ATOM      5  N   UNL d   1       1.722  -2.114   2.170  0.00  0.00    -0.324 N 
ATOM      6  H   UNL d   1       2.301  -1.325   2.431  0.00  0.00     0.169 HD
ATOM      7  O   UNL d   1       0.389  -3.694   3.233  0.00  0.00    -0.272 OA
BRANCH   5   8
ATOM      8  C   UNL d   1       2.329  -3.046   1.300  0.00  0.00     0.069 A 
ATOM      9  C   UNL d   1       1.601  -3.816   0.376  0.00  0.00     0.102 A 
ATOM     10  C   UNL d   1       2.277  -4.737  -0.434  0.00  0.00     0.039 A 
ATOM     11  C   UNL d   1       3.658  -4.905  -0.298  0.00  0.00     0.003 A 
ATOM     12  C   UNL d   1       4.377  -4.125   0.606  0.00  0.00     0.002 A 
ATOM     13  C   UNL d   1       3.718  -3.180   1.387  0.00  0.00     0.032 A 
BRANCH   9  14
ATOM     14  O   UNL d   1       0.286  -3.471   0.151  0.00  0.00    -0.307 OA
BRANCH  14  15
ATOM     15  C   UNL d   1      -0.670  -4.447  -0.024  0.00  0.00     0.099 A 
ATOM     16  C   UNL d   1      -0.708  -5.608   0.756  0.00  0.00     0.062 A 
ATOM     17  C   UNL d   1      -1.785  -6.487   0.635  0.00  0.00     0.036 A 
ATOM     18 CL   UNL d   1      -1.841  -7.908   1.605  0.00  0.00    -0.084 Cl
ATOM     19  C   UNL d   1      -2.832  -6.218  -0.247  0.00  0.00     0.026 A 
ATOM     20  C   UNL d   1      -2.799  -5.062  -1.027  0.00  0.00     0.028 A 
ATOM     21  C   UNL d   1      -1.722  -4.179  -0.915  0.00  0.00     0.068 A 
ATOM     22 CL   UNL d   1      -1.732  -2.755  -1.893  0.00  0.00    -0.081 Cl
ENDBRANCH  14  15
ENDBRANCH   9  14
ENDBRANCH   5   8
ENDBRANCH   3   4
TORSDOF 4
