REMARK  7 active torsions:
REMARK  status: ('A' for Active; 'I' for Inactive)
REMARK    1  A    between atoms: C_6  and  C_1 
REMARK    2  A    between atoms: C_7  and  C_2 
REMARK    3  A    between atoms: S_8  and  C_3 
REMARK    4  A    between atoms: N_9  and  C_4 
REMARK    5  A    between atoms: C_11  and  C_6 
REMARK       I    between atoms: N_13  and  C_7 
REMARK    6  A    between atoms: C_14  and  S_8 
REMARK    7  A    between atoms: C_15  and  C_14 
ROOT
ATOM      1  C   UNL d   1      -0.271   0.967  -0.022  0.00  0.00     0.084 A 
ATOM      2  C   UNL d   1      -0.617  -1.381   0.051  0.00  0.00     0.083 A 
ATOM      3  C   UNL d   1       0.774  -1.298   0.109  0.00  0.00     0.060 A 
ATOM      4  C   UNL d   1      -1.198  -0.055  -0.059  0.00  0.00     0.065 A 
ATOM      5  S   UNL d   1       1.317   0.327   0.066  0.00  0.00    -0.076 SA
ENDROOT
BRANCH   1   6
ATOM      6  C   UNL d   1      -0.425   2.419  -0.074  0.00  0.00     0.201 C 
ATOM      7  O   UNL d   1       0.399   3.165  -0.608  0.00  0.00    -0.286 OA
BRANCH   6   8
ATOM      8  C   UNL d   1      -1.618   3.080   0.544  0.00  0.00     0.015 A 
ATOM      9  C   UNL d   1      -2.079   4.290   0.001  0.00  0.00     0.015 A 
ATOM     10  C   UNL d   1      -3.191   4.935   0.550  0.00  0.00     0.001 A 
ATOM     11  C   UNL d   1      -3.850   4.378   1.645  0.00  0.00     0.000 A 
ATOM     12  C   UNL d   1      -3.391   3.186   2.202  0.00  0.00     0.001 A 
ATOM     13  C   UNL d   1      -2.269   2.549   1.666  0.00  0.00     0.015 A 
ENDBRANCH   6   8
ENDBRANCH   1   6
BRANCH   4  14
ATOM     14  N   UNL d   1      -2.530   0.127  -0.211  0.00  0.00    -0.397 N 
ATOM     15  H   UNL d   1      -3.179  -0.660  -0.104  0.00  0.00     0.156 HD
ATOM     16  H   UNL d   1      -2.991   1.007  -0.419  0.00  0.00     0.156 HD
ENDBRANCH   4  14
BRANCH   2  17
ATOM     17  C   UNL d   1      -1.438  -2.600   0.070  0.00  0.00     0.253 C 
ATOM     18  O   UNL d   1      -2.638  -2.593   0.342  0.00  0.00    -0.268 OA
ATOM     19  N   UNL d   1      -0.844  -3.781  -0.260  0.00  0.00    -0.366 N 
ATOM     20  H   UNL d   1       0.144  -3.845  -0.473  0.00  0.00     0.159 HD
ATOM     21  H   UNL d   1      -1.401  -4.621  -0.238  0.00  0.00     0.159 HD
ENDBRANCH   2  17
BRANCH   3  22
ATOM     22  S   UNL d   1       1.924  -2.651   0.110  0.00  0.00    -0.117 SA
BRANCH  22  23
ATOM     23  C   UNL d   1       3.215  -2.173   1.296  0.00  0.00     0.118 C 
BRANCH  23  24
ATOM     24  C   UNL d   1       4.179  -3.320   1.518  0.00  0.00    -0.049 A 
ATOM     25  C   UNL d   1       5.221  -3.562   0.606  0.00  0.00     0.008 A 
ATOM     26  C   UNL d   1       6.098  -4.634   0.793  0.00  0.00     0.001 A 
ATOM     27  C   UNL d   1       5.948  -5.480   1.887  0.00  0.00     0.000 A 
ATOM     28  C   UNL d   1       4.912  -5.256   2.797  0.00  0.00     0.001 A 
ATOM     29  C   UNL d   1       4.033  -4.188   2.611  0.00  0.00     0.008 A 
ENDBRANCH  23  24
ENDBRANCH  22  23
ENDBRANCH   3  22
TORSDOF 7
