REMARK  3 active torsions:
REMARK  status: ('A' for Active; 'I' for Inactive)
REMARK    1  A    between atoms: C_3  and  C_1 
REMARK    2  A    between atoms: C_13  and  C_11 
REMARK    3  A    between atoms: N_12  and  C_13 
ROOT
ATOM      1  C   UNL d   1      -0.198   2.652  -0.025  0.00  0.00    -0.019 A 
ATOM      2  C   UNL d   1       0.296   3.430  -1.085  0.00  0.00     0.013 A 
ATOM      3  C   UNL d   1      -1.004   3.286   0.931  0.00  0.00     0.013 A 
ATOM      4  C   UNL d   1      -1.299   4.650   0.836  0.00  0.00     0.010 A 
ATOM      5  C   UNL d   1      -0.000   4.796  -1.183  0.00  0.00     0.010 A 
ATOM      6  C   UNL d   1      -0.797   5.422  -0.220  0.00  0.00    -0.031 A 
ENDROOT
BRANCH   1   7
ATOM      7  C   UNL d   1       0.117   1.211   0.050  0.00  0.00     0.015 A 
ATOM      8  S   UNL d   1       0.260   0.415   1.571  0.00  0.00    -0.101 SA
ATOM      9  C   UNL d   1       0.586  -1.093   0.844  0.00  0.00     0.050 A 
ATOM     10  C   UNL d   1       0.621  -1.007  -0.527  0.00  0.00     0.008 A 
ATOM     11  C   UNL d   1       0.356   0.318  -0.983  0.00  0.00     0.020 A 
ENDBRANCH   1   7
BRANCH   6  12
ATOM     12  C   UNL d   1      -1.140   6.886  -0.321  0.00  0.00     0.305 C 
BRANCH  12  13
ATOM     13  N   UNL d   1      -0.671   7.631   0.842  0.00  0.00     0.082 N 
ATOM     14  H   UNL d   1      -0.900   8.616   0.724  0.00  0.00     0.313 HD
ATOM     15  H   UNL d   1       0.345   7.570   0.882  0.00  0.00     0.313 HD
ENDBRANCH  12  13
ENDBRANCH   6  12
TORSDOF 3
