REMARK  5 active torsions:
REMARK  status: ('A' for Active; 'I' for Inactive)
REMARK    1  A    between atoms: C_13  and  C_3 
REMARK    2  A    between atoms: C_5  and  C_4 
REMARK    3  A    between atoms: C_14  and  C_7 
REMARK    4  A    between atoms: O_18  and  C_13 
REMARK    5  A    between atoms: C_23  and  O_18 
ROOT
ATOM      1  N   UNL d   1       1.421  -0.617  -0.171  0.00  0.00    -0.347 N 
ATOM      2  HN  UNL d   1       2.293  -1.123  -0.326  1.00  0.00     0.167 HD
ATOM      3  C   UNL d   1       1.312   0.758  -0.050  0.00  0.00     0.076 A 
ATOM      4  C   UNL d   1       0.233  -1.174  -0.056  0.00  0.00     0.085 A 
ATOM      5  S   UNL d   1      -1.065  -0.067   0.213  0.00  0.00    -0.081 SA
ATOM      6  C   UNL d   1       0.040   1.237   0.173  0.00  0.00     0.084 A 
ENDROOT
BRANCH   3   7
ATOM      7  C   UNL d   1       2.486   1.656  -0.155  0.00  0.00     0.128 A 
ATOM      8  C   UNL d   1       3.780   1.289  -0.432  0.00  0.00     0.079 A 
ATOM      9  C   UNL d   1       4.509   2.506  -0.434  0.00  0.00     0.132 A 
ATOM     10  N   UNL d   1       3.700   3.542  -0.157  0.00  0.00    -0.255 N 
ATOM     11  O   UNL d   1       2.441   3.007   0.011  0.00  0.00    -0.235 OA
ATOM     12  HN  UNL d   1       3.963   4.525  -0.086  1.00  0.00     0.195 HD
BRANCH   9  13
ATOM     13  C   UNL d   1       5.945   2.671  -0.635  0.00  0.00     0.311 C 
ATOM     14  O   UNL d   1       6.702   1.730  -0.849  0.00  0.00    -0.258 OA
BRANCH  13  15
ATOM     15  O   UNL d   1       6.351   3.963  -0.459  0.00  0.00    -0.317 OA
BRANCH  15  16
ATOM     16  C   UNL d   1       7.726   4.134  -0.104  0.00  0.00     0.175 C 
ATOM     17  C   UNL d   1       7.847   3.946   1.399  0.00  0.00     0.034 C 
ENDBRANCH  15  16
ENDBRANCH  13  15
ENDBRANCH   9  13
ENDBRANCH   3   7
BRANCH   4  18
ATOM     18  C   UNL d   1      -0.004  -2.626  -0.084  0.00  0.00    -0.001 A 
ATOM     19  C   UNL d   1       1.009  -3.490   0.363  0.00  0.00     0.038 A 
ATOM     20  C   UNL d   1       0.807  -4.869   0.373  0.00  0.00     0.035 A 
ATOM     21 CL   UNL d   1       2.050  -5.911   0.949  0.00  0.00    -0.084 Cl
ATOM     22  C   UNL d   1      -0.395  -5.413  -0.073  0.00  0.00     0.024 A 
ATOM     23  C   UNL d   1      -1.403  -4.571  -0.537  0.00  0.00     0.003 A 
ATOM     24  C   UNL d   1      -1.208  -3.186  -0.543  0.00  0.00     0.014 A 
ENDBRANCH   4  18
TORSDOF 5
