REMARK  4 active torsions:
REMARK  status: ('A' for Active; 'I' for Inactive)
REMARK    1  A    between atoms: C_2  and  S_1 
REMARK    2  A    between atoms: C_4  and  S_1 
REMARK    3  A    between atoms: N_3  and  C_6 
REMARK    4  A    between atoms: C_7  and  C_4 
ROOT
ATOM      1  S   UNL d   1       1.034  -0.010   0.059  0.00  0.00     0.182 S 
ATOM      2  O   UNL d   1       2.454   0.256   0.182  0.00  0.00    -0.222 OA
ATOM      3  O   UNL d   1       0.570  -1.292  -0.440  0.00  0.00    -0.222 OA
ENDROOT
BRANCH   1   4
ATOM      4  C   UNL d   1       0.381   1.221  -1.035  0.00  0.00     0.098 A 
ATOM      5  C   UNL d   1       0.610   2.565  -0.753  0.00  0.00     0.140 A 
ATOM      6  C   UNL d   1       0.130   3.556  -1.602  0.00  0.00     0.086 A 
ATOM      7  F   UNL d   1       1.275   2.932   0.349  0.00  0.00    -0.204 F 
ATOM      8  C   UNL d   1      -0.581   3.186  -2.737  0.00  0.00     0.119 A 
ATOM      9  C   UNL d   1      -0.818   1.847  -3.032  0.00  0.00     0.044 A 
ATOM     10  F   UNL d   1      -1.048   4.135  -3.558  0.00  0.00    -0.206 F 
ATOM     11  C   UNL d   1      -0.334   0.852  -2.180  0.00  0.00     0.029 A 
ENDBRANCH   1   4
BRANCH   1  12
ATOM     12  C   UNL d   1       0.222   0.329   1.619  0.00  0.00     0.186 C 
BRANCH  12  13
ATOM     13  C   UNL d   1       0.660  -0.679   2.658  0.00  0.00    -0.022 A 
ATOM     14  C   UNL d   1      -0.037  -1.877   2.902  0.00  0.00     0.043 A 
ATOM     15  C   UNL d   1       0.384  -2.763   3.899  0.00  0.00     0.060 A 
ATOM     16 CL   UNL d   1      -1.464  -2.295   2.024  0.00  0.00    -0.084 Cl
ATOM     17  C   UNL d   1       1.511  -2.454   4.666  0.00  0.00     0.104 A 
ATOM     18  C   UNL d   1       2.232  -1.279   4.429  0.00  0.00     0.037 A 
ATOM     19  C   UNL d   1       1.808  -0.403   3.426  0.00  0.00     0.012 A 
BRANCH  17  20
ATOM     20  N   UNL d   1       1.928  -3.360   5.744  0.00  0.00    -0.116 N 
ATOM     21  O   UNL d   1       1.269  -4.394   5.914  0.00  0.00    -0.532 OA
ATOM     22  O   UNL d   1       2.906  -3.027   6.429  0.00  0.00    -0.532 OA
ENDBRANCH  17  20
ENDBRANCH  12  13
ENDBRANCH   1  12
TORSDOF 4
