REMARK  2 active torsions:
REMARK  status: ('A' for Active; 'I' for Inactive)
REMARK    1  A    between atoms: C_7  and  N_1 
REMARK    2  A    between atoms: C_8  and  C_2 
ROOT
ATOM      1  N   UNL d   1      -0.132  -1.399  -0.177  0.00  0.00    -0.224 N 
ATOM      2  C   UNL d   1       1.101  -0.760  -0.048  0.00  0.00     0.148 C 
ATOM      3  N   UNL d   1      -1.054  -0.462  -0.500  0.00  0.00     0.001 NA
ATOM      4  N   UNL d   1      -0.446   0.706  -0.380  0.00  0.00    -0.007 NA
ATOM      5  N   UNL d   1       0.879   0.542  -0.090  0.00  0.00    -0.269 N 
ATOM      6  HN  UNL d   1       1.564   1.282   0.064  1.00  0.00     0.185 HD
ENDROOT
BRANCH   1   7
ATOM      7  C   UNL d   1      -0.505  -2.758  -0.010  0.00  0.00     0.058 A 
ATOM      8  C   UNL d   1      -1.655  -3.235  -0.657  0.00  0.00     0.057 A 
ATOM      9  C   UNL d   1      -2.020  -4.583  -0.546  0.00  0.00     0.058 A 
ATOM     10 CL   UNL d   1      -3.411  -5.113  -1.422  0.00  0.00    -0.082 Cl
ATOM     11  C   UNL d   1      -1.256  -5.451   0.241  0.00  0.00     0.055 A 
ATOM     12  C   UNL d   1      -0.136  -4.965   0.921  0.00  0.00     0.028 A 
ATOM     13 CL   UNL d   1      -1.640  -7.125   0.420  0.00  0.00    -0.083 Cl
ATOM     14  C   UNL d   1       0.241  -3.624   0.800  0.00  0.00     0.033 A 
ENDBRANCH   1   7
BRANCH   2  15
ATOM     15  C   UNL d   1       2.427  -1.374   0.010  0.00  0.00     0.012 A 
ATOM     16  C   UNL d   1       2.783  -2.431  -0.843  0.00  0.00     0.041 A 
ATOM     17  C   UNL d   1       4.056  -3.009  -0.773  0.00  0.00     0.056 A 
ATOM     18 CL   UNL d   1       4.387  -4.338  -1.826  0.00  0.00    -0.083 Cl
ATOM     19  C   UNL d   1       5.000  -2.513   0.131  0.00  0.00     0.055 A 
ATOM     20  C   UNL d   1       4.665  -1.436   0.956  0.00  0.00     0.026 A 
ATOM     21 CL   UNL d   1       6.585  -3.180   0.275  0.00  0.00    -0.083 Cl
ATOM     22  C   UNL d   1       3.389  -0.869   0.893  0.00  0.00     0.017 A 
ENDBRANCH   2  15
TORSDOF 2
