REMARK  3 active torsions:
REMARK  status: ('A' for Active; 'I' for Inactive)
REMARK    1  A    between atoms: N_2  and  S_1 
REMARK    2  A    between atoms: C_5  and  S_1 
REMARK       I    between atoms: C_4  and  N_2 
REMARK    3  A    between atoms: C_7  and  C_4 
ROOT
ATOM      1  N   UNL d   1       0.712   1.410   0.220  0.00  0.00    -0.279 N 
ATOM      2  HN  UNL d   1       0.500   2.032  -0.560  1.00  0.00     0.179 HD
ATOM      3  C   UNL d   1       0.727   1.930   1.523  0.00  0.00     0.262 C 
ATOM      4  O   UNL d   1       1.406   1.439   2.423  0.00  0.00    -0.267 OA
ENDROOT
BRANCH   1   5
ATOM      5  S   UNL d   1       1.008  -0.073  -0.064  0.00  0.00     0.055 S 
ATOM      6  O   UNL d   1       0.613  -1.172   0.796  0.00  0.00    -0.245 OA
ATOM      7  C   UNL d   1       2.735  -0.278  -0.435  0.00  0.00     0.142 C 
BRANCH   5   8
ATOM      8  C   UNL d   1       0.250  -0.402  -1.652  0.00  0.00     0.038 A 
ATOM      9  C   UNL d   1       0.252   0.590  -2.641  0.00  0.00     0.023 A 
ATOM     10  C   UNL d   1      -0.396   0.346  -3.855  0.00  0.00     0.025 A 
ATOM     11  C   UNL d   1      -1.030  -0.878  -4.072  0.00  0.00     0.034 A 
ATOM     12  C   UNL d   1      -1.011  -1.872  -3.093  0.00  0.00     0.025 A 
ATOM     13 CL   UNL d   1      -1.860  -1.156  -5.554  0.00  0.00    -0.084 Cl
ATOM     14  C   UNL d   1      -0.371  -1.635  -1.875  0.00  0.00     0.023 A 
ENDBRANCH   5   8
ENDBRANCH   1   5
BRANCH   3  15
ATOM     15  C   UNL d   1       0.016   3.222   1.822  0.00  0.00     0.033 A 
ATOM     16  C   UNL d   1       0.037   3.760   3.119  0.00  0.00     0.018 A 
ATOM     17  C   UNL d   1      -0.491   5.033   3.363  0.00  0.00     0.025 A 
ATOM     18  C   UNL d   1      -1.039   5.769   2.314  0.00  0.00     0.034 A 
ATOM     19  C   UNL d   1      -1.123   5.220   1.035  0.00  0.00     0.025 A 
ATOM     20 CL   UNL d   1      -1.582   7.378   2.587  0.00  0.00    -0.084 Cl
ATOM     21  C   UNL d   1      -0.609   3.943   0.792  0.00  0.00     0.018 A 
ENDBRANCH   3  15
TORSDOF 3
