REMARK  3 active torsions:
REMARK  status: ('A' for Active; 'I' for Inactive)
REMARK       I    between atoms: N_2  and  C_1 
REMARK    1  A    between atoms: C_5  and  C_1 
REMARK    2  A    between atoms: C_4  and  N_3 
REMARK    3  A    between atoms: O_18  and  C_11 
ROOT
ATOM      1  C   UNL d   1       1.090  -0.025   0.156  0.00  0.00     0.253 C 
ATOM      2  N   UNL d   1       0.666   0.881  -0.829  0.00  0.00    -0.345 N 
ATOM      3  N   UNL d   1      -0.413   2.274  -3.112  0.00  0.00    -0.376 N 
ATOM      4  C   UNL d   1       1.224   0.671  -2.178  0.00  0.00     0.146 C 
ATOM      5  C   UNL d   1      -0.599   1.622  -0.758  0.00  0.00     0.146 C 
ATOM      6  C   UNL d   1       0.994   1.825  -3.183  0.00  0.00     0.143 C 
ATOM      7  C   UNL d   1      -0.745   2.765  -1.768  0.00  0.00     0.143 C 
ATOM      8  O   UNL d   1       2.011  -0.816  -0.032  0.00  0.00    -0.267 OA
ENDROOT
BRANCH   1   9
ATOM      9  C   UNL d   1       0.485  -0.015   1.520  0.00  0.00     0.032 A 
ATOM     10  C   UNL d   1      -0.893  -0.043   1.766  0.00  0.00     0.018 A 
ATOM     11  C   UNL d   1      -1.379   0.037   3.076  0.00  0.00     0.025 A 
ATOM     12  C   UNL d   1      -0.486   0.078   4.145  0.00  0.00     0.034 A 
ATOM     13  C   UNL d   1       0.887   0.019   3.918  0.00  0.00     0.025 A 
ATOM     14 CL   UNL d   1      -1.085   0.193   5.753  0.00  0.00    -0.084 Cl
ATOM     15  C   UNL d   1       1.371  -0.027   2.608  0.00  0.00     0.018 A 
ENDBRANCH   1   9
BRANCH   3  16
ATOM     16  C   UNL d   1      -0.942   2.938  -4.225  0.00  0.00     0.064 A 
ATOM     17  C   UNL d   1      -1.039   2.328  -5.498  0.00  0.00     0.094 A 
ATOM     18  C   UNL d   1      -1.651   2.979  -6.579  0.00  0.00     0.039 A 
ATOM     19  C   UNL d   1      -2.204   4.245  -6.422  0.00  0.00     0.003 A 
ATOM     20  C   UNL d   1      -2.111   4.879  -5.190  0.00  0.00     0.002 A 
ATOM     21  C   UNL d   1      -1.484   4.235  -4.116  0.00  0.00     0.032 A 
BRANCH  17  22
ATOM     22  O   UNL d   1      -0.531   1.087  -5.798  0.00  0.00    -0.354 OA
ATOM     23  C   UNL d   1      -1.172   0.034  -5.083  0.00  0.00     0.210 C 
ENDBRANCH  17  22
ENDBRANCH   3  16
TORSDOF 3
