REMARK  5 active torsions:
REMARK  status: ('A' for Active; 'I' for Inactive)
REMARK    1  A    between atoms: C_7  and  C_1 
REMARK    2  A    between atoms: O_10  and  C_4 
REMARK    3  A    between atoms: C_8  and  C_6 
REMARK    4  A    between atoms: O_13  and  C_7 
REMARK    5  A    between atoms: C_17  and  O_13 
ROOT
ATOM      1  C   UNL d   1      -0.147   1.105  -0.003  0.00  0.00     0.133 A 
ATOM      2  N   UNL d   1      -0.575  -1.195  -0.059  0.00  0.00    -0.329 N 
ATOM      3  HN  UNL d   1      -1.142  -2.043  -0.073  1.00  0.00     0.168 HD
ATOM      4  C   UNL d   1      -1.070   0.084  -0.048  0.00  0.00     0.164 A 
ATOM      5  S   UNL d   1       1.425   0.416  -0.008  0.00  0.00    -0.061 SA
ATOM      6  C   UNL d   1       0.744  -1.166  -0.049  0.00  0.00     0.087 A 
ENDROOT
BRANCH   6   7
ATOM      7  C   UNL d   1       1.599  -2.362  -0.022  0.00  0.00    -0.002 A 
ATOM      8  C   UNL d   1       1.098  -3.554   0.527  0.00  0.00     0.015 A 
ATOM      9  C   UNL d   1       1.881  -4.712   0.567  0.00  0.00     0.007 A 
ATOM     10  C   UNL d   1       3.180  -4.707   0.052  0.00  0.00    -0.062 A 
ATOM     11  C   UNL d   1       3.685  -3.530  -0.503  0.00  0.00     0.007 A 
ATOM     12  C   UNL d   1       4.011  -5.956   0.089  0.00  0.00     0.048 C 
ATOM     13  C   UNL d   1       2.902  -2.370  -0.541  0.00  0.00     0.015 A 
ENDBRANCH   6   7
BRANCH   1  14
ATOM     14  C   UNL d   1      -0.285   2.536   0.101  0.00  0.00     0.304 C 
ATOM     15  O   UNL d   1       0.635   3.338   0.217  0.00  0.00    -0.259 OA
BRANCH  14  16
ATOM     16  O   UNL d   1      -1.602   2.884   0.153  0.00  0.00    -0.317 OA
BRANCH  16  17
ATOM     17  C   UNL d   1      -1.885   4.168   0.719  0.00  0.00     0.174 C 
ATOM     18  C   UNL d   1      -1.999   3.996   2.225  0.00  0.00     0.034 C 
ENDBRANCH  16  17
ENDBRANCH  14  16
ENDBRANCH   1  14
BRANCH   4  19
ATOM     19  O   UNL d   1      -2.395   0.281  -0.050  0.00  0.00    -0.345 OA
ATOM     20  H   UNL d   1      -2.800  -0.604  -0.074  0.00  0.00     0.219 HD
ENDBRANCH   4  19
TORSDOF 5
