REMARK  4 active torsions:
REMARK  status: ('A' for Active; 'I' for Inactive)
REMARK    1  A    between atoms: C_3  and  S_1 
REMARK    2  A    between atoms: C_6  and  S_1 
REMARK    3  A    between atoms: N_2  and  C_10 
REMARK    4  A    between atoms: C_17  and  C_6 
ROOT
ATOM      1  S   UNL d   1       0.926   0.048   0.131  0.00  0.00     0.180 S 
ATOM      2  O   UNL d   1      -0.003   1.158   0.241  0.00  0.00    -0.222 OA
ATOM      3  O   UNL d   1       2.365   0.256   0.113  0.00  0.00    -0.222 OA
ENDROOT
BRANCH   1   4
ATOM      4  C   UNL d   1       0.549  -0.739  -1.438  0.00  0.00     0.066 A 
ATOM      5  C   UNL d   1       0.033  -2.045  -1.466  0.00  0.00     0.032 A 
ATOM      6  C   UNL d   1      -0.211  -2.700  -2.689  0.00  0.00    -0.039 A 
ATOM      7  C   UNL d   1      -0.693  -4.125  -2.687  0.00  0.00     0.050 C 
ATOM      8  C   UNL d   1       0.043  -2.015  -3.883  0.00  0.00     0.040 A 
ATOM      9  C   UNL d   1       0.538  -0.710  -3.857  0.00  0.00     0.032 A 
ATOM     10 CL   UNL d   1      -0.225  -2.747  -5.424  0.00  0.00    -0.084 Cl
ATOM     11  C   UNL d   1       0.814  -0.056  -2.642  0.00  0.00    -0.039 A 
ATOM     12  C   UNL d   1       1.358   1.345  -2.740  0.00  0.00     0.050 C 
ENDBRANCH   1   4
BRANCH   1  13
ATOM     13  C   UNL d   1       0.562  -1.114   1.442  0.00  0.00     0.184 C 
BRANCH  13  14
ATOM     14  C   UNL d   1       1.000  -0.512   2.760  0.00  0.00    -0.044 A 
ATOM     15  C   UNL d   1       0.118   0.276   3.517  0.00  0.00     0.010 A 
ATOM     16  C   UNL d   1       0.553   0.905   4.688  0.00  0.00     0.036 A 
ATOM     17  C   UNL d   1       1.881   0.747   5.106  0.00  0.00     0.102 A 
ATOM     18  C   UNL d   1       2.762  -0.060   4.379  0.00  0.00     0.036 A 
ATOM     19  C   UNL d   1       2.319  -0.687   3.212  0.00  0.00     0.010 A 
BRANCH  17  20
ATOM     20  N   UNL d   1       2.358   1.456   6.300  0.00  0.00    -0.116 N 
ATOM     21  O   UNL d   1       3.552   1.323   6.611  0.00  0.00    -0.532 OA
ATOM     22  O   UNL d   1       1.543   2.147   6.927  0.00  0.00    -0.532 OA
ENDBRANCH  17  20
ENDBRANCH  13  14
ENDBRANCH   1  13
TORSDOF 4
