REMARK  5 active torsions:
REMARK  status: ('A' for Active; 'I' for Inactive)
REMARK    1  A    between atoms: C_2  and  C_1 
REMARK    2  A    between atoms: S_4  and  C_1 
REMARK    3  A    between atoms: C_5  and  C_2 
REMARK    4  A    between atoms: N_7  and  C_3 
REMARK    5  A    between atoms: C_8  and  S_4 
ROOT
ATOM      1  C   UNL d   1       0.983  -0.089  -0.102  0.00  0.00     0.071 C 
ATOM      2  C   UNL d   1       0.385   1.121  -0.094  0.00  0.00     0.107 C 
ENDROOT
BRANCH   1   3
ATOM      3  C   UNL d   1       0.350  -1.403   0.271  0.00  0.00     0.200 C 
ATOM      4  O   UNL d   1       0.993  -2.319   0.786  0.00  0.00    -0.286 OA
BRANCH   3   5
ATOM      5  C   UNL d   1      -1.097  -1.625   0.021  0.00  0.00     0.015 A 
ATOM      6  C   UNL d   1      -1.760  -1.098  -1.093  0.00  0.00     0.016 A 
ATOM      7  C   UNL d   1      -3.150  -1.194  -1.184  0.00  0.00     0.007 A 
ATOM      8  C   UNL d   1      -3.886  -1.847  -0.186  0.00  0.00    -0.062 A 
ATOM      9  C   UNL d   1      -3.208  -2.451   0.880  0.00  0.00     0.007 A 
ATOM     10  C   UNL d   1      -5.386  -1.813  -0.210  0.00  0.00     0.048 C 
ATOM     11  C   UNL d   1      -1.819  -2.354   0.976  0.00  0.00     0.016 A 
ENDBRANCH   3   5
ENDBRANCH   1   3
BRANCH   1  12
ATOM     12  S   UNL d   1       2.621  -0.214  -0.710  0.00  0.00    -0.085 SA
BRANCH  12  13
ATOM     13  C   UNL d   1       3.513  -0.117   0.837  0.00  0.00     0.005 A 
ATOM     14  C   UNL d   1       3.937  -1.291   1.473  0.00  0.00     0.020 A 
ATOM     15  C   UNL d   1       4.685  -1.228   2.653  0.00  0.00     0.025 A 
ATOM     16  C   UNL d   1       5.019   0.011   3.193  0.00  0.00     0.034 A 
ATOM     17  C   UNL d   1       4.608   1.186   2.569  0.00  0.00     0.025 A 
ATOM     18 CL   UNL d   1       5.956   0.089   4.635  0.00  0.00    -0.084 Cl
ATOM     19  C   UNL d   1       3.857   1.122   1.390  0.00  0.00     0.020 A 
ENDBRANCH  12  13
ENDBRANCH   1  12
BRANCH   2  20
ATOM     20  N   UNL d   1      -0.839   1.605   0.356  0.00  0.00    -0.397 N 
ATOM     21  C   UNL d   1      -1.509   1.147   1.572  0.00  0.00     0.148 C 
ATOM     22  C   UNL d   1      -1.593   2.586  -0.425  0.00  0.00     0.148 C 
ENDBRANCH   2  20
TORSDOF 5
