REMARK  11 active torsions:
REMARK  status: ('A' for Active; 'I' for Inactive)
REMARK    1  A    between atoms: S_8  and  C_2 
REMARK    2  A    between atoms: C_10  and  C_7 
REMARK    3  A    between atoms: C_11  and  C_10 
REMARK    4  A    between atoms: C_18  and  C_11 
REMARK    5  A    between atoms: C_12  and  C_13 
REMARK    6  A    between atoms: C_13  and  C_17 
REMARK    7  A    between atoms: C_14  and  C_19 
REMARK    8  A    between atoms: C_15  and  C_14 
REMARK    9  A    between atoms: C_16  and  C_15 
REMARK   10  A    between atoms: C_17  and  C_16 
REMARK   11  A    between atoms: C_19  and  C_18 
ROOT
ATOM      1  C   UNL d   1      -2.643  -0.198   0.072  0.00  0.00     0.078 C 
ENDROOT
BRANCH   1   2
ATOM      2  C   UNL d   1      -1.152  -0.217  -0.034  0.00  0.00     0.099 A 
ATOM      3  N   UNL d   1      -0.480  -0.228  -1.166  0.00  0.00    -0.287 N 
ATOM      4  N   UNL d   1       0.858  -0.199  -0.872  0.00  0.00    -0.279 N 
ATOM      5  HN  UNL d   1      -0.885  -0.255  -2.102  1.00  0.00     0.188 HD
ATOM      6  C   UNL d   1       0.988  -0.173   0.433  0.00  0.00     0.159 A 
ATOM      7  HN  UNL d   1       1.620  -0.197  -1.550  1.00  0.00     0.189 HD
ATOM      8  N   UNL d   1      -0.253  -0.197   1.016  0.00  0.00    -0.320 N 
ATOM      9  C   UNL d   1      -0.606  -0.204   2.411  0.00  0.00     0.159 C 
BRANCH   6  10
ATOM     10  S   UNL d   1       2.519  -0.112   1.234  0.00  0.00    -0.105 SA
ATOM     11  H   UNL d   1       2.165  -0.080   2.519  0.00  0.00     0.110 HD
ENDBRANCH   6  10
ENDBRANCH   1   2
BRANCH   1  12
ATOM     12  C   UNL d   1      -3.235  -1.607   0.032  0.00  0.00     0.007 C 
BRANCH  12  13
ATOM     13  C   UNL d   1      -4.770  -1.594   0.018  0.00  0.00     0.000 C 
BRANCH  13  14
ATOM     14  C   UNL d   1      -5.313  -3.025   0.006  0.00  0.00     0.000 C 
BRANCH  14  15
ATOM     15  C   UNL d   1      -6.842  -3.080   0.004  0.00  0.00     0.000 C 
BRANCH  15  16
ATOM     16  C   UNL d   1      -7.323  -4.534   0.002  0.00  0.00     0.000 C 
BRANCH  16  17
ATOM     17  C   UNL d   1      -8.847  -4.625   0.002  0.00  0.00     0.000 C 
BRANCH  17  18
ATOM     18  C   UNL d   1      -9.312  -6.083   0.002  0.00  0.00     0.000 C 
BRANCH  18  19
ATOM     19  C   UNL d   1     -10.839  -6.172   0.001  0.00  0.00    -0.000 C 
BRANCH  19  20
ATOM     20  C   UNL d   1     -11.315  -7.624  -0.001  0.00  0.00    -0.005 C 
ATOM     21  C   UNL d   1     -12.833  -7.703  -0.002  0.00  0.00     0.005 C 
ENDBRANCH  19  20
ENDBRANCH  18  19
ENDBRANCH  17  18
ENDBRANCH  16  17
ENDBRANCH  15  16
ENDBRANCH  14  15
ENDBRANCH  13  14
ENDBRANCH  12  13
ENDBRANCH   1  12
TORSDOF 11
