REMARK  6 active torsions:
REMARK  status: ('A' for Active; 'I' for Inactive)
REMARK    1  A    between atoms: C_3  and  S_1 
REMARK    2  A    between atoms: C_4  and  S_1 
REMARK    3  A    between atoms: C_2  and  C_5 
REMARK    4  A    between atoms: C_8  and  C_3 
REMARK       I    between atoms: N_14  and  C_8 
REMARK    5  A    between atoms: N_11  and  N_14 
REMARK    6  A    between atoms: C_22  and  C_21 
ROOT
ATOM      1  C   UNL d   1       0.571  -1.453  -1.263  0.00  0.00     0.251 C 
ENDROOT
BRANCH   1   2
ATOM      2  S   UNL d   1       1.107  -1.037  -2.877  0.00  0.00     0.199 S 
ATOM      3  O   UNL d   1       0.631   0.316  -3.139  0.00  0.00    -0.221 OA
ATOM      4  O   UNL d   1       0.701  -2.110  -3.769  0.00  0.00    -0.221 OA
BRANCH   2   5
ATOM      5  C   UNL d   1       2.884  -1.008  -2.841  0.00  0.00     0.128 A 
ATOM      6  N   UNL d   1       3.454  -2.150  -2.377  0.00  0.00    -0.356 N 
ATOM      7  C   UNL d   1       4.808  -2.190  -2.411  0.00  0.00     0.105 A 
ATOM      8  HN  UNL d   1       2.898  -2.929  -2.026  1.00  0.00     0.166 HD
ATOM      9  C   UNL d   1       5.607  -1.159  -2.893  0.00  0.00     0.063 A 
ATOM     10  C   UNL d   1       4.969   0.005  -3.346  0.00  0.00     0.020 A 
ATOM     11  C   UNL d   1       3.580   0.089  -3.322  0.00  0.00     0.042 A 
BRANCH   9  12
ATOM     12  C   UNL d   1       7.099  -1.297  -2.952  0.00  0.00     0.418 C 
ATOM     13  F   UNL d   1       7.560  -2.486  -2.475  0.00  0.00    -0.166 F 
ATOM     14  F   UNL d   1       7.574  -1.200  -4.225  0.00  0.00    -0.166 F 
ATOM     15  F   UNL d   1       7.745  -0.333  -2.241  0.00  0.00    -0.166 F 
ENDBRANCH   9  12
ENDBRANCH   2   5
ENDBRANCH   1   2
BRANCH   1  16
ATOM     16  C   UNL d   1       1.060  -0.428  -0.292  0.00  0.00     0.250 C 
ATOM     17  N   UNL d   1       0.106   0.524   0.051  0.00  0.00    -0.270 N 
ATOM     18  H   UNL d   1      -0.694   0.702  -0.551  0.00  0.00     0.190 HD
ATOM     19  O   UNL d   1       2.193  -0.489   0.182  0.00  0.00    -0.271 OA
BRANCH  17  20
ATOM     20  N   UNL d   1       0.431   1.476   0.962  0.00  0.00    -0.308 N 
ATOM     21  C   UNL d   1      -0.494   2.193   1.530  0.00  0.00     0.118 C 
ATOM     22  HN  UNL d   1       1.410   1.631   1.204  1.00  0.00     0.186 HD
BRANCH  21  23
ATOM     23  C   UNL d   1      -1.971   2.079   1.498  0.00  0.00    -0.019 A 
ATOM     24  C   UNL d   1      -2.643   0.882   1.234  0.00  0.00     0.014 A 
ATOM     25  C   UNL d   1      -4.041   0.838   1.271  0.00  0.00     0.024 A 
ATOM     26  C   UNL d   1      -4.764   1.981   1.607  0.00  0.00     0.034 A 
ATOM     27  C   UNL d   1      -4.102   3.169   1.907  0.00  0.00     0.024 A 
ATOM     28 CL   UNL d   1      -6.481   1.915   1.679  0.00  0.00    -0.084 Cl
ATOM     29  C   UNL d   1      -2.706   3.219   1.853  0.00  0.00     0.014 A 
ENDBRANCH  21  23
ENDBRANCH  17  20
ENDBRANCH   1  16
TORSDOF 6
