REMARK  4 active torsions:
REMARK  status: ('A' for Active; 'I' for Inactive)
REMARK    1  A    between atoms: C_12  and  N_3 
REMARK    2  A    between atoms: C_9  and  C_4 
REMARK    3  A    between atoms: O_16  and  C_9 
REMARK    4  A    between atoms: C_19  and  O_16 
ROOT
ATOM      1  C   UNL d   1       0.290   0.639   0.026  0.00  0.00     0.130 A 
ATOM      2  C   UNL d   1       0.314  -0.738  -0.008  0.00  0.00     0.085 A 
ATOM      3  N   UNL d   1       1.602   1.116  -0.010  0.00  0.00    -0.291 N 
ATOM      4  C   UNL d   1       2.457  -0.001  -0.047  0.00  0.00     0.124 A 
ATOM      5  C   UNL d   1       1.665  -1.160  -0.052  0.00  0.00    -0.009 A 
ATOM      6  N   UNL d   1      -0.831   1.415   0.026  0.00  0.00    -0.337 N 
ATOM      7  HN  UNL d   1      -0.797   2.435   0.022  1.00  0.00     0.168 HD
ATOM      8  C   UNL d   1      -0.948  -1.450   0.009  0.00  0.00     0.260 A 
ATOM      9  N   UNL d   1      -2.043  -0.617   0.032  0.00  0.00    -0.319 N 
ATOM     10  C   UNL d   1      -1.943   0.752   0.031  0.00  0.00     0.184 A 
ATOM     11  O   UNL d   1      -1.066  -2.671   0.000  0.00  0.00    -0.267 OA
ATOM     12  C   UNL d   1       2.144  -2.574  -0.038  0.00  0.00     0.052 C 
ATOM     13  H   UNL d   1      -2.944  -1.071   0.038  0.00  0.00     0.169 HD
ENDROOT
BRANCH   3  14
ATOM     14  C   UNL d   1       1.967   2.507  -0.039  0.00  0.00     0.041 A 
ATOM     15  C   UNL d   1       1.177   3.457   0.626  0.00  0.00     0.030 A 
ATOM     16  C   UNL d   1       1.518   4.813   0.609  0.00  0.00     0.002 A 
ATOM     17  C   UNL d   1       2.657   5.235  -0.069  0.00  0.00     0.000 A 
ATOM     18  C   UNL d   1       3.445   4.305  -0.741  0.00  0.00     0.002 A 
ATOM     19  C   UNL d   1       3.098   2.949  -0.738  0.00  0.00     0.030 A 
ENDBRANCH   3  14
BRANCH   4  20
ATOM     20  C   UNL d   1       3.903   0.052   0.035  0.00  0.00     0.311 C 
ATOM     21  O   UNL d   1       4.562   0.870   0.662  0.00  0.00    -0.258 OA
BRANCH  20  22
ATOM     22  O   UNL d   1       4.448  -0.961  -0.698  0.00  0.00    -0.317 OA
BRANCH  22  23
ATOM     23  C   UNL d   1       5.881  -1.017  -0.734  0.00  0.00     0.175 C 
ATOM     24  C   UNL d   1       6.435  -1.627   0.541  0.00  0.00     0.034 C 
ENDBRANCH  22  23
ENDBRANCH  20  22
ENDBRANCH   4  20
TORSDOF 4
