REMARK  3 active torsions:
REMARK  status: ('A' for Active; 'I' for Inactive)
REMARK    1  A    between atoms: C_2  and  C_1 
REMARK       I    between atoms: N_8  and  C_2 
REMARK    2  A    between atoms: C_13  and  C_5 
REMARK    3  A    between atoms: C_10  and  N_8 
ROOT
ATOM      1  C   UNL d   1      -0.257  -1.334  -0.437  0.00  0.00     0.092 A 
ATOM      2  N   UNL d   1      -1.369   0.645  -0.446  0.00  0.00    -0.259 N 
ATOM      3  HN  UNL d   1      -2.107   1.349  -0.481  1.00  0.00     0.195 HD
ATOM      4  C   UNL d   1      -1.530  -0.685  -0.597  0.00  0.00     0.083 A 
ATOM      5  O   UNL d   1      -0.040   0.882  -0.237  0.00  0.00    -0.241 OA
ATOM      6  C   UNL d   1       0.629  -0.289  -0.240  0.00  0.00     0.090 A 
ATOM      7  C   UNL d   1       2.087  -0.204  -0.021  0.00  0.00     0.080 C 
ENDROOT
BRANCH   1   8
ATOM      8  C   UNL d   1       0.199  -2.703  -0.486  0.00  0.00     0.257 C 
ATOM      9  N   UNL d   1      -0.520  -3.625   0.236  0.00  0.00    -0.344 N 
ATOM     10  H   UNL d   1      -1.358  -3.351   0.741  0.00  0.00     0.163 HD
ATOM     11  O   UNL d   1       1.231  -3.020  -1.072  0.00  0.00    -0.267 OA
BRANCH   9  12
ATOM     12  C   UNL d   1      -0.108  -5.024   0.238  0.00  0.00     0.166 C 
ATOM     13  C   UNL d   1      -1.201  -5.969   0.698  0.00  0.00     0.208 C 
ATOM     14  S   UNL d   1      -0.516  -7.390   1.480  0.00  0.00    -0.090 SA
ATOM     15  O   UNL d   1      -2.400  -5.803   0.540  0.00  0.00    -0.283 OA
ATOM     16  C   UNL d   1       1.191  -6.803   1.292  0.00  0.00     0.085 C 
ATOM     17  C   UNL d   1       1.055  -5.293   1.190  0.00  0.00     0.044 C 
ENDBRANCH   9  12
ENDBRANCH   1   8
BRANCH   4  18
ATOM     18  C   UNL d   1      -2.885  -1.188  -0.903  0.00  0.00    -0.006 A 
ATOM     19  C   UNL d   1      -3.979  -0.298  -0.843  0.00  0.00     0.014 A 
ATOM     20  C   UNL d   1      -5.283  -0.714  -1.125  0.00  0.00     0.001 A 
ATOM     21  C   UNL d   1      -5.527  -2.039  -1.461  0.00  0.00     0.000 A 
ATOM     22  C   UNL d   1      -4.463  -2.934  -1.538  0.00  0.00     0.001 A 
ATOM     23  C   UNL d   1      -3.152  -2.508  -1.283  0.00  0.00     0.014 A 
ENDBRANCH   4  18
TORSDOF 3
