REMARK  3 active torsions:
REMARK  status: ('A' for Active; 'I' for Inactive)
REMARK    1  A    between atoms: C_2  and  N_1 
REMARK    2  A    between atoms: O_4  and  C_3 
REMARK    3  A    between atoms: C_6  and  O_4 
ROOT
ATOM      1  C   UNL d   1       0.207   0.070  -1.337  0.00  0.00     0.138 A 
ATOM      2  C   UNL d   1      -0.825   1.014  -1.329  0.00  0.00     0.109 A 
ATOM      3  N   UNL d   1       0.766  -1.314  -5.945  0.00  0.00    -0.191 NA
ATOM      4  C   UNL d   1       0.453  -0.797  -4.954  0.00  0.00     0.099 C 
ATOM      5  C   UNL d   1       0.654  -0.526  -2.525  0.00  0.00     0.061 A 
ATOM      6  C   UNL d   1      -1.368   1.413  -2.558  0.00  0.00     0.041 A 
ATOM      7  C   UNL d   1       0.051  -0.168  -3.732  0.00  0.00     0.047 A 
ATOM      8  C   UNL d   1      -0.955   0.805  -3.747  0.00  0.00     0.025 A 
ENDROOT
BRANCH   1   9
ATOM      9  N   UNL d   1       0.834  -0.341  -0.097  0.00  0.00    -0.113 N 
ATOM     10  O   UNL d   1       0.106  -0.845   0.768  0.00  0.00    -0.532 OA
ATOM     11  O   UNL d   1       2.064  -0.217  -0.027  0.00  0.00    -0.532 OA
ENDBRANCH   1   9
BRANCH   2  12
ATOM     12  O   UNL d   1      -1.242   1.561  -0.136  0.00  0.00    -0.307 OA
BRANCH  12  13
ATOM     13  C   UNL d   1      -2.587   1.827   0.026  0.00  0.00     0.098 A 
ATOM     14  C   UNL d   1      -2.963   3.002   0.691  0.00  0.00     0.069 A 
ATOM     15  C   UNL d   1      -4.313   3.319   0.854  0.00  0.00     0.050 A 
ATOM     16 CL   UNL d   1      -1.782   4.103   1.301  0.00  0.00    -0.081 Cl
ATOM     17  C   UNL d   1      -5.287   2.459   0.352  0.00  0.00     0.035 A 
ATOM     18  C   UNL d   1      -4.927   1.273  -0.284  0.00  0.00     0.026 A 
ATOM     19 CL   UNL d   1      -6.952   2.860   0.517  0.00  0.00    -0.084 Cl
ATOM     20  C   UNL d   1      -3.579   0.942  -0.422  0.00  0.00     0.041 A 
ENDBRANCH  12  13
ENDBRANCH   2  12
TORSDOF 3
