REMARK  0 active torsions:
REMARK  status: ('A' for Active; 'I' for Inactive)
ROOT
ATOM      1  C   UNL d   1      -0.188   0.564  -0.001  0.00  0.00     0.179 A 
ATOM      2  C   UNL d   1      -0.218  -0.810   0.000  0.00  0.00     0.048 A 
ATOM      3  C   UNL d   1       1.057  -1.452   0.001  0.00  0.00    -0.018 A 
ATOM      4  O   UNL d   1       0.836   1.396  -0.001  0.00  0.00    -0.255 OA
ATOM      5  C   UNL d   1       2.077   0.827   0.001  0.00  0.00     0.312 A 
ATOM      6  C   UNL d   1       2.165  -0.675   0.000  0.00  0.00     0.116 A 
ATOM      7  N   UNL d   1      -1.476   0.988  -0.002  0.00  0.00    -0.279 N 
ATOM      8  N   UNL d   1      -2.357  -0.022  -0.001  0.00  0.00    -0.302 N 
ATOM      9  HN  UNL d   1      -3.375   0.039  -0.002  1.00  0.00     0.186 HD
ATOM     10  C   UNL d   1      -1.602  -1.137  -0.000  0.00  0.00     0.037 A 
ATOM     11  O   UNL d   1       3.083   1.533   0.003  0.00  0.00    -0.258 OA
ATOM     12 CL   UNL d   1       3.764  -1.343  -0.002  0.00  0.00    -0.077 Cl
ATOM     13  C   UNL d   1       1.138  -2.946   0.002  0.00  0.00     0.051 C 
ATOM     14  C   UNL d   1      -2.340  -2.426   0.001  0.00  0.00     0.070 C 
ATOM     15  H   UNL d   1      -1.823   1.942  -0.004  0.00  0.00     0.189 HD
ENDROOT
TORSDOF 0
