REMARK  6 active torsions:
REMARK  status: ('A' for Active; 'I' for Inactive)
REMARK    1  A    between atoms: S_17  and  C_3 
REMARK    2  A    between atoms: C_11  and  C_4 
REMARK    3  A    between atoms: C_7  and  C_10 
REMARK    4  A    between atoms: O_13  and  N_8 
REMARK    5  A    between atoms: C_10  and  O_13 
REMARK    6  A    between atoms: O_20  and  C_11 
ROOT
ATOM      1  C   UNL d   1       0.136  -0.853  -0.021  0.00  0.00     0.020 A 
ATOM      2  C   UNL d   1       0.428   0.570  -0.011  0.00  0.00    -0.020 A 
ATOM      3  C   UNL d   1       1.282  -1.605  -0.197  0.00  0.00     0.054 A 
ATOM      4  C   UNL d   1       1.794   0.828  -0.066  0.00  0.00     0.088 A 
ATOM      5  S   UNL d   1       2.684  -0.634  -0.154  0.00  0.00    -0.076 SA
ATOM      6  C   UNL d   1      -1.244  -1.331   0.109  0.00  0.00     0.046 C 
ATOM      7  N   UNL d   1      -1.445  -2.508   0.613  0.00  0.00    -0.261 N 
ATOM      8  HN  UNL d   1      -0.691  -3.151   0.855  1.00  0.00     0.194 HD
ATOM      9  C   UNL d   1      -0.676   1.606   0.014  0.00  0.00     0.050 C 
ATOM     10  C   UNL d   1      -2.068   1.033   0.409  0.00  0.00    -0.038 C 
ATOM     11  C   UNL d   1      -2.320  -0.331  -0.279  0.00  0.00     0.069 C 
ATOM     12  C   UNL d   1      -3.165   2.015  -0.045  0.00  0.00     0.015 C 
ATOM     13  C   UNL d   1      -2.167   0.883   1.941  0.00  0.00     0.015 C 
ENDROOT
BRANCH   7  14
ATOM     14  O   UNL d   1      -2.811  -2.810   0.794  0.00  0.00    -0.195 OA
BRANCH  14  15
ATOM     15  C   UNL d   1      -2.926  -4.053   1.354  0.00  0.00     0.316 C 
ATOM     16  O   UNL d   1      -2.019  -4.820   1.651  0.00  0.00    -0.257 OA
BRANCH  15  17
ATOM     17  C   UNL d   1      -4.331  -4.358   1.724  0.00  0.00     0.063 A 
ATOM     18  C   UNL d   1      -5.453  -4.047   0.947  0.00  0.00     0.050 A 
ATOM     19 CL   UNL d   1      -5.361  -3.275  -0.594  0.00  0.00    -0.083 Cl
ATOM     20  C   UNL d   1      -6.732  -4.418   1.391  0.00  0.00     0.025 A 
ATOM     21  C   UNL d   1      -6.900  -5.106   2.595  0.00  0.00     0.002 A 
ATOM     22  C   UNL d   1      -5.788  -5.434   3.364  0.00  0.00     0.001 A 
ATOM     23  C   UNL d   1      -4.513  -5.064   2.931  0.00  0.00     0.019 A 
ENDBRANCH  15  17
ENDBRANCH  14  15
ENDBRANCH   7  14
BRANCH   3  24
ATOM     24  S   UNL d   1       1.426  -3.324  -0.554  0.00  0.00    -0.126 SA
ATOM     25  C   UNL d   1       1.842  -3.974   1.077  0.00  0.00     0.096 C 
ENDBRANCH   3  24
BRANCH   4  26
ATOM     26  C   UNL d   1       2.477   2.121  -0.081  0.00  0.00     0.300 C 
ATOM     27  O   UNL d   1       1.919   3.213  -0.089  0.00  0.00    -0.259 OA
BRANCH  26  28
ATOM     28  O   UNL d   1       3.835   1.967  -0.092  0.00  0.00    -0.322 OA
ATOM     29  C   UNL d   1       4.589   3.178  -0.146  0.00  0.00     0.213 C 
ENDBRANCH  26  28
ENDBRANCH   4  26
TORSDOF 6
