REMARK  7 active torsions:
REMARK  status: ('A' for Active; 'I' for Inactive)
REMARK    1  A    between atoms: C_3  and  S_1 
REMARK    2  A    between atoms: C_5  and  S_1 
REMARK    3  A    between atoms: C_4  and  C_2 
REMARK    4  A    between atoms: O_14  and  C_4 
REMARK    5  A    between atoms: C_10  and  C_5 
REMARK    6  A    between atoms: O_17  and  C_8 
REMARK    7  A    between atoms: O_18  and  C_9 
ROOT
ATOM      1  S   UNL d   1       0.686  -0.158   0.059  0.00  0.00     0.180 S 
ATOM      2  O   UNL d   1       2.119   0.093   0.108  0.00  0.00    -0.222 OA
ATOM      3  O   UNL d   1      -0.036   0.076  -1.177  0.00  0.00    -0.222 OA
ENDROOT
BRANCH   1   4
ATOM      4  C   UNL d   1      -0.042   0.913   1.300  0.00  0.00     0.075 A 
ATOM      5  C   UNL d   1      -1.428   1.079   1.454  0.00  0.00     0.060 A 
ATOM      6  C   UNL d   1      -1.892   1.929   2.481  0.00  0.00     0.019 A 
ATOM      7  C   UNL d   1      -1.005   2.625   3.304  0.00  0.00     0.001 A 
ATOM      8  C   UNL d   1       0.364   2.489   3.113  0.00  0.00     0.002 A 
ATOM      9  C   UNL d   1       0.845   1.640   2.117  0.00  0.00     0.024 A 
BRANCH   5  10
ATOM     10  C   UNL d   1      -2.448   0.367   0.636  0.00  0.00     0.294 C 
ATOM     11  O   UNL d   1      -2.303  -0.752   0.180  0.00  0.00    -0.259 OA
BRANCH  10  12
ATOM     12  O   UNL d   1      -3.572   1.119   0.542  0.00  0.00    -0.322 OA
ATOM     13  C   UNL d   1      -4.662   0.506  -0.152  0.00  0.00     0.213 C 
ENDBRANCH  10  12
ENDBRANCH   5  10
ENDBRANCH   1   4
BRANCH   1  14
ATOM     14  C   UNL d   1       0.409  -1.802   0.712  0.00  0.00     0.184 C 
BRANCH  14  15
ATOM     15  C   UNL d   1       1.063  -2.853  -0.147  0.00  0.00    -0.041 A 
ATOM     16  C   UNL d   1       2.351  -3.317   0.163  0.00  0.00     0.047 A 
ATOM     17  C   UNL d   1       2.931  -4.390  -0.534  0.00  0.00     0.102 A 
ATOM     18  C   UNL d   1       2.193  -5.031  -1.541  0.00  0.00     0.101 A 
ATOM     19  C   UNL d   1       0.933  -4.524  -1.889  0.00  0.00     0.040 A 
ATOM     20  C   UNL d   1       0.371  -3.443  -1.206  0.00  0.00     0.011 A 
BRANCH  17  21
ATOM     21  O   UNL d   1       4.173  -4.864  -0.203  0.00  0.00    -0.353 OA
ATOM     22  C   UNL d   1       5.124  -3.881   0.196  0.00  0.00     0.210 C 
ENDBRANCH  17  21
BRANCH  18  23
ATOM     23  O   UNL d   1       2.546  -6.125  -2.288  0.00  0.00    -0.353 OA
ATOM     24  C   UNL d   1       3.635  -6.920  -1.841  0.00  0.00     0.210 C 
ENDBRANCH  18  23
ENDBRANCH  14  15
ENDBRANCH   1  14
TORSDOF 7
