REMARK  4 active torsions:
REMARK  status: ('A' for Active; 'I' for Inactive)
REMARK    1  A    between atoms: C_8  and  C_1 
REMARK    2  A    between atoms: C_13  and  C_7 
REMARK    3  A    between atoms: C_10  and  O_14 
REMARK    4  A    between atoms: O_14  and  C_22 
ROOT
ATOM      1  C   UNL d   1      -0.227  -1.062  -0.104  0.00  0.00     0.176 A 
ATOM      2  O   UNL d   1      -1.074   0.007  -0.007  0.00  0.00    -0.273 OA
ATOM      3  N   UNL d   1       1.041  -0.700  -0.107  0.00  0.00    -0.277 N 
ATOM      4  HN  UNL d   1       1.851  -1.318  -0.141  1.00  0.00     0.189 HD
ATOM      5  N   UNL d   1       1.057   0.675  -0.056  0.00  0.00    -0.277 N 
ATOM      6  HN  UNL d   1       1.882   1.276  -0.055  1.00  0.00     0.189 HD
ATOM      7  C   UNL d   1      -0.202   1.064  -0.008  0.00  0.00     0.174 A 
ENDROOT
BRANCH   7   8
ATOM      8  C   UNL d   1      -0.766   2.405   0.079  0.00  0.00     0.017 A 
ATOM      9  C   UNL d   1      -2.151   2.636   0.124  0.00  0.00     0.018 A 
ATOM     10  C   UNL d   1      -2.663   3.933   0.258  0.00  0.00     0.038 A 
ATOM     11  C   UNL d   1      -1.798   5.017   0.381  0.00  0.00     0.078 A 
ATOM     12  C   UNL d   1      -0.423   4.804   0.273  0.00  0.00     0.038 A 
ATOM     13  C   UNL d   1       0.090   3.512   0.127  0.00  0.00     0.018 A 
BRANCH  11  14
ATOM     14  O   UNL d   1      -2.164   6.316   0.548  0.00  0.00    -0.255 OA
BRANCH  14  15
ATOM     15  C   UNL d   1      -3.328   6.620   1.304  0.00  0.00     0.530 C 
ATOM     16  F   UNL d   1      -3.881   5.558   1.927  0.00  0.00    -0.144 F 
ATOM     17  F   UNL d   1      -2.999   7.527   2.252  0.00  0.00    -0.144 F 
ATOM     18  F   UNL d   1      -4.252   7.177   0.492  0.00  0.00    -0.144 F 
ENDBRANCH  14  15
ENDBRANCH  11  14
ENDBRANCH   7   8
BRANCH   1  19
ATOM     19  C   UNL d   1      -0.797  -2.405  -0.134  0.00  0.00     0.038 A 
ATOM     20  C   UNL d   1      -2.073  -2.724  -0.633  0.00  0.00     0.050 A 
ATOM     21  C   UNL d   1      -2.509  -4.056  -0.678  0.00  0.00     0.048 A 
ATOM     22 CL   UNL d   1      -3.172  -1.547  -1.271  0.00  0.00    -0.083 Cl
ATOM     23  C   UNL d   1      -1.681  -5.080  -0.228  0.00  0.00     0.035 A 
ATOM     24  C   UNL d   1      -0.422  -4.789   0.283  0.00  0.00     0.025 A 
ATOM     25 CL   UNL d   1      -2.211  -6.713  -0.322  0.00  0.00    -0.084 Cl
ATOM     26  C   UNL d   1       0.015  -3.462   0.328  0.00  0.00     0.019 A 
ENDBRANCH   1  19
TORSDOF 4
