REMARK  2 active torsions:
REMARK  status: ('A' for Active; 'I' for Inactive)
REMARK    1  A    between atoms: C_7  and  C_8 
REMARK    2  A    between atoms: O_13  and  C_7 
ROOT
ATOM      1  N   UNL d   1      -1.906  -0.844  -0.035  0.00  0.00    -0.020 NA
ATOM      2  N   UNL d   1      -0.847  -1.643  -0.043  0.00  0.00    -0.282 N 
ATOM      3  HN  UNL d   1      -0.867  -2.663  -0.051  1.00  0.00     0.184 HD
ATOM      4  C   UNL d   1       0.276  -0.862  -0.037  0.00  0.00     0.075 A 
ATOM      5  N   UNL d   1      -1.456   0.423  -0.023  0.00  0.00    -0.278 N 
ATOM      6  C   UNL d   1      -0.087   0.479  -0.018  0.00  0.00     0.076 A 
ATOM      7  C   UNL d   1       2.591  -0.188  -0.037  0.00  0.00     0.040 A 
ATOM      8  C   UNL d   1       1.632  -1.215  -0.047  0.00  0.00     0.051 A 
ATOM      9  C   UNL d   1       0.842   1.524   0.007  0.00  0.00     0.034 A 
ATOM     10  C   UNL d   1       2.197   1.160   0.009  0.00  0.00     0.021 A 
ATOM     11  C   UNL d   1      -2.387   1.520  -0.041  0.00  0.00     0.175 C 
ENDROOT
BRANCH   7  12
ATOM     12  C   UNL d   1       4.021  -0.593  -0.024  0.00  0.00     0.176 C 
ATOM     13  O   UNL d   1       4.404  -1.645   0.457  0.00  0.00    -0.646 OA
BRANCH  12  14
ATOM     14  O   UNL d   1       4.851   0.286  -0.623  0.00  0.00    -0.773 OA
ATOM     15  H   UNL d   1       4.419   0.990  -1.138  0.00  0.00     0.167 HD
ENDBRANCH  12  14
ENDBRANCH   7  12
TORSDOF 2
