REMARK  2 active torsions:
REMARK  status: ('A' for Active; 'I' for Inactive)
REMARK    1  A    between atoms: C_5  and  C_1 
REMARK    2  A    between atoms: C_8  and  C_7 
ROOT
ATOM      1  C   UNL d   1      -0.053  -1.059   0.353  0.00  0.00     0.134 A 
ATOM      2  C   UNL d   1      -0.937  -0.034   0.608  0.00  0.00     0.067 A 
ATOM      3  N   UNL d   1       0.799   0.813  -0.581  0.00  0.00    -0.300 N 
ATOM      4  HN  UNL d   1       1.418   1.436  -1.100  1.00  0.00     0.187 HD
ATOM      5  N   UNL d   1       0.967  -0.497  -0.350  0.00  0.00    -0.296 N 
ATOM      6  C   UNL d   1      -0.361   1.125   0.019  0.00  0.00     0.060 A 
ATOM      7  H   UNL d   1       1.808  -0.943  -0.705  0.00  0.00     0.187 HD
ENDROOT
BRANCH   6   8
ATOM      8  C   UNL d   1      -0.884   2.492   0.021  0.00  0.00    -0.008 A 
ATOM      9  C   UNL d   1      -1.728   2.938   1.050  0.00  0.00     0.015 A 
ATOM     10  C   UNL d   1      -2.213   4.250   1.054  0.00  0.00     0.024 A 
ATOM     11  C   UNL d   1      -1.861   5.123   0.027  0.00  0.00     0.034 A 
ATOM     12  C   UNL d   1      -1.029   4.697  -1.004  0.00  0.00     0.024 A 
ATOM     13 CL   UNL d   1      -2.454   6.738   0.038  0.00  0.00    -0.084 Cl
ATOM     14  C   UNL d   1      -0.539   3.386  -1.004  0.00  0.00     0.015 A 
ENDBRANCH   6   8
BRANCH   1  15
ATOM     15  C   UNL d   1      -0.042  -2.489   0.682  0.00  0.00     0.434 C 
ATOM     16  F   UNL d   1      -1.149  -2.872   1.361  0.00  0.00    -0.165 F 
ATOM     17  F   UNL d   1       0.031  -3.254  -0.434  0.00  0.00    -0.165 F 
ATOM     18  F   UNL d   1       1.030  -2.811   1.447  0.00  0.00    -0.165 F 
ENDBRANCH   1  15
TORSDOF 2
