REMARK  7 active torsions:
REMARK  status: ('A' for Active; 'I' for Inactive)
REMARK    1  A    between atoms: C_8  and  C_1 
REMARK    2  A    between atoms: S_9  and  C_2 
REMARK    3  A    between atoms: C_7  and  C_10 
REMARK    4  A    between atoms: O_25  and  C_8 
REMARK    5  A    between atoms: C_21  and  S_9 
REMARK    6  A    between atoms: C_11  and  C_21 
REMARK       I    between atoms: N_12  and  C_11 
REMARK    7  A    between atoms: C_14  and  N_12 
ROOT
ATOM      1  S   UNL d   1      -0.132  -2.987  -0.856  0.00  0.00    -0.114 SA
ENDROOT
BRANCH   1   2
ATOM      2  C   UNL d   1      -0.440  -1.232  -0.683  0.00  0.00     0.084 A 
ATOM      3  C   UNL d   1      -0.719  -0.639   0.550  0.00  0.00     0.175 A 
ATOM      4  C   UNL d   1      -0.874   0.744   0.671  0.00  0.00     0.176 A 
ATOM      5  F   UNL d   1      -0.817  -1.390   1.657  0.00  0.00    -0.201 F 
ATOM      6  C   UNL d   1      -0.750   1.583  -0.433  0.00  0.00     0.121 A 
ATOM      7  F   UNL d   1      -1.131   1.254   1.886  0.00  0.00    -0.202 F 
ATOM      8  C   UNL d   1      -0.487   0.996  -1.672  0.00  0.00     0.176 A 
ATOM      9  C   UNL d   1      -0.332  -0.388  -1.792  0.00  0.00     0.175 A 
ATOM     10  F   UNL d   1      -0.365   1.738  -2.782  0.00  0.00    -0.202 F 
ATOM     11  F   UNL d   1      -0.069  -0.901  -3.004  0.00  0.00    -0.201 F 
BRANCH   6  12
ATOM     12  C   UNL d   1      -0.867   3.058  -0.327  0.00  0.00     0.182 C 
ATOM     13  O   UNL d   1      -0.770   3.798  -1.288  0.00  0.00    -0.646 OA
BRANCH  12  14
ATOM     14  O   UNL d   1      -1.077   3.545   0.915  0.00  0.00    -0.772 OA
ATOM     15  H   UNL d   1      -1.151   2.909   1.654  0.00  0.00     0.167 HD
ENDBRANCH  12  14
ENDBRANCH   6  12
ENDBRANCH   1   2
BRANCH   1  16
ATOM     16  C   UNL d   1      -1.661  -3.668  -0.135  0.00  0.00     0.182 C 
BRANCH  16  17
ATOM     17  C   UNL d   1      -1.748  -5.179  -0.298  0.00  0.00     0.231 C 
ATOM     18  N   UNL d   1      -0.612  -5.863   0.106  0.00  0.00    -0.327 N 
ATOM     19  H   UNL d   1       0.182  -5.291   0.373  0.00  0.00     0.169 HD
ATOM     20  O   UNL d   1      -2.808  -5.690  -0.654  0.00  0.00    -0.272 OA
BRANCH  18  21
ATOM     21  C   UNL d   1      -0.445  -7.260   0.211  0.00  0.00     0.035 A 
ATOM     22  C   UNL d   1      -1.403  -8.189  -0.203  0.00  0.00     0.045 A 
ATOM     23  C   UNL d   1      -1.201  -9.570  -0.024  0.00  0.00     0.050 A 
ATOM     24  C   UNL d   1      -0.017 -10.012   0.581  0.00  0.00     0.016 A 
ATOM     25  C   UNL d   1       0.954  -9.095   0.977  0.00  0.00     0.003 A 
ATOM     26  C   UNL d   1       0.744  -7.727   0.784  0.00  0.00     0.029 A 
BRANCH  23  27
ATOM     27  C   UNL d   1      -2.253 -10.565  -0.451  0.00  0.00     0.417 C 
ATOM     28  F   UNL d   1      -3.269 -10.021  -1.173  0.00  0.00    -0.166 F 
ATOM     29  F   UNL d   1      -1.741 -11.563  -1.224  0.00  0.00    -0.166 F 
ATOM     30  F   UNL d   1      -2.838 -11.184   0.613  0.00  0.00    -0.166 F 
ENDBRANCH  23  27
ENDBRANCH  18  21
ENDBRANCH  16  17
ENDBRANCH   1  16
TORSDOF 7
