REMARK  5 active torsions:
REMARK  status: ('A' for Active; 'I' for Inactive)
REMARK    1  A    between atoms: N_8  and  C_2 
REMARK    2  A    between atoms: S_13  and  C_3 
REMARK    3  A    between atoms: C_10  and  C_12 
REMARK    4  A    between atoms: N_16  and  C_11 
REMARK    5  A    between atoms: C_12  and  S_13 
ROOT
ATOM      1  S   UNL d   1       1.178   0.020  -0.166  0.00  0.00    -0.026 SA
ATOM      2  C   UNL d   1      -0.056   1.223   0.052  0.00  0.00     0.166 A 
ATOM      3  C   UNL d   1      -0.051  -1.170  -0.136  0.00  0.00     0.130 A 
ATOM      4  N   UNL d   1      -1.257   0.689   0.177  0.00  0.00    -0.278 N 
ATOM      5  HN  UNL d   1      -2.100   1.238   0.346  1.00  0.00     0.189 HD
ATOM      6  N   UNL d   1      -1.257  -0.685   0.058  0.00  0.00    -0.286 N 
ATOM      7  HN  UNL d   1      -2.098  -1.260   0.114  1.00  0.00     0.188 HD
ENDROOT
BRANCH   3   8
ATOM      8  S   UNL d   1       0.153  -2.885  -0.441  0.00  0.00    -0.099 SA
BRANCH   8   9
ATOM      9  C   UNL d   1       1.757  -3.273   0.313  0.00  0.00     0.123 C 
BRANCH   9  10
ATOM     10  C   UNL d   1       2.023  -4.766   0.308  0.00  0.00    -0.005 A 
ATOM     11  C   UNL d   1       2.667  -5.397  -0.778  0.00  0.00     0.042 A 
ATOM     12 CL   UNL d   1       3.204  -4.514  -2.166  0.00  0.00    -0.084 Cl
ATOM     13  C   UNL d   1       2.899  -6.779  -0.784  0.00  0.00     0.024 A 
ATOM     14  C   UNL d   1       2.488  -7.567   0.285  0.00  0.00     0.003 A 
ATOM     15  C   UNL d   1       1.837  -6.972   1.361  0.00  0.00     0.024 A 
ATOM     16  C   UNL d   1       1.603  -5.589   1.372  0.00  0.00     0.042 A 
ATOM     17 CL   UNL d   1       0.773  -4.956   2.752  0.00  0.00    -0.084 Cl
ENDBRANCH   9  10
ENDBRANCH   8   9
ENDBRANCH   3   8
BRANCH   2  18
ATOM     18  N   UNL d   1       0.308   2.537   0.066  0.00  0.00    -0.332 N 
ATOM     19  C   UNL d   1      -0.670   3.383   0.087  0.00  0.00     0.179 C 
ATOM     20  HN  UNL d   1       1.285   2.832   0.061  1.00  0.00     0.168 HD
BRANCH  19  21
ATOM     21  N   UNL d   1      -0.568   4.758   0.089  0.00  0.00    -0.386 N 
ATOM     22  C   UNL d   1       0.715   5.440   0.044  0.00  0.00     0.149 C 
ATOM     23  C   UNL d   1      -1.740   5.618   0.123  0.00  0.00     0.149 C 
ENDBRANCH  19  21
ENDBRANCH   2  18
TORSDOF 5
