REMARK  4 active torsions:
REMARK  status: ('A' for Active; 'I' for Inactive)
REMARK    1  A    between atoms: N_4  and  C_3 
REMARK       I    between atoms: C_5  and  N_4 
REMARK    2  A    between atoms: C_13  and  C_5 
REMARK    3  A    between atoms: S_9  and  C_13 
REMARK    4  A    between atoms: C_15  and  S_9 
ROOT
ATOM      1  N   UNL d   1      -3.837  -0.076   0.246  0.00  0.00    -0.324 N 
ATOM      2  C   UNL d   1      -3.788  -1.357  -0.280  0.00  0.00     0.231 C 
ATOM      3  O   UNL d   1      -2.765  -1.957  -0.595  0.00  0.00    -0.272 OA
ATOM      4  H   UNL d   1      -4.731   0.183   0.652  0.00  0.00     0.169 HD
ENDROOT
BRANCH   1   5
ATOM      5  C   UNL d   1      -2.786   0.857   0.366  0.00  0.00     0.077 A 
ATOM      6  C   UNL d   1      -1.581   0.820  -0.351  0.00  0.00     0.184 A 
ATOM      7  C   UNL d   1      -0.596   1.778  -0.128  0.00  0.00     0.195 A 
ATOM      8  F   UNL d   1      -1.374  -0.070  -1.331  0.00  0.00    -0.200 F 
ATOM      9  C   UNL d   1      -0.804   2.792   0.795  0.00  0.00     0.158 A 
ATOM     10  F   UNL d   1       0.551   1.736  -0.824  0.00  0.00    -0.199 F 
ATOM     11  F   UNL d   1       0.144   3.711   1.016  0.00  0.00    -0.203 F 
ATOM     12  C   UNL d   1      -2.006   2.877   1.487  0.00  0.00     0.048 A 
ATOM     13  C   UNL d   1      -2.998   1.918   1.265  0.00  0.00     0.036 A 
ENDBRANCH   1   5
BRANCH   2  14
ATOM     14  C   UNL d   1      -5.132  -2.090  -0.297  0.00  0.00     0.182 C 
BRANCH  14  15
ATOM     15  S   UNL d   1      -6.542  -0.935  -0.440  0.00  0.00    -0.121 SA
BRANCH  15  16
ATOM     16  C   UNL d   1      -7.984  -1.987  -0.420  0.00  0.00     0.001 A 
ATOM     17  C   UNL d   1      -7.981  -3.381  -0.314  0.00  0.00     0.018 A 
ATOM     18  C   UNL d   1      -9.187  -4.093  -0.305  0.00  0.00     0.001 A 
ATOM     19  C   UNL d   1     -10.405  -3.423  -0.403  0.00  0.00     0.000 A 
ATOM     20  C   UNL d   1     -10.421  -2.037  -0.510  0.00  0.00     0.001 A 
ATOM     21  C   UNL d   1      -9.219  -1.327  -0.519  0.00  0.00     0.018 A 
ENDBRANCH  15  16
ENDBRANCH  14  15
ENDBRANCH   2  14
TORSDOF 4
