REMARK  5 active torsions:
REMARK  status: ('A' for Active; 'I' for Inactive)
REMARK    1  A    between atoms: N_7  and  S_1 
REMARK    2  A    between atoms: C_10  and  S_1 
REMARK    3  A    between atoms: C_11  and  N_2 
REMARK    4  A    between atoms: N_4  and  N_7 
REMARK    5  A    between atoms: C_12  and  C_6 
ROOT
ATOM      1  N   UNL d   1      -0.466   1.115   4.140  0.00  0.00    -0.290 N 
ATOM      2  C   UNL d   1       0.249   0.003   3.643  0.00  0.00     0.171 A 
ATOM      3  N   UNL d   1       0.720  -0.409   2.517  0.00  0.00    -0.270 N 
ATOM      4  HN  UNL d   1       1.125  -1.342   2.445  1.00  0.00     0.190 HD
ATOM      5  C   UNL d   1      -0.620   1.058   5.549  0.00  0.00     0.058 A 
ATOM      6  S   UNL d   1       0.631  -1.106   5.020  0.00  0.00    -0.062 SA
ATOM      7  C   UNL d   1      -0.097  -0.020   6.154  0.00  0.00     0.084 A 
ENDROOT
BRANCH   1   8
ATOM      8  C   UNL d   1      -1.155   2.056   3.309  0.00  0.00     0.042 A 
ATOM      9  C   UNL d   1      -1.826   1.653   2.140  0.00  0.00     0.032 A 
ATOM     10  C   UNL d   1      -2.462   2.578   1.299  0.00  0.00     0.026 A 
ATOM     11  C   UNL d   1      -2.519   3.918   1.661  0.00  0.00     0.034 A 
ATOM     12  C   UNL d   1      -1.909   4.344   2.832  0.00  0.00     0.026 A 
ATOM     13 CL   UNL d   1      -3.338   5.051   0.661  0.00  0.00    -0.084 Cl
ATOM     14  C   UNL d   1      -1.205   3.427   3.621  0.00  0.00     0.032 A 
ENDBRANCH   1   8
BRANCH   3  15
ATOM     15  N   UNL d   1       0.674   0.438   1.374  0.00  0.00    -0.221 N 
ATOM     16  H   UNL d   1       0.678   1.458   1.417  0.00  0.00     0.200 HD
BRANCH  15  17
ATOM     17  S   UNL d   1       0.524  -0.233  -0.174  0.00  0.00     0.276 S 
ATOM     18  O   UNL d   1       0.526   0.879  -1.105  0.00  0.00    -0.199 OA
ATOM     19  O   UNL d   1      -0.551  -1.200  -0.163  0.00  0.00    -0.199 OA
BRANCH  17  20
ATOM     20  C   UNL d   1       2.066  -1.085  -0.328  0.00  0.00     0.081 A 
ATOM     21  C   UNL d   1       2.158  -2.424   0.071  0.00  0.00     0.027 A 
ATOM     22  C   UNL d   1       3.393  -3.070   0.012  0.00  0.00     0.025 A 
ATOM     23  C   UNL d   1       4.513  -2.380  -0.452  0.00  0.00     0.034 A 
ATOM     24  C   UNL d   1       4.410  -1.056  -0.884  0.00  0.00     0.025 A 
ATOM     25 CL   UNL d   1       6.044  -3.165  -0.484  0.00  0.00    -0.084 Cl
ATOM     26  C   UNL d   1       3.179  -0.405  -0.830  0.00  0.00     0.027 A 
ENDBRANCH  17  20
ENDBRANCH  15  17
ENDBRANCH   3  15
BRANCH   5  27
ATOM     27  C   UNL d   1      -1.364   2.035   6.349  0.00  0.00    -0.008 A 
ATOM     28  C   UNL d   1      -0.691   3.087   6.988  0.00  0.00     0.015 A 
ATOM     29  C   UNL d   1      -1.413   4.073   7.665  0.00  0.00     0.024 A 
ATOM     30  C   UNL d   1      -2.802   3.983   7.739  0.00  0.00     0.034 A 
ATOM     31  C   UNL d   1      -3.474   2.909   7.160  0.00  0.00     0.024 A 
ATOM     32 CL   UNL d   1      -3.693   5.218   8.539  0.00  0.00    -0.084 Cl
ATOM     33  C   UNL d   1      -2.756   1.934   6.465  0.00  0.00     0.015 A 
ENDBRANCH   5  27
TORSDOF 5
