REMARK  6 active torsions:
REMARK  status: ('A' for Active; 'I' for Inactive)
REMARK    1  A    between atoms: C_6  and  N_1 
REMARK    2  A    between atoms: C_8  and  C_2 
REMARK    3  A    between atoms: C_9  and  C_2 
REMARK    4  A    between atoms: C_11  and  C_8 
REMARK    5  A    between atoms: O_23  and  C_9 
REMARK    6  A    between atoms: O_25  and  C_11 
ROOT
ATOM      1  N   UNL d   1      -2.432   0.833  -0.307  0.00  0.00    -0.268 N 
ATOM      2  C   UNL d   1      -2.378  -0.495   0.341  0.00  0.00     0.247 C 
ATOM      3  C   UNL d   1      -1.262   1.591  -0.385  0.00  0.00     0.264 C 
ATOM      4  C   UNL d   1      -0.005   0.833  -0.219  0.00  0.00     0.067 A 
ATOM      5  O   UNL d   1      -1.253  -1.239  -0.190  0.00  0.00    -0.308 OA
ATOM      6  C   UNL d   1      -0.072  -0.558  -0.198  0.00  0.00     0.088 A 
ATOM      7  O   UNL d   1      -1.219   2.782  -0.674  0.00  0.00    -0.267 OA
ATOM      8  C   UNL d   1       1.233   1.479  -0.214  0.00  0.00     0.039 A 
ATOM      9  C   UNL d   1       1.094  -1.320  -0.212  0.00  0.00     0.039 A 
ATOM     10  C   UNL d   1       2.398   0.712  -0.193  0.00  0.00     0.012 A 
ATOM     11  C   UNL d   1       2.335  -0.683  -0.203  0.00  0.00     0.022 A 
ATOM     12 BR   UNL d   1       4.084   1.566  -0.171  0.00  0.00    -0.051 Br
ENDROOT
BRANCH   2  13
ATOM     13  C   UNL d   1      -2.201  -0.377   1.869  0.00  0.00     0.184 C 
BRANCH  13  14
ATOM     14  C   UNL d   1      -3.382   0.259   2.544  0.00  0.00     0.263 C 
ATOM     15  O   UNL d   1      -4.316  -0.382   3.010  0.00  0.00    -0.265 OA
BRANCH  14  16
ATOM     16  O   UNL d   1      -3.230   1.606   2.608  0.00  0.00    -0.326 OA
ATOM     17  C   UNL d   1      -4.251   2.323   3.311  0.00  0.00     0.213 C 
ENDBRANCH  14  16
ENDBRANCH  13  14
ENDBRANCH   2  13
BRANCH   2  18
ATOM     18  C   UNL d   1      -3.631  -1.423   0.134  0.00  0.00     0.316 C 
ATOM     19  O   UNL d   1      -4.779  -1.039  -0.057  0.00  0.00    -0.260 OA
BRANCH  18  20
ATOM     20  O   UNL d   1      -3.279  -2.742   0.248  0.00  0.00    -0.323 OA
ATOM     21  C   UNL d   1      -4.336  -3.673   0.015  0.00  0.00     0.213 C 
ENDBRANCH  18  20
ENDBRANCH   2  18
BRANCH   1  22
ATOM     22  C   UNL d   1      -3.378   1.086  -1.338  0.00  0.00     0.080 A 
ATOM     23  C   UNL d   1      -3.362   0.346  -2.530  0.00  0.00     0.146 A 
ATOM     24  C   UNL d   1      -4.264   0.609  -3.552  0.00  0.00     0.086 A 
ATOM     25  F   UNL d   1      -2.454  -0.626  -2.705  0.00  0.00    -0.204 F 
ATOM     26  C   UNL d   1      -5.197   1.620  -3.371  0.00  0.00     0.119 A 
ATOM     27  C   UNL d   1      -5.230   2.373  -2.198  0.00  0.00     0.044 A 
ATOM     28  F   UNL d   1      -6.079   1.881  -4.346  0.00  0.00    -0.206 F 
ATOM     29  C   UNL d   1      -4.309   2.116  -1.180  0.00  0.00     0.036 A 
ENDBRANCH   1  22
TORSDOF 6
