REMARK  9 active torsions:
REMARK  status: ('A' for Active; 'I' for Inactive)
REMARK    1  A    between atoms: C_10  and  C_1 
REMARK    2  A    between atoms: C_2  and  C_11 
REMARK       I    between atoms: N_4  and  C_2 
REMARK    3  A    between atoms: C_3  and  C_5 
REMARK       I    between atoms: N_13  and  C_3 
REMARK    4  A    between atoms: C_5  and  N_4 
REMARK    5  A    between atoms: C_26  and  C_5 
REMARK    6  A    between atoms: C_6  and  C_12 
REMARK    7  A    between atoms: N_7  and  N_13 
REMARK    8  A    between atoms: C_28  and  C_26 
REMARK    9  A    between atoms: S_27  and  C_28 
ROOT
ATOM      1  C   UNL d   1      -1.513   0.947  -5.806  0.00  0.00     0.179 C 
ENDROOT
BRANCH   1   2
ATOM      2  C   UNL d   1      -0.135   1.637  -5.832  0.00  0.00     0.258 C 
ATOM      3  N   UNL d   1       0.877   0.909  -5.223  0.00  0.00    -0.269 N 
ATOM      4  H   UNL d   1       0.656   0.043  -4.735  0.00  0.00     0.190 HD
ATOM      5  O   UNL d   1       0.004   2.792  -6.244  0.00  0.00    -0.269 OA
BRANCH   3   6
ATOM      6  N   UNL d   1       2.137   1.426  -5.210  0.00  0.00    -0.308 N 
ATOM      7  C   UNL d   1       3.058   0.750  -4.612  0.00  0.00     0.126 C 
ATOM      8  HN  UNL d   1       2.346   2.318  -5.658  1.00  0.00     0.186 HD
BRANCH   7   9
ATOM      9  C   UNL d   1       4.407   1.264  -4.596  0.00  0.00     0.021 A 
ATOM     10  S   UNL d   1       5.662   0.361  -3.869  0.00  0.00    -0.101 SA
ATOM     11  C   UNL d   1       6.831   1.552  -4.266  0.00  0.00     0.050 A 
ATOM     12  C   UNL d   1       6.274   2.619  -4.934  0.00  0.00     0.008 A 
ATOM     13  C   UNL d   1       4.873   2.452  -5.123  0.00  0.00     0.021 A 
ENDBRANCH   7   9
ENDBRANCH   3   6
ENDBRANCH   1   2
BRANCH   1  14
ATOM     14  N   UNL d   1      -1.464  -0.503  -6.024  0.00  0.00    -0.344 N 
ATOM     15  C   UNL d   1      -1.404  -1.421  -5.006  0.00  0.00     0.252 C 
ATOM     16  O   UNL d   1      -1.194  -1.075  -3.847  0.00  0.00    -0.268 OA
ATOM     17  H   UNL d   1      -1.503  -0.792  -6.994  0.00  0.00     0.163 HD
BRANCH  15  18
ATOM     18  C   UNL d   1      -1.574  -2.870  -5.348  0.00  0.00     0.032 A 
ATOM     19  C   UNL d   1      -1.645  -3.355  -6.659  0.00  0.00     0.018 A 
ATOM     20  C   UNL d   1      -1.833  -4.722  -6.901  0.00  0.00     0.017 A 
ATOM     21  C   UNL d   1      -1.956  -5.631  -5.840  0.00  0.00     0.048 A 
ATOM     22  C   UNL d   1      -1.873  -5.147  -4.529  0.00  0.00     0.017 A 
ATOM     23  C   UNL d   1      -1.684  -3.781  -4.286  0.00  0.00     0.018 A 
BRANCH  21  24
ATOM     24  C   UNL d   1      -2.189  -7.096  -6.126  0.00  0.00     0.417 C 
ATOM     25  F   UNL d   1      -2.255  -7.868  -5.006  0.00  0.00    -0.166 F 
ATOM     26  F   UNL d   1      -1.208  -7.639  -6.898  0.00  0.00    -0.166 F 
ATOM     27  F   UNL d   1      -3.355  -7.312  -6.797  0.00  0.00    -0.166 F 
ENDBRANCH  21  24
ENDBRANCH  15  18
ENDBRANCH   1  14
BRANCH   1  28
ATOM     28  C   UNL d   1      -2.501   1.615  -6.789  0.00  0.00     0.045 C 
BRANCH  28  29
ATOM     29  C   UNL d   1      -2.067   1.709  -8.261  0.00  0.00     0.076 C 
BRANCH  29  30
ATOM     30  S   UNL d   1      -1.734   0.089  -9.037  0.00  0.00    -0.173 SA
ATOM     31  C   UNL d   1      -1.195   0.661 -10.669  0.00  0.00     0.089 C 
ENDBRANCH  29  30
ENDBRANCH  28  29
ENDBRANCH   1  28
TORSDOF 9
