REMARK  3 active torsions:
REMARK  status: ('A' for Active; 'I' for Inactive)
REMARK    1  A    between atoms: C_9  and  N_1 
REMARK    2  A    between atoms: C_10  and  N_3 
REMARK       I    between atoms: C_5  and  N_6 
REMARK    3  A    between atoms: N_6  and  C_11 
ROOT
ATOM      1  C   UNL d   1      -0.939  -1.102  -0.096  0.00  0.00     0.048 A 
ATOM      2  C   UNL d   1      -3.770  -1.183  -0.274  0.00  0.00     0.034 A 
ATOM      3  C   UNL d   1      -1.629  -0.252  -0.969  0.00  0.00     0.033 A 
ATOM      4  C   UNL d   1      -1.686  -2.001   0.670  0.00  0.00     0.033 A 
ATOM      5  C   UNL d   1      -3.084  -2.040   0.584  0.00  0.00     0.032 A 
ATOM      6  C   UNL d   1      -3.029  -0.288  -1.056  0.00  0.00     0.032 A 
ENDROOT
BRANCH   1   7
ATOM      7  N   UNL d   1       0.467  -1.155   0.006  0.00  0.00    -0.300 N 
ATOM      8  N   UNL d   1       1.002  -0.038  -0.145  0.00  0.00    -0.300 N 
ATOM      9  HN  UNL d   1       0.478   0.824  -0.294  1.00  0.00     0.187 HD
ATOM     10  HN  UNL d   1       0.989  -2.013   0.185  1.00  0.00     0.187 HD
BRANCH   8  11
ATOM     11  C   UNL d   1       2.413  -0.096  -0.089  0.00  0.00     0.049 A 
ATOM     12  C   UNL d   1       3.166  -1.232  -0.425  0.00  0.00     0.054 A 
ATOM     13  C   UNL d   1       4.560  -1.190  -0.391  0.00  0.00     0.036 A 
ATOM     14 CL   UNL d   1       5.467  -2.592  -0.809  0.00  0.00    -0.084 Cl
ATOM     15  C   UNL d   1       5.227  -0.021  -0.030  0.00  0.00     0.024 A 
ATOM     16  C   UNL d   1       4.494   1.115   0.302  0.00  0.00     0.004 A 
ATOM     17  C   UNL d   1       3.097   1.074   0.270  0.00  0.00     0.031 A 
ENDBRANCH   8  11
ENDBRANCH   1   7
BRANCH   2  18
ATOM     18  N   UNL d   1      -5.175  -1.165  -0.409  0.00  0.00    -0.328 N 
ATOM     19  C   UNL d   1      -6.087  -1.951   0.273  0.00  0.00     0.218 C 
ATOM     20  O   UNL d   1      -5.834  -2.813   1.110  0.00  0.00    -0.274 OA
ATOM     21  C   UNL d   1      -7.523  -1.667  -0.093  0.00  0.00     0.117 C 
ATOM     22  H   UNL d   1      -5.548  -0.496  -1.071  0.00  0.00     0.169 HD
ENDBRANCH   2  18
TORSDOF 3
