REMARK  19 active torsions:
REMARK  status: ('A' for Active; 'I' for Inactive)
REMARK    1  A    between atoms: C_3  and  C_1 
REMARK    2  A    between atoms: C_1  and  O_5 
REMARK    3  A    between atoms: C_2  and  C_1 
REMARK    4  A    between atoms: C_8  and  C_2 
REMARK    5  A    between atoms: C_2  and  O_6 
REMARK    6  A    between atoms: C_4  and  C_3 
REMARK    7  A    between atoms: C_3  and  O_7 
REMARK    8  A    between atoms: C_4  and  O_9 
REMARK    9  A    between atoms: C_15  and  C_4 
REMARK   10  A    between atoms: C_10  and  O_5 
REMARK   11  A    between atoms: C_11  and  O_6 
REMARK   12  A    between atoms: C_12  and  O_7 
REMARK   13  A    between atoms: S_22  and  C_8 
REMARK   14  A    between atoms: O_23  and  C_8 
REMARK   15  A    between atoms: C_13  and  O_9 
REMARK   16  A    between atoms: C_14  and  O_16 
REMARK   17  A    between atoms: O_16  and  C_15 
REMARK   18  A    between atoms: C_29  and  S_22 
REMARK   19  A    between atoms: C_30  and  O_23 
ROOT
ATOM      1  C   UNL d   1      -0.838  -1.412   0.466  0.00  0.00     0.197 C 
ENDROOT
BRANCH   1   2
ATOM      2  C   UNL d   1      -1.545  -1.685   1.842  0.00  0.00     0.195 C 
BRANCH   2   3
ATOM      3  C   UNL d   1      -0.958  -1.005   3.097  0.00  0.00     0.188 C 
BRANCH   3   4
ATOM      4  O   UNL d   1      -0.863   0.441   3.030  0.00  0.00    -0.311 OA
BRANCH   4   5
ATOM      5  C   UNL d   1      -1.791   1.220   3.643  0.00  0.00     0.255 C 
ATOM      6  O   UNL d   1      -2.940   0.902   3.905  0.00  0.00    -0.266 OA
ATOM      7  C   UNL d   1      -1.127   2.466   4.145  0.00  0.00     0.126 C 
ENDBRANCH   4   5
ENDBRANCH   3   4
BRANCH   3   8
ATOM      8  C   UNL d   1      -1.537  -1.518   4.433  0.00  0.00     0.213 C 
BRANCH   8   9
ATOM      9  O   UNL d   1      -0.961  -0.787   5.544  0.00  0.00    -0.319 OA
BRANCH   9  10
ATOM     10  C   UNL d   1       0.340  -1.054   5.830  0.00  0.00     0.254 C 
ATOM     11  O   UNL d   1       1.000  -1.949   5.323  0.00  0.00    -0.266 OA
ATOM     12  C   UNL d   1       0.887  -0.064   6.812  0.00  0.00     0.126 C 
ENDBRANCH   9  10
ENDBRANCH   8   9
ENDBRANCH   3   8
ENDBRANCH   2   3
BRANCH   2  13
ATOM     13  O   UNL d   1      -2.996  -1.537   1.806  0.00  0.00    -0.311 OA
BRANCH  13  14
ATOM     14  C   UNL d   1      -3.561  -0.367   1.405  0.00  0.00     0.255 C 
ATOM     15  O   UNL d   1      -2.999   0.535   0.805  0.00  0.00    -0.266 OA
ATOM     16  C   UNL d   1      -4.997  -0.317   1.831  0.00  0.00     0.126 C 
ENDBRANCH  13  14
ENDBRANCH   2  13
ENDBRANCH   1   2
BRANCH   1  17
ATOM     17  O   UNL d   1      -1.436  -2.281  -0.556  0.00  0.00    -0.311 OA
BRANCH  17  18
ATOM     18  C   UNL d   1      -1.259  -3.622  -0.485  0.00  0.00     0.255 C 
ATOM     19  O   UNL d   1      -0.508  -4.189   0.298  0.00  0.00    -0.266 OA
ATOM     20  C   UNL d   1      -2.135  -4.347  -1.466  0.00  0.00     0.126 C 
ENDBRANCH  17  18
ENDBRANCH   1  17
BRANCH   1  21
ATOM     21  C   UNL d   1       0.723  -1.474   0.493  0.00  0.00     0.203 C 
BRANCH  21  22
ATOM     22  C   UNL d   1       1.405  -1.324  -0.909  0.00  0.00     0.214 C 
BRANCH  22  23
ATOM     23  S   UNL d   1       1.023   0.370  -1.575  0.00  0.00    -0.135 SA
BRANCH  23  24
ATOM     24  C   UNL d   1       2.079   0.431  -3.046  0.00  0.00     0.072 C 
ATOM     25  C   UNL d   1       1.993   1.832  -3.643  0.00  0.00     0.016 C 
ENDBRANCH  23  24
ENDBRANCH  22  23
BRANCH  22  26
ATOM     26  O   UNL d   1       2.829  -1.473  -0.817  0.00  0.00    -0.373 OA
BRANCH  26  27
ATOM     27  C   UNL d   1       3.268  -2.810  -0.569  0.00  0.00     0.165 C 
ATOM     28  C   UNL d   1       4.748  -2.780  -0.233  0.00  0.00     0.033 C 
ENDBRANCH  26  27
ENDBRANCH  22  26
ENDBRANCH  21  22
BRANCH  21  29
ATOM     29  O   UNL d   1       1.222  -0.383   1.325  0.00  0.00    -0.310 OA
BRANCH  29  30
ATOM     30  C   UNL d   1       2.339  -0.598   2.064  0.00  0.00     0.255 C 
ATOM     31  O   UNL d   1       2.877  -1.686   2.253  0.00  0.00    -0.266 OA
ATOM     32  C   UNL d   1       2.783   0.687   2.694  0.00  0.00     0.126 C 
ENDBRANCH  29  30
ENDBRANCH  21  29
ENDBRANCH   1  21
TORSDOF 19
