REMARK  7 active torsions:
REMARK  status: ('A' for Active; 'I' for Inactive)
REMARK    1  A    between atoms: S_2  and  C_1 
REMARK    2  A    between atoms: C_9  and  S_2 
REMARK    3  A    between atoms: C_5  and  C_4 
REMARK       I    between atoms: N_8  and  C_5 
REMARK    4  A    between atoms: C_12  and  N_8 
REMARK    5  A    between atoms: C_13  and  N_8 
REMARK    6  A    between atoms: C_17  and  C_12 
REMARK    7  A    between atoms: C_22  and  C_13 
ROOT
ATOM      1  C   UNL d   1       0.245  -2.409   0.429  0.00  0.00     0.261 C 
ATOM      2  N   UNL d   1      -0.605  -3.490   0.117  0.00  0.00    -0.339 N 
ATOM      3  O   UNL d   1       1.377  -2.657   0.859  0.00  0.00    -0.267 OA
ENDROOT
BRANCH   1   4
ATOM      4  C   UNL d   1      -0.176  -0.998   0.275  0.00  0.00     0.080 A 
ATOM      5  C   UNL d   1      -0.855  -0.279  -0.726  0.00  0.00    -0.017 A 
ATOM      6  C   UNL d   1      -0.768   1.156  -0.482  0.00  0.00     0.078 A 
ATOM      7  C   UNL d   1      -1.528  -0.889  -1.913  0.00  0.00     0.051 C 
ATOM      8  C   UNL d   1      -0.137   1.449   0.705  0.00  0.00     0.075 A 
ATOM      9  S   UNL d   1       0.378   0.062   1.525  0.00  0.00    -0.094 SA
BRANCH   6  10
ATOM     10  S   UNL d   1      -1.341   2.449  -1.521  0.00  0.00     0.207 S 
ATOM     11  O   UNL d   1      -0.570   3.606  -1.096  0.00  0.00    -0.217 OA
ATOM     12  O   UNL d   1      -1.280   1.963  -2.876  0.00  0.00    -0.217 OA
BRANCH  10  13
ATOM     13  C   UNL d   1      -3.031   2.787  -1.114  0.00  0.00     0.064 A 
ATOM     14  C   UNL d   1      -3.522   4.066  -1.403  0.00  0.00     0.025 A 
ATOM     15  C   UNL d   1      -4.829   4.405  -1.050  0.00  0.00     0.025 A 
ATOM     16  C   UNL d   1      -5.637   3.466  -0.411  0.00  0.00     0.034 A 
ATOM     17  C   UNL d   1      -5.151   2.188  -0.131  0.00  0.00     0.025 A 
ATOM     18 CL   UNL d   1      -7.240   3.889   0.046  0.00  0.00    -0.084 Cl
ATOM     19  C   UNL d   1      -3.842   1.841  -0.481  0.00  0.00     0.025 A 
ENDBRANCH  10  13
ENDBRANCH   6  10
ENDBRANCH   1   4
BRANCH   2  20
ATOM     20  C   UNL d   1      -0.021  -4.842   0.129  0.00  0.00     0.166 C 
BRANCH  20  21
ATOM     21  C   UNL d   1       0.312  -5.511  -1.186  0.00  0.00    -0.025 A 
ATOM     22  C   UNL d   1       0.851  -6.801  -1.116  0.00  0.00     0.096 A 
ATOM     23  N   UNL d   1       1.249  -7.543  -2.176  0.00  0.00    -0.375 N 
ATOM     24  C   UNL d   1       1.114  -6.974  -3.387  0.00  0.00     0.087 A 
ATOM     25  HN  UNL d   1       1.632  -8.481  -2.061  1.00  0.00     0.164 HD
ATOM     26  C   UNL d   1       0.587  -5.708  -3.581  0.00  0.00     0.018 A 
ATOM     27  C   UNL d   1       0.182  -4.965  -2.462  0.00  0.00     0.011 A 
ENDBRANCH  20  21
ENDBRANCH   2  20
BRANCH   2  28
ATOM     28  C   UNL d   1      -2.032  -3.338  -0.127  0.00  0.00     0.165 C 
BRANCH  28  29
ATOM     29  C   UNL d   1      -2.986  -4.372   0.416  0.00  0.00    -0.040 A 
ATOM     30  C   UNL d   1      -3.115  -4.610   1.791  0.00  0.00     0.009 A 
ATOM     31  C   UNL d   1      -4.105  -5.476   2.263  0.00  0.00     0.001 A 
ATOM     32  C   UNL d   1      -4.975  -6.103   1.371  0.00  0.00     0.000 A 
ATOM     33  C   UNL d   1      -4.851  -5.877   0.003  0.00  0.00     0.001 A 
ATOM     34  C   UNL d   1      -3.861  -5.020  -0.471  0.00  0.00     0.009 A 
ENDBRANCH  28  29
ENDBRANCH   2  28
TORSDOF 7
