REMARK  5 active torsions:
REMARK  status: ('A' for Active; 'I' for Inactive)
REMARK    1  A    between atoms: S_2  and  C_6 
REMARK    2  A    between atoms: O_15  and  S_2 
REMARK    3  A    between atoms: S_21  and  C_8 
REMARK    4  A    between atoms: C_12  and  C_16 
REMARK    5  A    between atoms: C_20  and  O_15 
ROOT
ATOM      1  C   UNL d   1       0.090   1.203   0.235  0.00  0.00     0.141 A 
ATOM      2  N   UNL d   1      -1.047   0.737   0.856  0.00  0.00    -0.315 N 
ATOM      3  N   UNL d   1       0.725   0.175  -0.301  0.00  0.00    -0.282 N 
ATOM      4  HN  UNL d   1       1.566   0.228  -0.875  1.00  0.00     0.188 HD
ATOM      5  C   UNL d   1       1.020   4.979   0.334  0.00  0.00     0.128 C 
ATOM      6  C   UNL d   1       0.547   2.559   0.096  0.00  0.00     0.052 C 
ATOM      7  C   UNL d   1      -0.986  -0.630   0.757  0.00  0.00     0.162 A 
ATOM      8  N   UNL d   1       0.059  -0.978   0.046  0.00  0.00    -0.278 N 
ATOM      9  HN  UNL d   1       0.329  -1.929  -0.205  1.00  0.00     0.189 HD
ATOM     10  S   UNL d   1       0.431   3.733   1.343  0.00  0.00    -0.072 SA
ATOM     11  C   UNL d   1       1.470   4.474  -0.871  0.00  0.00     0.035 C 
ATOM     12  C   UNL d   1       1.202   3.081  -1.004  0.00  0.00     0.025 C 
ATOM     13  C   UNL d   1      -2.137   1.489   1.424  0.00  0.00     0.160 C 
ENDROOT
BRANCH   5  14
ATOM     14  S   UNL d   1       0.915   6.652   0.947  0.00  0.00     0.309 S 
ATOM     15  O   UNL d   1       1.055   7.456  -0.249  0.00  0.00    -0.192 OA
ATOM     16  O   UNL d   1      -0.267   6.709   1.783  0.00  0.00    -0.192 OA
BRANCH  14  17
ATOM     17  O   UNL d   1       2.264   6.760   1.864  0.00  0.00    -0.229 OA
BRANCH  17  18
ATOM     18  C   UNL d   1       2.566   7.933   2.516  0.00  0.00     0.090 A 
ATOM     19  C   UNL d   1       3.216   7.817   3.748  0.00  0.00     0.054 A 
ATOM     20  C   UNL d   1       3.566   8.963   4.486  0.00  0.00     0.050 A 
ATOM     21  C   UNL d   1       3.275  10.229   3.955  0.00  0.00     0.016 A 
ATOM     22  C   UNL d   1       2.649  10.347   2.717  0.00  0.00     0.004 A 
ATOM     23  C   UNL d   1       2.300   9.203   1.998  0.00  0.00     0.038 A 
BRANCH  20  24
ATOM     24  C   UNL d   1       4.235   8.864   5.835  0.00  0.00     0.417 C 
ATOM     25  F   UNL d   1       4.460   7.584   6.240  0.00  0.00    -0.166 F 
ATOM     26  F   UNL d   1       5.447   9.484   5.862  0.00  0.00    -0.166 F 
ATOM     27  F   UNL d   1       3.498   9.444   6.822  0.00  0.00    -0.166 F 
ENDBRANCH  20  24
ENDBRANCH  17  18
ENDBRANCH  14  17
ENDBRANCH   5  14
BRANCH   7  28
ATOM     28  S   UNL d   1      -2.144  -1.687   1.489  0.00  0.00    -0.097 SA
ATOM     29  C   UNL d   1      -1.460  -3.305   1.070  0.00  0.00     0.099 C 
ENDBRANCH   7  28
TORSDOF 5
