REMARK  5 active torsions:
REMARK  status: ('A' for Active; 'I' for Inactive)
REMARK    1  A    between atoms: C_11  and  C_1 
REMARK    2  A    between atoms: N_12  and  C_1 
REMARK    3  A    between atoms: O_15  and  N_2 
REMARK    4  A    between atoms: C_4  and  O_10 
REMARK    5  A    between atoms: O_10  and  C_11 
ROOT
ATOM      1  O   UNL d   1      -1.097  -0.447   1.016  0.00  0.00    -0.344 OA
ENDROOT
BRANCH   1   2
ATOM      2  C   UNL d   1      -2.072  -0.618   1.964  0.00  0.00     0.072 A 
ATOM      3  C   UNL d   1      -1.845   0.025   3.182  0.00  0.00     0.060 A 
ATOM      4  C   UNL d   1      -2.752  -0.132   4.233  0.00  0.00     0.038 A 
ATOM      5 CL   UNL d   1      -2.449   0.635   5.744  0.00  0.00    -0.084 Cl
ATOM      6  C   UNL d   1      -3.891  -0.916   4.077  0.00  0.00     0.048 A 
ATOM      7  C   UNL d   1      -4.130  -1.525   2.850  0.00  0.00     0.038 A 
ATOM      8  C   UNL d   1      -3.235  -1.372   1.790  0.00  0.00     0.060 A 
ATOM      9 CL   UNL d   1      -5.537  -2.493   2.637  0.00  0.00    -0.084 Cl
ENDBRANCH   1   2
BRANCH   1  10
ATOM     10  C   UNL d   1      -1.060  -1.453   0.003  0.00  0.00     0.247 C 
BRANCH  10  11
ATOM     11  C   UNL d   1       0.287  -1.430  -0.721  0.00  0.00     0.099 C 
ATOM     12  N   UNL d   1       0.793  -2.573  -1.082  0.00  0.00    -0.260 N 
ATOM     13  HN  UNL d   1       0.351  -3.478  -0.921  1.00  0.00     0.195 HD
BRANCH  12  14
ATOM     14  O   UNL d   1       2.029  -2.396  -1.722  0.00  0.00    -0.289 OA
ATOM     15  H   UNL d   1       2.256  -3.308  -1.983  0.00  0.00     0.244 HD
ENDBRANCH  12  14
BRANCH  11  16
ATOM     16  N   UNL d   1       0.879  -0.215  -0.971  0.00  0.00    -0.289 NA
ATOM     17  H   UNL d   1       1.861  -0.326  -1.204  0.00  0.00     0.125 HD
ATOM     18  H   UNL d   1       0.694   0.500  -0.274  0.00  0.00     0.125 HD
ENDBRANCH  11  16
ENDBRANCH  10  11
ENDBRANCH   1  10
TORSDOF 5
