REMARK  3 active torsions:
REMARK  status: ('A' for Active; 'I' for Inactive)
REMARK    1  A    between atoms: C_2  and  S_1 
REMARK    2  A    between atoms: C_6  and  S_1 
REMARK    3  A    between atoms: N_9  and  C_3 
ROOT
ATOM      1  C   UNL d   1       0.496  -1.619  -0.458  0.00  0.00     0.159 C 
ATOM      2  C   UNL d   1      -0.179  -2.367   0.433  0.00  0.00     0.120 C 
ATOM      3  C   UNL d   1       1.008  -0.330  -0.172  0.00  0.00     0.113 C 
ATOM      4  N   UNL d   1       1.409   0.727   0.083  0.00  0.00    -0.191 NA
ENDROOT
BRANCH   1   5
ATOM      5  S   UNL d   1       0.922  -2.342  -1.981  0.00  0.00     0.218 S 
ATOM      6  O   UNL d   1      -0.086  -3.312  -2.376  0.00  0.00    -0.216 OA
ATOM      7  O   UNL d   1       2.318  -2.739  -1.950  0.00  0.00    -0.216 OA
BRANCH   5   8
ATOM      8  C   UNL d   1       0.799  -1.013  -3.174  0.00  0.00     0.065 A 
ATOM      9  C   UNL d   1       1.938  -0.265  -3.491  0.00  0.00     0.025 A 
ATOM     10  C   UNL d   1       1.857   0.739  -4.460  0.00  0.00     0.025 A 
ATOM     11  C   UNL d   1       0.650   0.974  -5.119  0.00  0.00     0.034 A 
ATOM     12  C   UNL d   1      -0.479   0.209  -4.823  0.00  0.00     0.025 A 
ATOM     13 CL   UNL d   1       0.559   2.205  -6.316  0.00  0.00    -0.084 Cl
ATOM     14  C   UNL d   1      -0.408  -0.794  -3.851  0.00  0.00     0.025 A 
ENDBRANCH   5   8
ENDBRANCH   1   5
BRANCH   2  15
ATOM     15  N   UNL d   1      -0.651  -2.070   1.713  0.00  0.00    -0.397 N 
ATOM     16  C   UNL d   1      -1.059  -0.736   2.160  0.00  0.00     0.148 C 
ATOM     17  C   UNL d   1      -0.814  -3.103   2.741  0.00  0.00     0.148 C 
ENDBRANCH   2  15
TORSDOF 3
