REMARK  3 active torsions:
REMARK  status: ('A' for Active; 'I' for Inactive)
REMARK    1  A    between atoms: C_8  and  C_1 
REMARK    2  A    between atoms: C_5  and  C_8 
REMARK    3  A    between atoms: N_11  and  C_9 
ROOT
ATOM      1  C   UNL d   1       1.395  -3.614  -0.015  0.00  0.00     0.090 A 
ATOM      2  N   UNL d   1       2.137  -4.798   0.041  0.00  0.00    -0.351 N 
ATOM      3  HN  UNL d   1       3.156  -4.845   0.052  1.00  0.00     0.166 HD
ATOM      4  C   UNL d   1       0.025  -3.814  -0.018  0.00  0.00     0.085 A 
ATOM      5  C   UNL d   1       1.337  -5.841   0.077  0.00  0.00     0.047 A 
ATOM      6  S   UNL d   1      -0.342  -5.486   0.044  0.00  0.00    -0.087 SA
ATOM      7  C   UNL d   1       1.799  -7.255   0.141  0.00  0.00     0.076 C 
ENDROOT
BRANCH   1   8
ATOM      8  C   UNL d   1       2.006  -2.280  -0.065  0.00  0.00     0.200 C 
ATOM      9  O   UNL d   1       1.352  -1.243  -0.117  0.00  0.00    -0.286 OA
BRANCH   8  10
ATOM     10  C   UNL d   1       3.497  -2.297  -0.046  0.00  0.00     0.074 C 
ATOM     11  C   UNL d   1       4.197  -1.155  -0.089  0.00  0.00     0.088 C 
BRANCH  11  12
ATOM     12  N   UNL d   1       5.573  -0.956  -0.077  0.00  0.00    -0.398 N 
ATOM     13  C   UNL d   1       6.568  -2.026  -0.013  0.00  0.00     0.148 C 
ATOM     14  C   UNL d   1       6.154   0.387  -0.143  0.00  0.00     0.148 C 
ENDBRANCH  11  12
ENDBRANCH   8  10
ENDBRANCH   1   8
TORSDOF 3
