REMARK  1 active torsions:
REMARK  status: ('A' for Active; 'I' for Inactive)
REMARK       I    between atoms: N_2  and  C_1 
REMARK    1  A    between atoms: C_4  and  N_2 
ROOT
ATOM      1  C   UNL d   1       0.902   1.330   2.296  0.00  0.00     0.034 A 
ATOM      2  C   UNL d   1       2.201   2.765   4.324  0.00  0.00     0.011 A 
ATOM      3 BR   UNL d   1       3.072   3.734   5.693  0.00  0.00    -0.051 Br
ATOM      4  C   UNL d   1       0.464   1.243   3.622  0.00  0.00     0.031 A 
ATOM      5  C   UNL d   1       2.008   2.139   2.001  0.00  0.00     0.031 A 
ATOM      6  C   UNL d   1       2.653   2.860   3.010  0.00  0.00     0.021 A 
ATOM      7  C   UNL d   1       1.113   1.956   4.634  0.00  0.00     0.021 A 
ENDROOT
BRANCH   1   8
ATOM      8  N   UNL d   1       0.306   0.623   1.230  0.00  0.00    -0.328 N 
ATOM      9  C   UNL d   1      -0.879  -0.087   1.269  0.00  0.00     0.218 C 
ATOM     10  O   UNL d   1      -1.683  -0.123   2.195  0.00  0.00    -0.274 OA
ATOM     11  C   UNL d   1      -1.158  -0.841  -0.007  0.00  0.00     0.117 C 
ATOM     12  H   UNL d   1       0.771   0.694   0.334  0.00  0.00     0.169 HD
ENDBRANCH   1   8
TORSDOF 1
