REMARK  4 active torsions:
REMARK  status: ('A' for Active; 'I' for Inactive)
REMARK    1  A    between atoms: C_2  and  S_1 
REMARK    2  A    between atoms: C_9  and  S_1 
REMARK    3  A    between atoms: N_4  and  C_3 
REMARK    4  A    between atoms: C_5  and  C_7 
ROOT
ATOM      1  C   UNL d   1       0.404  -0.893  -1.472  0.00  0.00     0.097 A 
ATOM      2  C   UNL d   1       1.020  -2.078  -1.873  0.00  0.00     0.125 A 
ATOM      3  C   UNL d   1       0.627  -2.739  -3.051  0.00  0.00     0.053 A 
ATOM      4  C   UNL d   1      -0.383  -2.195  -3.858  0.00  0.00     0.050 A 
ATOM      5  C   UNL d   1      -0.580  -0.329  -2.299  0.00  0.00     0.027 A 
ATOM      6  C   UNL d   1      -0.968  -0.977  -3.478  0.00  0.00     0.018 A 
ENDROOT
BRANCH   1   7
ATOM      7  S   UNL d   1       0.922   0.006  -0.031  0.00  0.00     0.209 S 
ATOM      8  O   UNL d   1       0.233   1.283  -0.061  0.00  0.00    -0.217 OA
ATOM      9  O   UNL d   1       2.372  -0.032  -0.049  0.00  0.00    -0.217 OA
BRANCH   7  10
ATOM     10  C   UNL d   1       0.346  -0.815   1.432  0.00  0.00     0.064 A 
ATOM     11  C   UNL d   1       1.244  -1.085   2.467  0.00  0.00     0.024 A 
ATOM     12  C   UNL d   1       0.789  -1.714   3.627  0.00  0.00     0.008 A 
ATOM     13  C   UNL d   1      -0.559  -2.071   3.760  0.00  0.00    -0.062 A 
ATOM     14  C   UNL d   1      -1.450  -1.790   2.715  0.00  0.00     0.008 A 
ATOM     15  C   UNL d   1      -1.035  -2.711   5.032  0.00  0.00     0.048 C 
ATOM     16  C   UNL d   1      -1.003  -1.163   1.549  0.00  0.00     0.024 A 
ENDBRANCH   7  10
ENDBRANCH   1   7
BRANCH   2  17
ATOM     17  N   UNL d   1       2.073  -2.700  -1.097  0.00  0.00    -0.114 N 
ATOM     18  O   UNL d   1       1.765  -3.102   0.030  0.00  0.00    -0.532 OA
ATOM     19  O   UNL d   1       3.163  -2.864  -1.658  0.00  0.00    -0.532 OA
ENDBRANCH   2  17
BRANCH   4  20
ATOM     20  C   UNL d   1      -0.839  -2.892  -5.122  0.00  0.00     0.417 C 
ATOM     21  F   UNL d   1      -0.255  -4.107  -5.305  0.00  0.00    -0.166 F 
ATOM     22  F   UNL d   1      -2.181  -3.117  -5.128  0.00  0.00    -0.166 F 
ATOM     23  F   UNL d   1      -0.570  -2.168  -6.240  0.00  0.00    -0.166 F 
ENDBRANCH   4  20
TORSDOF 4
