REMARK  5 active torsions:
REMARK  status: ('A' for Active; 'I' for Inactive)
REMARK    1  A    between atoms: N_2  and  S_1 
REMARK    2  A    between atoms: C_7  and  S_1 
REMARK    3  A    between atoms: C_8  and  N_4 
REMARK    4  A    between atoms: C_5  and  O_14 
REMARK    5  A    between atoms: O_14  and  C_22 
ROOT
ATOM      1  C   UNL d   1      -2.586   4.590   5.141  0.00  0.00     0.100 A 
ATOM      2  C   UNL d   1      -2.117   3.329   4.737  0.00  0.00     0.098 A 
ATOM      3  C   UNL d   1      -1.670   5.677   5.328  0.00  0.00     0.104 C 
ATOM      4  N   UNL d   1      -0.940   6.574   5.472  0.00  0.00    -0.191 NA
ATOM      5  C   UNL d   1      -3.968   4.767   5.332  0.00  0.00     0.057 A 
ATOM      6 CL   UNL d   1      -4.647   6.270   5.854  0.00  0.00    -0.083 Cl
ATOM      7  C   UNL d   1      -3.017   2.266   4.571  0.00  0.00     0.039 A 
ATOM      8  C   UNL d   1      -4.387   2.467   4.705  0.00  0.00     0.005 A 
ATOM      9  C   UNL d   1      -4.862   3.715   5.093  0.00  0.00     0.025 A 
ENDROOT
BRANCH   2  10
ATOM     10  O   UNL d   1      -0.756   3.151   4.531  0.00  0.00    -0.309 OA
BRANCH  10  11
ATOM     11  C   UNL d   1      -0.364   2.351   3.475  0.00  0.00     0.076 A 
ATOM     12  C   UNL d   1      -1.062   2.307   2.264  0.00  0.00     0.039 A 
ATOM     13  C   UNL d   1      -0.646   1.461   1.243  0.00  0.00     0.028 A 
ATOM     14  C   UNL d   1       0.497   0.678   1.408  0.00  0.00     0.079 A 
ATOM     15  C   UNL d   1       1.239   0.755   2.595  0.00  0.00     0.028 A 
ATOM     16  C   UNL d   1       0.801   1.594   3.631  0.00  0.00     0.039 A 
BRANCH  14  17
ATOM     17  S   UNL d   1       1.105  -0.219  -0.008  0.00  0.00     0.260 S 
ATOM     18  O   UNL d   1       0.971   0.679  -1.137  0.00  0.00    -0.200 OA
ATOM     19  O   UNL d   1       2.391  -0.773   0.357  0.00  0.00    -0.200 OA
BRANCH  17  20
ATOM     20  N   UNL d   1       0.029  -1.487  -0.225  0.00  0.00    -0.304 N 
ATOM     21  C   UNL d   1      -1.317  -1.287  -0.820  0.00  0.00     0.155 C 
ATOM     22  C   UNL d   1      -2.489  -1.538   0.162  0.00  0.00     0.145 C 
ATOM     23  N   UNL d   1      -2.274  -2.682   1.058  0.00  0.00    -0.364 N 
ATOM     24  C   UNL d   1      -0.933  -2.785   1.651  0.00  0.00     0.145 C 
ATOM     25  C   UNL d   1       0.152  -2.728   0.576  0.00  0.00     0.155 C 
BRANCH  23  26
ATOM     26  C   UNL d   1      -3.027  -3.838   0.957  0.00  0.00     0.102 A 
ATOM     27  N   UNL d   1      -2.419  -5.035   1.124  0.00  0.00    -0.352 N 
ATOM     28  C   UNL d   1      -3.175  -6.159   1.136  0.00  0.00     0.089 A 
ATOM     29  HN  UNL d   1      -1.407  -5.090   1.240  1.00  0.00     0.166 HD
ATOM     30  C   UNL d   1      -4.548  -6.168   0.994  0.00  0.00     0.017 A 
ATOM     31  C   UNL d   1      -5.178  -4.947   0.816  0.00  0.00     0.005 A 
ATOM     32  C   UNL d   1      -4.413  -3.781   0.790  0.00  0.00     0.048 A 
ENDBRANCH  23  26
ENDBRANCH  17  20
ENDBRANCH  14  17
ENDBRANCH  10  11
ENDBRANCH   2  10
TORSDOF 5
