REMARK  5 active torsions:
REMARK  status: ('A' for Active; 'I' for Inactive)
REMARK    1  A    between atoms: C_10  and  C_3 
REMARK    2  A    between atoms: N_19  and  C_10 
REMARK    3  A    between atoms: O_16  and  N_12 
REMARK    4  A    between atoms: C_15  and  O_16 
REMARK       I    between atoms: N_17  and  C_15 
REMARK    5  A    between atoms: C_21  and  N_17 
ROOT
ATOM      1  C   UNL d   1       2.120  -2.587  -0.244  0.00  0.00     0.114 C 
ATOM      2  N   UNL d   1       1.314  -3.579  -0.470  0.00  0.00    -0.244 N 
ATOM      3  HN  UNL d   1       1.596  -4.538  -0.675  1.00  0.00     0.196 HD
ENDROOT
BRANCH   1   4
ATOM      4  C   UNL d   1       3.547  -2.835  -0.271  0.00  0.00     0.067 A 
ATOM      5  C   UNL d   1       4.574  -1.943  -0.551  0.00  0.00     0.142 A 
ATOM      6  N   UNL d   1       5.769  -2.673  -0.454  0.00  0.00    -0.244 N 
ATOM      7  N   UNL d   1       4.560  -0.611  -0.900  0.00  0.00    -0.344 N 
ATOM      8  N   UNL d   1       5.534  -3.966  -0.114  0.00  0.00    -0.302 N 
ATOM      9  C   UNL d   1       7.007  -2.064  -0.714  0.00  0.00     0.034 A 
ATOM     10  C   UNL d   1       4.209  -4.052  -0.022  0.00  0.00     0.126 A 
ATOM     11  HN  UNL d   1       6.219  -4.706   0.038  1.00  0.00     0.186 HD
ATOM     12  C   UNL d   1       8.266  -2.868  -0.605  0.00  0.00     0.070 C 
ATOM     13  C   UNL d   1       7.035  -0.767  -1.066  0.00  0.00     0.051 A 
ATOM     14  C   UNL d   1       5.718  -0.064  -1.153  0.00  0.00     0.009 A 
ATOM     15  C   UNL d   1       5.751   1.382  -1.584  0.00  0.00     0.068 C 
ATOM     16  HN  UNL d   1       3.691  -0.080  -0.958  1.00  0.00     0.167 HD
ENDBRANCH   1   4
BRANCH   1  17
ATOM     17  N   UNL d   1       1.791  -1.293   0.040  0.00  0.00    -0.286 NA
ATOM     18  H   UNL d   1       2.485  -0.593  -0.222  0.00  0.00     0.125 HD
ATOM     19  H   UNL d   1       0.839  -1.044  -0.200  0.00  0.00     0.125 HD
ENDBRANCH   1  17
BRANCH   2  20
ATOM     20  O   UNL d   1      -0.023  -3.111  -0.387  0.00  0.00    -0.180 OA
BRANCH  20  21
ATOM     21  C   UNL d   1      -0.971  -4.091  -0.612  0.00  0.00     0.383 C 
ATOM     22  N   UNL d   1      -0.475  -5.321  -0.965  0.00  0.00    -0.331 N 
ATOM     23  H   UNL d   1       0.528  -5.336  -1.115  0.00  0.00     0.165 HD
ATOM     24  O   UNL d   1      -2.170  -3.844  -0.510  0.00  0.00    -0.236 OA
BRANCH  22  25
ATOM     25  C   UNL d   1      -1.331  -6.449  -1.290  0.00  0.00     0.078 C 
ATOM     26  C   UNL d   1      -1.752  -6.430  -2.760  0.00  0.00     0.032 C 
ATOM     27  C   UNL d   1      -0.643  -7.766  -0.949  0.00  0.00     0.032 C 
ENDBRANCH  22  25
ENDBRANCH  20  21
ENDBRANCH   2  20
TORSDOF 5
