REMARK  4 active torsions:
REMARK  status: ('A' for Active; 'I' for Inactive)
REMARK    1  A    between atoms: C_3  and  N_1 
REMARK    2  A    between atoms: C_2  and  C_6 
REMARK    3  A    between atoms: C_6  and  S_11 
REMARK    4  A    between atoms: S_11  and  C_8 
ROOT
ATOM      1  C   UNL d   1       0.675   1.018   1.430  0.00  0.00     0.118 A 
ATOM      2  N   UNL d   1      -0.198   2.423   3.182  0.00  0.00    -0.358 N 
ATOM      3  HN  UNL d   1      -0.048   3.129   3.903  1.00  0.00     0.166 HD
ATOM      4  C   UNL d   1      -1.428   1.908   2.955  0.00  0.00     0.069 A 
ATOM      5  C   UNL d   1       0.831   1.971   2.422  0.00  0.00     0.124 A 
ATOM      6  C   UNL d   1      -0.600   0.514   1.177  0.00  0.00     0.040 A 
ATOM      7  C   UNL d   1      -1.669   0.968   1.955  0.00  0.00     0.039 A 
ENDROOT
BRANCH   4   8
ATOM      8  S   UNL d   1      -2.770   2.430   4.009  0.00  0.00    -0.108 SA
BRANCH   8   9
ATOM      9  C   UNL d   1      -1.881   3.595   5.096  0.00  0.00     0.124 C 
BRANCH   9  10
ATOM     10  C   UNL d   1      -2.736   4.092   6.233  0.00  0.00     0.012 A 
ATOM     11  C   UNL d   1      -3.531   5.244   6.157  0.00  0.00     0.044 A 
ATOM     12 CL   UNL d   1      -3.637   6.190   4.715  0.00  0.00    -0.084 Cl
ATOM     13  C   UNL d   1      -4.268   5.680   7.267  0.00  0.00     0.024 A 
ATOM     14  C   UNL d   1      -4.234   4.966   8.465  0.00  0.00     0.005 A 
ATOM     15  C   UNL d   1      -3.467   3.809   8.549  0.00  0.00     0.043 A 
ATOM     16  C   UNL d   1      -2.734   3.385   7.443  0.00  0.00     0.125 A 
ATOM     17  F   UNL d   1      -1.993   2.273   7.564  0.00  0.00    -0.205 F 
ENDBRANCH   9  10
ENDBRANCH   8   9
ENDBRANCH   4   8
BRANCH   1  18
ATOM     18  N   UNL d   1       1.840   0.547   0.695  0.00  0.00    -0.114 N 
ATOM     19  O   UNL d   1       2.944   1.017   0.999  0.00  0.00    -0.532 OA
ATOM     20  O   UNL d   1       1.654  -0.304  -0.187  0.00  0.00    -0.532 OA
ENDBRANCH   1  18
TORSDOF 4
