REMARK  8 active torsions:
REMARK  status: ('A' for Active; 'I' for Inactive)
REMARK    1  A    between atoms: S_2  and  C_1 
REMARK    2  A    between atoms: C_12  and  S_2 
REMARK    3  A    between atoms: C_7  and  C_3 
REMARK    4  A    between atoms: N_13  and  C_4 
REMARK    5  A    between atoms: O_10  and  C_7 
REMARK    6  A    between atoms: C_15  and  O_10 
REMARK    7  A    between atoms: C_11  and  C_15 
REMARK    8  A    between atoms: C_17  and  C_11 
ROOT
ATOM      1  C   UNL d   1      -0.657  -1.208  -0.058  0.00  0.00     0.093 A 
ATOM      2  C   UNL d   1      -0.262   1.103  -0.092  0.00  0.00     0.107 A 
ATOM      3  C   UNL d   1      -1.223   0.102  -0.016  0.00  0.00     0.071 A 
ATOM      4  S   UNL d   1       1.315   0.426  -0.193  0.00  0.00    -0.092 SA
ATOM      5  C   UNL d   1       0.719  -1.171  -0.129  0.00  0.00     0.076 A 
ENDROOT
BRANCH   2   6
ATOM      6  C   UNL d   1      -0.477   2.544  -0.045  0.00  0.00     0.303 C 
ATOM      7  O   UNL d   1      -1.573   3.079   0.113  0.00  0.00    -0.259 OA
BRANCH   6   8
ATOM      8  O   UNL d   1       0.694   3.245  -0.128  0.00  0.00    -0.309 OA
BRANCH   8   9
ATOM      9  C   UNL d   1       0.553   4.666  -0.062  0.00  0.00     0.263 C 
BRANCH   9  10
ATOM     10  C   UNL d   1       0.141   5.295  -1.392  0.00  0.00     0.183 C 
ATOM     11  O   UNL d   1      -0.013   4.621  -2.411  0.00  0.00    -0.290 OA
BRANCH  10  12
ATOM     12  C   UNL d   1      -0.050   6.779  -1.454  0.00  0.00     0.012 A 
ATOM     13  C   UNL d   1       0.108   7.610  -0.335  0.00  0.00     0.015 A 
ATOM     14  C   UNL d   1      -0.077   8.992  -0.453  0.00  0.00     0.001 A 
ATOM     15  C   UNL d   1      -0.416   9.554  -1.682  0.00  0.00     0.000 A 
ATOM     16  C   UNL d   1      -0.573   8.737  -2.800  0.00  0.00     0.001 A 
ATOM     17  C   UNL d   1      -0.392   7.357  -2.686  0.00  0.00     0.015 A 
ENDBRANCH  10  12
ENDBRANCH   9  10
ENDBRANCH   8   9
ENDBRANCH   6   8
ENDBRANCH   2   6
BRANCH   3  18
ATOM     18  N   UNL d   1      -2.550   0.358   0.101  0.00  0.00    -0.397 N 
ATOM     19  H   UNL d   1      -2.849   1.328   0.253  0.00  0.00     0.156 HD
ATOM     20  H   UNL d   1      -3.134  -0.281   0.646  0.00  0.00     0.156 HD
ENDBRANCH   3  18
BRANCH   1  21
ATOM     21  S   UNL d   1      -1.555  -2.694  -0.002  0.00  0.00     0.181 S 
ATOM     22  O   UNL d   1      -0.556  -3.739  -0.109  0.00  0.00    -0.222 OA
ATOM     23  O   UNL d   1      -2.383  -2.546   1.180  0.00  0.00    -0.222 OA
BRANCH  21  24
ATOM     24  C   UNL d   1      -2.606  -2.714  -1.457  0.00  0.00     0.105 C 
ATOM     25  C   UNL d   1      -1.814  -2.580  -2.752  0.00  0.00     0.026 C 
ATOM     26  C   UNL d   1      -3.428  -4.003  -1.474  0.00  0.00     0.026 C 
ENDBRANCH  21  24
ENDBRANCH   1  21
TORSDOF 8
