REMARK  3 active torsions:
REMARK  status: ('A' for Active; 'I' for Inactive)
REMARK    1  A    between atoms: N_2  and  S_1 
REMARK    2  A    between atoms: C_5  and  S_1 
REMARK    3  A    between atoms: C_9  and  C_6 
ROOT
ATOM      1  N   UNL d   1       0.362   0.224   1.571  0.00  0.00    -0.188 N 
ATOM      2  N   UNL d   1       0.283   1.434   2.186  0.00  0.00    -0.284 N 
ATOM      3  HN  UNL d   1       0.502   2.348   1.792  1.00  0.00     0.188 HD
ATOM      4  C   UNL d   1      -0.148   1.159   3.427  0.00  0.00     0.061 A 
ATOM      5  C   UNL d   1       0.067  -0.817   2.418  0.00  0.00     0.132 A 
ATOM      6  C   UNL d   1      -0.282  -0.244   3.617  0.00  0.00     0.052 A 
ENDROOT
BRANCH   4   7
ATOM      7  C   UNL d   1      -0.412   2.220   4.400  0.00  0.00    -0.007 A 
ATOM      8  C   UNL d   1      -0.870   3.477   3.969  0.00  0.00     0.023 A 
ATOM      9  C   UNL d   1      -1.121   4.454   4.920  0.00  0.00    -0.022 A 
ATOM     10  C   UNL d   1      -1.671   5.817   4.754  0.00  0.00     0.068 C 
ATOM     11  C   UNL d   1      -0.931   4.199   6.268  0.00  0.00     0.075 A 
ATOM     12  C   UNL d   1      -1.396   6.362   6.157  0.00  0.00     0.180 C 
ATOM     13  O   UNL d   1      -1.244   5.257   7.079  0.00  0.00    -0.350 OA
ATOM     14  C   UNL d   1      -0.488   2.977   6.725  0.00  0.00     0.038 A 
ATOM     15  C   UNL d   1      -0.224   1.982   5.780  0.00  0.00     0.016 A 
ENDBRANCH   4   7
BRANCH   1  16
ATOM     16  S   UNL d   1       0.960  -0.052  -0.030  0.00  0.00     0.288 S 
ATOM     17  O   UNL d   1       0.755   1.184  -0.765  0.00  0.00    -0.198 OA
ATOM     18  O   UNL d   1       0.394  -1.316  -0.468  0.00  0.00    -0.198 OA
BRANCH  16  19
ATOM     19  C   UNL d   1       2.720  -0.281   0.032  0.00  0.00     0.122 A 
ATOM     20  S   UNL d   1       3.295  -1.582   0.983  0.00  0.00    -0.088 SA
ATOM     21  C   UNL d   1       4.925  -1.230   0.600  0.00  0.00     0.051 A 
ATOM     22  C   UNL d   1       5.033  -0.149  -0.247  0.00  0.00     0.009 A 
ATOM     23  C   UNL d   1       3.759   0.396  -0.578  0.00  0.00     0.033 A 
ENDBRANCH  16  19
ENDBRANCH   1  16
TORSDOF 3
