REMARK  4 active torsions:
REMARK  status: ('A' for Active; 'I' for Inactive)
REMARK    1  A    between atoms: C_9  and  C_1 
REMARK    2  A    between atoms: C_5  and  C_2 
REMARK    3  A    between atoms: O_15  and  C_9 
REMARK    4  A    between atoms: C_16  and  O_15 
ROOT
ATOM      1  C   UNL d   1      -0.035  -1.382   0.221  0.00  0.00     0.086 A 
ATOM      2  C   UNL d   1       1.225  -0.587   0.230  0.00  0.00     0.136 A 
ATOM      3  N   UNL d   1       1.242   0.723   0.229  0.00  0.00    -0.328 N 
ATOM      4  HN  UNL d   1       2.131   1.220   0.260  1.00  0.00     0.168 HD
ATOM      5  C   UNL d   1       0.069   1.425   0.186  0.00  0.00     0.176 A 
ATOM      6  C   UNL d   1      -1.157  -0.649   0.196  0.00  0.00     0.110 A 
ATOM      7  N   UNL d   1      -1.103   0.713   0.172  0.00  0.00    -0.342 N 
ATOM      8  S   UNL d   1      -0.025   3.094   0.133  0.00  0.00    -0.041 SA
ATOM      9  H   UNL d   1      -1.956   1.261   0.144  0.00  0.00     0.167 HD
ENDROOT
BRANCH   1  10
ATOM     10  C   UNL d   1      -0.143  -2.853   0.238  0.00  0.00     0.296 C 
ATOM     11  O   UNL d   1       0.552  -3.588   0.907  0.00  0.00    -0.259 OA
BRANCH  10  12
ATOM     12  O   UNL d   1      -1.108  -3.216  -0.646  0.00  0.00    -0.318 OA
BRANCH  12  13
ATOM     13  C   UNL d   1      -1.209  -4.602  -1.005  0.00  0.00     0.174 C 
ATOM     14  C   UNL d   1      -0.757  -4.720  -2.448  0.00  0.00     0.034 C 
ENDBRANCH  12  13
ENDBRANCH  10  12
ENDBRANCH   1  10
BRANCH   2  15
ATOM     15  C   UNL d   1       2.571  -1.316   0.230  0.00  0.00     0.433 C 
ATOM     16  F   UNL d   1       2.524  -2.588  -0.241  0.00  0.00    -0.165 F 
ATOM     17  F   UNL d   1       3.484  -0.683  -0.562  0.00  0.00    -0.165 F 
ATOM     18  F   UNL d   1       3.119  -1.367   1.474  0.00  0.00    -0.165 F 
ENDBRANCH   2  15
TORSDOF 4
