REMARK  4 active torsions:
REMARK  status: ('A' for Active; 'I' for Inactive)
REMARK    1  A    between atoms: C_7  and  C_1 
REMARK    2  A    between atoms: C_9  and  C_2 
REMARK    3  A    between atoms: C_6  and  C_10 
REMARK       I    between atoms: N_12  and  C_7 
REMARK    4  A    between atoms: N_20  and  N_12 
ROOT
ATOM      1  C   UNL d   1       0.107  -1.365  -0.016  0.00  0.00     0.094 A 
ATOM      2  C   UNL d   1      -1.218  -0.956  -0.020  0.00  0.00     0.126 A 
ATOM      3  O   UNL d   1      -1.264   0.404  -0.040  0.00  0.00    -0.236 OA
ATOM      4  N   UNL d   1       0.014   0.919  -0.028  0.00  0.00    -0.264 N 
ATOM      5  HN  UNL d   1       0.279   1.904  -0.029  1.00  0.00     0.194 HD
ATOM      6  C   UNL d   1       0.836  -0.136  -0.016  0.00  0.00     0.047 A 
ATOM      7  C   UNL d   1       2.299   0.106  -0.037  0.00  0.00     0.071 C 
ENDROOT
BRANCH   2   8
ATOM      8  C   UNL d   1      -2.518  -1.619   0.026  0.00  0.00     0.001 A 
ATOM      9  C   UNL d   1      -2.692  -2.802   0.756  0.00  0.00     0.015 A 
ATOM     10  C   UNL d   1      -3.911  -3.484   0.743  0.00  0.00     0.017 A 
ATOM     11  C   UNL d   1      -4.997  -2.987   0.012  0.00  0.00     0.048 A 
ATOM     12  C   UNL d   1      -4.846  -1.775  -0.676  0.00  0.00     0.017 A 
ATOM     13  C   UNL d   1      -3.620  -1.099  -0.668  0.00  0.00     0.015 A 
BRANCH  11  14
ATOM     14  C   UNL d   1      -6.285  -3.770  -0.035  0.00  0.00     0.417 C 
ATOM     15  F   UNL d   1      -7.263  -3.173  -0.771  0.00  0.00    -0.166 F 
ATOM     16  F   UNL d   1      -6.119  -5.011  -0.574  0.00  0.00    -0.166 F 
ATOM     17  F   UNL d   1      -6.819  -3.971   1.202  0.00  0.00    -0.166 F 
ENDBRANCH  11  14
ENDBRANCH   2   8
BRANCH   1  18
ATOM     18  C   UNL d   1       0.549  -2.746  -0.042  0.00  0.00     0.270 C 
ATOM     19  O   UNL d   1      -0.106  -3.650  -0.553  0.00  0.00    -0.266 OA
ATOM     20  N   UNL d   1       1.753  -3.014   0.609  0.00  0.00    -0.290 N 
ATOM     21  H   UNL d   1       2.286  -2.286   1.069  0.00  0.00     0.183 HD
BRANCH  20  22
ATOM     22  N   UNL d   1       2.202  -4.353   0.716  0.00  0.00    -0.247 NA
ATOM     23  H   UNL d   1       1.593  -4.923   0.107  0.00  0.00     0.143 HD
ATOM     24  H   UNL d   1       1.987  -4.690   1.659  0.00  0.00     0.143 HD
ENDBRANCH  20  22
ENDBRANCH   1  18
TORSDOF 4
