REMARK  4 active torsions:
REMARK  status: ('A' for Active; 'I' for Inactive)
REMARK    1  A    between atoms: C_6  and  C_1 
REMARK    2  A    between atoms: C_7  and  C_5 
REMARK    3  A    between atoms: C_10  and  C_7 
REMARK       I    between atoms: N_15  and  C_10 
REMARK    4  A    between atoms: N_16  and  N_15 
ROOT
ATOM      1  C   UNL d   1       0.145  -1.167  -0.045  0.00  0.00     0.091 A 
ATOM      2  N   UNL d   1       1.361  -0.652  -0.028  0.00  0.00    -0.352 N 
ATOM      3  HN  UNL d   1       2.222  -1.198  -0.029  1.00  0.00     0.166 HD
ATOM      4  S   UNL d   1      -1.123  -0.002  -0.077  0.00  0.00    -0.081 SA
ATOM      5  C   UNL d   1       1.307   0.735  -0.010  0.00  0.00     0.025 A 
ATOM      6  C   UNL d   1       0.030   1.260  -0.039  0.00  0.00     0.077 A 
ENDROOT
BRANCH   5   7
ATOM      7  C   UNL d   1       2.587   1.499   0.036  0.00  0.00     0.161 C 
BRANCH   7   8
ATOM      8  C   UNL d   1       2.762   2.358  -1.198  0.00  0.00     0.237 C 
ATOM      9  O   UNL d   1       2.765   3.587  -1.158  0.00  0.00    -0.272 OA
ATOM     10  N   UNL d   1       2.932   1.639  -2.375  0.00  0.00    -0.294 N 
ATOM     11  H   UNL d   1       2.957   0.618  -2.362  0.00  0.00     0.183 HD
BRANCH  10  12
ATOM     12  N   UNL d   1       3.151   2.326  -3.587  0.00  0.00    -0.247 NA
ATOM     13  H   UNL d   1       3.451   3.281  -3.340  0.00  0.00     0.143 HD
ATOM     14  H   UNL d   1       2.241   2.469  -4.035  0.00  0.00     0.143 HD
ENDBRANCH  10  12
ENDBRANCH   7   8
ENDBRANCH   5   7
BRANCH   1  15
ATOM     15  C   UNL d   1      -0.064  -2.598  -0.038  0.00  0.00     0.038 A 
ATOM     16  S   UNL d   1      -1.610  -3.342  -0.137  0.00  0.00    -0.099 SA
ATOM     17  C   UNL d   1      -0.948  -4.915  -0.075  0.00  0.00     0.050 A 
ATOM     18  C   UNL d   1       0.424  -4.892   0.025  0.00  0.00     0.008 A 
ATOM     19  C   UNL d   1       0.930  -3.559   0.047  0.00  0.00     0.022 A 
ENDBRANCH   1  15
TORSDOF 4
