REMARK  4 active torsions:
REMARK  status: ('A' for Active; 'I' for Inactive)
REMARK    1  A    between atoms: O_3  and  C_4 
REMARK    2  A    between atoms: C_7  and  O_3 
REMARK    3  A    between atoms: C_6  and  C_7 
REMARK    4  A    between atoms: C_8  and  C_18 
ROOT
ATOM      1  N   UNL d   1       3.045  -0.600  -2.420  0.00  0.00    -0.197 NA
ATOM      2  C   UNL d   1       3.377  -0.302  -1.346  0.00  0.00     0.063 C 
ATOM      3  C   UNL d   1       3.788   0.053   0.023  0.00  0.00     0.162 C 
ENDROOT
BRANCH   3   4
ATOM      4  C   UNL d   1       4.306   1.468   0.120  0.00  0.00    -0.045 A 
ATOM      5  C   UNL d   1       3.424   2.522   0.392  0.00  0.00     0.011 A 
ATOM      6  C   UNL d   1       3.874   3.844   0.384  0.00  0.00     0.037 A 
ATOM      7  C   UNL d   1       5.205   4.131   0.076  0.00  0.00     0.069 A 
ATOM      8  C   UNL d   1       6.102   3.085  -0.132  0.00  0.00     0.037 A 
ATOM      9  C   UNL d   1       5.657   1.759  -0.116  0.00  0.00     0.011 A 
BRANCH   7  10
ATOM     10  O   UNL d   1       5.717   5.396  -0.057  0.00  0.00    -0.347 OA
BRANCH  10  11
ATOM     11  C   UNL d   1       4.748   6.397  -0.381  0.00  0.00     0.214 C 
BRANCH  11  12
ATOM     12  C   UNL d   1       5.433   7.592  -0.994  0.00  0.00    -0.034 A 
ATOM     13  C   UNL d   1       5.167   7.955  -2.323  0.00  0.00     0.011 A 
ATOM     14  C   UNL d   1       5.780   9.073  -2.888  0.00  0.00     0.024 A 
ATOM     15  C   UNL d   1       6.665   9.833  -2.126  0.00  0.00     0.034 A 
ATOM     16  C   UNL d   1       6.940   9.485  -0.805  0.00  0.00     0.024 A 
ATOM     17 CL   UNL d   1       7.422  11.212  -2.824  0.00  0.00    -0.084 Cl
ATOM     18  C   UNL d   1       6.326   8.366  -0.239  0.00  0.00     0.011 A 
ENDBRANCH  11  12
ENDBRANCH  10  11
ENDBRANCH   7  10
ENDBRANCH   3   4
TORSDOF 4
