REMARK  5 active torsions:
REMARK  status: ('A' for Active; 'I' for Inactive)
REMARK    1  A    between atoms: C_8  and  C_2 
REMARK    2  A    between atoms: O_12  and  C_8 
REMARK    3  A    between atoms: C_14  and  O_12 
REMARK    4  A    between atoms: C_15  and  C_14 
REMARK    5  A    between atoms: C_16  and  C_15 
ROOT
ATOM      1  C   UNL d   1       0.073  -0.680  -0.006  0.00  0.00     0.057 A 
ATOM      2  C   UNL d   1       2.327   0.209   0.022  0.00  0.00     0.088 A 
ATOM      3  S   UNL d   1       1.583  -1.361   0.014  0.00  0.00    -0.075 SA
ATOM      4  C   UNL d   1       1.368   1.246  -0.004  0.00  0.00    -0.026 A 
ATOM      5  C   UNL d   1       0.061   0.664  -0.001  0.00  0.00     0.002 A 
ATOM      6  S   UNL d   1      -1.429  -1.402  -0.027  0.00  0.00    -0.093 SA
ATOM      7  C   UNL d   1      -1.253   1.208   0.005  0.00  0.00    -0.043 A 
ATOM      8  C   UNL d   1      -2.167   0.150  -0.016  0.00  0.00     0.058 A 
ATOM      9  C   UNL d   1       1.752   2.690  -0.040  0.00  0.00     0.050 C 
ATOM     10  C   UNL d   1      -1.739   2.615   0.043  0.00  0.00     0.049 C 
ENDROOT
BRANCH   2  11
ATOM     11  C   UNL d   1       3.788   0.307  -0.011  0.00  0.00     0.300 C 
ATOM     12  O   UNL d   1       4.443   1.334  -0.098  0.00  0.00    -0.259 OA
BRANCH  11  13
ATOM     13  O   UNL d   1       4.351  -0.941  -0.003  0.00  0.00    -0.317 OA
BRANCH  13  14
ATOM     14  C   UNL d   1       5.239  -1.214  -1.089  0.00  0.00     0.179 C 
BRANCH  14  15
ATOM     15  C   UNL d   1       6.620  -1.569  -0.562  0.00  0.00     0.026 C 
BRANCH  15  16
ATOM     16  C   UNL d   1       7.574  -1.927  -1.702  0.00  0.00    -0.002 C 
ATOM     17  C   UNL d   1       8.968  -2.257  -1.194  0.00  0.00     0.005 C 
ENDBRANCH  15  16
ENDBRANCH  14  15
ENDBRANCH  13  14
ENDBRANCH  11  13
ENDBRANCH   2  11
TORSDOF 5
