REMARK  5 active torsions:
REMARK  status: ('A' for Active; 'I' for Inactive)
REMARK    1  A    between atoms: S_2  and  N_1 
REMARK    2  A    between atoms: C_7  and  S_2 
REMARK    3  A    between atoms: C_18  and  C_6 
REMARK    4  A    between atoms: C_9  and  C_11 
REMARK    5  A    between atoms: C_10  and  C_12 
ROOT
ATOM      1  S   UNL d   1      -0.882  -2.696   0.031  0.00  0.00     0.282 S 
ATOM      2  O   UNL d   1      -0.225  -3.292   1.181  0.00  0.00    -0.198 OA
ATOM      3  O   UNL d   1      -2.327  -2.602  -0.070  0.00  0.00    -0.198 OA
ENDROOT
BRANCH   1   4
ATOM      4  N   UNL d   1      -0.291  -1.072  -0.075  0.00  0.00    -0.187 N 
ATOM      5  N   UNL d   1       1.021  -0.729  -0.143  0.00  0.00    -0.288 N 
ATOM      6  C   UNL d   1       1.014   0.607  -0.081  0.00  0.00     0.035 A 
ATOM      7  HN  UNL d   1       1.827  -1.349  -0.222  1.00  0.00     0.188 HD
ATOM      8  C   UNL d   1       2.311   1.330  -0.004  0.00  0.00     0.070 C 
ATOM      9  C   UNL d   1      -0.312   1.139  -0.065  0.00  0.00     0.016 A 
ATOM     10  C   UNL d   1      -1.123   0.021  -0.073  0.00  0.00     0.143 A 
BRANCH   9  11
ATOM     11  C   UNL d   1      -0.794   2.514   0.014  0.00  0.00    -0.023 A 
ATOM     12  C   UNL d   1      -1.975   2.833   0.700  0.00  0.00     0.012 A 
ATOM     13  C   UNL d   1      -2.383   4.165   0.838  0.00  0.00     0.001 A 
ATOM     14  C   UNL d   1      -1.616   5.193   0.297  0.00  0.00     0.000 A 
ATOM     15  C   UNL d   1      -0.456   4.890  -0.409  0.00  0.00     0.001 A 
ATOM     16  C   UNL d   1      -0.058   3.560  -0.561  0.00  0.00     0.012 A 
ENDBRANCH   9  11
ENDBRANCH   1   4
BRANCH   1  17
ATOM     17  C   UNL d   1      -0.277  -3.510  -1.428  0.00  0.00     0.083 A 
ATOM     18  C   UNL d   1       1.099  -3.572  -1.680  0.00  0.00     0.041 A 
ATOM     19  C   UNL d   1       1.579  -4.259  -2.805  0.00  0.00     0.050 A 
ATOM     20  C   UNL d   1       0.658  -4.897  -3.657  0.00  0.00     0.032 A 
ATOM     21  C   UNL d   1      -0.723  -4.867  -3.394  0.00  0.00     0.050 A 
ATOM     22  C   UNL d   1      -1.184  -4.159  -2.275  0.00  0.00     0.041 A 
BRANCH  19  23
ATOM     23  C   UNL d   1       3.061  -4.345  -3.099  0.00  0.00     0.417 C 
ATOM     24  F   UNL d   1       3.839  -3.715  -2.178  0.00  0.00    -0.166 F 
ATOM     25  F   UNL d   1       3.502  -5.632  -3.147  0.00  0.00    -0.166 F 
ATOM     26  F   UNL d   1       3.380  -3.794  -4.302  0.00  0.00    -0.166 F 
ENDBRANCH  19  23
BRANCH  21  27
ATOM     27  C   UNL d   1      -1.680  -5.616  -4.295  0.00  0.00     0.417 C 
ATOM     28  F   UNL d   1      -2.978  -5.539  -3.892  0.00  0.00    -0.166 F 
ATOM     29  F   UNL d   1      -1.655  -5.155  -5.575  0.00  0.00    -0.166 F 
ATOM     30  F   UNL d   1      -1.387  -6.943  -4.366  0.00  0.00    -0.166 F 
ENDBRANCH  21  27
ENDBRANCH   1  17
TORSDOF 5
