REMARK  5 active torsions:
REMARK  status: ('A' for Active; 'I' for Inactive)
REMARK    1  A    between atoms: S_14  and  C_7 
REMARK    2  A    between atoms: C_13  and  C_17 
REMARK    3  A    between atoms: N_18  and  C_13 
REMARK    4  A    between atoms: C_17  and  S_14 
REMARK    5  A    between atoms: O_19  and  N_15 
ROOT
ATOM      1  C   UNL d   1       8.977  -8.212   0.094  0.00  0.00     0.706 A 
ATOM      2  N   UNL d   1      10.293  -7.727   0.078  0.00  0.00    -0.089 N 
ATOM      3  N   UNL d   1       8.145  -7.188   0.113  0.00  0.00    -0.167 N 
ATOM      4  HN  UNL d   1       7.125  -7.203   0.139  1.00  0.00     0.186 HD
ATOM      5  N   UNL d   1      10.275  -6.377   0.071  0.00  0.00    -0.258 N 
ATOM      6  HN  UNL d   1      11.062  -5.728   0.056  1.00  0.00     0.190 HD
ATOM      7  C   UNL d   1       8.972  -6.106   0.087  0.00  0.00     0.175 A 
ATOM      8  N   UNL d   1       8.707  -9.552   0.075  0.00  0.00    -0.194 N 
ATOM      9  HN  UNL d   1       7.750  -9.906   0.084  1.00  0.00     0.184 HD
ATOM     10  C   UNL d   1      11.391  -8.595   0.059  0.00  0.00     0.050 A 
ATOM     11  C   UNL d   1      11.166  -9.920   0.041  0.00  0.00     0.052 A 
ATOM     12  C   UNL d   1       9.733 -10.357   0.045  0.00  0.00     0.024 A 
ATOM     13  C   UNL d   1      12.777  -8.031   0.056  0.00  0.00     0.071 C 
ATOM     14  C   UNL d   1       9.479 -11.844   0.004  0.00  0.00     0.068 C 
ENDROOT
BRANCH   7  15
ATOM     15  S   UNL d   1       8.444  -4.451  -0.023  0.00  0.00    -0.085 SA
BRANCH  15  16
ATOM     16  C   UNL d   1       6.864  -4.510   0.864  0.00  0.00     0.154 C 
BRANCH  16  17
ATOM     17  C   UNL d   1       6.294  -3.094   0.921  0.00  0.00     0.084 C 
ATOM     18  N   UNL d   1       6.192  -2.512   2.082  0.00  0.00    -0.262 N 
ATOM     19  HN  UNL d   1       6.450  -2.941   2.970  1.00  0.00     0.195 HD
BRANCH  18  20
ATOM     20  O   UNL d   1       5.678  -1.209   1.942  0.00  0.00    -0.289 OA
ATOM     21  H   UNL d   1       5.582  -0.926   2.870  0.00  0.00     0.244 HD
ENDBRANCH  18  20
BRANCH  17  22
ATOM     22  N   UNL d   1       5.920  -2.483  -0.257  0.00  0.00    -0.290 NA
ATOM     23  H   UNL d   1       6.491  -2.719  -1.062  0.00  0.00     0.125 HD
ATOM     24  H   UNL d   1       5.820  -1.481  -0.117  0.00  0.00     0.125 HD
ENDBRANCH  17  22
ENDBRANCH  16  17
ENDBRANCH  15  16
ENDBRANCH   7  15
TORSDOF 5
