REMARK  3 active torsions:
REMARK  status: ('A' for Active; 'I' for Inactive)
REMARK    1  A    between atoms: C_7  and  N_1 
REMARK    2  A    between atoms: O_13  and  C_9 
REMARK    3  A    between atoms: C_18  and  O_13 
ROOT
ATOM      1  N   UNL d   1      -1.182   1.094   0.005  0.00  0.00    -0.220 N 
ATOM      2  N   UNL d   1       0.154   1.491  -0.105  0.00  0.00    -0.294 N 
ATOM      3  HN  UNL d   1       0.502   2.443  -0.222  1.00  0.00     0.187 HD
ATOM      4  C   UNL d   1      -1.355  -0.292   0.157  0.00  0.00     0.281 A 
ATOM      5  C   UNL d   1       0.029  -0.794   0.104  0.00  0.00     0.079 A 
ATOM      6  C   UNL d   1       0.868   0.399  -0.029  0.00  0.00     0.040 A 
ATOM      7  C   UNL d   1       0.353  -2.084   0.155  0.00  0.00     0.153 C 
ATOM      8  O   UNL d   1      -2.347  -0.985   0.290  0.00  0.00    -0.265 OA
ATOM      9  C   UNL d   1       2.360   0.377  -0.051  0.00  0.00     0.071 C 
ENDROOT
BRANCH   1  10
ATOM     10  C   UNL d   1      -2.190   2.091  -0.002  0.00  0.00     0.061 A 
ATOM     11  C   UNL d   1      -3.526   1.789   0.287  0.00  0.00     0.055 A 
ATOM     12  C   UNL d   1      -4.495   2.795   0.292  0.00  0.00     0.036 A 
ATOM     13 CL   UNL d   1      -6.126   2.405   0.683  0.00  0.00    -0.084 Cl
ATOM     14  C   UNL d   1      -4.156   4.112  -0.005  0.00  0.00     0.024 A 
ATOM     15  C   UNL d   1      -2.834   4.428  -0.304  0.00  0.00     0.004 A 
ATOM     16  C   UNL d   1      -1.859   3.426  -0.295  0.00  0.00     0.032 A 
ENDBRANCH   1  10
BRANCH   7  17
ATOM     17  O   UNL d   1       1.637  -2.542   0.050  0.00  0.00    -0.362 OA
BRANCH  17  18
ATOM     18  C   UNL d   1       1.824  -3.798   0.705  0.00  0.00     0.170 C 
ATOM     19  C   UNL d   1       3.276  -4.199   0.531  0.00  0.00     0.034 C 
ENDBRANCH  17  18
ENDBRANCH   7  17
TORSDOF 3
