REMARK  7 active torsions:
REMARK  status: ('A' for Active; 'I' for Inactive)
REMARK    1  A    between atoms: S_10  and  C_3 
REMARK    2  A    between atoms: C_8  and  C_4 
REMARK    3  A    between atoms: O_16  and  C_8 
REMARK    4  A    between atoms: C_14  and  C_9 
REMARK    5  A    between atoms: C_15  and  S_10 
REMARK    6  A    between atoms: C_17  and  C_15 
REMARK    7  A    between atoms: C_20  and  O_16 
ROOT
ATOM      1  C   UNL d   1       0.047  -0.703  -0.048  0.00  0.00     0.041 A 
ATOM      2  C   UNL d   1       0.471   0.684  -0.140  0.00  0.00    -0.018 A 
ATOM      3  C   UNL d   1       1.122  -1.573  -0.053  0.00  0.00     0.057 A 
ATOM      4  C   UNL d   1       1.846   0.817  -0.251  0.00  0.00     0.088 A 
ATOM      5  S   UNL d   1       2.603  -0.716  -0.213  0.00  0.00    -0.076 SA
ATOM      6  C   UNL d   1      -1.377  -1.026   0.084  0.00  0.00     0.162 C 
ATOM      7  C   UNL d   1      -0.528   1.825  -0.085  0.00  0.00     0.051 C 
ATOM      8  C   UNL d   1      -1.908   1.377   0.461  0.00  0.00     0.030 C 
ATOM      9  C   UNL d   1      -2.327   0.098  -0.288  0.00  0.00     0.093 C 
ATOM     10  O   UNL d   1      -1.812  -2.116   0.448  0.00  0.00    -0.292 OA
ENDROOT
BRANCH   3  11
ATOM     11  S   UNL d   1       1.195  -3.322   0.157  0.00  0.00    -0.117 SA
BRANCH  11  12
ATOM     12  C   UNL d   1       0.047  -3.966  -1.091  0.00  0.00     0.118 C 
BRANCH  12  13
ATOM     13  C   UNL d   1       0.035  -5.477  -1.117  0.00  0.00    -0.049 A 
ATOM     14  C   UNL d   1      -0.639  -6.199  -0.118  0.00  0.00     0.008 A 
ATOM     15  C   UNL d   1      -0.679  -7.593  -0.153  0.00  0.00     0.001 A 
ATOM     16  C   UNL d   1      -0.047  -8.279  -1.187  0.00  0.00     0.000 A 
ATOM     17  C   UNL d   1       0.632  -7.574  -2.180  0.00  0.00     0.001 A 
ATOM     18  C   UNL d   1       0.676  -6.179  -2.145  0.00  0.00     0.008 A 
ENDBRANCH  12  13
ENDBRANCH  11  12
ENDBRANCH   3  11
BRANCH   4  19
ATOM     19  C   UNL d   1       2.602   2.053  -0.404  0.00  0.00     0.300 C 
ATOM     20  O   UNL d   1       2.097   3.165  -0.535  0.00  0.00    -0.259 OA
BRANCH  19  21
ATOM     21  O   UNL d   1       3.947   1.825  -0.445  0.00  0.00    -0.317 OA
BRANCH  21  22
ATOM     22  C   UNL d   1       4.750   2.928  -0.892  0.00  0.00     0.174 C 
ATOM     23  C   UNL d   1       4.819   2.885  -2.407  0.00  0.00     0.034 C 
ENDBRANCH  21  22
ENDBRANCH  19  21
ENDBRANCH   4  19
BRANCH   8  24
ATOM     24  C   UNL d   1      -2.010   1.170   1.975  0.00  0.00    -0.053 A 
ATOM     25  C   UNL d   1      -0.909   1.256   2.842  0.00  0.00     0.007 A 
ATOM     26  C   UNL d   1      -1.043   0.978   4.204  0.00  0.00     0.001 A 
ATOM     27  C   UNL d   1      -2.280   0.616   4.728  0.00  0.00     0.000 A 
ATOM     28  C   UNL d   1      -3.387   0.541   3.891  0.00  0.00     0.001 A 
ATOM     29  C   UNL d   1      -3.255   0.824   2.530  0.00  0.00     0.007 A 
ENDBRANCH   8  24
TORSDOF 7
