REMARK  4 active torsions:
REMARK  status: ('A' for Active; 'I' for Inactive)
REMARK    1  A    between atoms: O_6  and  S_1 
REMARK    2  A    between atoms: C_10  and  S_1 
REMARK    3  A    between atoms: C_2  and  C_7 
REMARK    4  A    between atoms: C_7  and  O_6 
ROOT
ATOM      1  C   UNL d   1       1.004  -1.448   2.040  0.00  0.00     0.206 C 
ATOM      2  C   UNL d   1       0.401  -1.758   3.410  0.00  0.00     0.049 C 
ENDROOT
BRANCH   1   3
ATOM      3  C   UNL d   1       2.500  -1.475   2.168  0.00  0.00     0.113 A 
ATOM      4  N   UNL d   1       3.261  -2.555   2.164  0.00  0.00    -0.342 N 
ATOM      5  C   UNL d   1       4.514  -2.131   2.535  0.00  0.00     0.060 A 
ATOM      6  HN  UNL d   1       2.976  -3.507   1.933  1.00  0.00     0.167 HD
ATOM      7  C   UNL d   1       5.683  -2.872   2.762  0.00  0.00     0.032 A 
ATOM      8  C   UNL d   1       4.534  -0.753   2.724  0.00  0.00     0.060 A 
ATOM      9  C   UNL d   1       6.836  -2.196   3.181  0.00  0.00     0.002 A 
ATOM     10  C   UNL d   1       6.828  -0.810   3.358  0.00  0.00     0.002 A 
ATOM     11  C   UNL d   1       5.672  -0.053   3.128  0.00  0.00     0.032 A 
ATOM     12  N   UNL d   1       3.251  -0.358   2.452  0.00  0.00    -0.342 N 
ATOM     13  H   UNL d   1       2.889   0.581   2.526  0.00  0.00     0.167 HD
ENDBRANCH   1   3
BRANCH   1  14
ATOM     14  O   UNL d   1       0.634  -0.147   1.593  0.00  0.00    -0.259 OA
BRANCH  14  15
ATOM     15  S   UNL d   1      -0.915   0.075   1.127  0.00  0.00     0.298 S 
ATOM     16  O   UNL d   1      -1.732   0.098   2.325  0.00  0.00    -0.193 OA
ATOM     17  O   UNL d   1      -1.205  -0.814   0.025  0.00  0.00    -0.193 OA
BRANCH  15  18
ATOM     18  C   UNL d   1      -0.945   1.730   0.476  0.00  0.00     0.086 A 
ATOM     19  C   UNL d   1       0.131   2.203  -0.279  0.00  0.00     0.027 A 
ATOM     20  C   UNL d   1       0.123   3.530  -0.719  0.00  0.00     0.025 A 
ATOM     21  C   UNL d   1      -0.951   4.365  -0.400  0.00  0.00     0.034 A 
ATOM     22  C   UNL d   1      -2.028   3.885   0.345  0.00  0.00     0.025 A 
ATOM     23 CL   UNL d   1      -0.939   6.005  -0.919  0.00  0.00    -0.084 Cl
ATOM     24  C   UNL d   1      -2.027   2.562   0.787  0.00  0.00     0.027 A 
ENDBRANCH  15  18
ENDBRANCH  14  15
ENDBRANCH   1  14
TORSDOF 4
