REMARK  4 active torsions:
REMARK  status: ('A' for Active; 'I' for Inactive)
REMARK    1  A    between atoms: C_2  and  N_1 
REMARK    2  A    between atoms: C_14  and  C_10 
REMARK    3  A    between atoms: C_17  and  C_14 
REMARK    4  A    between atoms: O_18  and  N_15 
ROOT
ATOM      1  N   UNL d   1       1.915  -7.564  -0.032  0.00  0.00    -0.232 N 
ATOM      2  N   UNL d   1       2.809  -6.562   0.194  0.00  0.00    -0.279 N 
ATOM      3  HN  UNL d   1       3.797  -6.631   0.441  1.00  0.00     0.189 HD
ATOM      4  N   UNL d   1       0.744  -5.700  -0.258  0.00  0.00    -0.339 N 
ATOM      5  HN  UNL d   1      -0.005  -5.023  -0.407  1.00  0.00     0.168 HD
ATOM      6  C   UNL d   1       2.066  -5.465   0.009  0.00  0.00     0.102 A 
ATOM      7  C   UNL d   1       0.679  -7.011  -0.276  0.00  0.00     0.210 A 
ENDROOT
BRANCH   1   8
ATOM      8  C   UNL d   1       2.253  -8.938  -0.039  0.00  0.00     0.150 A 
ATOM      9  N   UNL d   1       1.324  -9.850  -0.345  0.00  0.00    -0.243 N 
ATOM     10  O   UNL d   1       1.996 -11.066  -0.308  0.00  0.00    -0.241 OA
ATOM     11  HN  UNL d   1       0.339  -9.689  -0.558  1.00  0.00     0.196 HD
ATOM     12  C   UNL d   1       3.300 -10.854   0.030  0.00  0.00     0.076 A 
ATOM     13  C   UNL d   1       3.512  -9.509   0.219  0.00  0.00     0.086 A 
ATOM     14  C   UNL d   1       4.158 -12.049   0.101  0.00  0.00     0.079 C 
ENDBRANCH   1   8
BRANCH   6  15
ATOM     15  C   UNL d   1       2.611  -4.088   0.090  0.00  0.00     0.132 C 
BRANCH  15  16
ATOM     16  C   UNL d   1       3.160  -3.629  -1.249  0.00  0.00     0.013 C 
ATOM     17  N   UNL d   1       4.410  -3.264  -1.297  0.00  0.00    -0.277 N 
ATOM     18  HN  UNL d   1       5.042  -3.290  -0.497  1.00  0.00     0.193 HD
ATOM     19  C   UNL d   1       2.200  -3.576  -2.421  0.00  0.00     0.066 C 
BRANCH  17  20
ATOM     20  O   UNL d   1       4.787  -2.834  -2.570  0.00  0.00    -0.290 OA
ATOM     21  H   UNL d   1       5.721  -2.585  -2.442  0.00  0.00     0.244 HD
ENDBRANCH  17  20
ENDBRANCH  15  16
ENDBRANCH   6  15
TORSDOF 4
