REMARK  5 active torsions:
REMARK  status: ('A' for Active; 'I' for Inactive)
REMARK    1  A    between atoms: C_6  and  C_1 
REMARK    2  A    between atoms: C_11  and  C_2 
REMARK    3  A    between atoms: C_9  and  C_20 
REMARK       I    between atoms: N_17  and  C_11 
REMARK    4  A    between atoms: C_21  and  N_17 
REMARK    5  A    between atoms: C_20  and  C_21 
ROOT
ATOM      1  C   UNL d   1      -1.347  -0.790   0.198  0.00  0.00     0.086 A 
ATOM      2  C   UNL d   1      -0.020  -1.267  -0.067  0.00  0.00     0.092 A 
ATOM      3  N   UNL d   1      -1.303   0.512   0.526  0.00  0.00    -0.259 N 
ATOM      4  HN  UNL d   1      -2.093   1.095   0.802  1.00  0.00     0.195 HD
ATOM      5  O   UNL d   1       0.007   0.908   0.420  0.00  0.00    -0.241 OA
ATOM      6  C   UNL d   1       0.786  -0.151   0.084  0.00  0.00     0.090 A 
ATOM      7  C   UNL d   1       2.223   0.150  -0.066  0.00  0.00     0.080 C 
ENDROOT
BRANCH   2   8
ATOM      8  C   UNL d   1       0.386  -2.600  -0.446  0.00  0.00     0.256 C 
ATOM      9  O   UNL d   1      -0.307  -3.289  -1.185  0.00  0.00    -0.267 OA
ATOM     10  N   UNL d   1       1.543  -3.059   0.165  0.00  0.00    -0.357 N 
ATOM     11  H   UNL d   1       1.874  -2.529   0.964  0.00  0.00     0.162 HD
BRANCH  10  12
ATOM     12  C   UNL d   1       1.929  -4.457   0.099  0.00  0.00     0.123 C 
BRANCH  12  13
ATOM     13  C   UNL d   1       2.205  -4.933  -1.328  0.00  0.00     0.027 C 
BRANCH  13  14
ATOM     14  C   UNL d   1       2.581  -6.385  -1.402  0.00  0.00     0.029 A 
ATOM     15  C   UNL d   1       2.779  -7.053  -2.746  0.00  0.00     0.117 A 
ATOM     16 CL   UNL d   1       4.071  -8.242  -2.875  0.00  0.00    -0.101 Cl
ATOM     17 CL   UNL d   1       2.507  -6.159  -4.233  0.00  0.00    -0.101 Cl
ATOM     18  C   UNL d   1       1.584  -7.402  -1.900  0.00  0.00     0.050 A 
ENDBRANCH  13  14
ENDBRANCH  12  13
ENDBRANCH  10  12
ENDBRANCH   2   8
BRANCH   1  19
ATOM     19  C   UNL d   1      -2.631  -1.517   0.201  0.00  0.00     0.037 A 
ATOM     20  C   UNL d   1      -2.787  -2.759   0.856  0.00  0.00     0.048 A 
ATOM     21 CL   UNL d   1      -1.565  -3.480   1.857  0.00  0.00    -0.083 Cl
ATOM     22  C   UNL d   1      -4.006  -3.457   0.820  0.00  0.00     0.025 A 
ATOM     23  C   UNL d   1      -5.122  -2.897   0.213  0.00  0.00     0.003 A 
ATOM     24  C   UNL d   1      -5.013  -1.649  -0.387  0.00  0.00     0.025 A 
ATOM     25  C   UNL d   1      -3.780  -0.976  -0.421  0.00  0.00     0.048 A 
ATOM     26 CL   UNL d   1      -3.786   0.528  -1.287  0.00  0.00    -0.083 Cl
ENDBRANCH   1  19
TORSDOF 5
