REMARK  3 active torsions:
REMARK  status: ('A' for Active; 'I' for Inactive)
REMARK       I    between atoms: N_2  and  C_1 
REMARK    1  A    between atoms: C_5  and  C_1 
REMARK    2  A    between atoms: C_4  and  N_2 
REMARK    3  A    between atoms: C_6  and  C_5 
ROOT
ATOM      1  C   UNL d   1       0.956   0.015   0.135  0.00  0.00     0.218 C 
ATOM      2  N   UNL d   1       0.266  -1.184   0.074  0.00  0.00    -0.353 N 
ATOM      3  O   UNL d   1       0.431   1.107   0.279  0.00  0.00    -0.274 OA
ATOM      4  H   UNL d   1       0.812  -2.003  -0.150  0.00  0.00     0.163 HD
ENDROOT
BRANCH   1   5
ATOM      5  C   UNL d   1       2.462  -0.190  -0.046  0.00  0.00     0.111 C 
BRANCH   5   6
ATOM      6  C   UNL d   1       3.392   1.045   0.093  0.00  0.00    -0.043 C 
ATOM      7  C   UNL d   1       3.280   1.652   1.511  0.00  0.00     0.015 C 
ATOM      8  C   UNL d   1       4.849   0.570  -0.177  0.00  0.00     0.015 C 
ATOM      9  C   UNL d   1       3.054   2.122  -0.958  0.00  0.00     0.015 C 
ENDBRANCH   5   6
ENDBRANCH   1   5
BRANCH   2  10
ATOM     10  C   UNL d   1      -1.199  -1.314  -0.034  0.00  0.00     0.022 C 
ATOM     11  C   UNL d   1      -1.697  -0.642  -1.327  0.00  0.00     0.037 C 
ATOM     12  C   UNL d   1      -1.547  -2.819  -0.082  0.00  0.00     0.037 C 
ATOM     13  C   UNL d   1      -1.916  -0.704   1.182  0.00  0.00     0.037 C 
ENDBRANCH   2  10
TORSDOF 3
