REMARK  3 active torsions:
REMARK  status: ('A' for Active; 'I' for Inactive)
REMARK    1  A    between atoms: C_2  and  C_1 
REMARK    2  A    between atoms: C_19  and  C_10 
REMARK    3  A    between atoms: C_11  and  N_14 
ROOT
ATOM      1  C   UNL d   1      -1.353   2.339   0.011  0.00  0.00     0.077 A 
ATOM      2  N   UNL d   1      -2.275   2.578   1.003  0.00  0.00    -0.334 N 
ATOM      3  HN  UNL d   1      -2.498   1.926   1.755  1.00  0.00     0.168 HD
ATOM      4  C   UNL d   1      -2.828   3.758   0.851  0.00  0.00     0.149 A 
ATOM      5  S   UNL d   1      -2.175   4.688  -0.451  0.00  0.00    -0.063 SA
ATOM      6  C   UNL d   1      -1.181   3.365  -0.893  0.00  0.00     0.085 A 
ATOM      7  N   UNL d   1      -3.843   4.262   1.587  0.00  0.00    -0.336 N 
ATOM      8  H   UNL d   1      -4.195   5.172   1.318  0.00  0.00     0.168 HD
ENDROOT
BRANCH   1   9
ATOM      9  C   UNL d   1      -0.625   1.041  -0.039  0.00  0.00     0.128 A 
ATOM     10  C   UNL d   1       0.360   0.662  -0.916  0.00  0.00     0.074 A 
ATOM     11  C   UNL d   1       0.779  -0.622  -0.483  0.00  0.00     0.068 A 
ATOM     12  N   UNL d   1       0.037  -1.019   0.564  0.00  0.00    -0.260 N 
ATOM     13  O   UNL d   1      -0.831   0.019   0.838  0.00  0.00    -0.235 OA
ATOM     14  HN  UNL d   1       0.102  -1.909   1.057  1.00  0.00     0.195 HD
BRANCH  11  15
ATOM     15  C   UNL d   1       1.872  -1.435  -1.009  0.00  0.00    -0.007 A 
ATOM     16  C   UNL d   1       2.534  -2.348  -0.176  0.00  0.00     0.014 A 
ATOM     17  C   UNL d   1       3.625  -3.080  -0.648  0.00  0.00     0.001 A 
ATOM     18  C   UNL d   1       4.058  -2.915  -1.962  0.00  0.00     0.000 A 
ATOM     19  C   UNL d   1       3.398  -2.025  -2.806  0.00  0.00     0.001 A 
ATOM     20  C   UNL d   1       2.307  -1.289  -2.334  0.00  0.00     0.014 A 
ENDBRANCH  11  15
ENDBRANCH   1   9
BRANCH   7  21
ATOM     21  C   UNL d   1      -4.833   3.508   2.262  0.00  0.00     0.046 A 
ATOM     22  C   UNL d   1      -5.276   3.987   3.526  0.00  0.00    -0.034 A 
ATOM     23  C   UNL d   1      -6.330   3.344   4.199  0.00  0.00     0.015 A 
ATOM     24  C   UNL d   1      -4.648   5.172   4.215  0.00  0.00     0.050 C 
ATOM     25  C   UNL d   1      -6.968   2.236   3.648  0.00  0.00    -0.061 A 
ATOM     26  C   UNL d   1      -6.535   1.762   2.410  0.00  0.00     0.015 A 
ATOM     27  C   UNL d   1      -8.105   1.579   4.365  0.00  0.00     0.048 C 
ATOM     28  C   UNL d   1      -5.492   2.390   1.695  0.00  0.00    -0.034 A 
ATOM     29  C   UNL d   1      -5.210   1.788   0.342  0.00  0.00     0.050 C 
ENDBRANCH   7  21
TORSDOF 3
