REMARK  24 active torsions:
REMARK  status: ('A' for Active; 'I' for Inactive)
REMARK    1  A    between atoms: N_14  and  C_7 
REMARK    2  A    between atoms: N_13  and  C_8 
REMARK    3  A    between atoms: C_18  and  N_13 
REMARK    4  A    between atoms: C_17  and  N_14 
REMARK    5  A    between atoms: C_20  and  C_17 
REMARK    6  A    between atoms: C_19  and  C_18 
REMARK    7  A    between atoms: C_35  and  C_19 
REMARK    8  A    between atoms: C_36  and  C_20 
REMARK    9  A    between atoms: C_21  and  C_23 
REMARK   10  A    between atoms: C_22  and  C_24 
REMARK   11  A    between atoms: C_23  and  C_33 
REMARK   12  A    between atoms: C_24  and  C_34 
REMARK   13  A    between atoms: C_25  and  C_37 
REMARK   14  A    between atoms: C_27  and  C_25 
REMARK   15  A    between atoms: C_26  and  C_38 
REMARK   16  A    between atoms: C_28  and  C_26 
REMARK   17  A    between atoms: C_29  and  C_27 
REMARK   18  A    between atoms: C_30  and  C_28 
REMARK   19  A    between atoms: C_31  and  C_29 
REMARK   20  A    between atoms: C_32  and  C_30 
REMARK   21  A    between atoms: C_33  and  C_31 
REMARK   22  A    between atoms: C_34  and  C_32 
REMARK   23  A    between atoms: C_37  and  C_35 
REMARK   24  A    between atoms: C_38  and  C_36 
ROOT
ATOM      1  C   UNL d   1       1.201  -0.714   0.017  0.00  0.00     0.058 A 
ATOM      2  C   UNL d   1       1.236   0.709   0.030  0.00  0.00     0.058 A 
ATOM      3  C   UNL d   1      -0.146  -1.365   0.063  0.00  0.00     0.196 C 
ATOM      4  C   UNL d   1      -0.046   1.506   0.033  0.00  0.00     0.196 C 
ATOM      5  C   UNL d   1      -1.378  -0.574   0.173  0.00  0.00     0.029 A 
ATOM      6  C   UNL d   1      -1.341   0.794   0.034  0.00  0.00     0.029 A 
ATOM      7  C   UNL d   1       2.468   1.421   0.015  0.00  0.00     0.043 A 
ATOM      8  C   UNL d   1       2.425  -1.448  -0.037  0.00  0.00     0.043 A 
ATOM      9  O   UNL d   1      -0.323  -2.573  -0.082  0.00  0.00    -0.286 OA
ATOM     10  O   UNL d   1      -0.066   2.708   0.053  0.00  0.00    -0.286 OA
ATOM     11  C   UNL d   1       3.620  -0.701  -0.078  0.00  0.00     0.032 A 
ATOM     12  C   UNL d   1       3.645   0.684  -0.062  0.00  0.00     0.032 A 
ATOM     13  C   UNL d   1      -2.604  -1.263   0.236  0.00  0.00     0.016 A 
ATOM     14  C   UNL d   1      -2.546   1.484  -0.141  0.00  0.00     0.016 A 
ATOM     15  C   UNL d   1      -3.797  -0.591   0.039  0.00  0.00     0.001 A 
ATOM     16  C   UNL d   1      -3.763   0.785  -0.173  0.00  0.00     0.001 A 
ENDROOT
BRANCH   7  17
ATOM     17  N   UNL d   1       2.531   2.807   0.051  0.00  0.00    -0.389 N 
ATOM     18  H   UNL d   1       1.707   3.288   0.419  0.00  0.00     0.159 HD
BRANCH  17  19
ATOM     19  C   UNL d   1       3.564   3.588  -0.593  0.00  0.00     0.119 C 
BRANCH  19  20
ATOM     20  C   UNL d   1       3.318   5.078  -0.391  0.00  0.00     0.020 C 
BRANCH  20  21
ATOM     21  C   UNL d   1       4.433   5.875  -1.059  0.00  0.00     0.002 C 
BRANCH  21  22
ATOM     22  C   UNL d   1       4.217   7.366  -0.866  0.00  0.00     0.000 C 
BRANCH  22  23
ATOM     23  C   UNL d   1       5.333   8.149  -1.538  0.00  0.00     0.000 C 
BRANCH  23  24
ATOM     24  C   UNL d   1       5.113   9.639  -1.341  0.00  0.00     0.000 C 
BRANCH  24  25
ATOM     25  C   UNL d   1       6.226  10.425  -2.011  0.00  0.00     0.000 C 
BRANCH  25  26
ATOM     26  C   UNL d   1       6.004  11.915  -1.814  0.00  0.00     0.000 C 
BRANCH  26  27
ATOM     27  C   UNL d   1       7.118  12.703  -2.484  0.00  0.00     0.000 C 
BRANCH  27  28
ATOM     28  C   UNL d   1       6.897  14.195  -2.287  0.00  0.00    -0.000 C 
BRANCH  28  29
ATOM     29  C   UNL d   1       8.009  14.992  -2.954  0.00  0.00    -0.005 C 
ATOM     30  C   UNL d   1       7.787  16.479  -2.758  0.00  0.00     0.005 C 
ENDBRANCH  28  29
ENDBRANCH  27  28
ENDBRANCH  26  27
ENDBRANCH  25  26
ENDBRANCH  24  25
ENDBRANCH  23  24
ENDBRANCH  22  23
ENDBRANCH  21  22
ENDBRANCH  20  21
ENDBRANCH  19  20
ENDBRANCH  17  19
ENDBRANCH   7  17
BRANCH   8  31
ATOM     31  N   UNL d   1       2.561  -2.844   0.034  0.00  0.00    -0.389 N 
ATOM     32  H   UNL d   1       1.779  -3.458  -0.156  0.00  0.00     0.159 HD
BRANCH  31  33
ATOM     33  C   UNL d   1       3.814  -3.394   0.540  0.00  0.00     0.119 C 
BRANCH  33  34
ATOM     34  C   UNL d   1       3.750  -4.749   1.189  0.00  0.00     0.020 C 
BRANCH  34  35
ATOM     35  C   UNL d   1       5.165  -5.085   1.691  0.00  0.00     0.002 C 
BRANCH  35  36
ATOM     36  C   UNL d   1       5.133  -6.446   2.345  0.00  0.00     0.000 C 
BRANCH  36  37
ATOM     37  C   UNL d   1       6.497  -6.850   2.868  0.00  0.00     0.000 C 
BRANCH  37  38
ATOM     38  C   UNL d   1       6.388  -8.223   3.507  0.00  0.00     0.000 C 
BRANCH  38  39
ATOM     39  C   UNL d   1       7.738  -8.658   4.044  0.00  0.00     0.000 C 
BRANCH  39  40
ATOM     40  C   UNL d   1       7.623 -10.030   4.683  0.00  0.00     0.000 C 
BRANCH  40  41
ATOM     41  C   UNL d   1       8.976 -10.467   5.220  0.00  0.00     0.000 C 
BRANCH  41  42
ATOM     42  C   UNL d   1       8.864 -11.841   5.862  0.00  0.00    -0.000 C 
BRANCH  42  43
ATOM     43  C   UNL d   1      10.215 -12.287   6.404  0.00  0.00    -0.005 C 
ATOM     44  C   UNL d   1      10.103 -13.657   7.044  0.00  0.00     0.005 C 
ENDBRANCH  42  43
ENDBRANCH  41  42
ENDBRANCH  40  41
ENDBRANCH  39  40
ENDBRANCH  38  39
ENDBRANCH  37  38
ENDBRANCH  36  37
ENDBRANCH  35  36
ENDBRANCH  34  35
ENDBRANCH  33  34
ENDBRANCH  31  33
ENDBRANCH   8  31
TORSDOF 24
