REMARK  3 active torsions:
REMARK  status: ('A' for Active; 'I' for Inactive)
REMARK    1  A    between atoms: N_2  and  C_1 
REMARK       I    between atoms: C_5  and  N_8 
REMARK       I    between atoms: N_9  and  C_5 
REMARK    2  A    between atoms: N_8  and  C_6 
REMARK    3  A    between atoms: C_13  and  N_9 
ROOT
ATOM      1  C   UNL d   1       3.658  -0.974  -0.201  0.00  0.00     0.325 C 
ATOM      2  N   UNL d   1       2.359  -1.353  -0.378  0.00  0.00    -0.308 N 
ATOM      3  N   UNL d   1       3.926   0.361  -0.104  0.00  0.00    -0.309 N 
ATOM      4  O   UNL d   1       4.496  -1.874  -0.203  0.00  0.00    -0.247 OA
ATOM      5  H   UNL d   1       2.315  -2.338  -0.617  0.00  0.00     0.170 HD
ATOM      6  H   UNL d   1       3.198   0.977  -0.431  0.00  0.00     0.170 HD
ENDROOT
BRANCH   2   7
ATOM      7  C   UNL d   1       1.141  -0.726  -0.169  0.00  0.00     0.045 A 
ATOM      8  C   UNL d   1       0.837   0.516   0.473  0.00  0.00     0.074 A 
ATOM      9  C   UNL d   1      -0.527   0.742   0.536  0.00  0.00     0.145 A 
ATOM     10  S   UNL d   1      -1.437  -0.488  -0.194  0.00  0.00    -0.076 SA
ATOM     11  C   UNL d   1      -0.020  -1.370  -0.561  0.00  0.00     0.081 A 
BRANCH   9  12
ATOM     12  N   UNL d   1      -1.189   1.867   1.147  0.00  0.00    -0.108 N 
ATOM     13  O   UNL d   1      -0.449   2.735   1.631  0.00  0.00    -0.531 OA
ATOM     14  O   UNL d   1      -2.425   1.896   1.150  0.00  0.00    -0.531 OA
ENDBRANCH   9  12
ENDBRANCH   2   7
BRANCH   3  15
ATOM     15  C   UNL d   1       5.183   0.959   0.157  0.00  0.00     0.037 A 
ATOM     16  C   UNL d   1       6.325   0.243   0.530  0.00  0.00     0.053 A 
ATOM     17  C   UNL d   1       7.518   0.915   0.811  0.00  0.00     0.036 A 
ATOM     18 CL   UNL d   1       8.913   0.021   1.282  0.00  0.00    -0.084 Cl
ATOM     19  C   UNL d   1       7.590   2.302   0.725  0.00  0.00     0.024 A 
ATOM     20  C   UNL d   1       6.463   3.024   0.342  0.00  0.00     0.004 A 
ATOM     21  C   UNL d   1       5.267   2.355   0.058  0.00  0.00     0.029 A 
ENDBRANCH   3  15
TORSDOF 3
