REMARK  5 active torsions:
REMARK  status: ('A' for Active; 'I' for Inactive)
REMARK    1  A    between atoms: C_9  and  C_1 
REMARK    2  A    between atoms: C_10  and  C_4 
REMARK    3  A    between atoms: N_6  and  C_5 
REMARK       I    between atoms: N_19  and  C_9 
REMARK    4  A    between atoms: C_13  and  C_24 
REMARK    5  A    between atoms: N_16  and  N_19 
ROOT
ATOM      1  C   UNL d   1       0.479  -1.021  -0.125  0.00  0.00     0.241 A 
ATOM      2  N   UNL d   1      -0.799  -0.692  -0.074  0.00  0.00    -0.313 N 
ATOM      3  HN  UNL d   1      -1.613  -1.292   0.062  1.00  0.00     0.170 HD
ATOM      4  C   UNL d   1      -0.745   0.673  -0.255  0.00  0.00     0.162 A 
ATOM      5  N   UNL d   1       0.492   1.173  -0.392  0.00  0.00    -0.240 N 
ATOM      6  HN  UNL d   1       0.768   2.145  -0.531  1.00  0.00     0.196 HD
ATOM      7  O   UNL d   1       1.308   0.049  -0.300  0.00  0.00    -0.212 OA
ENDROOT
BRANCH   1   8
ATOM      8  C   UNL d   1       1.067  -2.341  -0.057  0.00  0.00     0.313 C 
ATOM      9  N   UNL d   1       0.133  -3.372   0.063  0.00  0.00    -0.263 N 
ATOM     10  H   UNL d   1      -0.859  -3.156   0.111  0.00  0.00     0.190 HD
ATOM     11  O   UNL d   1       2.282  -2.531  -0.114  0.00  0.00    -0.262 OA
BRANCH   9  12
ATOM     12  N   UNL d   1       0.576  -4.658   0.089  0.00  0.00    -0.308 N 
ATOM     13  C   UNL d   1      -0.305  -5.597   0.211  0.00  0.00     0.122 C 
ATOM     14  HN  UNL d   1       1.570  -4.875   0.015  1.00  0.00     0.186 HD
BRANCH  13  15
ATOM     15  C   UNL d   1       0.097  -7.025   0.236  0.00  0.00     0.024 A 
ATOM     16  C   UNL d   1       1.316  -7.453   0.793  0.00  0.00     0.047 A 
ATOM     17 CL   UNL d   1       2.411  -6.414   1.640  0.00  0.00    -0.083 Cl
ATOM     18  C   UNL d   1       1.679  -8.806   0.745  0.00  0.00     0.025 A 
ATOM     19  C   UNL d   1       0.834  -9.746   0.163  0.00  0.00     0.003 A 
ATOM     20  C   UNL d   1      -0.386  -9.337  -0.367  0.00  0.00     0.025 A 
ATOM     21  C   UNL d   1      -0.756  -7.985  -0.333  0.00  0.00     0.047 A 
ATOM     22 CL   UNL d   1      -2.279  -7.580  -1.048  0.00  0.00    -0.083 Cl
ENDBRANCH  13  15
ENDBRANCH   9  12
ENDBRANCH   1   8
BRANCH   4  23
ATOM     23  C   UNL d   1      -1.959   1.540  -0.316  0.00  0.00     0.123 A 
ATOM     24  O   UNL d   1      -3.245   1.103  -0.128  0.00  0.00    -0.285 OA
ATOM     25  C   UNL d   1      -4.045   2.194  -0.268  0.00  0.00     0.215 A 
ATOM     26  C   UNL d   1      -3.321   3.325  -0.556  0.00  0.00     0.066 A 
ATOM     27  C   UNL d   1      -1.968   2.902  -0.580  0.00  0.00     0.046 A 
BRANCH  25  28
ATOM     28  N   UNL d   1      -5.448   1.986  -0.097  0.00  0.00    -0.090 N 
ATOM     29  O   UNL d   1      -6.167   2.988  -0.214  0.00  0.00    -0.530 OA
ATOM     30  O   UNL d   1      -5.838   0.839   0.154  0.00  0.00    -0.530 OA
ENDBRANCH  25  28
ENDBRANCH   4  23
TORSDOF 5
