REMARK  12 active torsions:
REMARK  status: ('A' for Active; 'I' for Inactive)
REMARK    1  A    between atoms: C_3  and  C_1 
REMARK    2  A    between atoms: C_6  and  C_1 
REMARK    3  A    between atoms: C_2  and  C_9 
REMARK    4  A    between atoms: O_10  and  C_2 
REMARK    5  A    between atoms: C_9  and  C_6 
REMARK    6  A    between atoms: C_14  and  C_13 
REMARK    7  A    between atoms: C_15  and  C_14 
REMARK    8  A    between atoms: C_19  and  C_15 
REMARK    9  A    between atoms: C_16  and  C_17 
REMARK   10  A    between atoms: C_17  and  C_18 
REMARK   11  A    between atoms: C_18  and  C_20 
REMARK   12  A    between atoms: C_20  and  C_19 
ROOT
ATOM      1  C   UNL d   1       0.332  -0.972   0.793  0.00  0.00     0.010 A 
ATOM      2  C   UNL d   1      -1.006  -0.771   1.159  0.00  0.00     0.015 A 
ATOM      3  C   UNL d   1       0.894  -2.245   0.921  0.00  0.00     0.015 A 
ATOM      4  C   UNL d   1       0.133  -3.301   1.426  0.00  0.00     0.008 A 
ATOM      5  C   UNL d   1      -1.761  -1.828   1.675  0.00  0.00     0.008 A 
ATOM      6  C   UNL d   1      -1.190  -3.100   1.837  0.00  0.00    -0.058 A 
ENDROOT
BRANCH   1   7
ATOM      7  C   UNL d   1       1.157   0.189   0.361  0.00  0.00     0.160 C 
ATOM      8  O   UNL d   1       0.904   1.314   0.799  0.00  0.00    -0.292 OA
BRANCH   7   9
ATOM      9  C   UNL d   1       2.330  -0.027  -0.580  0.00  0.00     0.094 C 
BRANCH   9  10
ATOM     10  C   UNL d   1       3.414   1.033  -0.406  0.00  0.00     0.117 C 
BRANCH  10  11
ATOM     11  C   UNL d   1       4.066   0.984   0.954  0.00  0.00     0.139 C 
ATOM     12  O   UNL d   1       5.208   0.584   1.135  0.00  0.00    -0.650 OA
BRANCH  11  13
ATOM     13  O   UNL d   1       3.285   1.417   1.962  0.00  0.00    -0.776 OA
ATOM     14  H   UNL d   1       2.383   1.711   1.686  0.00  0.00     0.167 HD
ENDBRANCH  11  13
ENDBRANCH  10  11
ENDBRANCH   9  10
ENDBRANCH   7   9
ENDBRANCH   1   7
BRANCH   6  15
ATOM     15  C   UNL d   1      -1.966  -4.229   2.468  0.00  0.00     0.038 C 
BRANCH  15  16
ATOM     16  C   UNL d   1      -1.295  -4.824   3.714  0.00  0.00     0.005 C 
BRANCH  16  17
ATOM     17  C   UNL d   1      -1.144  -3.820   4.861  0.00  0.00     0.000 C 
BRANCH  17  18
ATOM     18  C   UNL d   1      -0.472  -4.480   6.065  0.00  0.00     0.000 C 
BRANCH  18  19
ATOM     19  C   UNL d   1      -0.301  -3.496   7.220  0.00  0.00     0.000 C 
BRANCH  19  20
ATOM     20  C   UNL d   1       0.372  -4.171   8.414  0.00  0.00    -0.000 C 
BRANCH  20  21
ATOM     21  C   UNL d   1       0.544  -3.194   9.575  0.00  0.00    -0.005 C 
ATOM     22  C   UNL d   1       1.212  -3.861  10.765  0.00  0.00     0.005 C 
ENDBRANCH  20  21
ENDBRANCH  19  20
ENDBRANCH  18  19
ENDBRANCH  17  18
ENDBRANCH  16  17
ENDBRANCH  15  16
ENDBRANCH   6  15
TORSDOF 12
