REMARK  4 active torsions:
REMARK  status: ('A' for Active; 'I' for Inactive)
REMARK    1  A    between atoms: S_4  and  C_1 
REMARK    2  A    between atoms: C_11  and  N_2 
REMARK    3  A    between atoms: N_3  and  C_9 
REMARK    4  A    between atoms: C_12  and  S_4 
ROOT
ATOM      1  C   UNL d   1       1.249  -0.861  -0.026  0.00  0.00     0.169 A 
ATOM      2  N   UNL d   1      -0.106  -1.123  -0.001  0.00  0.00    -0.312 N 
ATOM      3  N   UNL d   1       1.453   0.439  -0.025  0.00  0.00    -0.278 N 
ATOM      4  HN  UNL d   1       2.360   0.902  -0.082  1.00  0.00     0.189 HD
ATOM      5  N   UNL d   1       0.240   1.061   0.065  0.00  0.00    -0.294 N 
ATOM      6  HN  UNL d   1       0.079   2.067   0.095  1.00  0.00     0.187 HD
ATOM      7  C   UNL d   1      -0.676   0.129   0.106  0.00  0.00     0.202 A 
ENDROOT
BRANCH   1   8
ATOM      8  S   UNL d   1       2.498  -2.050  -0.114  0.00  0.00    -0.035 SA
BRANCH   8   9
ATOM      9  C   UNL d   1       3.866  -1.162   0.591  0.00  0.00     0.077 A 
ATOM     10  N   UNL d   1       4.193  -1.485   1.868  0.00  0.00    -0.358 N 
ATOM     11  C   UNL d   1       5.344  -0.972   2.371  0.00  0.00     0.124 A 
ATOM     12  HN  UNL d   1       3.595  -2.091   2.430  1.00  0.00     0.166 HD
ATOM     13  C   UNL d   1       6.200  -0.166   1.637  0.00  0.00     0.118 A 
ATOM     14  C   UNL d   1       5.850   0.175   0.331  0.00  0.00     0.040 A 
ATOM     15  C   UNL d   1       4.661  -0.333  -0.199  0.00  0.00     0.040 A 
BRANCH  13  16
ATOM     16  N   UNL d   1       7.463   0.267   2.217  0.00  0.00    -0.114 N 
ATOM     17  O   UNL d   1       7.698  -0.050   3.392  0.00  0.00    -0.532 OA
ATOM     18  O   UNL d   1       8.237   0.911   1.494  0.00  0.00    -0.532 OA
ENDBRANCH  13  16
ENDBRANCH   8   9
ENDBRANCH   1   8
BRANCH   2  19
ATOM     19  C   UNL d   1      -0.875  -2.383   0.049  0.00  0.00     0.029 C 
ATOM     20  C   UNL d   1      -1.103  -2.767   1.524  0.00  0.00     0.038 C 
ATOM     21  C   UNL d   1      -2.259  -2.218  -0.636  0.00  0.00     0.038 C 
ATOM     22  C   UNL d   1      -0.218  -3.579  -0.678  0.00  0.00     0.038 C 
ENDBRANCH   2  19
TORSDOF 4
