REMARK  3 active torsions:
REMARK  status: ('A' for Active; 'I' for Inactive)
REMARK    1  A    between atoms: C_11  and  C_2 
REMARK    2  A    between atoms: S_16  and  C_3 
REMARK    3  A    between atoms: C_12  and  C_11 
ROOT
ATOM      1  N   UNL d   1       1.787  -0.828  -1.986  0.00  0.00    -0.325 N 
ATOM      2  C   UNL d   1       1.444  -2.404  -1.630  0.00  0.00     0.236 C 
ATOM      3  S   UNL d   1       1.573  -1.491   1.842  0.00  0.00    -0.113 SA
ATOM      4  C   UNL d   1       1.618  -2.996   0.138  0.00  0.00     0.151 C 
ATOM      5  C   UNL d   1       2.119   0.404  -0.916  0.00  0.00     0.051 A 
ATOM      6  C   UNL d   1       2.051   0.363   0.697  0.00  0.00     0.028 A 
ATOM      7  O   UNL d   1       1.105  -3.179  -2.529  0.00  0.00    -0.272 OA
ATOM      8  C   UNL d   1       2.271   1.657  -1.477  0.00  0.00     0.031 A 
ATOM      9  C   UNL d   1       2.140   1.481   1.503  0.00  0.00     0.021 A 
ATOM     10  C   UNL d   1       2.328   2.772  -0.614  0.00  0.00     0.002 A 
ATOM     11  C   UNL d   1       2.269   2.688   0.812  0.00  0.00     0.002 A 
ATOM     12  H   UNL d   1       1.663  -0.537  -2.949  0.00  0.00     0.169 HD
ENDROOT
BRANCH   4  13
ATOM     13  C   UNL d   1       2.050  -1.713  -0.028  0.00  0.00     0.103 C 
BRANCH  13  14
ATOM     14  C   UNL d   1       0.195  -1.149  -0.198  0.00  0.00     0.101 C 
ATOM     15  N   UNL d   1      -0.979  -1.947  -0.205  0.00  0.00    -0.320 N 
ATOM     16  C   UNL d   1      -1.981  -1.118  -0.665  0.00  0.00     0.159 C 
ATOM     17  C   UNL d   1      -1.201  -3.315   0.192  0.00  0.00     0.159 C 
ATOM     18  N   UNL d   1      -1.565   0.115  -0.700  0.00  0.00    -0.279 N 
ATOM     19  N   UNL d   1      -0.256   0.102  -0.349  0.00  0.00    -0.287 N 
ATOM     20  HN  UNL d   1      -2.119   0.935  -0.946  1.00  0.00     0.189 HD
ATOM     21  HN  UNL d   1       0.313   0.939  -0.218  1.00  0.00     0.188 HD
BRANCH  16  22
ATOM     22  S   UNL d   1      -3.552  -1.613  -1.192  0.00  0.00    -0.105 SA
ATOM     23  H   UNL d   1      -3.789  -2.608  -0.334  0.00  0.00     0.110 HD
ENDBRANCH  16  22
ENDBRANCH  13  14
ENDBRANCH   4  13
TORSDOF 3
