REMARK  5 active torsions:
REMARK  status: ('A' for Active; 'I' for Inactive)
REMARK    1  A    between atoms: N_2  and  C_1 
REMARK    2  A    between atoms: C_10  and  C_3 
REMARK    3  A    between atoms: C_14  and  C_7 
REMARK    4  A    between atoms: O_16  and  C_10 
REMARK    5  A    between atoms: C_22  and  O_16 
ROOT
ATOM      1  C   UNL d   1      -1.654   0.112   0.043  0.00  0.00     0.104 A 
ATOM      2  C   UNL d   1      -1.401  -1.254  -0.007  0.00  0.00     0.086 A 
ATOM      3  S   UNL d   1      -0.246   1.048  -0.013  0.00  0.00    -0.075 SA
ATOM      4  C   UNL d   1       0.046  -1.516  -0.016  0.00  0.00     0.006 A 
ATOM      5  C   UNL d   1       0.770  -0.323   0.007  0.00  0.00    -0.007 A 
ATOM      6  C   UNL d   1       2.245  -0.062   0.059  0.00  0.00     0.057 C 
ENDROOT
BRANCH   1   7
ATOM      7  N   UNL d   1      -2.844   0.823   0.136  0.00  0.00    -0.244 N 
ATOM      8  C   UNL d   1      -3.620   0.784   1.270  0.00  0.00     0.232 C 
ATOM      9  C   UNL d   1      -4.766   1.742   1.095  0.00  0.00     0.123 C 
ATOM     10  O   UNL d   1      -3.432   0.152   2.299  0.00  0.00    -0.273 OA
ATOM     11  C   UNL d   1      -4.455   2.481  -0.209  0.00  0.00     0.050 C 
ATOM     12  C   UNL d   1      -3.178   1.850  -0.712  0.00  0.00     0.240 C 
ATOM     13  C   UNL d   1      -4.320   3.995  -0.026  0.00  0.00     0.020 C 
ATOM     14  C   UNL d   1      -5.570   2.372  -1.253  0.00  0.00     0.020 C 
ATOM     15  O   UNL d   1      -2.602   2.202  -1.736  0.00  0.00    -0.272 OA
ATOM     16  C   UNL d   1      -5.742   4.534  -0.132  0.00  0.00     0.001 C 
ATOM     17  C   UNL d   1      -6.535   3.507  -0.936  0.00  0.00     0.001 C 
ENDBRANCH   1   7
BRANCH   2  18
ATOM     18  C   UNL d   1      -2.457  -2.263  -0.163  0.00  0.00     0.297 C 
ATOM     19  O   UNL d   1      -2.310  -3.310  -0.782  0.00  0.00    -0.259 OA
BRANCH  18  20
ATOM     20  O   UNL d   1      -3.644  -1.870   0.374  0.00  0.00    -0.318 OA
BRANCH  20  21
ATOM     21  C   UNL d   1      -4.818  -2.586  -0.024  0.00  0.00     0.174 C 
ATOM     22  C   UNL d   1      -5.386  -1.882  -1.241  0.00  0.00     0.034 C 
ENDBRANCH  20  21
ENDBRANCH  18  20
ENDBRANCH   2  18
BRANCH   4  23
ATOM     23  C   UNL d   1       0.723  -2.831   0.035  0.00  0.00    -0.024 A 
ATOM     24  C   UNL d   1       1.892  -3.090  -0.699  0.00  0.00     0.012 A 
ATOM     25  C   UNL d   1       2.599  -4.287  -0.542  0.00  0.00     0.001 A 
ATOM     26  C   UNL d   1       2.110  -5.279   0.299  0.00  0.00     0.000 A 
ATOM     27  C   UNL d   1       0.914  -5.073   0.981  0.00  0.00     0.001 A 
ATOM     28  C   UNL d   1       0.237  -3.853   0.865  0.00  0.00     0.012 A 
ENDBRANCH   4  23
TORSDOF 5
