REMARK  5 active torsions:
REMARK  status: ('A' for Active; 'I' for Inactive)
REMARK    1  A    between atoms: N_9  and  C_3 
REMARK    2  A    between atoms: O_11  and  C_4 
REMARK    3  A    between atoms: O_20  and  C_5 
REMARK    4  A    between atoms: C_8  and  C_12 
REMARK       I    between atoms: C_13  and  N_9 
REMARK    5  A    between atoms: C_15  and  O_11 
ROOT
ATOM      1  N   UNL d   1      -0.603   1.241  -0.237  0.00  0.00    -0.167 N 
ATOM      2  HN  UNL d   1      -1.015   2.158  -0.410  1.00  0.00     0.186 HD
ATOM      3  C   UNL d   1      -1.349   0.159  -0.052  0.00  0.00     0.687 A 
ATOM      4  C   UNL d   1       1.352  -0.155   0.024  0.00  0.00     0.149 A 
ATOM      5  C   UNL d   1       0.722   1.060  -0.183  0.00  0.00     0.191 A 
ATOM      6  N   UNL d   1      -0.854  -1.066   0.203  0.00  0.00    -0.193 N 
ATOM      7  HN  UNL d   1      -1.475  -1.862   0.346  1.00  0.00     0.184 HD
ATOM      8  C   UNL d   1       0.496  -1.214   0.266  0.00  0.00     0.061 A 
ATOM      9  C   UNL d   1       0.949  -2.605   0.593  0.00  0.00     0.072 C 
ENDROOT
BRANCH   4  10
ATOM     10  O   UNL d   1       2.717  -0.136   0.098  0.00  0.00    -0.304 OA
BRANCH  10  11
ATOM     11  C   UNL d   1       3.477  -1.087  -0.540  0.00  0.00     0.077 A 
ATOM     12  C   UNL d   1       3.075  -1.831  -1.653  0.00  0.00     0.053 A 
ATOM     13  C   UNL d   1       3.900  -2.858  -2.148  0.00  0.00     0.050 A 
ATOM     14  C   UNL d   1       5.168  -3.053  -1.576  0.00  0.00     0.016 A 
ATOM     15  C   UNL d   1       5.600  -2.252  -0.522  0.00  0.00     0.004 A 
ATOM     16  C   UNL d   1       4.752  -1.277  -0.002  0.00  0.00     0.037 A 
BRANCH  13  17
ATOM     17  C   UNL d   1       3.421  -3.781  -3.241  0.00  0.00     0.417 C 
ATOM     18  F   UNL d   1       2.167  -3.494  -3.686  0.00  0.00    -0.166 F 
ATOM     19  F   UNL d   1       4.225  -3.761  -4.337  0.00  0.00    -0.166 F 
ATOM     20  F   UNL d   1       3.378  -5.080  -2.830  0.00  0.00    -0.166 F 
ENDBRANCH  13  17
ENDBRANCH  10  11
ENDBRANCH   4  10
BRANCH   5  21
ATOM     21  O   UNL d   1       1.458   2.207  -0.332  0.00  0.00    -0.344 OA
ATOM     22  H   UNL d   1       2.390   1.960  -0.213  0.00  0.00     0.219 HD
ENDBRANCH   5  21
BRANCH   3  23
ATOM     23  N   UNL d   1      -2.735   0.199  -0.083  0.00  0.00    -0.160 N 
ATOM     24  C   UNL d   1      -3.510   1.293  -0.361  0.00  0.00     0.231 C 
ATOM     25  O   UNL d   1      -3.127   2.418  -0.662  0.00  0.00    -0.273 OA
ATOM     26  C   UNL d   1      -4.986   1.002  -0.273  0.00  0.00     0.118 C 
ATOM     27  H   UNL d   1      -3.154  -0.697   0.105  0.00  0.00     0.187 HD
ENDBRANCH   3  23
TORSDOF 5
