REMARK  5 active torsions:
REMARK  status: ('A' for Active; 'I' for Inactive)
REMARK    1  A    between atoms: N_6  and  C_1 
REMARK       I    between atoms: C_10  and  N_6 
REMARK    2  A    between atoms: C_8  and  C_9 
REMARK    3  A    between atoms: C_16  and  C_10 
REMARK    4  A    between atoms: C_13  and  S_15 
REMARK    5  A    between atoms: S_15  and  C_16 
ROOT
ATOM      1  N   UNL d   1       2.760   1.991  -0.074  0.00  0.00    -0.306 N 
ATOM      2  C   UNL d   1       2.290   3.258  -0.505  0.00  0.00     0.234 C 
ATOM      3  O   UNL d   1       1.175   3.440  -1.007  0.00  0.00    -0.272 OA
ATOM      4  C   UNL d   1       4.201   1.787   0.069  0.00  0.00     0.161 C 
ENDROOT
BRANCH   2   5
ATOM      5  C   UNL d   1       3.227   4.473  -0.381  0.00  0.00     0.184 C 
BRANCH   5   6
ATOM      6  S   UNL d   1       4.061   4.734  -1.980  0.00  0.00    -0.103 SA
BRANCH   6   7
ATOM      7  C   UNL d   1       4.747   6.371  -1.795  0.00  0.00     0.070 A 
ATOM      8  N   UNL d   1       4.893   6.918  -0.567  0.00  0.00    -0.360 N 
ATOM      9  C   UNL d   1       5.479   8.145  -0.497  0.00  0.00     0.105 A 
ATOM     10  HN  UNL d   1       4.577   6.431   0.272  1.00  0.00     0.166 HD
ATOM     11  C   UNL d   1       5.939   8.861  -1.599  0.00  0.00     0.063 A 
ATOM     12  C   UNL d   1       5.772   8.272  -2.853  0.00  0.00     0.020 A 
ATOM     13  C   UNL d   1       5.175   7.016  -2.952  0.00  0.00     0.038 A 
BRANCH  11  14
ATOM     14  C   UNL d   1       6.596  10.201  -1.458  0.00  0.00     0.418 C 
ATOM     15  F   UNL d   1       6.691  10.633  -0.171  0.00  0.00    -0.166 F 
ATOM     16  F   UNL d   1       7.867  10.210  -1.948  0.00  0.00    -0.166 F 
ATOM     17  F   UNL d   1       5.933  11.181  -2.132  0.00  0.00    -0.166 F 
ENDBRANCH  11  14
ENDBRANCH   6   7
ENDBRANCH   5   6
ENDBRANCH   2   5
BRANCH   1  18
ATOM     18  C   UNL d   1       1.866   0.876  -0.060  0.00  0.00     0.134 A 
ATOM     19  N   UNL d   1       0.493   0.909   0.194  0.00  0.00    -0.280 N 
ATOM     20  N   UNL d   1      -0.098  -0.309   0.175  0.00  0.00    -0.301 N 
ATOM     21  C   UNL d   1      -0.350   1.986   0.661  0.00  0.00     0.179 C 
ATOM     22  C   UNL d   1       0.900  -1.150  -0.052  0.00  0.00     0.036 A 
ATOM     23  HN  UNL d   1      -1.085  -0.529   0.305  1.00  0.00     0.187 HD
ATOM     24  C   UNL d   1       2.139  -0.487  -0.218  0.00  0.00     0.012 A 
ATOM     25  C   UNL d   1       0.693  -2.623  -0.131  0.00  0.00     0.059 C 
ATOM     26  C   UNL d   1       3.387  -1.261  -0.504  0.00  0.00     0.044 C 
ATOM     27  C   UNL d   1       3.094  -2.715  -0.929  0.00  0.00     0.005 C 
ATOM     28  C   UNL d   1       2.030  -3.370  -0.036  0.00  0.00     0.006 C 
ENDBRANCH   1  18
TORSDOF 5
