REMARK  5 active torsions:
REMARK  status: ('A' for Active; 'I' for Inactive)
REMARK    1  A    between atoms: C_2  and  C_1 
REMARK    2  A    between atoms: S_17  and  C_3 
REMARK    3  A    between atoms: C_10  and  C_6 
REMARK    4  A    between atoms: C_15  and  C_9 
REMARK       I    between atoms: N_12  and  C_10 
REMARK    5  A    between atoms: C_14  and  N_12 
ROOT
ATOM      1  C   UNL d   1       1.509   0.677   0.073  0.00  0.00     0.023 A 
ATOM      2  C   UNL d   1       0.246   1.221   0.247  0.00  0.00     0.054 A 
ATOM      3  C   UNL d   1       0.186  -1.263   0.146  0.00  0.00     0.075 A 
ATOM      4  C   UNL d   1       1.452  -0.749  -0.057  0.00  0.00     0.040 A 
ATOM      5  S   UNL d   1      -0.955  -0.010   0.340  0.00  0.00    -0.077 SA
ENDROOT
BRANCH   1   6
ATOM      6  C   UNL d   1       2.796   1.462   0.055  0.00  0.00     0.086 A 
ATOM      7  N   UNL d   1       2.905   2.628   0.651  0.00  0.00    -0.349 N 
ATOM      8  C   UNL d   1       4.171   3.164   0.486  0.00  0.00     0.050 A 
ATOM      9  HN  UNL d   1       2.152   3.082   1.168  1.00  0.00     0.166 HD
ATOM     10  C   UNL d   1       5.011   2.389  -0.288  0.00  0.00     0.082 A 
ATOM     11  S   UNL d   1       4.232   0.920  -0.718  0.00  0.00    -0.081 SA
BRANCH   8  12
ATOM     12  C   UNL d   1       4.514   4.447   1.099  0.00  0.00    -0.009 A 
ATOM     13  C   UNL d   1       3.566   5.090   1.917  0.00  0.00     0.015 A 
ATOM     14  C   UNL d   1       3.854   6.309   2.535  0.00  0.00     0.024 A 
ATOM     15  C   UNL d   1       5.097   6.905   2.344  0.00  0.00     0.034 A 
ATOM     16  C   UNL d   1       6.050   6.287   1.533  0.00  0.00     0.024 A 
ATOM     17 CL   UNL d   1       5.461   8.401   3.104  0.00  0.00    -0.084 Cl
ATOM     18  C   UNL d   1       5.761   5.065   0.918  0.00  0.00     0.015 A 
ENDBRANCH   8  12
ENDBRANCH   1   6
BRANCH   2  19
ATOM     19  S   UNL d   1      -0.272   2.907   0.366  0.00  0.00    -0.126 SA
ATOM     20  C   UNL d   1       0.479   3.643  -1.108  0.00  0.00     0.096 C 
ENDBRANCH   2  19
BRANCH   3  21
ATOM     21  C   UNL d   1      -0.160  -2.676   0.267  0.00  0.00     0.263 C 
ATOM     22  N   UNL d   1      -1.502  -2.981   0.139  0.00  0.00    -0.321 N 
ATOM     23  H   UNL d   1      -2.086  -2.288  -0.318  0.00  0.00     0.169 HD
ATOM     24  O   UNL d   1       0.712  -3.531   0.418  0.00  0.00    -0.267 OA
BRANCH  22  25
ATOM     25  C   UNL d   1      -2.067  -4.265   0.318  0.00  0.00     0.056 A 
ATOM     26  C   UNL d   1      -3.192  -4.639  -0.435  0.00  0.00     0.060 A 
ATOM     27 CL   UNL d   1      -3.832  -3.594  -1.656  0.00  0.00    -0.082 Cl
ATOM     28  C   UNL d   1      -3.785  -5.892  -0.256  0.00  0.00     0.026 A 
ATOM     29  C   UNL d   1      -3.285  -6.767   0.707  0.00  0.00     0.002 A 
ATOM     30  C   UNL d   1      -2.181  -6.399   1.474  0.00  0.00     0.002 A 
ATOM     31  C   UNL d   1      -1.565  -5.159   1.270  0.00  0.00     0.031 A 
ENDBRANCH  22  25
ENDBRANCH   3  21
TORSDOF 5
