REMARK  4 active torsions:
REMARK  status: ('A' for Active; 'I' for Inactive)
REMARK    1  A    between atoms: C_8  and  C_1 
REMARK    2  A    between atoms: N_7  and  C_2 
REMARK    3  A    between atoms: S_9  and  C_8 
REMARK    4  A    between atoms: C_11  and  S_9 
ROOT
ATOM      1  C   UNL d   1      -1.488  -0.315  -0.177  0.00  0.00     0.141 C 
ATOM      2  C   UNL d   1      -0.302  -1.000  -0.579  0.00  0.00     0.159 C 
ATOM      3  N   UNL d   1      -1.173   0.925   0.260  0.00  0.00    -0.292 N 
ATOM      4  HN  UNL d   1      -1.812   1.639   0.610  1.00  0.00     0.187 HD
ATOM      5  C   UNL d   1       0.757  -0.158  -0.249  0.00  0.00     0.059 C 
ATOM      6  N   UNL d   1       0.158   1.015   0.135  0.00  0.00    -0.298 N 
ATOM      7  C   UNL d   1       2.232  -0.314  -0.310  0.00  0.00     0.072 C 
ATOM      8  C   UNL d   1       0.803   2.293   0.359  0.00  0.00     0.177 C 
ENDROOT
BRANCH   1   9
ATOM      9  C   UNL d   1      -2.871  -0.819  -0.201  0.00  0.00     0.244 C 
ATOM     10  O   UNL d   1      -3.160  -2.006  -0.282  0.00  0.00    -0.278 OA
BRANCH   9  11
ATOM     11  S   UNL d   1      -4.132   0.352   0.130  0.00  0.00    -0.044 SA
BRANCH  11  12
ATOM     12  C   UNL d   1      -4.583   1.201  -1.385  0.00  0.00     0.032 A 
ATOM     13  C   UNL d   1      -3.962   1.237  -2.649  0.00  0.00     0.072 A 
ATOM     14  C   UNL d   1      -4.453   2.111  -3.646  0.00  0.00     0.057 A 
ATOM     15 CL   UNL d   1      -2.619   0.229  -3.063  0.00  0.00    -0.081 Cl
ATOM     16 CL   UNL d   1      -3.698   2.281  -5.200  0.00  0.00    -0.083 Cl
ATOM     17  C   UNL d   1      -5.577   2.907  -3.418  0.00  0.00     0.026 A 
ATOM     18  C   UNL d   1      -6.232   2.838  -2.200  0.00  0.00     0.003 A 
ATOM     19  C   UNL d   1      -5.735   2.002  -1.199  0.00  0.00     0.021 A 
ENDBRANCH  11  12
ENDBRANCH   9  11
ENDBRANCH   1   9
BRANCH   2  20
ATOM     20  N   UNL d   1      -0.197  -2.275  -1.240  0.00  0.00    -0.111 N 
ATOM     21  O   UNL d   1      -1.143  -2.631  -1.947  0.00  0.00    -0.532 OA
ATOM     22  O   UNL d   1       0.872  -2.890  -1.116  0.00  0.00    -0.532 OA
ENDBRANCH   2  20
TORSDOF 4
