REMARK  3 active torsions:
REMARK  status: ('A' for Active; 'I' for Inactive)
REMARK    1  A    between atoms: C_2  and  S_1 
REMARK    2  A    between atoms: N_7  and  S_1 
REMARK    3  A    between atoms: C_13  and  N_7 
ROOT
ATOM      1  C   UNL d   1      -2.438   0.999  -2.013  0.00  0.00    -0.097 C 
ATOM      2  C   UNL d   1      -3.461   1.586  -2.238  0.00  0.00     0.014 C 
ATOM      3  C   UNL d   1      -1.177   0.278  -1.780  0.00  0.00     0.225 C 
ENDROOT
BRANCH   3   4
ATOM      4  N   UNL d   1      -0.557   0.759  -0.550  0.00  0.00    -0.304 N 
ATOM      5  H   UNL d   1      -0.536   1.769  -0.416  0.00  0.00     0.173 HD
BRANCH   4   6
ATOM      6  S   UNL d   1       0.900   0.053  -0.112  0.00  0.00     0.259 S 
ATOM      7  O   UNL d   1       1.550  -0.418  -1.315  0.00  0.00    -0.201 OA
ATOM      8  O   UNL d   1       1.547   0.980   0.790  0.00  0.00    -0.201 OA
BRANCH   6   9
ATOM      9  C   UNL d   1       0.404  -1.352   0.854  0.00  0.00     0.079 A 
ATOM     10  C   UNL d   1       0.755  -2.641   0.439  0.00  0.00     0.027 A 
ATOM     11  C   UNL d   1       0.438  -3.736   1.247  0.00  0.00     0.025 A 
ATOM     12  C   UNL d   1      -0.224  -3.537   2.459  0.00  0.00     0.034 A 
ATOM     13  C   UNL d   1      -0.580  -2.250   2.870  0.00  0.00     0.025 A 
ATOM     14 CL   UNL d   1      -0.589  -4.885   3.463  0.00  0.00    -0.084 Cl
ATOM     15  C   UNL d   1      -0.263  -1.151   2.067  0.00  0.00     0.027 A 
ENDBRANCH   6   9
ENDBRANCH   4   6
ENDBRANCH   3   4
TORSDOF 3
