REMARK  3 active torsions:
REMARK  status: ('A' for Active; 'I' for Inactive)
REMARK    1  A    between atoms: C_2  and  S_1 
REMARK    2  A    between atoms: N_7  and  S_1 
REMARK    3  A    between atoms: C_13  and  N_7 
ROOT
ATOM      1  N   UNL d   1       0.229   1.387   0.983  0.00  0.00    -0.181 NA
ATOM      2  H   UNL d   1       0.068   2.116   0.286  0.00  0.00     0.146 HD
ENDROOT
BRANCH   1   3
ATOM      3  S   UNL d   1       0.907   0.029   0.241  0.00  0.00     0.250 S 
ATOM      4  O   UNL d   1       0.212  -0.131  -1.016  0.00  0.00    -0.205 OA
ATOM      5  O   UNL d   1       2.349   0.119   0.296  0.00  0.00    -0.205 OA
BRANCH   3   6
ATOM      6  C   UNL d   1       0.472  -1.354   1.131  0.00  0.00     0.130 A 
ATOM      7  C   UNL d   1      -0.808  -1.734   1.455  0.00  0.00     0.097 A 
ATOM      8  O   UNL d   1      -0.756  -2.895   2.160  0.00  0.00    -0.241 OA
ATOM      9  C   UNL d   1      -2.156  -1.188   1.212  0.00  0.00     0.081 C 
ATOM     10  N   UNL d   1       0.560  -3.292   2.301  0.00  0.00    -0.264 N 
ATOM     11  C   UNL d   1       1.298  -2.364   1.673  0.00  0.00     0.054 A 
ATOM     12  HN  UNL d   1       0.901  -4.123   2.784  1.00  0.00     0.194 HD
ATOM     13  C   UNL d   1       2.771  -2.520   1.630  0.00  0.00     0.072 C 
ENDBRANCH   3   6
ENDBRANCH   1   3
BRANCH   1  14
ATOM     14  C   UNL d   1       0.797   1.855   2.204  0.00  0.00     0.025 A 
ATOM     15  C   UNL d   1       0.161   1.526   3.398  0.00  0.00     0.064 A 
ATOM     16  C   UNL d   1       0.604   2.086   4.596  0.00  0.00     0.103 A 
ATOM     17  O   UNL d   1      -0.110   1.764   5.721  0.00  0.00    -0.346 OA
ATOM     18  C   UNL d   1       1.712   2.939   4.606  0.00  0.00     0.102 A 
ATOM     19  C   UNL d   1       0.171   2.665   6.797  0.00  0.00     0.202 C 
ATOM     20  C   UNL d   1       1.666   2.908   6.924  0.00  0.00     0.202 C 
ATOM     21  O   UNL d   1       2.189   3.533   5.746  0.00  0.00    -0.346 OA
ATOM     22  C   UNL d   1       2.368   3.241   3.413  0.00  0.00     0.041 A 
ATOM     23  C   UNL d   1       1.914   2.693   2.207  0.00  0.00     0.027 A 
ENDBRANCH   1  14
TORSDOF 3
