REMARK  2 active torsions:
REMARK  status: ('A' for Active; 'I' for Inactive)
REMARK    1  A    between atoms: C_6  and  N_2 
REMARK    2  A    between atoms: C_10  and  C_6 
ROOT
ATOM      1  S   UNL d   1       1.371   0.313   0.021  0.00  0.00     0.269 S 
ATOM      2  N   UNL d   1       1.185  -1.350   0.019  0.00  0.00    -0.230 N 
ATOM      3  C   UNL d   1      -0.157  -1.780  -0.059  0.00  0.00     0.269 A 
ATOM      4  C   UNL d   1      -1.041  -0.596  -0.008  0.00  0.00     0.056 A 
ATOM      5  C   UNL d   1      -0.342   0.604   0.031  0.00  0.00     0.095 A 
ATOM      6  O   UNL d   1       1.937   0.734   1.276  0.00  0.00    -0.200 OA
ATOM      7  O   UNL d   1       1.902   0.713  -1.264  0.00  0.00    -0.200 OA
ATOM      8  O   UNL d   1      -0.527  -2.928  -0.210  0.00  0.00    -0.266 OA
ATOM      9  C   UNL d   1      -2.428  -0.597  -0.022  0.00  0.00     0.018 A 
ATOM     10  C   UNL d   1      -0.968   1.838   0.048  0.00  0.00     0.026 A 
ATOM     11  C   UNL d   1      -3.088   0.638   0.003  0.00  0.00     0.001 A 
ATOM     12  C   UNL d   1      -2.364   1.845   0.035  0.00  0.00     0.002 A 
ENDROOT
BRANCH   2  13
ATOM     13  C   UNL d   1       2.373  -2.188  -0.045  0.00  0.00     0.223 C 
BRANCH  13  14
ATOM     14  C   UNL d   1       2.547  -3.081   1.167  0.00  0.00     0.141 C 
ATOM     15  O   UNL d   1       1.744  -3.128   2.099  0.00  0.00    -0.297 OA
ATOM     16  C   UNL d   1       3.785  -3.946   1.181  0.00  0.00     0.093 C 
ENDBRANCH  13  14
ENDBRANCH   2  13
TORSDOF 2
