REMARK  8 active torsions:
REMARK  status: ('A' for Active; 'I' for Inactive)
REMARK    1  A    between atoms: C_13  and  C_1 
REMARK       I    between atoms: C_2  and  N_12 
REMARK    2  A    between atoms: C_3  and  C_2 
REMARK    3  A    between atoms: N_5  and  C_3 
REMARK    4  A    between atoms: C_19  and  C_3 
REMARK       I    between atoms: C_4  and  N_5 
REMARK    5  A    between atoms: C_20  and  C_4 
REMARK    6  A    between atoms: N_12  and  N_6 
REMARK    7  A    between atoms: C_9  and  C_20 
REMARK    8  A    between atoms: C_24  and  C_19 
ROOT
ATOM      1  C   UNL d   1      -1.630   5.281   0.131  0.00  0.00     0.258 C 
ATOM      2  N   UNL d   1      -1.261   6.437   0.822  0.00  0.00    -0.269 N 
ATOM      3  O   UNL d   1      -0.850   4.547  -0.476  0.00  0.00    -0.269 OA
ATOM      4  H   UNL d   1      -1.968   7.100   1.132  0.00  0.00     0.190 HD
ENDROOT
BRANCH   1   5
ATOM      5  C   UNL d   1      -3.152   5.034   0.101  0.00  0.00     0.178 C 
BRANCH   5   6
ATOM      6  N   UNL d   1      -3.717   5.708  -1.075  0.00  0.00    -0.347 N 
ATOM      7  C   UNL d   1      -4.187   6.998  -1.023  0.00  0.00     0.222 C 
ATOM      8  O   UNL d   1      -4.104   7.685  -0.005  0.00  0.00    -0.273 OA
ATOM      9  H   UNL d   1      -3.474   5.327  -1.983  0.00  0.00     0.163 HD
BRANCH   7  10
ATOM     10  C   UNL d   1      -4.851   7.479  -2.306  0.00  0.00     0.141 C 
BRANCH  10  11
ATOM     11  C   UNL d   1      -3.928   8.261  -3.188  0.00  0.00    -0.043 A 
ATOM     12  C   UNL d   1      -3.279   9.425  -2.817  0.00  0.00     0.057 A 
ATOM     13  S   UNL d   1      -2.343  10.100  -4.077  0.00  0.00    -0.113 SA
ATOM     14  C   UNL d   1      -2.796   8.851  -5.151  0.00  0.00     0.050 A 
ATOM     15  C   UNL d   1      -3.634   7.935  -4.555  0.00  0.00     0.015 A 
ENDBRANCH  10  11
ENDBRANCH   7  10
ENDBRANCH   5   6
BRANCH   5  16
ATOM     16  C   UNL d   1      -3.499   3.538  -0.017  0.00  0.00     0.038 C 
BRANCH  16  17
ATOM     17  C   UNL d   1      -3.138   2.648   1.188  0.00  0.00    -0.020 C 
ATOM     18  C   UNL d   1      -3.772   3.129   2.493  0.00  0.00     0.009 C 
ATOM     19  C   UNL d   1      -3.591   1.210   0.904  0.00  0.00     0.009 C 
ENDBRANCH  16  17
ENDBRANCH   5  16
ENDBRANCH   1   5
BRANCH   2  20
ATOM     20  N   UNL d   1       0.069   6.715   0.977  0.00  0.00    -0.308 N 
ATOM     21  C   UNL d   1       0.392   7.792   1.620  0.00  0.00     0.123 C 
ATOM     22  HN  UNL d   1       0.783   6.094   0.598  1.00  0.00     0.186 HD
BRANCH  21  23
ATOM     23  C   UNL d   1       1.815   8.169   1.848  0.00  0.00     0.041 A 
ATOM     24  C   UNL d   1       2.168   9.310   2.583  0.00  0.00     0.048 A 
ATOM     25 CL   UNL d   1       1.003  10.377   3.285  0.00  0.00    -0.083 Cl
ATOM     26  C   UNL d   1       3.522   9.639   2.786  0.00  0.00     0.025 A 
ATOM     27  C   UNL d   1       4.532   8.836   2.261  0.00  0.00     0.005 A 
ATOM     28  C   UNL d   1       4.192   7.704   1.531  0.00  0.00     0.043 A 
ATOM     29  C   UNL d   1       2.849   7.377   1.330  0.00  0.00     0.129 A 
ATOM     30  F   UNL d   1       2.599   6.271   0.617  0.00  0.00    -0.205 F 
ENDBRANCH  21  23
ENDBRANCH   2  20
TORSDOF 8
