REMARK  2 active torsions:
REMARK  status: ('A' for Active; 'I' for Inactive)
REMARK    1  A    between atoms: C_2  and  C_1 
REMARK    2  A    between atoms: C_7  and  C_6 
ROOT
ATOM      1  C   UNL d   1       1.087   0.046  -0.122  0.00  0.00     0.017 C 
ATOM      2  C   UNL d   1       2.412  -0.059   0.075  0.00  0.00     0.032 C 
ENDROOT
BRANCH   1   3
ATOM      3  C   UNL d   1       0.416   1.338  -0.330  0.00  0.00     0.007 A 
ATOM      4  C   UNL d   1       0.223   1.847  -1.628  0.00  0.00     0.045 A 
ATOM      5 CL   UNL d   1       0.764   0.997  -3.038  0.00  0.00    -0.083 Cl
ATOM      6  C   UNL d   1      -0.424   3.072  -1.832  0.00  0.00     0.025 A 
ATOM      7  C   UNL d   1      -0.890   3.808  -0.746  0.00  0.00     0.003 A 
ATOM      8  C   UNL d   1      -0.706   3.322   0.546  0.00  0.00     0.025 A 
ATOM      9  C   UNL d   1      -0.058   2.099   0.755  0.00  0.00     0.045 A 
ATOM     10 CL   UNL d   1       0.123   1.570   2.394  0.00  0.00    -0.083 Cl
ENDBRANCH   1   3
BRANCH   2  11
ATOM     11  C   UNL d   1       3.107  -1.299   0.248  0.00  0.00     0.049 A 
ATOM     12  N   UNL d   1       2.536  -2.510   0.190  0.00  0.00    -0.301 N 
ATOM     13  N   UNL d   1       3.548  -3.367   0.388  0.00  0.00    -0.311 N 
ATOM     14  HN  UNL d   1       1.553  -2.731   0.030  1.00  0.00     0.187 HD
ATOM     15  C   UNL d   1       4.750  -2.756   0.579  0.00  0.00     0.109 A 
ATOM     16  H   UNL d   1       3.343  -4.361   0.377  0.00  0.00     0.186 HD
ATOM     17  C   UNL d   1       4.499  -1.407   0.495  0.00  0.00     0.049 A 
ENDBRANCH   2  11
TORSDOF 2
