REMARK  2 active torsions:
REMARK  status: ('A' for Active; 'I' for Inactive)
REMARK       I    between atoms: N_7  and  C_1 
REMARK       I    between atoms: N_12  and  C_1 
REMARK    1  A    between atoms: C_3  and  C_10 
REMARK    2  A    between atoms: N_4  and  N_9 
ROOT
ATOM      1  N   UNL d   1      -1.148   3.091   0.111  0.00  0.00    -0.309 N 
ATOM      2  HN  UNL d   1      -1.633   3.878  -0.319  1.00  0.00     0.186 HD
ATOM      3  C   UNL d   1      -1.787   2.136   0.710  0.00  0.00     0.120 C 
ENDROOT
BRANCH   1   4
ATOM      4  N   UNL d   1       0.211   2.981   0.086  0.00  0.00    -0.277 N 
ATOM      5  C   UNL d   1       1.008   3.981  -0.380  0.00  0.00     0.163 C 
ATOM      6  N   UNL d   1       0.567   5.087  -0.879  0.00  0.00    -0.375 N 
ATOM      7  N   UNL d   1       2.334   3.757  -0.300  0.00  0.00    -0.273 NA
ATOM      8  H   UNL d   1      -0.458   4.987  -0.809  0.00  0.00     0.158 HD
ATOM      9  HN  UNL d   1       1.102   5.871  -1.252  1.00  0.00     0.158 HD
ATOM     10  H   UNL d   1       2.815   4.511  -0.785  0.00  0.00     0.127 HD
ATOM     11  H   UNL d   1       2.617   2.866  -0.687  0.00  0.00     0.127 HD
ATOM     12  H   UNL d   1       0.680   2.304   0.681  0.00  0.00     0.189 HD
ENDBRANCH   1   4
BRANCH   3  13
ATOM     13  C   UNL d   1      -3.268   2.156   0.784  0.00  0.00     0.003 A 
ATOM     14  C   UNL d   1      -3.998   1.114   1.369  0.00  0.00     0.047 A 
ATOM     15  C   UNL d   1      -5.398   1.165   1.387  0.00  0.00     0.048 A 
ATOM     16 CL   UNL d   1      -3.249  -0.269   2.084  0.00  0.00    -0.083 Cl
ATOM     17  C   UNL d   1      -6.062   2.255   0.826  0.00  0.00     0.035 A 
ATOM     18  C   UNL d   1      -5.346   3.301   0.253  0.00  0.00     0.025 A 
ATOM     19 CL   UNL d   1      -7.781   2.307   0.837  0.00  0.00    -0.084 Cl
ATOM     20  C   UNL d   1      -3.951   3.252   0.232  0.00  0.00     0.016 A 
ENDBRANCH   3  13
TORSDOF 2
