REMARK  4 active torsions:
REMARK  status: ('A' for Active; 'I' for Inactive)
REMARK    1  A    between atoms: N_2  and  S_1 
REMARK    2  A    between atoms: C_14  and  S_1 
REMARK    3  A    between atoms: C_3  and  C_7 
REMARK    4  A    between atoms: S_18  and  C_4 
ROOT
ATOM      1  C   UNL d   1       0.433   4.361  -2.937  0.00  0.00     0.024 A 
ATOM      2  C   UNL d   1       0.055   5.405  -2.102  0.00  0.00     0.055 A 
ATOM      3  S   UNL d   1      -0.028   6.892  -2.942  0.00  0.00    -0.071 SA
ATOM      4  C   UNL d   1       0.760   4.832  -4.277  0.00  0.00    -0.020 A 
ATOM      5  C   UNL d   1       0.522   6.196  -4.391  0.00  0.00     0.093 A 
ATOM      6  C   UNL d   1       0.723   6.979  -5.576  0.00  0.00     0.107 C 
ATOM      7  N   UNL d   1       0.891   7.584  -6.549  0.00  0.00    -0.191 NA
ATOM      8  C   UNL d   1       1.317   4.023  -5.415  0.00  0.00     0.051 C 
ENDROOT
BRANCH   1   9
ATOM      9  C   UNL d   1       0.540   2.941  -2.532  0.00  0.00     0.063 A 
ATOM     10  N   UNL d   1       1.014   2.548  -1.345  0.00  0.00    -0.284 N 
ATOM     11  N   UNL d   1       0.841   1.198  -1.345  0.00  0.00    -0.188 N 
ATOM     12  HN  UNL d   1       1.414   3.127  -0.608  1.00  0.00     0.188 HD
ATOM     13  C   UNL d   1       0.365   0.731  -2.547  0.00  0.00     0.131 A 
ATOM     14  C   UNL d   1       0.119   1.843  -3.317  0.00  0.00     0.052 A 
BRANCH  11  15
ATOM     15  S   UNL d   1       1.108   0.146   0.007  0.00  0.00     0.282 S 
ATOM     16  O   UNL d   1       0.885  -1.200  -0.494  0.00  0.00    -0.198 OA
ATOM     17  O   UNL d   1       0.329   0.697   1.099  0.00  0.00    -0.198 OA
BRANCH  15  18
ATOM     18  C   UNL d   1       2.828   0.320   0.395  0.00  0.00     0.081 A 
ATOM     19  C   UNL d   1       3.333   1.566   0.780  0.00  0.00     0.027 A 
ATOM     20  C   UNL d   1       4.680   1.682   1.132  0.00  0.00     0.025 A 
ATOM     21  C   UNL d   1       5.507   0.558   1.110  0.00  0.00     0.034 A 
ATOM     22  C   UNL d   1       5.000  -0.686   0.736  0.00  0.00     0.025 A 
ATOM     23 CL   UNL d   1       7.160   0.704   1.561  0.00  0.00    -0.084 Cl
ATOM     24  C   UNL d   1       3.655  -0.810   0.379  0.00  0.00     0.027 A 
ENDBRANCH  15  18
ENDBRANCH  11  15
ENDBRANCH   1   9
BRANCH   2  25
ATOM     25  S   UNL d   1      -0.285   5.407  -0.368  0.00  0.00    -0.126 SA
ATOM     26  C   UNL d   1      -1.856   4.526  -0.297  0.00  0.00     0.096 C 
ENDBRANCH   2  25
TORSDOF 4
