REMARK  4 active torsions:
REMARK  status: ('A' for Active; 'I' for Inactive)
REMARK    1  A    between atoms: C_7  and  C_1 
REMARK    2  A    between atoms: C_8  and  C_6 
REMARK    3  A    between atoms: S_13  and  C_10 
REMARK    4  A    between atoms: C_17  and  S_13 
ROOT
ATOM      1  C   UNL d   1       2.524   1.667  -0.054  0.00  0.00     0.034 A 
ATOM      2  S   UNL d   1       2.786   2.994   0.988  0.00  0.00    -0.081 SA
ATOM      3  C   UNL d   1       4.283   3.365   0.253  0.00  0.00     0.047 A 
ATOM      4  C   UNL d   1       3.529   1.550  -0.992  0.00  0.00     0.023 A 
ATOM      5  C   UNL d   1       4.543   2.541  -0.821  0.00  0.00     0.028 A 
ENDROOT
BRANCH   1   6
ATOM      6  C   UNL d   1       1.356   0.733   0.047  0.00  0.00     0.067 A 
ATOM      7  C   UNL d   1       0.258   0.850   0.922  0.00  0.00     0.068 A 
ATOM      8  C   UNL d   1      -0.532  -0.262   0.687  0.00  0.00     0.136 A 
ATOM      9  N   UNL d   1       0.132  -0.982  -0.269  0.00  0.00    -0.292 N 
ATOM     10  N   UNL d   1       1.254  -0.367  -0.704  0.00  0.00    -0.297 N 
ATOM     11  C   UNL d   1      -0.142  -2.286  -0.828  0.00  0.00     0.178 C 
ATOM     12  HN  UNL d   1       1.885  -0.676  -1.443  1.00  0.00     0.187 HD
BRANCH   8  13
ATOM     13  C   UNL d   1      -1.806  -0.635   1.333  0.00  0.00     0.434 C 
ATOM     14  F   UNL d   1      -2.411  -1.721   0.800  0.00  0.00    -0.165 F 
ATOM     15  F   UNL d   1      -1.627  -0.897   2.652  0.00  0.00    -0.165 F 
ATOM     16  F   UNL d   1      -2.706   0.379   1.258  0.00  0.00    -0.165 F 
ENDBRANCH   8  13
ENDBRANCH   1   6
BRANCH   3  17
ATOM     17  S   UNL d   1       5.303   4.681   0.818  0.00  0.00    -0.083 SA
BRANCH  17  18
ATOM     18  C   UNL d   1       6.257   3.754   2.009  0.00  0.00     0.006 A 
ATOM     19  C   UNL d   1       7.497   3.214   1.648  0.00  0.00     0.020 A 
ATOM     20  C   UNL d   1       8.260   2.509   2.584  0.00  0.00     0.025 A 
ATOM     21  C   UNL d   1       7.785   2.347   3.884  0.00  0.00     0.034 A 
ATOM     22  C   UNL d   1       6.554   2.885   4.257  0.00  0.00     0.025 A 
ATOM     23 CL   UNL d   1       8.725   1.484   5.037  0.00  0.00    -0.084 Cl
ATOM     24  C   UNL d   1       5.793   3.591   3.321  0.00  0.00     0.020 A 
ENDBRANCH  17  18
ENDBRANCH   3  17
TORSDOF 4
