REMARK  9 active torsions:
REMARK  status: ('A' for Active; 'I' for Inactive)
REMARK    1  A    between atoms: C_2  and  C_1 
REMARK    2  A    between atoms: C_3  and  C_1 
REMARK    3  A    between atoms: C_8  and  C_1 
REMARK    4  A    between atoms: C_5  and  C_2 
REMARK    5  A    between atoms: N_6  and  C_2 
REMARK    6  A    between atoms: C_4  and  C_3 
REMARK    7  A    between atoms: C_7  and  N_6 
REMARK    8  A    between atoms: O_20  and  C_8 
REMARK    9  A    between atoms: C_21  and  O_20 
ROOT
ATOM      1  C   UNL d   1       0.462  -0.954  -0.976  0.00  0.00     0.162 C 
ENDROOT
BRANCH   1   2
ATOM      2  C   UNL d   1       1.002   0.043   0.063  0.00  0.00     0.193 C 
BRANCH   2   3
ATOM      3  C   UNL d   1       0.453  -0.188   1.460  0.00  0.00     0.248 C 
ATOM      4  O   UNL d   1      -0.461  -0.998   1.675  0.00  0.00    -0.287 OA
BRANCH   3   5
ATOM      5  C   UNL d   1       0.956   0.735   2.561  0.00  0.00     0.452 C 
ATOM      6  F   UNL d   1       1.813   1.693   2.115  0.00  0.00    -0.163 F 
ATOM      7  F   UNL d   1      -0.071   1.411   3.149  0.00  0.00    -0.163 F 
ATOM      8  F   UNL d   1       1.595   0.066   3.556  0.00  0.00    -0.163 F 
ENDBRANCH   3   5
ENDBRANCH   2   3
BRANCH   2   9
ATOM      9  C   UNL d   1       2.496   0.106  -0.076  0.00  0.00     0.273 C 
ATOM     10  O   UNL d   1       3.046   0.507  -1.095  0.00  0.00    -0.264 OA
BRANCH   9  11
ATOM     11  O   UNL d   1       3.156  -0.312   1.038  0.00  0.00    -0.321 OA
BRANCH  11  12
ATOM     12  C   UNL d   1       4.593  -0.260   0.952  0.00  0.00     0.174 C 
ATOM     13  C   UNL d   1       5.103   1.150   1.202  0.00  0.00     0.034 C 
ENDBRANCH  11  12
ENDBRANCH   9  11
ENDBRANCH   2   9
ENDBRANCH   1   2
BRANCH   1  14
ATOM     14  C   UNL d   1       0.697  -2.396  -0.616  0.00  0.00     0.076 A 
ATOM     15  O   UNL d   1       2.001  -2.777  -0.467  0.00  0.00    -0.325 OA
ATOM     16  C   UNL d   1       1.999  -4.097  -0.148  0.00  0.00     0.142 A 
ATOM     17  C   UNL d   1       0.716  -4.577  -0.086  0.00  0.00     0.027 A 
ATOM     18  C   UNL d   1      -0.128  -3.484  -0.396  0.00  0.00     0.037 A 
ENDBRANCH   1  14
BRANCH   1  19
ATOM     19  N   UNL d   1      -0.981  -0.757  -1.195  0.00  0.00    -0.356 N 
ATOM     20  H   UNL d   1      -1.573  -1.085  -0.439  0.00  0.00     0.162 HD
BRANCH  19  21
ATOM     21  C   UNL d   1      -1.564   0.099  -2.082  0.00  0.00     0.166 C 
ATOM     22  S   UNL d   1      -0.818   1.079  -3.192  0.00  0.00    -0.041 SA
ATOM     23  N   UNL d   1      -2.918   0.107  -1.985  0.00  0.00    -0.376 N 
ATOM     24  H   UNL d   1      -3.410  -0.678  -1.581  0.00  0.00     0.158 HD
ATOM     25  H   UNL d   1      -3.421   0.630  -2.693  0.00  0.00     0.158 HD
ENDBRANCH  19  21
ENDBRANCH   1  19
TORSDOF 9
