REMARK  2 active torsions:
REMARK  status: ('A' for Active; 'I' for Inactive)
REMARK    1  A    between atoms: O_13  and  C_1 
REMARK    2  A    between atoms: C_7  and  O_13 
ROOT
ATOM      1  C   UNL d   1       4.771   1.621   0.730  0.00  0.00     0.092 A 
ATOM      2  C   UNL d   1       4.440   2.764   1.476  0.00  0.00     0.026 A 
ATOM      3  N   UNL d   1       5.417   4.117  -0.270  0.00  0.00    -0.359 N 
ATOM      4  HN  UNL d   1       5.621   5.036  -0.664  1.00  0.00     0.166 HD
ATOM      5  C   UNL d   1       4.740   4.005   0.887  0.00  0.00     0.045 A 
ATOM      6  C   UNL d   1       5.501   1.726  -0.451  0.00  0.00     0.062 A 
ATOM      7  C   UNL d   1       5.826   2.992  -0.905  0.00  0.00     0.008 A 
ATOM      8  C   UNL d   1       3.830   2.720   2.751  0.00  0.00     0.040 A 
ATOM      9  C   UNL d   1       4.319   5.161   1.529  0.00  0.00     0.032 A 
ATOM     10  C   UNL d   1       3.475   3.900   3.398  0.00  0.00     0.035 A 
ATOM     11  C   UNL d   1       3.684   5.124   2.776  0.00  0.00     0.026 A 
ATOM     12 CL   UNL d   1       2.784   3.844   4.971  0.00  0.00    -0.084 Cl
ATOM     13  C   UNL d   1       6.613   3.161  -2.166  0.00  0.00     0.068 C 
ENDROOT
BRANCH   1  14
ATOM     14  O   UNL d   1       4.343   0.378   1.150  0.00  0.00    -0.287 OA
BRANCH  14  15
ATOM     15  C   UNL d   1       3.411  -0.245   0.412  0.00  0.00     0.193 A 
ATOM     16  N   UNL d   1       2.837   0.300  -0.636  0.00  0.00    -0.328 N 
ATOM     17  C   UNL d   1       1.945  -0.583  -1.222  0.00  0.00     0.074 A 
ATOM     18  HN  UNL d   1       3.023   1.245  -0.973  1.00  0.00     0.168 HD
ATOM     19  C   UNL d   1       1.150  -0.385  -2.374  0.00  0.00     0.063 A 
ATOM     20  C   UNL d   1       1.845  -1.818  -0.577  0.00  0.00     0.039 A 
ATOM     21  C   UNL d   1       0.299  -1.373  -2.861  0.00  0.00     0.050 A 
ATOM     22 CL   UNL d   1       1.297   1.134  -3.146  0.00  0.00    -0.082 Cl
ATOM     23  C   UNL d   1       0.230  -2.586  -2.193  0.00  0.00     0.037 A 
ATOM     24  C   UNL d   1       0.990  -2.837  -1.046  0.00  0.00     0.045 A 
ATOM     25 CL   UNL d   1      -0.813  -3.821  -2.793  0.00  0.00    -0.084 Cl
ATOM     26  S   UNL d   1       2.897  -1.830   0.792  0.00  0.00    -0.044 SA
ENDBRANCH  14  15
ENDBRANCH   1  14
TORSDOF 2
