REMARK  3 active torsions:
REMARK  status: ('A' for Active; 'I' for Inactive)
REMARK    1  A    between atoms: C_10  and  C_1 
REMARK    2  A    between atoms: C_4  and  C_2 
REMARK    3  A    between atoms: O_22  and  C_10 
ROOT
ATOM      1  C   UNL d   1       2.063  -1.336  -0.084  0.00  0.00     0.053 A 
ATOM      2  C   UNL d   1       0.561  -1.703  -0.105  0.00  0.00     0.105 A 
ATOM      3  C   UNL d   1      -0.344  -0.474  -0.077  0.00  0.00     0.024 A 
ATOM      4  C   UNL d   1       2.462  -0.043   0.011  0.00  0.00     0.018 A 
ATOM      5  C   UNL d   1       0.152   0.778  -0.009  0.00  0.00     0.020 A 
ATOM      6  N   UNL d   1       1.516   0.971   0.032  0.00  0.00    -0.362 N 
ATOM      7  C   UNL d   1      -1.820  -0.664  -0.110  0.00  0.00     0.158 C 
ATOM      8  O   UNL d   1      -2.318  -1.736  -0.447  0.00  0.00    -0.293 OA
ATOM      9  C   UNL d   1      -0.705   2.022   0.019  0.00  0.00     0.058 C 
ATOM     10  C   UNL d   1       3.885   0.457   0.106  0.00  0.00     0.069 C 
ATOM     11  C   UNL d   1      -2.676   0.505   0.320  0.00  0.00     0.084 C 
ATOM     12  C   UNL d   1      -2.164   1.767  -0.349  0.00  0.00     0.014 C 
ATOM     13  H   UNL d   1       1.857   1.927   0.102  0.00  0.00     0.165 HD
ENDROOT
BRANCH   2  14
ATOM     14  C   UNL d   1       0.199  -2.731   0.970  0.00  0.00    -0.003 A 
ATOM     15  S   UNL d   1       0.412  -2.385   2.632  0.00  0.00    -0.092 SA
ATOM     16  C   UNL d   1      -0.051  -3.969   3.106  0.00  0.00     0.022 A 
ATOM     17  C   UNL d   1       0.008  -4.382   4.488  0.00  0.00     0.021 A 
ATOM     18  C   UNL d   1      -0.436  -4.717   2.009  0.00  0.00     0.021 A 
ATOM     19  S   UNL d   1       0.303  -6.019   4.923  0.00  0.00    -0.101 SA
ATOM     20  C   UNL d   1      -0.118  -3.591   5.617  0.00  0.00     0.021 A 
ATOM     21  C   UNL d   1       0.304  -5.654   6.590  0.00  0.00     0.050 A 
ATOM     22  C   UNL d   1       0.057  -4.323   6.828  0.00  0.00     0.008 A 
ATOM     23  C   UNL d   1      -0.300  -4.005   0.783  0.00  0.00     0.017 A 
ENDBRANCH   2  14
BRANCH   1  24
ATOM     24  C   UNL d   1       3.024  -2.474  -0.090  0.00  0.00     0.291 C 
ATOM     25  O   UNL d   1       4.118  -2.474   0.457  0.00  0.00    -0.260 OA
BRANCH  24  26
ATOM     26  O   UNL d   1       2.501  -3.522  -0.778  0.00  0.00    -0.323 OA
ATOM     27  C   UNL d   1       3.267  -4.728  -0.713  0.00  0.00     0.213 C 
ENDBRANCH  24  26
ENDBRANCH   1  24
TORSDOF 3
