REMARK  4 active torsions:
REMARK  status: ('A' for Active; 'I' for Inactive)
REMARK    1  A    between atoms: O_4  and  C_1 
REMARK    2  A    between atoms: S_2  and  O_4 
REMARK    3  A    between atoms: C_8  and  S_2 
REMARK    4  A    between atoms: C_14  and  N_3 
ROOT
ATOM      1  C   UNL d   1      -0.519  -1.062  -0.261  0.00  0.00     0.184 C 
ATOM      2  N   UNL d   1       0.814  -0.715  -0.031  0.00  0.00    -0.233 N 
ATOM      3  C   UNL d   1      -1.186   0.127  -0.460  0.00  0.00     0.085 C 
ATOM      4  N   UNL d   1       0.925   0.632   0.180  0.00  0.00    -0.296 N 
ATOM      5  HN  UNL d   1       1.750   1.143   0.496  1.00  0.00     0.187 HD
ATOM      6  C   UNL d   1      -0.274   1.134  -0.116  0.00  0.00     0.026 C 
ATOM      7  C   UNL d   1      -0.534   2.590  -0.042  0.00  0.00     0.070 C 
ENDROOT
BRANCH   1   8
ATOM      8  O   UNL d   1      -0.952  -2.325  -0.288  0.00  0.00    -0.209 OA
BRANCH   8   9
ATOM      9  S   UNL d   1      -2.421  -2.777   0.283  0.00  0.00     0.304 S 
ATOM     10  O   UNL d   1      -2.218  -3.585   1.470  0.00  0.00    -0.193 OA
ATOM     11  O   UNL d   1      -3.353  -1.663   0.302  0.00  0.00    -0.193 OA
BRANCH   9  12
ATOM     12  C   UNL d   1      -3.009  -3.872  -0.993  0.00  0.00     0.088 A 
ATOM     13  C   UNL d   1      -3.617  -3.323  -2.128  0.00  0.00     0.051 A 
ATOM     14  C   UNL d   1      -4.128  -4.174  -3.111  0.00  0.00     0.057 A 
ATOM     15 CL   UNL d   1      -4.875  -3.445  -4.488  0.00  0.00    -0.083 Cl
ATOM     16  C   UNL d   1      -4.029  -5.563  -2.958  0.00  0.00     0.055 A 
ATOM     17  C   UNL d   1      -3.420  -6.099  -1.816  0.00  0.00     0.027 A 
ATOM     18 CL   UNL d   1      -4.645  -6.670  -4.131  0.00  0.00    -0.083 Cl
ATOM     19  C   UNL d   1      -2.912  -5.257  -0.828  0.00  0.00     0.027 A 
ENDBRANCH   9  12
ENDBRANCH   8   9
ENDBRANCH   1   8
BRANCH   2  20
ATOM     20  C   UNL d   1       1.994  -1.523  -0.036  0.00  0.00     0.059 A 
ATOM     21  C   UNL d   1       1.972  -2.871  -0.417  0.00  0.00     0.031 A 
ATOM     22  C   UNL d   1       3.163  -3.602  -0.497  0.00  0.00     0.002 A 
ATOM     23  C   UNL d   1       4.383  -3.001  -0.194  0.00  0.00     0.000 A 
ATOM     24  C   UNL d   1       4.416  -1.668   0.204  0.00  0.00     0.002 A 
ATOM     25  C   UNL d   1       3.231  -0.932   0.284  0.00  0.00     0.031 A 
ENDBRANCH   2  20
TORSDOF 4
