REMARK  2 active torsions:
REMARK  status: ('A' for Active; 'I' for Inactive)
REMARK    1  A    between atoms: C_10  and  C_1 
REMARK    2  A    between atoms: O_12  and  C_10 
ROOT
ATOM      1  C   UNL d   1       1.669  -1.083   0.014  0.00  0.00    -0.017 A 
ATOM      2  C   UNL d   1       0.287  -0.645   0.009  0.00  0.00    -0.009 A 
ATOM      3  S   UNL d   1       1.734   1.493   0.049  0.00  0.00    -0.101 SA
ATOM      4  C   UNL d   1       2.536  -0.008   0.043  0.00  0.00     0.060 A 
ATOM      5  C   UNL d   1       0.184   0.749   0.020  0.00  0.00     0.015 A 
ATOM      6  C   UNL d   1      -0.918  -1.396  -0.006  0.00  0.00     0.037 A 
ATOM      7  C   UNL d   1      -1.064   1.404   0.008  0.00  0.00     0.021 A 
ATOM      8  C   UNL d   1      -2.156  -0.749  -0.014  0.00  0.00     0.035 A 
ATOM      9  C   UNL d   1      -2.231   0.636  -0.009  0.00  0.00     0.025 A 
ATOM     10 CL   UNL d   1      -3.603  -1.680  -0.027  0.00  0.00    -0.084 Cl
ENDROOT
BRANCH   1  11
ATOM     11  C   UNL d   1       2.110  -2.513  -0.023  0.00  0.00     0.204 C 
BRANCH  11  12
ATOM     12  O   UNL d   1       1.657  -3.236   1.114  0.00  0.00    -0.396 OA
ATOM     13  H   UNL d   1       1.947  -2.737   1.896  0.00  0.00     0.209 HD
ENDBRANCH  11  12
ENDBRANCH   1  11
TORSDOF 2
