REMARK  6 active torsions:
REMARK  status: ('A' for Active; 'I' for Inactive)
REMARK    1  A    between atoms: C_3  and  C_1 
REMARK    2  A    between atoms: C_8  and  CA_2 
REMARK       I    between atoms: N_6  and  C_3 
REMARK    3  A    between atoms: C_4  and  N_6 
REMARK    4  A    between atoms: C_5  and  C_10 
REMARK    5  A    between atoms: N_9  and  C_7 
REMARK    6  A    between atoms: OXT_23  and  C_8 
ROOT
ATOM      1  C   UNL d   1      -2.035  -4.481  -0.213  0.00  0.00     0.275 C 
ATOM      2  N   UNL d   1      -1.028  -3.562  -0.020  0.00  0.00    -0.320 N 
ATOM      3  O   UNL d   1      -1.987  -5.681   0.025  0.00  0.00    -0.266 OA
ATOM      4  H   UNL d   1      -1.262  -2.576   0.036  0.00  0.00     0.169 HD
ENDROOT
BRANCH   2   5
ATOM      5  C   UNL d   1       0.299  -3.865   0.337  0.00  0.00     0.062 A 
ATOM      6  C   UNL d   1       0.985  -2.961   1.189  0.00  0.00     0.057 A 
ATOM      7  C   UNL d   1       2.362  -3.190   1.355  0.00  0.00     0.032 A 
ATOM      8  C   UNL d   1       3.023  -4.238   0.695  0.00  0.00     0.018 A 
ATOM      9  C   UNL d   1       2.325  -5.115  -0.142  0.00  0.00     0.050 A 
ATOM     10  C   UNL d   1       0.947  -4.943  -0.285  0.00  0.00     0.048 A 
BRANCH   6  11
ATOM     11  N   UNL d   1       0.292  -1.921   1.834  0.00  0.00    -0.379 N 
ATOM     12  C   UNL d   1       0.987  -0.819   2.520  0.00  0.00     0.123 C 
ATOM     13  C   UNL d   1       0.445  -0.838   3.946  0.00  0.00     0.021 C 
ATOM     14  C   UNL d   1      -0.984  -1.296   3.753  0.00  0.00     0.021 C 
ATOM     15  C   UNL d   1      -0.857  -2.360   2.669  0.00  0.00     0.123 C 
ENDBRANCH   6  11
BRANCH   9  16
ATOM     16  C   UNL d   1       3.069  -6.165  -0.927  0.00  0.00     0.417 C 
ATOM     17  F   UNL d   1       2.272  -6.939  -1.716  0.00  0.00    -0.166 F 
ATOM     18  F   UNL d   1       4.001  -5.624  -1.761  0.00  0.00    -0.166 F 
ATOM     19  F   UNL d   1       3.752  -7.033  -0.126  0.00  0.00    -0.166 F 
ENDBRANCH   9  16
ENDBRANCH   2   5
BRANCH   1  20
ATOM     20  C   UNL d   1      -3.257  -3.916  -0.825  0.00  0.00     0.134 A 
ATOM     21  CA  UNL d   1      -4.529  -4.253  -0.401  0.00  0.00     0.139 A 
ATOM     22  N   UNL d   1      -5.654  -3.980  -1.147  0.00  0.00    -0.357 N 
ATOM     23  C   UNL d   1      -5.423  -3.322  -2.310  0.00  0.00     0.105 A 
ATOM     24  HN  UNL d   1      -6.590  -4.252  -0.848  1.00  0.00     0.165 HD
ATOM     25  C   UNL d   1      -4.154  -2.931  -2.707  0.00  0.00     0.105 A 
ATOM     26  N   UNL d   1      -3.048  -3.213  -1.979  0.00  0.00    -0.358 N 
ATOM     27  HN  UNL d   1      -2.116  -2.919  -2.273  1.00  0.00     0.165 HD
BRANCH  21  28
ATOM     28  C   UNL d   1      -4.807  -4.781   0.957  0.00  0.00     0.196 C 
ATOM     29  O   UNL d   1      -4.064  -4.684   1.916  0.00  0.00    -0.645 OA
BRANCH  28  30
ATOM     30  OXT UNL d   1      -6.072  -5.268   1.024  0.00  0.00    -0.772 OA
ATOM     31  HXT UNL d   1      -6.536  -5.120   0.167  0.00  0.00     0.167 HD
ENDBRANCH  28  30
ENDBRANCH  21  28
ENDBRANCH   1  20
TORSDOF 6
