REMARK  5 active torsions:
REMARK  status: ('A' for Active; 'I' for Inactive)
REMARK    1  A    between atoms: S_14  and  C_6 
REMARK    2  A    between atoms: C_13  and  C_18 
REMARK       I    between atoms: N_19  and  C_13 
REMARK    3  A    between atoms: C_18  and  S_14 
REMARK    4  A    between atoms: C_17  and  C_21 
REMARK    5  A    between atoms: C_21  and  N_19 
ROOT
ATOM      1  C   UNL d   1       0.156  -0.724   0.019  0.00  0.00     0.048 A 
ATOM      2  C   UNL d   1       0.152   0.654   0.002  0.00  0.00     0.027 A 
ATOM      3  N   UNL d   1       1.298   1.370  -0.011  0.00  0.00    -0.339 N 
ATOM      4  HN  UNL d   1       1.283   2.390   0.003  1.00  0.00     0.168 HD
ATOM      5  C   UNL d   1      -1.093  -1.498   0.080  0.00  0.00     0.163 C 
ATOM      6  C   UNL d   1       2.462   0.693  -0.043  0.00  0.00     0.144 A 
ATOM      7  N   UNL d   1       2.561  -0.650  -0.067  0.00  0.00    -0.346 N 
ATOM      8  HN  UNL d   1       3.463  -1.124  -0.111  1.00  0.00     0.167 HD
ATOM      9  C   UNL d   1       1.391  -1.334  -0.030  0.00  0.00     0.107 A 
ATOM     10  C   UNL d   1      -2.364   0.632  -0.425  0.00  0.00    -0.036 C 
ATOM     11  C   UNL d   1      -1.133   1.440   0.042  0.00  0.00     0.067 C 
ATOM     12  C   UNL d   1      -2.378  -0.726   0.300  0.00  0.00     0.093 C 
ATOM     13  O   UNL d   1      -1.060  -2.719   0.004  0.00  0.00    -0.292 OA
ATOM     14  C   UNL d   1      -2.346   0.428  -1.955  0.00  0.00     0.015 C 
ATOM     15  C   UNL d   1      -3.645   1.410  -0.071  0.00  0.00     0.015 C 
ENDROOT
BRANCH   6  16
ATOM     16  S   UNL d   1       3.932   1.677   0.051  0.00  0.00    -0.085 SA
BRANCH  16  17
ATOM     17  C   UNL d   1       5.111   0.642  -0.862  0.00  0.00     0.185 C 
BRANCH  17  18
ATOM     18  C   UNL d   1       4.692   0.485  -2.310  0.00  0.00     0.227 C 
ATOM     19  O   UNL d   1       4.908   1.355  -3.153  0.00  0.00    -0.273 OA
ATOM     20  N   UNL d   1       4.060  -0.705  -2.596  0.00  0.00    -0.357 N 
ATOM     21  H   UNL d   1       3.733  -1.265  -1.815  0.00  0.00     0.162 HD
BRANCH  20  22
ATOM     22  C   UNL d   1       3.482  -0.962  -3.889  0.00  0.00     0.149 C 
BRANCH  22  23
ATOM     23  C   UNL d   1       3.989  -2.286  -4.360  0.00  0.00    -0.018 C 
ATOM     24  C   UNL d   1       3.212  -3.322  -4.704  0.00  0.00     0.008 C 
ENDBRANCH  22  23
ENDBRANCH  20  22
ENDBRANCH  17  18
ENDBRANCH  16  17
ENDBRANCH   6  16
TORSDOF 5
