REMARK  3 active torsions:
REMARK  status: ('A' for Active; 'I' for Inactive)
REMARK    1  A    between atoms: C_12  and  N_2 
REMARK    2  A    between atoms: C_10  and  N_5 
REMARK    3  A    between atoms: N_13  and  C_10 
ROOT
ATOM      1  C   UNL d   1       0.911  -0.845  -0.085  0.00  0.00     0.150 A 
ATOM      2  N   UNL d   1       0.935   0.555   0.060  0.00  0.00    -0.239 N 
ATOM      3  N   UNL d   1      -0.310   1.068   0.287  0.00  0.00    -0.302 N 
ATOM      4  HN  UNL d   1      -0.558   2.034   0.504  1.00  0.00     0.186 HD
ATOM      5  N   UNL d   1       2.070  -1.565  -0.109  0.00  0.00    -0.336 N 
ATOM      6  HN  UNL d   1       2.874  -1.262   0.441  1.00  0.00     0.168 HD
ATOM      7  C   UNL d   1      -0.436  -1.176  -0.036  0.00  0.00     0.107 A 
ATOM      8  C   UNL d   1      -1.126   0.026   0.164  0.00  0.00     0.134 A 
ATOM      9  C   UNL d   1      -1.016  -2.471  -0.105  0.00  0.00     0.105 C 
ATOM     10  N   UNL d   1      -1.499  -3.526  -0.183  0.00  0.00    -0.191 NA
ENDROOT
BRANCH   2  11
ATOM     11  C   UNL d   1       2.052   1.437  -0.014  0.00  0.00     0.058 A 
ATOM     12  C   UNL d   1       3.177   1.119  -0.786  0.00  0.00     0.031 A 
ATOM     13  C   UNL d   1       4.247   2.013  -0.864  0.00  0.00     0.002 A 
ATOM     14  C   UNL d   1       4.212   3.211  -0.154  0.00  0.00     0.000 A 
ATOM     15  C   UNL d   1       3.098   3.530   0.621  0.00  0.00     0.002 A 
ATOM     16  C   UNL d   1       2.009   2.657   0.676  0.00  0.00     0.031 A 
ENDBRANCH   2  11
BRANCH   5  17
ATOM     17  C   UNL d   1       2.142  -2.631  -0.831  0.00  0.00     0.179 C 
BRANCH  17  18
ATOM     18  N   UNL d   1       3.251  -3.434  -0.954  0.00  0.00    -0.386 N 
ATOM     19  C   UNL d   1       4.502  -3.125  -0.276  0.00  0.00     0.149 C 
ATOM     20  C   UNL d   1       3.228  -4.676  -1.705  0.00  0.00     0.149 C 
ENDBRANCH  17  18
ENDBRANCH   5  17
TORSDOF 3
