REMARK  3 active torsions:
REMARK  status: ('A' for Active; 'I' for Inactive)
REMARK    1  A    between atoms: O_8  and  C_1 
REMARK    2  A    between atoms: C_9  and  O_8 
REMARK    3  A    between atoms: N_11  and  C_10 
ROOT
ATOM      1  C   UNL d   1      -0.139  -0.646   0.160  0.00  0.00     0.117 A 
ATOM      2  N   UNL d   1      -3.204  -0.582   2.019  0.00  0.00    -0.191 NA
ATOM      3  N   UNL d   1       2.998  -1.549  -1.235  0.00  0.00    -0.191 NA
ATOM      4  C   UNL d   1      -1.136   0.208   0.665  0.00  0.00     0.080 A 
ATOM      5  C   UNL d   1       1.006  -0.087  -0.439  0.00  0.00     0.080 A 
ATOM      6  C   UNL d   1      -2.265  -0.261   1.415  0.00  0.00     0.102 C 
ATOM      7  C   UNL d   1       2.094  -0.913  -0.877  0.00  0.00     0.102 C 
ATOM      8  C   UNL d   1      -1.026   1.595   0.470  0.00  0.00     0.026 A 
ATOM      9  C   UNL d   1       1.114   1.302  -0.597  0.00  0.00     0.026 A 
ATOM     10  C   UNL d   1       0.091   2.140  -0.160  0.00  0.00     0.003 A 
ENDROOT
BRANCH   1  11
ATOM     11  O   UNL d   1      -0.137  -2.016   0.316  0.00  0.00    -0.308 OA
BRANCH  11  12
ATOM     12  C   UNL d   1      -1.228  -2.769  -0.052  0.00  0.00     0.076 A 
ATOM     13  C   UNL d   1      -2.229  -2.377  -0.941  0.00  0.00     0.039 A 
ATOM     14  C   UNL d   1      -3.345  -3.199  -1.137  0.00  0.00     0.026 A 
ATOM     15  C   UNL d   1      -3.428  -4.459  -0.539  0.00  0.00     0.005 A 
ATOM     16  C   UNL d   1      -2.405  -4.855   0.324  0.00  0.00     0.026 A 
ATOM     17  C   UNL d   1      -1.304  -4.026   0.552  0.00  0.00     0.039 A 
BRANCH  15  18
ATOM     18  N   UNL d   1      -4.610  -5.201  -0.616  0.00  0.00    -0.303 NA
ATOM     19  H   UNL d   1      -4.489  -6.194  -0.448  0.00  0.00     0.124 HD
ATOM     20  H   UNL d   1      -5.176  -5.008  -1.435  0.00  0.00     0.124 HD
ENDBRANCH  15  18
ENDBRANCH  11  12
ENDBRANCH   1  11
TORSDOF 3
