REMARK  7 active torsions:
REMARK  status: ('A' for Active; 'I' for Inactive)
REMARK    1  A    between atoms: N_2  and  S_1 
REMARK    2  A    between atoms: C_3  and  S_1 
REMARK    3  A    between atoms: C_4  and  N_2 
REMARK    4  A    between atoms: C_5  and  C_4 
REMARK    5  A    between atoms: O_9  and  C_5 
REMARK    6  A    between atoms: C_12  and  O_9 
REMARK    7  A    between atoms: C_16  and  C_12 
ROOT
ATOM      1  N   UNL d   1       0.424   0.347   1.348  0.00  0.00    -0.306 N 
ATOM      2  H   UNL d   1      -0.571   0.547   1.238  0.00  0.00     0.172 HD
ENDROOT
BRANCH   1   3
ATOM      3  S   UNL d   1       1.240   0.002  -0.071  0.00  0.00     0.259 S 
ATOM      4  O   UNL d   1       2.648  -0.100   0.233  0.00  0.00    -0.201 OA
ATOM      5  O   UNL d   1       0.739   0.915  -1.075  0.00  0.00    -0.201 OA
BRANCH   3   6
ATOM      6  C   UNL d   1       0.645  -1.623  -0.475  0.00  0.00     0.079 A 
ATOM      7  C   UNL d   1      -0.461  -1.758  -1.319  0.00  0.00     0.026 A 
ATOM      8  C   UNL d   1      -0.872  -3.032  -1.714  0.00  0.00     0.008 A 
ATOM      9  C   UNL d   1      -0.180  -4.170  -1.276  0.00  0.00    -0.062 A 
ATOM     10  C   UNL d   1       0.917  -4.020  -0.417  0.00  0.00     0.008 A 
ATOM     11  C   UNL d   1      -0.592  -5.528  -1.766  0.00  0.00     0.048 C 
ATOM     12  C   UNL d   1       1.338  -2.749  -0.024  0.00  0.00     0.026 A 
ENDBRANCH   3   6
ENDBRANCH   1   3
BRANCH   1  13
ATOM     13  C   UNL d   1       0.824  -0.377   2.564  0.00  0.00     0.243 C 
BRANCH  13  14
ATOM     14  C   UNL d   1       0.064   0.132   3.769  0.00  0.00     0.277 C 
ATOM     15  O   UNL d   1      -1.041   0.659   3.717  0.00  0.00    -0.263 OA
BRANCH  14  16
ATOM     16  O   UNL d   1       0.778  -0.119   4.902  0.00  0.00    -0.316 OA
BRANCH  16  17
ATOM     17  C   UNL d   1       0.229   0.386   6.124  0.00  0.00     0.217 C 
BRANCH  17  18
ATOM     18  C   UNL d   1       0.145  -0.718   7.147  0.00  0.00    -0.034 A 
ATOM     19  C   UNL d   1       1.298  -1.386   7.589  0.00  0.00     0.009 A 
ATOM     20  C   UNL d   1       1.216  -2.345   8.603  0.00  0.00     0.001 A 
ATOM     21  C   UNL d   1      -0.016  -2.649   9.178  0.00  0.00     0.000 A 
ATOM     22  C   UNL d   1      -1.170  -2.012   8.730  0.00  0.00     0.001 A 
ATOM     23  C   UNL d   1      -1.091  -1.054   7.717  0.00  0.00     0.009 A 
ENDBRANCH  17  18
ENDBRANCH  16  17
ENDBRANCH  14  16
ENDBRANCH  13  14
ENDBRANCH   1  13
TORSDOF 7
