REMARK  8 active torsions:
REMARK  status: ('A' for Active; 'I' for Inactive)
REMARK    1  A    between atoms: C_8  and  C_1 
REMARK    2  A    between atoms: C_7  and  C_2 
REMARK    3  A    between atoms: O_22  and  C_8 
REMARK    4  A    between atoms: O_12  and  N_9 
REMARK    5  A    between atoms: C_11  and  O_12 
REMARK    6  A    between atoms: C_13  and  C_11 
REMARK    7  A    between atoms: C_14  and  C_15 
REMARK    8  A    between atoms: C_27  and  O_22 
ROOT
ATOM      1  C   UNL d   1       0.431   1.190  -0.102  0.00  0.00     0.064 C 
ATOM      2  N   UNL d   1       1.184   2.243  -0.229  0.00  0.00    -0.259 N 
ATOM      3  HN  UNL d   1       2.190   2.216  -0.393  1.00  0.00     0.194 HD
ATOM      4  C   UNL d   1      -1.062   1.275   0.141  0.00  0.00     0.073 C 
ENDROOT
BRANCH   2   5
ATOM      5  O   UNL d   1       0.429   3.430  -0.109  0.00  0.00    -0.195 OA
BRANCH   5   6
ATOM      6  C   UNL d   1       1.228   4.532  -0.229  0.00  0.00     0.315 C 
ATOM      7  O   UNL d   1       2.436   4.558  -0.410  0.00  0.00    -0.257 OA
BRANCH   6   8
ATOM      8  C   UNL d   1       0.401   5.768  -0.086  0.00  0.00     0.041 A 
ATOM      9  C   UNL d   1       1.052   7.005  -0.075  0.00  0.00     0.018 A 
ATOM     10  C   UNL d   1       0.323   8.192   0.082  0.00  0.00     0.009 A 
ATOM     11  C   UNL d   1      -1.076   8.184   0.234  0.00  0.00    -0.051 A 
ATOM     12  C   UNL d   1      -1.716   6.934   0.201  0.00  0.00     0.009 A 
ATOM     13  C   UNL d   1      -0.993   5.742   0.044  0.00  0.00     0.018 A 
BRANCH  11  14
ATOM     14  C   UNL d   1      -1.843   9.505   0.449  0.00  0.00    -0.024 C 
ATOM     15  C   UNL d   1      -3.369   9.320   0.613  0.00  0.00     0.019 C 
ATOM     16  C   UNL d   1      -1.330  10.196   1.731  0.00  0.00     0.019 C 
ATOM     17  C   UNL d   1      -1.626  10.450  -0.753  0.00  0.00     0.019 C 
ENDBRANCH  11  14
ENDBRANCH   6   8
ENDBRANCH   5   6
ENDBRANCH   2   5
BRANCH   1  18
ATOM     18  C   UNL d   1       1.040  -0.114  -0.211  0.00  0.00     0.125 A 
ATOM     19  C   UNL d   1       2.324  -0.533  -0.479  0.00  0.00     0.079 A 
ATOM     20  C   UNL d   1       2.248  -1.952  -0.521  0.00  0.00     0.132 A 
ATOM     21  N   UNL d   1       0.998  -2.359  -0.242  0.00  0.00    -0.255 N 
ATOM     22  O   UNL d   1       0.255  -1.216  -0.054  0.00  0.00    -0.235 OA
ATOM     23  HN  UNL d   1       0.667  -3.321  -0.182  1.00  0.00     0.195 HD
BRANCH  20  24
ATOM     24  C   UNL d   1       3.309  -2.892  -0.879  0.00  0.00     0.311 C 
ATOM     25  O   UNL d   1       4.440  -2.535  -1.190  0.00  0.00    -0.258 OA
BRANCH  24  26
ATOM     26  O   UNL d   1       2.874  -4.187  -0.913  0.00  0.00    -0.317 OA
BRANCH  26  27
ATOM     27  C   UNL d   1       3.702  -5.116  -1.621  0.00  0.00     0.175 C 
ATOM     28  C   UNL d   1       3.305  -5.093  -3.087  0.00  0.00     0.034 C 
ENDBRANCH  26  27
ENDBRANCH  24  26
ENDBRANCH  20  24
ENDBRANCH   1  18
TORSDOF 8
