REMARK  6 active torsions:
REMARK  status: ('A' for Active; 'I' for Inactive)
REMARK    1  A    between atoms: N_2  and  S_1 
REMARK    2  A    between atoms: C_4  and  S_1 
REMARK    3  A    between atoms: C_3  and  N_2 
REMARK    4  A    between atoms: C_9  and  C_3 
REMARK    5  A    between atoms: C_5  and  C_8 
REMARK    6  A    between atoms: C_6  and  C_7 
ROOT
ATOM      1  C   UNL d   1       0.440   1.530  -0.770  0.00  0.00     0.081 A 
ATOM      2  C   UNL d   1      -1.123   2.781  -2.151  0.00  0.00     0.050 A 
ATOM      3  C   UNL d   1       0.636   3.948  -0.909  0.00  0.00     0.050 A 
ATOM      4  C   UNL d   1      -0.675   1.567  -1.611  0.00  0.00     0.041 A 
ATOM      5  C   UNL d   1       1.093   2.715  -0.414  0.00  0.00     0.041 A 
ATOM      6  C   UNL d   1      -0.461   3.965  -1.791  0.00  0.00     0.032 A 
ENDROOT
BRANCH   1   7
ATOM      7  S   UNL d   1       1.082  -0.007  -0.132  0.00  0.00     0.264 S 
ATOM      8  O   UNL d   1       2.460  -0.099  -0.561  0.00  0.00    -0.200 OA
ATOM      9  O   UNL d   1       0.691  -0.071   1.257  0.00  0.00    -0.200 OA
BRANCH   7  10
ATOM     10  N   UNL d   1       0.230  -1.196  -0.920  0.00  0.00    -0.265 N 
ATOM     11  H   UNL d   1      -0.566  -1.530  -0.381  0.00  0.00     0.180 HD
BRANCH  10  12
ATOM     12  C   UNL d   1       0.306  -1.504  -2.278  0.00  0.00     0.125 C 
ATOM     13  N   UNL d   1       1.368  -1.302  -2.968  0.00  0.00    -0.384 N 
ATOM     14  H   UNL d   1       2.124  -0.975  -2.347  0.00  0.00     0.157 HD
ATOM     15  HN  UNL d   1       1.452  -1.443  -3.975  1.00  0.00     0.157 HD
BRANCH  12  16
ATOM     16  C   UNL d   1      -0.910  -1.992  -2.901  0.00  0.00     0.049 A 
ATOM     17  S   UNL d   1      -2.359  -2.231  -2.008  0.00  0.00    -0.098 SA
ATOM     18  C   UNL d   1      -3.251  -2.610  -3.415  0.00  0.00     0.050 A 
ATOM     19  C   UNL d   1      -2.461  -2.607  -4.541  0.00  0.00     0.009 A 
ATOM     20  C   UNL d   1      -1.111  -2.264  -4.243  0.00  0.00     0.023 A 
ENDBRANCH  12  16
ENDBRANCH  10  12
ENDBRANCH   7  10
ENDBRANCH   1   7
BRANCH   2  21
ATOM     21  C   UNL d   1      -2.290   2.811  -3.114  0.00  0.00     0.417 C 
ATOM     22  F   UNL d   1      -2.830   1.581  -3.340  0.00  0.00    -0.166 F 
ATOM     23  F   UNL d   1      -3.309   3.592  -2.670  0.00  0.00    -0.166 F 
ATOM     24  F   UNL d   1      -1.940   3.297  -4.335  0.00  0.00    -0.166 F 
ENDBRANCH   2  21
BRANCH   3  25
ATOM     25  C   UNL d   1       1.297   5.249  -0.512  0.00  0.00     0.417 C 
ATOM     26  F   UNL d   1       2.301   5.096   0.393  0.00  0.00    -0.166 F 
ATOM     27  F   UNL d   1       1.841   5.899  -1.576  0.00  0.00    -0.166 F 
ATOM     28  F   UNL d   1       0.415   6.120   0.050  0.00  0.00    -0.166 F 
ENDBRANCH   3  25
TORSDOF 6
