REMARK  4 active torsions:
REMARK  status: ('A' for Active; 'I' for Inactive)
REMARK    1  A    between atoms: C_2  and  C_1 
REMARK    2  A    between atoms: C_4  and  C_2 
REMARK    3  A    between atoms: C_7  and  C_4 
REMARK    4  A    between atoms: C_8  and  C_9 
ROOT
ATOM      1  C   UNL d   1       0.377  -3.713  -0.768  0.00  0.00     0.014 A 
ATOM      2  C   UNL d   1       3.132  -4.316  -0.442  0.00  0.00    -0.051 A 
ATOM      3  C   UNL d   1       0.999  -3.539   0.473  0.00  0.00     0.016 A 
ATOM      4  C   UNL d   1       1.108  -4.260  -1.823  0.00  0.00     0.016 A 
ATOM      5  C   UNL d   1       2.357  -3.830   0.627  0.00  0.00     0.009 A 
ATOM      6  C   UNL d   1       2.470  -4.553  -1.660  0.00  0.00     0.009 A 
ENDROOT
BRANCH   1   7
ATOM      7  C   UNL d   1      -1.040  -3.304  -0.993  0.00  0.00     0.184 C 
ATOM      8  O   UNL d   1      -1.763  -3.901  -1.786  0.00  0.00    -0.287 OA
BRANCH   7   9
ATOM      9  C   UNL d   1      -1.502  -2.111  -0.234  0.00  0.00     0.092 C 
BRANCH   9  10
ATOM     10  C   UNL d   1      -2.782  -1.765  -0.093  0.00  0.00     0.076 C 
ATOM     11  N   UNL d   1      -3.851  -2.390  -0.654  0.00  0.00    -0.321 N 
ATOM     12  C   UNL d   1      -5.110  -1.939  -0.330  0.00  0.00     0.232 C 
ATOM     13  H   UNL d   1      -3.727  -3.155  -1.314  0.00  0.00     0.169 HD
ATOM     14  O   UNL d   1      -6.147  -2.395  -0.795  0.00  0.00    -0.272 OA
ATOM     15  C   UNL d   1      -5.047  -0.842   0.711  0.00  0.00     0.184 C 
ATOM     16  S   UNL d   1      -3.278  -0.433   0.891  0.00  0.00    -0.103 SA
ENDBRANCH   9  10
ENDBRANCH   7   9
ENDBRANCH   1   7
BRANCH   2  17
ATOM     17  C   UNL d   1       4.646  -4.530  -0.254  0.00  0.00    -0.024 C 
ATOM     18  C   UNL d   1       5.359  -5.070  -1.513  0.00  0.00     0.019 C 
ATOM     19  C   UNL d   1       5.309  -3.180   0.102  0.00  0.00     0.019 C 
ATOM     20  C   UNL d   1       4.910  -5.533   0.889  0.00  0.00     0.019 C 
ENDBRANCH   2  17
TORSDOF 4
