REMARK  3 active torsions:
REMARK  status: ('A' for Active; 'I' for Inactive)
REMARK    1  A    between atoms: N_2  and  C_1 
REMARK    2  A    between atoms: N_3  and  C_6 
REMARK    3  A    between atoms: N_7  and  C_4 
ROOT
ATOM      1  C   UNL d   1      -1.856   0.007  -0.287  0.00  0.00     0.131 A 
ATOM      2  C   UNL d   1      -1.206  -1.210   0.002  0.00  0.00     0.064 A 
ATOM      3  C   UNL d   1      -1.187   1.246  -0.308  0.00  0.00     0.075 A 
ATOM      4  C   UNL d   1       0.182   1.282  -0.031  0.00  0.00     0.111 A 
ATOM      5  C   UNL d   1       0.189  -1.108   0.211  0.00  0.00     0.041 A 
ATOM      6  C   UNL d   1       0.901   0.110   0.222  0.00  0.00    -0.027 A 
ATOM      7  C   UNL d   1       2.365   0.035   0.553  0.00  0.00     0.050 C 
ENDROOT
BRANCH   2   8
ATOM      8  N   UNL d   1      -1.837  -2.436   0.178  0.00  0.00    -0.379 N 
ATOM      9  C   UNL d   1      -1.242  -3.435   1.079  0.00  0.00     0.123 C 
ATOM     10  C   UNL d   1      -2.360  -4.148   1.827  0.00  0.00     0.024 C 
ATOM     11  C   UNL d   1      -3.352  -4.800   0.858  0.00  0.00    -0.015 C 
ATOM     12  C   UNL d   1      -3.852  -3.782  -0.183  0.00  0.00     0.024 C 
ATOM     13  C   UNL d   1      -4.517  -5.401   1.643  0.00  0.00     0.010 C 
ATOM     14  C   UNL d   1      -2.704  -3.017  -0.857  0.00  0.00     0.123 C 
ENDBRANCH   2   8
BRANCH   1  15
ATOM     15  N   UNL d   1      -3.289   0.076  -0.507  0.00  0.00    -0.113 N 
ATOM     16  O   UNL d   1      -4.039  -0.224   0.430  0.00  0.00    -0.532 OA
ATOM     17  O   UNL d   1      -3.656   0.498  -1.615  0.00  0.00    -0.532 OA
ENDBRANCH   1  15
BRANCH   4  18
ATOM     18  N   UNL d   1       0.814   2.591   0.019  0.00  0.00    -0.115 N 
ATOM     19  O   UNL d   1       0.353   3.403   0.829  0.00  0.00    -0.532 OA
ATOM     20  O   UNL d   1       1.745   2.803  -0.771  0.00  0.00    -0.532 OA
ENDBRANCH   4  18
TORSDOF 3
