REMARK  5 active torsions:
REMARK  status: ('A' for Active; 'I' for Inactive)
REMARK    1  A    between atoms: C_5  and  C_1 
REMARK    2  A    between atoms: N_8  and  C_2 
REMARK       I    between atoms: C_9  and  N_8 
REMARK       I    between atoms: N_13  and  C_9 
REMARK    3  A    between atoms: C_21  and  N_13 
REMARK    4  A    between atoms: S_16  and  C_22 
REMARK    5  A    between atoms: C_22  and  C_21 
ROOT
ATOM      1  C   UNL d   1      -1.271  -0.864  -0.124  0.00  0.00     0.097 A 
ATOM      2  C   UNL d   1       0.107  -1.264   0.004  0.00  0.00     0.097 A 
ATOM      3  N   UNL d   1      -1.339   0.475  -0.194  0.00  0.00    -0.258 N 
ATOM      4  HN  UNL d   1      -2.183   1.031  -0.331  1.00  0.00     0.195 HD
ATOM      5  C   UNL d   1       0.816  -0.076   0.045  0.00  0.00     0.101 A 
ATOM      6  O   UNL d   1      -0.061   0.956  -0.047  0.00  0.00    -0.240 OA
ATOM      7  C   UNL d   1       2.229   0.321   0.047  0.00  0.00     0.081 C 
ENDROOT
BRANCH   2   8
ATOM      8  N   UNL d   1       0.628  -2.544  -0.032  0.00  0.00    -0.305 N 
ATOM      9  C   UNL d   1       1.483  -3.166   0.819  0.00  0.00     0.320 C 
ATOM     10  O   UNL d   1       1.832  -4.323   0.592  0.00  0.00    -0.247 OA
ATOM     11  N   UNL d   1       1.787  -2.521   1.976  0.00  0.00    -0.342 N 
ATOM     12  H   UNL d   1       1.707  -1.516   2.008  0.00  0.00     0.164 HD
ATOM     13  H   UNL d   1       0.148  -3.217  -0.624  0.00  0.00     0.171 HD
BRANCH  11  14
ATOM     14  C   UNL d   1       2.599  -3.149   3.000  0.00  0.00     0.134 C 
BRANCH  14  15
ATOM     15  C   UNL d   1       4.098  -3.015   2.732  0.00  0.00     0.093 C 
BRANCH  15  16
ATOM     16  S   UNL d   1       4.592  -1.253   2.752  0.00  0.00    -0.172 SA
ATOM     17  C   UNL d   1       6.359  -1.469   2.448  0.00  0.00     0.089 C 
ENDBRANCH  15  16
ENDBRANCH  14  15
ENDBRANCH  11  14
ENDBRANCH   2   8
BRANCH   1  18
ATOM     18  C   UNL d   1      -2.515  -1.663  -0.111  0.00  0.00     0.038 A 
ATOM     19  C   UNL d   1      -3.637  -1.239   0.648  0.00  0.00     0.048 A 
ATOM     20 CL   UNL d   1      -3.650   0.165   1.673  0.00  0.00    -0.083 Cl
ATOM     21  C   UNL d   1      -4.840  -1.966   0.650  0.00  0.00     0.025 A 
ATOM     22  C   UNL d   1      -4.946  -3.155  -0.054  0.00  0.00     0.003 A 
ATOM     23  C   UNL d   1      -3.857  -3.606  -0.787  0.00  0.00     0.025 A 
ATOM     24  C   UNL d   1      -2.667  -2.857  -0.845  0.00  0.00     0.048 A 
ATOM     25 CL   UNL d   1      -1.482  -3.481  -1.944  0.00  0.00    -0.083 Cl
ENDBRANCH   1  18
TORSDOF 5
