REMARK  5 active torsions:
REMARK  status: ('A' for Active; 'I' for Inactive)
REMARK    1  A    between atoms: N_2  and  C_1 
REMARK    2  A    between atoms: O_8  and  C_3 
REMARK    3  A    between atoms: O_9  and  C_6 
REMARK    4  A    between atoms: C_16  and  O_8 
REMARK    5  A    between atoms: C_17  and  O_9 
ROOT
ATOM      1  C   UNL d   1       2.446   1.255   0.016  0.00  0.00     0.138 A 
ATOM      2  C   UNL d   1       3.040  -0.009  -0.074  0.00  0.00     0.112 A 
ATOM      3  C   UNL d   1       1.074   1.414   0.250  0.00  0.00     0.061 A 
ATOM      4  C   UNL d   1       2.209  -1.132   0.025  0.00  0.00     0.078 A 
ATOM      5  C   UNL d   1       0.816  -0.995   0.199  0.00  0.00     0.096 A 
ATOM      6  C   UNL d   1       0.265   0.283   0.382  0.00  0.00     0.047 A 
ATOM      7 BR   UNL d   1      -1.523   0.600   0.947  0.00  0.00    -0.048 Br
ENDROOT
BRANCH   2   8
ATOM      8  O   UNL d   1       4.414  -0.061  -0.099  0.00  0.00    -0.307 OA
BRANCH   8   9
ATOM      9  C   UNL d   1       5.090  -1.130  -0.616  0.00  0.00     0.093 A 
ATOM     10  C   UNL d   1       4.726  -1.815  -1.772  0.00  0.00     0.064 A 
ATOM     11  C   UNL d   1       5.535  -2.858  -2.219  0.00  0.00     0.052 A 
ATOM     12 CL   UNL d   1       5.097  -3.761  -3.612  0.00  0.00    -0.083 Cl
ATOM     13  C   UNL d   1       6.695  -3.154  -1.516  0.00  0.00     0.111 A 
ATOM     14  N   UNL d   1       7.093  -2.484  -0.408  0.00  0.00    -0.371 N 
ATOM     15  C   UNL d   1       6.285  -1.482   0.007  0.00  0.00     0.124 A 
ATOM     16  HN  UNL d   1       7.954  -2.721   0.084  1.00  0.00     0.164 HD
ENDBRANCH   8   9
ENDBRANCH   2   8
BRANCH   1  17
ATOM     17  N   UNL d   1       3.262   2.452  -0.079  0.00  0.00    -0.113 N 
ATOM     18  O   UNL d   1       4.002   2.561  -1.066  0.00  0.00    -0.532 OA
ATOM     19  O   UNL d   1       3.126   3.301   0.814  0.00  0.00    -0.532 OA
ENDBRANCH   1  17
BRANCH   5  20
ATOM     20  O   UNL d   1       0.147  -2.193   0.315  0.00  0.00    -0.308 OA
BRANCH  20  21
ATOM     21  C   UNL d   1      -1.047  -2.400  -0.332  0.00  0.00     0.093 A 
ATOM     22  C   UNL d   1      -1.476  -1.762  -1.495  0.00  0.00     0.064 A 
ATOM     23  C   UNL d   1      -2.765  -2.012  -1.963  0.00  0.00     0.052 A 
ATOM     24 CL   UNL d   1      -3.381  -1.157  -3.319  0.00  0.00    -0.083 Cl
ATOM     25  C   UNL d   1      -3.554  -2.939  -1.295  0.00  0.00     0.111 A 
ATOM     26  N   UNL d   1      -3.137  -3.633  -0.210  0.00  0.00    -0.371 N 
ATOM     27  C   UNL d   1      -1.894  -3.345   0.243  0.00  0.00     0.124 A 
ATOM     28  HN  UNL d   1      -3.726  -4.332   0.242  1.00  0.00     0.164 HD
ENDBRANCH  20  21
ENDBRANCH   5  20
TORSDOF 5
