REMARK  4 active torsions:
REMARK  status: ('A' for Active; 'I' for Inactive)
REMARK    1  A    between atoms: N_4  and  C_1 
REMARK    2  A    between atoms: C_5  and  C_2 
REMARK    3  A    between atoms: S_3  and  N_4 
REMARK    4  A    between atoms: O_13  and  C_5 
ROOT
ATOM      1  C   UNL d   1       1.454   0.877   0.109  0.00  0.00     0.068 A 
ATOM      2  C   UNL d   1       0.171   1.411   0.112  0.00  0.00     0.107 A 
ATOM      3  S   UNL d   1      -1.018   0.167   0.165  0.00  0.00    -0.094 SA
ATOM      4  C   UNL d   1       1.434  -0.555   0.126  0.00  0.00     0.039 A 
ATOM      5  C   UNL d   1       0.155  -1.065   0.145  0.00  0.00     0.053 A 
ENDROOT
BRANCH   1   6
ATOM      6  N   UNL d   1       2.657   1.610   0.006  0.00  0.00    -0.279 N 
ATOM      7  C   UNL d   1       3.273   1.727  -1.335  0.00  0.00     0.169 C 
BRANCH   6   8
ATOM      8  S   UNL d   1       3.750   1.789   1.286  0.00  0.00     0.228 S 
ATOM      9  O   UNL d   1       4.800   0.807   1.108  0.00  0.00    -0.206 OA
ATOM     10  O   UNL d   1       4.071   3.199   1.379  0.00  0.00    -0.206 OA
ATOM     11  C   UNL d   1       2.841   1.344   2.756  0.00  0.00     0.186 C 
ENDBRANCH   6   8
ENDBRANCH   1   6
BRANCH   2  12
ATOM     12  C   UNL d   1      -0.300   2.788   0.066  0.00  0.00     0.302 C 
ATOM     13  O   UNL d   1      -1.470   3.148   0.028  0.00  0.00    -0.259 OA
BRANCH  12  14
ATOM     14  O   UNL d   1       0.753   3.658   0.074  0.00  0.00    -0.322 OA
ATOM     15  C   UNL d   1       0.381   5.035   0.012  0.00  0.00     0.213 C 
ENDBRANCH  12  14
ENDBRANCH   2  12
TORSDOF 4
