REMARK  6 active torsions:
REMARK  status: ('A' for Active; 'I' for Inactive)
REMARK    1  A    between atoms: C_6  and  C_1 
REMARK    2  A    between atoms: C_7  and  C_2 
REMARK    3  A    between atoms: O_11  and  C_3 
REMARK    4  A    between atoms: O_10  and  C_4 
REMARK    5  A    between atoms: O_13  and  C_6 
REMARK    6  A    between atoms: O_12  and  C_7 
ROOT
ATOM      1  C   UNL d   1       0.130   1.296  -0.020  0.00  0.00     0.115 A 
ATOM      2  C   UNL d   1       0.184  -1.217  -0.063  0.00  0.00     0.115 A 
ATOM      3  C   UNL d   1       1.434   0.788  -0.003  0.00  0.00     0.127 A 
ATOM      4  C   UNL d   1       1.447  -0.668  -0.018  0.00  0.00     0.127 A 
ATOM      5  S   UNL d   1      -1.008  -0.012  -0.092  0.00  0.00    -0.071 SA
ENDROOT
BRANCH   1   6
ATOM      6  C   UNL d   1      -0.430   2.651  -0.003  0.00  0.00     0.186 C 
ATOM      7  O   UNL d   1       0.175   3.712  -0.021  0.00  0.00    -0.646 OA
BRANCH   6   8
ATOM      8  O   UNL d   1      -1.793   2.677   0.036  0.00  0.00    -0.772 OA
ATOM      9  H   UNL d   1      -2.189   1.788   0.066  0.00  0.00     0.167 HD
ENDBRANCH   6   8
ENDBRANCH   1   6
BRANCH   3  10
ATOM     10  O   UNL d   1       2.631   1.434   0.031  0.00  0.00    -0.352 OA
ATOM     11  C   UNL d   1       2.698   2.841   0.027  0.00  0.00     0.210 C 
ENDBRANCH   3  10
BRANCH   4  12
ATOM     12  O   UNL d   1       2.498  -1.535  -0.018  0.00  0.00    -0.352 OA
ATOM     13  C   UNL d   1       3.803  -0.984   0.016  0.00  0.00     0.210 C 
ENDBRANCH   4  12
BRANCH   2  14
ATOM     14  C   UNL d   1      -0.182  -2.626  -0.059  0.00  0.00     0.186 C 
ATOM     15  O   UNL d   1       0.476  -3.550   0.395  0.00  0.00    -0.646 OA
BRANCH  14  16
ATOM     16  O   UNL d   1      -1.393  -2.854  -0.640  0.00  0.00    -0.772 OA
ATOM     17  H   UNL d   1      -1.786  -2.042  -1.010  0.00  0.00     0.167 HD
ENDBRANCH  14  16
ENDBRANCH   2  14
TORSDOF 6
