REMARK  3 active torsions:
REMARK  status: ('A' for Active; 'I' for Inactive)
REMARK    1  A    between atoms: C_8  and  N_1 
REMARK    2  A    between atoms: C_9  and  C_2 
REMARK    3  A    between atoms: N_20  and  C_13 
ROOT
ATOM      1  N   UNL d   1      -0.299  -1.060   0.051  0.00  0.00    -0.243 N 
ATOM      2  C   UNL d   1      -0.404   1.124  -0.098  0.00  0.00     0.100 A 
ATOM      3  N   UNL d   1       0.957  -0.559   0.095  0.00  0.00    -0.235 N 
ATOM      4  HN  UNL d   1       1.810  -1.112   0.183  1.00  0.00     0.209 HD
ATOM      5  C   UNL d   1      -1.209  -0.007  -0.074  0.00  0.00     0.062 A 
ATOM      6  N   UNL d   1       0.905   0.754   0.004  0.00  0.00    -0.282 N 
ATOM      7  HN  UNL d   1       1.706   1.386   0.009  1.00  0.00     0.188 HD
ATOM      8  C   UNL d   1      -2.687  -0.147  -0.032  0.00  0.00     0.073 C 
ENDROOT
BRANCH   2   9
ATOM      9  C   UNL d   1      -0.797   2.526  -0.144  0.00  0.00     0.066 A 
ATOM     10  N   UNL d   1      -1.995   2.829  -0.687  0.00  0.00    -0.331 N 
ATOM     11  C   UNL d   1      -2.329   4.121  -0.706  0.00  0.00     0.155 A 
ATOM     12  HN  UNL d   1      -2.612   2.109  -1.063  1.00  0.00     0.168 HD
ATOM     13  N   UNL d   1      -1.564   5.120  -0.261  0.00  0.00    -0.343 N 
ATOM     14  C   UNL d   1      -0.376   4.781   0.266  0.00  0.00     0.093 A 
ATOM     15  HN  UNL d   1      -1.866   6.092  -0.317  1.00  0.00     0.167 HD
ATOM     16  C   UNL d   1       0.065   3.486   0.350  0.00  0.00     0.049 A 
BRANCH  11  17
ATOM     17  N   UNL d   1      -3.538   4.465  -1.275  0.00  0.00    -0.274 NA
ATOM     18  H   UNL d   1      -3.808   3.770  -1.956  0.00  0.00     0.127 HD
ATOM     19  H   UNL d   1      -3.496   5.423  -1.588  0.00  0.00     0.127 HD
ENDBRANCH  11  17
ENDBRANCH   2   9
BRANCH   1  20
ATOM     20  C   UNL d   1      -0.503  -2.471   0.062  0.00  0.00     0.079 A 
ATOM     21  C   UNL d   1       0.357  -3.340   0.767  0.00  0.00     0.064 A 
ATOM     22  C   UNL d   1       0.168  -4.728   0.699  0.00  0.00     0.050 A 
ATOM     23 CL   UNL d   1       1.602  -2.823   1.856  0.00  0.00    -0.082 Cl
ATOM     24  C   UNL d   1      -0.869  -5.257  -0.059  0.00  0.00     0.035 A 
ATOM     25  C   UNL d   1      -1.728  -4.414  -0.755  0.00  0.00     0.026 A 
ATOM     26 CL   UNL d   1      -1.091  -6.961  -0.137  0.00  0.00    -0.084 Cl
ATOM     27  C   UNL d   1      -1.546  -3.028  -0.698  0.00  0.00     0.035 A 
ENDBRANCH   1  20
TORSDOF 3
