REMARK  2 active torsions:
REMARK  status: ('A' for Active; 'I' for Inactive)
REMARK    1  A    between atoms: C_8  and  C_2 
REMARK    2  A    between atoms: O_14  and  C_10 
ROOT
ATOM      1  C   UNL d   1       0.179  -0.552   0.003  0.00  0.00     0.106 A 
ATOM      2  C   UNL d   1       1.430  -1.191  -0.045  0.00  0.00     0.077 A 
ATOM      3  C   UNL d   1       0.047   0.849   0.013  0.00  0.00     0.005 A 
ATOM      4  C   UNL d   1      -1.304   1.440   0.011  0.00  0.00    -0.043 A 
ATOM      5  O   UNL d   1      -0.977  -1.361   0.087  0.00  0.00    -0.274 OA
ATOM      6  C   UNL d   1      -2.256  -0.845   0.055  0.00  0.00     0.288 A 
ATOM      7  C   UNL d   1      -2.364   0.616   0.020  0.00  0.00     0.090 A 
ATOM      8  C   UNL d   1       1.222   1.613   0.016  0.00  0.00     0.017 A 
ATOM      9  C   UNL d   1       2.579  -0.387  -0.026  0.00  0.00     0.082 A 
ATOM     10  O   UNL d   1      -3.254  -1.557   0.057  0.00  0.00    -0.260 OA
ATOM     11  C   UNL d   1       2.477   1.000   0.003  0.00  0.00     0.038 A 
ATOM     12  C   UNL d   1      -1.549   2.922  -0.020  0.00  0.00     0.049 C 
ENDROOT
BRANCH   2  13
ATOM     13  C   UNL d   1       1.606  -2.671  -0.107  0.00  0.00     0.161 C 
ATOM     14  O   UNL d   1       2.665  -3.145   0.316  0.00  0.00    -0.293 OA
ATOM     15  C   UNL d   1       0.564  -3.564  -0.729  0.00  0.00     0.097 C 
ENDBRANCH   2  13
BRANCH   9  16
ATOM     16  O   UNL d   1       3.854  -0.888  -0.036  0.00  0.00    -0.360 OA
ATOM     17  H   UNL d   1       3.802  -1.857   0.128  0.00  0.00     0.217 HD
ENDBRANCH   9  16
TORSDOF 2
