REMARK  8 active torsions:
REMARK  status: ('A' for Active; 'I' for Inactive)
REMARK    1  A    between atoms: C_4  and  N_1 
REMARK    2  A    between atoms: N_2  and  N_8 
REMARK    3  A    between atoms: C_10  and  C_5 
REMARK    4  A    between atoms: C_12  and  C_5 
REMARK    5  A    between atoms: N_8  and  C_17 
REMARK    6  A    between atoms: C_9  and  C_18 
REMARK    7  A    between atoms: O_20  and  C_9 
REMARK    8  A    between atoms: C_18  and  C_12 
ROOT
ATOM      1  N   UNL d   1      -1.424   5.815  -1.551  0.00  0.00    -0.320 N 
ATOM      2  HN  UNL d   1      -1.727   5.130  -0.859  1.00  0.00     0.181 HD
ATOM      3  C   UNL d   1      -2.098   6.920  -1.738  0.00  0.00     0.031 C 
ENDROOT
BRANCH   3   4
ATOM      4  C   UNL d   1      -3.320   7.133  -0.862  0.00  0.00    -0.012 A 
ATOM      5  C   UNL d   1      -3.663   6.124   0.061  0.00  0.00     0.016 A 
ATOM      6  C   UNL d   1      -4.711   6.303   0.970  0.00  0.00     0.043 A 
ATOM      7  C   UNL d   1      -5.427   7.490   0.962  0.00  0.00     0.116 A 
ATOM      8  C   UNL d   1      -5.134   8.485   0.041  0.00  0.00     0.043 A 
ATOM      9  F   UNL d   1      -6.408   7.680   1.853  0.00  0.00    -0.206 F 
ATOM     10  C   UNL d   1      -4.091   8.305  -0.877  0.00  0.00     0.016 A 
ENDBRANCH   3   4
BRANCH   3  11
ATOM     11  C   UNL d   1      -1.633   8.038  -2.687  0.00  0.00     0.069 C 
BRANCH  11  12
ATOM     12  C   UNL d   1      -1.550   7.697  -4.172  0.00  0.00     0.116 C 
BRANCH  12  13
ATOM     13  C   UNL d   1      -2.863   7.263  -4.768  0.00  0.00     0.139 C 
ATOM     14  O   UNL d   1      -3.928   7.223  -4.174  0.00  0.00    -0.650 OA
BRANCH  13  15
ATOM     15  O   UNL d   1      -2.748   6.934  -6.073  0.00  0.00    -0.776 OA
ATOM     16  H   UNL d   1      -1.848   7.042  -6.438  0.00  0.00     0.167 HD
ENDBRANCH  13  15
ENDBRANCH  12  13
ENDBRANCH  11  12
ENDBRANCH   3  11
BRANCH   1  17
ATOM     17  N   UNL d   1      -0.310   5.602  -2.300  0.00  0.00    -0.206 NA
ATOM     18  H   UNL d   1      -0.533   5.200  -3.212  0.00  0.00     0.153 HD
BRANCH  17  19
ATOM     19  C   UNL d   1       0.691   4.779  -1.710  0.00  0.00     0.027 A 
ATOM     20  C   UNL d   1       1.570   4.076  -2.551  0.00  0.00     0.027 A 
ATOM     21  C   UNL d   1       2.608   3.301  -2.024  0.00  0.00     0.038 A 
ATOM     22  C   UNL d   1       2.797   3.255  -0.639  0.00  0.00     0.103 A 
ATOM     23  C   UNL d   1       1.959   3.983   0.215  0.00  0.00     0.038 A 
ATOM     24  C   UNL d   1       0.919   4.749  -0.326  0.00  0.00     0.027 A 
BRANCH  22  25
ATOM     25  N   UNL d   1       3.891   2.447  -0.084  0.00  0.00    -0.116 N 
ATOM     26  O   UNL d   1       4.045   2.452   1.144  0.00  0.00    -0.532 OA
ATOM     27  O   UNL d   1       4.597   1.811  -0.880  0.00  0.00    -0.532 OA
ENDBRANCH  22  25
ENDBRANCH  17  19
ENDBRANCH   1  17
TORSDOF 8
