REMARK  4 active torsions:
REMARK  status: ('A' for Active; 'I' for Inactive)
REMARK    1  A    between atoms: C_7  and  C_1 
REMARK    2  A    between atoms: S_14  and  C_3 
REMARK    3  A    between atoms: S_6  and  N_8 
REMARK       I    between atoms: N_9  and  C_7 
REMARK    4  A    between atoms: N_8  and  N_9 
ROOT
ATOM      1  C   UNL d   1      -1.793  -0.875   0.039  0.00  0.00     0.082 A 
ATOM      2  S   UNL d   1      -2.649   0.615   0.002  0.00  0.00    -0.076 SA
ATOM      3  C   UNL d   1      -1.221   1.551  -0.035  0.00  0.00     0.052 A 
ATOM      4  C   UNL d   1      -0.419  -0.656   0.038  0.00  0.00    -0.023 A 
ATOM      5  C   UNL d   1      -0.102   0.747   0.007  0.00  0.00    -0.005 A 
ATOM      6  C   UNL d   1       1.256   1.188  -0.008  0.00  0.00     0.010 A 
ATOM      7  C   UNL d   1       2.280   0.321   0.022  0.00  0.00    -0.025 A 
ATOM      8  C   UNL d   1       0.656  -1.714   0.039  0.00  0.00     0.045 A 
ATOM      9  C   UNL d   1       2.103  -1.173   0.054  0.00  0.00     0.032 A 
ENDROOT
BRANCH   1  10
ATOM     10  C   UNL d   1      -2.513  -2.149   0.051  0.00  0.00     0.278 C 
ATOM     11  N   UNL d   1      -3.899  -2.060   0.047  0.00  0.00    -0.256 N 
ATOM     12  H   UNL d   1      -4.382  -1.165  -0.026  0.00  0.00     0.191 HD
ATOM     13  O   UNL d   1      -1.961  -3.253   0.052  0.00  0.00    -0.265 OA
BRANCH  11  14
ATOM     14  N   UNL d   1      -4.711  -3.279  -0.023  0.00  0.00    -0.225 N 
ATOM     15  H   UNL d   1      -4.178  -4.121  -0.276  0.00  0.00     0.200 HD
BRANCH  14  16
ATOM     16  S   UNL d   1      -6.259  -3.102  -0.677  0.00  0.00     0.240 S 
ATOM     17  O   UNL d   1      -6.897  -2.002   0.009  0.00  0.00    -0.205 OA
ATOM     18  O   UNL d   1      -6.112  -3.105  -2.118  0.00  0.00    -0.205 OA
ATOM     19  C   UNL d   1      -7.035  -4.628  -0.186  0.00  0.00     0.187 C 
ENDBRANCH  14  16
ENDBRANCH  11  14
ENDBRANCH   1  10
BRANCH   3  20
ATOM     20  S   UNL d   1      -1.326   3.304  -0.176  0.00  0.00    -0.126 SA
ATOM     21  C   UNL d   1      -0.765   3.821   1.460  0.00  0.00     0.096 C 
ENDBRANCH   3  20
TORSDOF 4
