REMARK  8 active torsions:
REMARK  status: ('A' for Active; 'I' for Inactive)
REMARK    1  A    between atoms: C_8  and  C_1 
REMARK    2  A    between atoms: C_10  and  N_2 
REMARK    3  A    between atoms: C_7  and  C_9 
REMARK       I    between atoms: N_16  and  C_8 
REMARK    4  A    between atoms: C_29  and  N_16 
REMARK    5  A    between atoms: C_21  and  C_28 
REMARK    6  A    between atoms: S_25  and  C_31 
REMARK    7  A    between atoms: C_28  and  S_25 
REMARK    8  A    between atoms: C_31  and  C_29 
ROOT
ATOM      1  C   UNL d   1      -0.795   2.596   0.019  0.00  0.00     0.255 C 
ATOM      2  O   UNL d   1      -0.016   3.545   0.104  0.00  0.00    -0.268 OA
ATOM      3  N   UNL d   1      -2.156   2.793  -0.074  0.00  0.00    -0.356 N 
ATOM      4  H   UNL d   1      -2.789   2.023   0.068  0.00  0.00     0.162 HD
ENDROOT
BRANCH   1   5
ATOM      5  C   UNL d   1      -0.346   1.206   0.027  0.00  0.00     0.073 A 
ATOM      6  C   UNL d   1       0.987   0.802   0.043  0.00  0.00     0.048 A 
ATOM      7  N   UNL d   1       0.985  -0.588   0.036  0.00  0.00    -0.260 N 
ATOM      8  C   UNL d   1       2.196   1.672  -0.025  0.00  0.00     0.071 C 
ATOM      9  N   UNL d   1      -0.276  -1.070  -0.125  0.00  0.00    -0.304 N 
ATOM     10  C   UNL d   1      -1.063   0.002  -0.051  0.00  0.00     0.126 A 
ATOM     11  HN  UNL d   1      -0.558  -2.040  -0.270  1.00  0.00     0.186 HD
BRANCH   7  12
ATOM     12  C   UNL d   1       2.068  -1.502   0.176  0.00  0.00     0.056 A 
ATOM     13  C   UNL d   1       3.223  -1.158   0.890  0.00  0.00     0.033 A 
ATOM     14  C   UNL d   1       4.274  -2.070   1.014  0.00  0.00     0.026 A 
ATOM     15  C   UNL d   1       4.163  -3.337   0.448  0.00  0.00     0.034 A 
ATOM     16  C   UNL d   1       3.012  -3.700  -0.248  0.00  0.00     0.026 A 
ATOM     17 CL   UNL d   1       5.444  -4.468   0.641  0.00  0.00    -0.084 Cl
ATOM     18  C   UNL d   1       1.960  -2.787  -0.378  0.00  0.00     0.033 A 
ENDBRANCH   7  12
ENDBRANCH   1   5
BRANCH   3  19
ATOM     19  C   UNL d   1      -2.684   4.144   0.000  0.00  0.00     0.133 C 
BRANCH  19  20
ATOM     20  C   UNL d   1      -4.213   4.193   0.045  0.00  0.00     0.093 C 
BRANCH  20  21
ATOM     21  S   UNL d   1      -4.798   3.337   1.550  0.00  0.00    -0.163 SA
BRANCH  21  22
ATOM     22  C   UNL d   1      -6.589   3.584   1.369  0.00  0.00     0.112 C 
BRANCH  22  23
ATOM     23  C   UNL d   1      -7.330   2.965   2.530  0.00  0.00    -0.048 A 
ATOM     24  C   UNL d   1      -7.753   1.627   2.474  0.00  0.00     0.024 A 
ATOM     25  C   UNL d   1      -8.454   1.042   3.541  0.00  0.00     0.048 A 
ATOM     26  C   UNL d   1      -8.702   1.806   4.692  0.00  0.00     0.016 A 
ATOM     27  C   UNL d   1      -8.262   3.128   4.768  0.00  0.00     0.001 A 
ATOM     28  C   UNL d   1      -7.583   3.704   3.694  0.00  0.00     0.008 A 
BRANCH  25  29
ATOM     29  C   UNL d   1      -8.956  -0.379   3.457  0.00  0.00     0.417 C 
ATOM     30  F   UNL d   1      -8.656  -0.993   2.277  0.00  0.00    -0.166 F 
ATOM     31  F   UNL d   1      -8.448  -1.180   4.434  0.00  0.00    -0.166 F 
ATOM     32  F   UNL d   1     -10.312  -0.456   3.578  0.00  0.00    -0.166 F 
ENDBRANCH  25  29
ENDBRANCH  22  23
ENDBRANCH  21  22
ENDBRANCH  20  21
ENDBRANCH  19  20
ENDBRANCH   3  19
TORSDOF 8
