REMARK  7 active torsions:
REMARK  status: ('A' for Active; 'I' for Inactive)
REMARK    1  A    between atoms: C_2  and  S_1 
REMARK    2  A    between atoms: N_6  and  S_1 
REMARK    3  A    between atoms: C_7  and  C_3 
REMARK    4  A    between atoms: C_8  and  C_4 
REMARK    5  A    between atoms: C_5  and  N_6 
REMARK    6  A    between atoms: O_19  and  C_7 
REMARK    7  A    between atoms: O_20  and  C_8 
ROOT
ATOM      1  S   UNL d   1       0.711   0.095  -0.017  0.00  0.00     0.247 S 
ATOM      2  O   UNL d   1      -0.236   1.172   0.179  0.00  0.00    -0.205 OA
ATOM      3  O   UNL d   1       2.126   0.342  -0.189  0.00  0.00    -0.205 OA
ENDROOT
BRANCH   1   4
ATOM      4  C   UNL d   1       0.207  -0.552  -1.560  0.00  0.00     0.098 A 
ATOM      5  C   UNL d   1      -1.065  -1.022  -1.848  0.00  0.00     0.102 A 
ATOM      6  S   UNL d   1      -1.190  -1.484  -3.503  0.00  0.00    -0.094 SA
ATOM      7  C   UNL d   1       0.396  -0.967  -3.849  0.00  0.00     0.052 A 
ATOM      8  C   UNL d   1       1.040  -0.501  -2.726  0.00  0.00     0.033 A 
BRANCH   5   9
ATOM      9  C   UNL d   1      -2.199  -1.168  -0.957  0.00  0.00     0.301 C 
ATOM     10  O   UNL d   1      -2.109  -1.318   0.257  0.00  0.00    -0.259 OA
BRANCH   9  11
ATOM     11  O   UNL d   1      -3.368  -1.128  -1.655  0.00  0.00    -0.322 OA
ATOM     12  C   UNL d   1      -4.577  -1.252  -0.905  0.00  0.00     0.213 C 
ENDBRANCH   9  11
ENDBRANCH   5   9
ENDBRANCH   1   4
BRANCH   1  13
ATOM     13  N   UNL d   1       0.465  -1.033   1.226  0.00  0.00    -0.180 NA
ATOM     14  H   UNL d   1      -0.557  -1.139   1.317  0.00  0.00     0.146 HD
BRANCH  13  15
ATOM     15  C   UNL d   1       1.191  -2.243   1.270  0.00  0.00     0.046 A 
ATOM     16  C   UNL d   1       2.456  -2.489   1.798  0.00  0.00     0.102 A 
ATOM     17  S   UNL d   1       2.859  -4.168   1.662  0.00  0.00    -0.094 SA
ATOM     18  C   UNL d   1       1.351  -4.563   0.988  0.00  0.00     0.052 A 
ATOM     19  C   UNL d   1       0.556  -3.454   0.840  0.00  0.00     0.033 A 
BRANCH  16  20
ATOM     20  C   UNL d   1       3.446  -1.648   2.461  0.00  0.00     0.301 C 
ATOM     21  O   UNL d   1       4.522  -2.028   2.908  0.00  0.00    -0.259 OA
BRANCH  20  22
ATOM     22  O   UNL d   1       3.005  -0.360   2.558  0.00  0.00    -0.322 OA
ATOM     23  C   UNL d   1       3.928   0.556   3.150  0.00  0.00     0.213 C 
ENDBRANCH  20  22
ENDBRANCH  16  20
ENDBRANCH  13  15
ENDBRANCH   1  13
TORSDOF 7
