REMARK  4 active torsions:
REMARK  status: ('A' for Active; 'I' for Inactive)
REMARK    1  A    between atoms: C_5  and  C_1 
REMARK    2  A    between atoms: N_9  and  N_2 
REMARK    3  A    between atoms: C_3  and  C_4 
REMARK    4  A    between atoms: C_6  and  C_5 
ROOT
ATOM      1  C   UNL d   1       0.863  -0.458   0.044  0.00  0.00     0.099 C 
ATOM      2  C   UNL d   1       0.375   0.110   1.165  0.00  0.00     0.058 C 
ATOM      3  C   UNL d   1       2.058  -1.233   0.031  0.00  0.00     0.103 C 
ATOM      4  N   UNL d   1       3.057  -1.822   0.011  0.00  0.00    -0.191 NA
ENDROOT
BRANCH   1   5
ATOM      5  C   UNL d   1       0.142  -0.190  -1.246  0.00  0.00     0.226 C 
ATOM      6  O   UNL d   1      -0.571   0.811  -1.341  0.00  0.00    -0.284 OA
BRANCH   5   7
ATOM      7  C   UNL d   1       0.330  -1.102  -2.359  0.00  0.00     0.126 A 
ATOM      8  O   UNL d   1       0.660  -2.408  -2.123  0.00  0.00    -0.319 OA
ATOM      9  C   UNL d   1       0.786  -3.020  -3.328  0.00  0.00     0.142 A 
ATOM     10  C   UNL d   1       0.522  -2.136  -4.345  0.00  0.00     0.027 A 
ATOM     11  C   UNL d   1       0.198  -0.904  -3.723  0.00  0.00     0.043 A 
ENDBRANCH   5   7
ENDBRANCH   1   5
BRANCH   2  12
ATOM     12  C   UNL d   1       0.944  -0.151   2.439  0.00  0.00     0.052 A 
ATOM     13  N   UNL d   1       1.860   0.692   3.051  0.00  0.00    -0.287 N 
ATOM     14  C   UNL d   1       2.294   0.096   4.210  0.00  0.00     0.111 A 
ATOM     15  C   UNL d   1       1.598  -1.075   4.400  0.00  0.00     0.021 A 
ATOM     16  C   UNL d   1       0.729  -1.218   3.298  0.00  0.00     0.032 A 
BRANCH  13  17
ATOM     17  N   UNL d   1       2.338   1.988   2.683  0.00  0.00    -0.233 NA
ATOM     18  C   UNL d   1       1.321   2.937   2.267  0.00  0.00     0.136 C 
ATOM     19  C   UNL d   1       3.506   1.963   1.820  0.00  0.00     0.136 C 
ENDBRANCH  13  17
ENDBRANCH   2  12
TORSDOF 4
