REMARK  7 active torsions:
REMARK  status: ('A' for Active; 'I' for Inactive)
REMARK    1  A    between atoms: N_2  and  C_1 
REMARK    2  A    between atoms: C_13  and  C_5 
REMARK    3  A    between atoms: C_6  and  O_14 
REMARK       I    between atoms: N_15  and  C_6 
REMARK    4  A    between atoms: O_14  and  N_9 
REMARK    5  A    between atoms: C_16  and  N_15 
REMARK    6  A    between atoms: C_17  and  C_16 
REMARK    7  A    between atoms: C_18  and  C_17 
ROOT
ATOM      1  N   UNL d   1       5.351  -3.178  -0.042  0.00  0.00    -0.267 N 
ATOM      2  HN  UNL d   1       6.294  -3.566  -0.060  1.00  0.00     0.194 HD
ATOM      3  C   UNL d   1       4.266  -3.875   0.000  0.00  0.00     0.126 C 
ENDROOT
BRANCH   1   4
ATOM      4  O   UNL d   1       5.041  -1.796  -0.059  0.00  0.00    -0.181 OA
BRANCH   4   5
ATOM      5  C   UNL d   1       6.193  -1.032   0.043  0.00  0.00     0.382 C 
ATOM      6  O   UNL d   1       6.154   0.188   0.170  0.00  0.00    -0.236 OA
ATOM      7  N   UNL d   1       7.344  -1.774   0.013  0.00  0.00    -0.335 N 
ATOM      8  H   UNL d   1       7.161  -2.768  -0.061  0.00  0.00     0.164 HD
BRANCH   7   9
ATOM      9  C   UNL d   1       8.629  -1.297   0.458  0.00  0.00     0.125 C 
BRANCH   9  10
ATOM     10  C   UNL d   1       8.827  -1.489   1.965  0.00  0.00     0.019 C 
BRANCH  10  11
ATOM     11  C   UNL d   1       8.800  -2.962   2.390  0.00  0.00    -0.003 C 
ATOM     12  C   UNL d   1       9.050  -3.124   3.882  0.00  0.00     0.005 C 
ENDBRANCH  10  11
ENDBRANCH   9  10
ENDBRANCH   7   9
ENDBRANCH   4   5
ENDBRANCH   1   4
BRANCH   3  13
ATOM     13  C   UNL d   1       4.425  -5.318   0.023  0.00  0.00    -0.009 A 
ATOM     14  C   UNL d   1       5.679  -6.024   0.043  0.00  0.00     0.057 A 
ATOM     15  C   UNL d   1       5.509  -7.388   0.050  0.00  0.00     0.144 A 
ATOM     16  S   UNL d   1       3.873  -7.842   0.042  0.00  0.00    -0.077 SA
ATOM     17  C   UNL d   1       3.363  -6.203   0.027  0.00  0.00     0.065 A 
BRANCH  15  18
ATOM     18  N   UNL d   1       6.557  -8.379   0.060  0.00  0.00    -0.108 N 
ATOM     19  O   UNL d   1       7.716  -7.947   0.067  0.00  0.00    -0.531 OA
ATOM     20  O   UNL d   1       6.234  -9.573   0.058  0.00  0.00    -0.531 OA
ENDBRANCH  15  18
ENDBRANCH   3  13
TORSDOF 7
