REMARK  2 active torsions:
REMARK  status: ('A' for Active; 'I' for Inactive)
REMARK    1  A    between atoms: N_11  and  C_4 
REMARK    2  A    between atoms: C_8  and  C_5 
ROOT
ATOM      1  C   UNL d   1       0.828   1.160  -0.335  0.00  0.00     0.071 C 
ATOM      2  C   UNL d   1       1.410  -0.103   0.177  0.00  0.00     0.165 C 
ATOM      3  C   UNL d   1      -0.646   1.350  -0.194  0.00  0.00     0.165 C 
ATOM      4  C   UNL d   1       1.481   2.072  -1.075  0.00  0.00     0.103 C 
ATOM      5  C   UNL d   1      -0.845  -1.133   0.440  0.00  0.00     0.033 C 
ATOM      6  C   UNL d   1      -1.502   0.095  -0.208  0.00  0.00     0.093 C 
ATOM      7  C   UNL d   1       0.584  -1.336  -0.074  0.00  0.00     0.093 C 
ATOM      8  O   UNL d   1       2.482  -0.152   0.772  0.00  0.00    -0.292 OA
ATOM      9  O   UNL d   1      -1.164   2.465  -0.152  0.00  0.00    -0.292 OA
ENDROOT
BRANCH   5  10
ATOM     10  C   UNL d   1      -0.886  -1.177   1.962  0.00  0.00    -0.053 A 
ATOM     11  C   UNL d   1      -0.876  -2.436   2.593  0.00  0.00     0.009 A 
ATOM     12  C   UNL d   1      -0.855  -2.543   3.985  0.00  0.00     0.024 A 
ATOM     13  C   UNL d   1      -0.840  -1.394   4.768  0.00  0.00     0.034 A 
ATOM     14  C   UNL d   1      -0.854  -0.140   4.165  0.00  0.00     0.024 A 
ATOM     15 CL   UNL d   1      -0.795  -1.522   6.481  0.00  0.00    -0.084 Cl
ATOM     16  C   UNL d   1      -0.881  -0.031   2.772  0.00  0.00     0.009 A 
ENDBRANCH   5  10
BRANCH   4  17
ATOM     17  N   UNL d   1       2.762   2.151  -1.614  0.00  0.00    -0.398 N 
ATOM     18  C   UNL d   1       3.791   1.118  -1.479  0.00  0.00     0.148 C 
ATOM     19  C   UNL d   1       3.260   3.398  -2.209  0.00  0.00     0.148 C 
ENDBRANCH   4  17
TORSDOF 2
