REMARK  2 active torsions:
REMARK  status: ('A' for Active; 'I' for Inactive)
REMARK    1  A    between atoms: C_7  and  C_4 
REMARK    2  A    between atoms: C_10  and  C_5 
ROOT
ATOM      1  N   UNL d   1      -2.296  -0.002  -0.000  0.00  0.00    -0.339 N 
ATOM      2  HN  UNL d   1      -3.316  -0.013  -0.015  1.00  0.00     0.167 HD
ATOM      3  N   UNL d   1      -0.164  -0.654  -0.016  0.00  0.00    -0.305 N 
ATOM      4  C   UNL d   1      -1.497  -1.058   0.041  0.00  0.00     0.123 A 
ATOM      5  C   UNL d   1      -1.488   1.113  -0.020  0.00  0.00     0.071 A 
ATOM      6  C   UNL d   1      -0.160   0.741   0.045  0.00  0.00     0.068 A 
ATOM      7  C   UNL d   1       1.022  -1.391  -0.132  0.00  0.00     0.099 A 
ATOM      8  C   UNL d   1       1.105   1.397   0.129  0.00  0.00     0.032 A 
ATOM      9  C   UNL d   1       2.209  -0.765  -0.102  0.00  0.00     0.018 A 
ATOM     10  C   UNL d   1       2.238   0.675   0.059  0.00  0.00     0.004 A 
ENDROOT
BRANCH   4  11
ATOM     11  C   UNL d   1      -1.974  -2.454   0.089  0.00  0.00     0.009 A 
ATOM     12  C   UNL d   1      -1.300  -3.461   0.797  0.00  0.00     0.016 A 
ATOM     13  C   UNL d   1      -1.746  -4.787   0.766  0.00  0.00     0.019 A 
ATOM     14  C   UNL d   1      -2.903  -5.112   0.064  0.00  0.00     0.006 A 
ATOM     15  C   UNL d   1      -3.626  -4.117  -0.592  0.00  0.00     0.019 A 
ATOM     16  I   UNL d   1      -3.555  -7.083   0.003  0.00  0.00    -0.045 I 
ATOM     17  C   UNL d   1      -3.162  -2.797  -0.576  0.00  0.00     0.016 A 
ENDBRANCH   4  11
BRANCH   5  18
ATOM     18  C   UNL d   1      -2.016   2.471  -0.065  0.00  0.00    -0.007 A 
ATOM     19  C   UNL d   1      -3.245   2.760   0.544  0.00  0.00     0.014 A 
ATOM     20  C   UNL d   1      -3.756   4.062   0.542  0.00  0.00     0.001 A 
ATOM     21  C   UNL d   1      -3.047   5.091  -0.075  0.00  0.00     0.000 A 
ATOM     22  C   UNL d   1      -1.839   4.815  -0.709  0.00  0.00     0.001 A 
ATOM     23  C   UNL d   1      -1.336   3.511  -0.717  0.00  0.00     0.014 A 
ENDBRANCH   5  18
TORSDOF 2
