REMARK  1 active torsions:
REMARK  status: ('A' for Active; 'I' for Inactive)
REMARK       I    between atoms: N_2  and  C_1 
REMARK       I    between atoms: N_8  and  C_1 
REMARK    1  A    between atoms: C_3  and  N_2 
ROOT
ATOM      1  C   UNL d   1       1.029  -0.789   2.337  0.00  0.00     0.042 A 
ATOM      2  C   UNL d   1       2.192  -0.212   2.879  0.00  0.00    -0.034 A 
ATOM      3  C   UNL d   1       2.763  -0.785   4.031  0.00  0.00     0.032 A 
ATOM      4  C   UNL d   1       0.467  -1.921   2.946  0.00  0.00     0.032 A 
ATOM      5  C   UNL d   1       2.188  -1.906   4.629  0.00  0.00     0.034 A 
ATOM      6  C   UNL d   1       1.044  -2.480   4.088  0.00  0.00     0.026 A 
ATOM      7 CL   UNL d   1       2.898  -2.581   6.042  0.00  0.00    -0.084 Cl
ATOM      8  C   UNL d   1       2.841   1.026   2.321  0.00  0.00     0.050 C 
ENDROOT
BRANCH   1   9
ATOM      9  N   UNL d   1       0.473  -0.257   1.160  0.00  0.00    -0.313 N 
ATOM     10  C   UNL d   1      -0.828  -0.164   0.777  0.00  0.00     0.296 C 
ATOM     11  O   UNL d   1      -1.143   0.184  -0.353  0.00  0.00    -0.254 OA
ATOM     12  N   UNL d   1      -1.768  -0.370   1.730  0.00  0.00    -0.254 NA
ATOM     13  H   UNL d   1      -1.517  -0.093   2.670  0.00  0.00     0.128 HD
ATOM     14  H   UNL d   1      -2.694  -0.085   1.440  0.00  0.00     0.128 HD
ATOM     15  H   UNL d   1       1.100   0.174   0.493  0.00  0.00     0.170 HD
ENDBRANCH   1   9
TORSDOF 1
