REMARK  4 active torsions:
REMARK  status: ('A' for Active; 'I' for Inactive)
REMARK    1  A    between atoms: C_3  and  C_1 
REMARK    2  A    between atoms: C_8  and  C_2 
REMARK       I    between atoms: N_14  and  C_8 
REMARK    3  A    between atoms: C_16  and  C_9 
REMARK    4  A    between atoms: C_17  and  N_14 
ROOT
ATOM      1  C   UNL d   1      -0.028  -1.293   0.062  0.00  0.00     0.057 A 
ATOM      2  C   UNL d   1      -1.351  -0.781   0.142  0.00  0.00     0.137 A 
ATOM      3  N   UNL d   1      -1.337   0.567   0.108  0.00  0.00    -0.255 N 
ATOM      4  HN  UNL d   1      -2.145   1.189   0.092  1.00  0.00     0.195 HD
ATOM      5  O   UNL d   1      -0.003   0.933   0.100  0.00  0.00    -0.241 OA
ATOM      6  C   UNL d   1       0.779  -0.180   0.073  0.00  0.00     0.087 A 
ATOM      7  C   UNL d   1       2.237   0.044   0.033  0.00  0.00     0.080 C 
ENDROOT
BRANCH   1   8
ATOM      8  C   UNL d   1       0.362  -2.692  -0.041  0.00  0.00     0.055 A 
ATOM      9  N   UNL d   1      -0.435  -3.551  -0.777  0.00  0.00    -0.349 N 
ATOM     10  C   UNL d   1       0.075  -4.768  -0.781  0.00  0.00     0.084 A 
ATOM     11  HN  UNL d   1      -1.297  -3.281  -1.251  1.00  0.00     0.166 HD
ATOM     12  S   UNL d   1       1.564  -4.922   0.080  0.00  0.00    -0.081 SA
ATOM     13  C   UNL d   1       1.506  -3.261   0.477  0.00  0.00     0.082 A 
BRANCH  10  14
ATOM     14  C   UNL d   1      -0.551  -5.946  -1.411  0.00  0.00    -0.002 A 
ATOM     15  C   UNL d   1       0.203  -7.000  -1.955  0.00  0.00     0.014 A 
ATOM     16  C   UNL d   1      -0.422  -8.115  -2.523  0.00  0.00     0.001 A 
ATOM     17  C   UNL d   1      -1.811  -8.190  -2.562  0.00  0.00     0.000 A 
ATOM     18  C   UNL d   1      -2.576  -7.147  -2.043  0.00  0.00     0.001 A 
ATOM     19  C   UNL d   1      -1.951  -6.031  -1.477  0.00  0.00     0.014 A 
ENDBRANCH  10  14
ENDBRANCH   1   8
BRANCH   2  20
ATOM     20  C   UNL d   1      -2.607  -1.520   0.297  0.00  0.00     0.275 C 
ATOM     21  N   UNL d   1      -3.693  -0.909  -0.321  0.00  0.00    -0.322 N 
ATOM     22  H   UNL d   1      -3.481  -0.063  -0.839  0.00  0.00     0.169 HD
ATOM     23  O   UNL d   1      -2.643  -2.575   0.924  0.00  0.00    -0.266 OA
BRANCH  21  24
ATOM     24  C   UNL d   1      -4.994  -1.440  -0.433  0.00  0.00     0.035 A 
ATOM     25  C   UNL d   1      -5.440  -2.531   0.314  0.00  0.00     0.030 A 
ATOM     26  C   UNL d   1      -6.699  -3.091   0.083  0.00  0.00     0.009 A 
ATOM     27  C   UNL d   1      -7.541  -2.565  -0.898  0.00  0.00    -0.062 A 
ATOM     28  C   UNL d   1      -7.125  -1.434  -1.607  0.00  0.00     0.009 A 
ATOM     29  C   UNL d   1      -8.839  -3.252  -1.198  0.00  0.00     0.048 C 
ATOM     30  C   UNL d   1      -5.865  -0.867  -1.367  0.00  0.00     0.030 A 
ENDBRANCH  21  24
ENDBRANCH   2  20
TORSDOF 4
