REMARK  3 active torsions:
REMARK  status: ('A' for Active; 'I' for Inactive)
REMARK    1  A    between atoms: C_6  and  C_1 
REMARK    2  A    between atoms: C_5  and  N_10 
REMARK       I    between atoms: N_10  and  C_6 
REMARK    3  A    between atoms: C_15  and  C_7 
ROOT
ATOM      1  C   UNL d   1       3.897  -0.059   0.095  0.00  0.00     0.266 C 
ATOM      2  N   UNL d   1       4.559  -1.240  -0.176  0.00  0.00    -0.301 N 
ATOM      3  O   UNL d   1       4.472   1.000   0.325  0.00  0.00    -0.267 OA
ATOM      4  H   UNL d   1       4.026  -2.060  -0.434  0.00  0.00     0.171 HD
ENDROOT
BRANCH   1   5
ATOM      5  C   UNL d   1       2.433  -0.128   0.089  0.00  0.00     0.096 A 
ATOM      6  S   UNL d   1       1.594  -1.595  -0.179  0.00  0.00    -0.082 SA
ATOM      7  C   UNL d   1       0.053  -0.872   0.070  0.00  0.00     0.017 A 
ATOM      8  C   UNL d   1      -1.205  -1.508   0.030  0.00  0.00     0.020 A 
ATOM      9  C   UNL d   1       0.169   0.493   0.338  0.00  0.00     0.004 A 
ATOM     10  C   UNL d   1      -2.354  -0.760   0.298  0.00  0.00     0.001 A 
ATOM     11  C   UNL d   1      -2.264   0.592   0.589  0.00  0.00     0.001 A 
ATOM     12  C   UNL d   1      -1.019   1.223   0.601  0.00  0.00     0.014 A 
ATOM     13  C   UNL d   1       1.544   0.913   0.299  0.00  0.00     0.068 A 
ATOM     14 CL   UNL d   1       1.962   2.570   0.523  0.00  0.00    -0.082 Cl
ENDBRANCH   1   5
BRANCH   2  15
ATOM     15  C   UNL d   1       5.924  -1.398  -0.255  0.00  0.00     0.168 A 
ATOM     16  S   UNL d   1       7.029  -0.181   0.199  0.00  0.00    -0.037 SA
ATOM     17  C   UNL d   1       8.275  -1.184  -0.391  0.00  0.00     0.074 A 
ATOM     18  N   UNL d   1       7.874  -2.377  -0.778  0.00  0.00    -0.296 N 
ATOM     19  N   UNL d   1       6.496  -2.508  -0.679  0.00  0.00    -0.279 N 
ATOM     20  HN  UNL d   1       8.499  -3.112  -1.110  1.00  0.00     0.187 HD
ATOM     21  HN  UNL d   1       5.986  -3.362  -0.907  1.00  0.00     0.189 HD
BRANCH  17  22
ATOM     22  C   UNL d   1       9.711  -0.682  -0.501  0.00  0.00     0.044 A 
ATOM     23  C   UNL d   1      10.496  -1.095  -1.731  0.00  0.00     0.012 A 
ATOM     24  C   UNL d   1      10.869  -1.648  -0.398  0.00  0.00     0.012 A 
ENDBRANCH  17  22
ENDBRANCH   2  15
TORSDOF 3
