REMARK  8 active torsions:
REMARK  status: ('A' for Active; 'I' for Inactive)
REMARK    1  A    between atoms: C_8  and  C_1 
REMARK    2  A    between atoms: C_2  and  O_7 
REMARK    3  A    between atoms: C_4  and  C_2 
REMARK    4  A    between atoms: C_3  and  C_9 
REMARK    5  A    between atoms: O_7  and  C_23 
REMARK    6  A    between atoms: N_10  and  O_22 
REMARK    7  A    between atoms: O_22  and  C_31 
REMARK    8  A    between atoms: C_31  and  C_26 
ROOT
ATOM      1  C   UNL d   1      -5.940  -5.190   1.550  0.00  0.00     0.040 A 
ATOM      2  C   UNL d   1      -5.296  -4.153   0.856  0.00  0.00     0.027 A 
ATOM      3  C   UNL d   1      -4.865  -4.331  -0.471  0.00  0.00    -0.031 A 
ATOM      4  C   UNL d   1      -6.109  -6.430   0.918  0.00  0.00     0.017 A 
ATOM      5  C   UNL d   1      -5.657  -6.624  -0.390  0.00  0.00     0.002 A 
ATOM      6  C   UNL d   1      -5.045  -5.578  -1.083  0.00  0.00     0.009 A 
ENDROOT
BRANCH   3   7
ATOM      7  C   UNL d   1      -4.287  -3.170  -1.245  0.00  0.00     0.239 C 
BRANCH   7   8
ATOM      8  O   UNL d   1      -3.104  -2.694  -0.603  0.00  0.00    -0.276 OA
BRANCH   8   9
ATOM      9  N   UNL d   1      -2.624  -1.584  -1.320  0.00  0.00    -0.270 N 
ATOM     10  C   UNL d   1      -1.525  -1.121  -0.800  0.00  0.00     0.038 C 
ATOM     11  C   UNL d   1      -0.896  -1.713   0.445  0.00  0.00     0.071 C 
ATOM     12  HN  UNL d   1      -3.079  -1.192  -2.145  1.00  0.00     0.194 HD
BRANCH  10  13
ATOM     13  C   UNL d   1      -0.864   0.047  -1.454  0.00  0.00    -0.010 A 
ATOM     14  C   UNL d   1      -1.657   0.987  -2.129  0.00  0.00     0.039 A 
ATOM     15  C   UNL d   1      -1.065   2.081  -2.769  0.00  0.00     0.056 A 
ATOM     16 CL   UNL d   1      -2.106   3.203  -3.570  0.00  0.00    -0.083 Cl
ATOM     17  C   UNL d   1       0.325   2.237  -2.744  0.00  0.00     0.055 A 
ATOM     18  C   UNL d   1       1.117   1.296  -2.079  0.00  0.00     0.026 A 
ATOM     19 CL   UNL d   1       1.127   3.556  -3.518  0.00  0.00    -0.083 Cl
ATOM     20  C   UNL d   1       0.526   0.201  -1.439  0.00  0.00     0.015 A 
ENDBRANCH  10  13
ENDBRANCH   8   9
ENDBRANCH   7   8
ENDBRANCH   3   7
BRANCH   1  21
ATOM     21  C   UNL d   1      -6.514  -5.004   2.917  0.00  0.00     0.298 C 
ATOM     22  O   UNL d   1      -7.095  -5.883   3.539  0.00  0.00    -0.259 OA
BRANCH  21  23
ATOM     23  O   UNL d   1      -6.309  -3.693   3.324  0.00  0.00    -0.275 OA
BRANCH  23  24
ATOM     24  C   UNL d   1      -6.896  -3.107   4.469  0.00  0.00     0.079 A 
ATOM     25  C   UNL d   1      -6.197  -2.029   5.013  0.00  0.00     0.038 A 
ATOM     26  C   UNL d   1      -6.746  -1.308   6.074  0.00  0.00     0.019 A 
ATOM     27  C   UNL d   1      -8.004  -1.652   6.594  0.00  0.00     0.048 A 
ATOM     28  C   UNL d   1      -8.692  -2.743   6.035  0.00  0.00     0.019 A 
ATOM     29  C   UNL d   1      -8.143  -3.469   4.971  0.00  0.00     0.038 A 
BRANCH  27  30
ATOM     30  C   UNL d   1      -8.596  -0.838   7.721  0.00  0.00     0.417 C 
ATOM     31  F   UNL d   1      -9.824  -1.269   8.123  0.00  0.00    -0.166 F 
ATOM     32  F   UNL d   1      -8.754   0.473   7.386  0.00  0.00    -0.166 F 
ATOM     33  F   UNL d   1      -7.815  -0.844   8.837  0.00  0.00    -0.166 F 
ENDBRANCH  27  30
ENDBRANCH  23  24
ENDBRANCH  21  23
ENDBRANCH   1  21
TORSDOF 8
