REMARK  5 active torsions:
REMARK  status: ('A' for Active; 'I' for Inactive)
REMARK    1  A    between atoms: C_7  and  C_2 
REMARK    2  A    between atoms: C_11  and  N_4 
REMARK    3  A    between atoms: C_6  and  O_14 
REMARK    4  A    between atoms: C_12  and  C_6 
REMARK    5  A    between atoms: O_14  and  N_9 
ROOT
ATOM      1  C   UNL d   1      -0.365  -1.122   0.249  0.00  0.00     0.280 C 
ATOM      2  C   UNL d   1       1.029  -0.659   0.007  0.00  0.00     0.075 C 
ATOM      3  N   UNL d   1      -0.404   1.088  -0.345  0.00  0.00    -0.290 N 
ATOM      4  N   UNL d   1      -1.187  -0.000   0.093  0.00  0.00    -0.218 N 
ATOM      5  C   UNL d   1       0.930   0.661  -0.218  0.00  0.00     0.042 C 
ATOM      6  O   UNL d   1      -0.658  -2.275   0.517  0.00  0.00    -0.265 OA
ATOM      7  C   UNL d   1      -0.819   2.440   0.029  0.00  0.00     0.178 C 
ATOM      8  C   UNL d   1       2.054   1.653  -0.237  0.00  0.00     0.071 C 
ENDROOT
BRANCH   2   9
ATOM      9  C   UNL d   1       2.223  -1.507   0.157  0.00  0.00     0.133 C 
ATOM     10  N   UNL d   1       3.366  -1.213  -0.370  0.00  0.00    -0.268 N 
ATOM     11  HN  UNL d   1       3.548  -0.379  -0.928  1.00  0.00     0.194 HD
BRANCH  10  12
ATOM     12  O   UNL d   1       4.329  -2.197  -0.069  0.00  0.00    -0.195 OA
BRANCH  12  13
ATOM     13  C   UNL d   1       5.509  -1.883  -0.685  0.00  0.00     0.315 C 
ATOM     14  O   UNL d   1       5.728  -0.947  -1.447  0.00  0.00    -0.257 OA
BRANCH  13  15
ATOM     15  C   UNL d   1       6.580  -2.850  -0.306  0.00  0.00     0.041 A 
ATOM     16  C   UNL d   1       7.842  -2.712  -0.913  0.00  0.00     0.019 A 
ATOM     17  C   UNL d   1       8.891  -3.574  -0.582  0.00  0.00     0.025 A 
ATOM     18  C   UNL d   1       8.686  -4.581   0.358  0.00  0.00     0.034 A 
ATOM     19  C   UNL d   1       7.441  -4.731   0.970  0.00  0.00     0.025 A 
ATOM     20 CL   UNL d   1       9.974  -5.644   0.768  0.00  0.00    -0.084 Cl
ATOM     21  C   UNL d   1       6.388  -3.870   0.638  0.00  0.00     0.019 A 
ENDBRANCH  13  15
ENDBRANCH  12  13
ENDBRANCH  10  12
ENDBRANCH   2   9
BRANCH   4  22
ATOM     22  C   UNL d   1      -2.593  -0.022   0.058  0.00  0.00     0.060 A 
ATOM     23  C   UNL d   1      -3.288  -0.610   1.122  0.00  0.00     0.031 A 
ATOM     24  C   UNL d   1      -4.684  -0.569   1.164  0.00  0.00     0.002 A 
ATOM     25  C   UNL d   1      -5.396   0.014   0.118  0.00  0.00     0.000 A 
ATOM     26  C   UNL d   1      -4.713   0.566  -0.966  0.00  0.00     0.002 A 
ATOM     27  C   UNL d   1      -3.315   0.564  -0.988  0.00  0.00     0.031 A 
ENDBRANCH   4  22
TORSDOF 5
