REMARK  4 active torsions:
REMARK  status: ('A' for Active; 'I' for Inactive)
REMARK    1  A    between atoms: N_6  and  C_1 
REMARK       I    between atoms: C_4  and  N_6 
REMARK    2  A    between atoms: C_7  and  C_4 
REMARK       I    between atoms: N_10  and  C_7 
REMARK    3  A    between atoms: C_13  and  N_10 
REMARK    4  A    between atoms: C_16  and  C_13 
ROOT
ATOM      1  C   UNL d   1      -1.190  -3.786   0.314  0.00  0.00     0.309 C 
ATOM      2  N   UNL d   1      -1.209  -5.061  -0.200  0.00  0.00    -0.349 N 
ATOM      3  O   UNL d   1      -0.296  -3.287   0.986  0.00  0.00    -0.262 OA
ATOM      4  H   UNL d   1      -1.968  -5.280  -0.843  0.00  0.00     0.163 HD
ENDROOT
BRANCH   1   5
ATOM      5  C   UNL d   1      -2.452  -2.962  -0.005  0.00  0.00     0.315 C 
ATOM      6  N   UNL d   1      -2.409  -1.717   0.581  0.00  0.00    -0.303 N 
ATOM      7  H   UNL d   1      -1.565  -1.480   1.090  0.00  0.00     0.171 HD
ATOM      8  O   UNL d   1      -3.317  -3.475  -0.699  0.00  0.00    -0.262 OA
BRANCH   6   9
ATOM      9  C   UNL d   1      -3.457  -0.822   0.594  0.00  0.00     0.131 A 
ATOM     10  N   UNL d   1      -4.659  -1.029   0.051  0.00  0.00    -0.245 N 
ATOM     11  O   UNL d   1      -5.418   0.085   0.344  0.00  0.00    -0.241 OA
ATOM     12  HN  UNL d   1      -4.958  -1.850  -0.475  1.00  0.00     0.196 HD
ATOM     13  C   UNL d   1      -4.670   0.966   1.057  0.00  0.00     0.076 A 
ATOM     14  C   UNL d   1      -3.409   0.447   1.223  0.00  0.00     0.084 A 
ATOM     15  C   UNL d   1      -5.347   2.205   1.478  0.00  0.00     0.079 C 
ENDBRANCH   6   9
ENDBRANCH   1   5
BRANCH   2  16
ATOM     16  C   UNL d   1      -0.105  -5.975  -0.044  0.00  0.00     0.161 C 
BRANCH  16  17
ATOM     17  C   UNL d   1      -0.521  -7.427  -0.056  0.00  0.00    -0.039 A 
ATOM     18  C   UNL d   1       0.378  -8.398  -0.529  0.00  0.00     0.032 A 
ATOM     19  C   UNL d   1       0.046  -9.753  -0.485  0.00  0.00     0.034 A 
ATOM     20 CL   UNL d   1       1.169 -10.925  -1.059  0.00  0.00    -0.084 Cl
ATOM     21  C   UNL d   1      -1.179 -10.165   0.031  0.00  0.00     0.024 A 
ATOM     22  C   UNL d   1      -2.076  -9.215   0.514  0.00  0.00     0.002 A 
ATOM     23  C   UNL d   1      -1.746  -7.857   0.480  0.00  0.00     0.009 A 
ENDBRANCH  16  17
ENDBRANCH   2  16
TORSDOF 4
