REMARK  3 active torsions:
REMARK  status: ('A' for Active; 'I' for Inactive)
REMARK       I    between atoms: C_3  and  N_1 
REMARK    1  A    between atoms: C_5  and  C_3 
REMARK    2  A    between atoms: N_6  and  C_4 
REMARK    3  A    between atoms: S_10  and  C_4 
ROOT
ATOM      1  N   UNL d   1       1.278  -0.094   0.196  0.00  0.00    -0.303 N 
ATOM      2  HN  UNL d   1       0.870   0.824   0.376  1.00  0.00     0.171 HD
ATOM      3  C   UNL d   1       0.545  -1.207   0.511  0.00  0.00     0.261 C 
ATOM      4  C   UNL d   1       2.472  -0.152  -0.324  0.00  0.00     0.144 C 
ATOM      5  O   UNL d   1       1.020  -2.244   0.967  0.00  0.00    -0.267 OA
ENDROOT
BRANCH   3   6
ATOM      6  C   UNL d   1      -0.946  -1.124   0.356  0.00  0.00     0.075 A 
ATOM      7  C   UNL d   1      -1.780  -1.925   1.170  0.00  0.00     0.051 A 
ATOM      8 CL   UNL d   1      -1.237  -2.803   2.568  0.00  0.00    -0.083 Cl
ATOM      9  C   UNL d   1      -3.160  -2.014   0.932  0.00  0.00     0.025 A 
ATOM     10  C   UNL d   1      -3.751  -1.272  -0.083  0.00  0.00     0.003 A 
ATOM     11  C   UNL d   1      -2.963  -0.417  -0.842  0.00  0.00     0.025 A 
ATOM     12  C   UNL d   1      -1.572  -0.339  -0.635  0.00  0.00     0.051 A 
ATOM     13 CL   UNL d   1      -0.751   0.742  -1.713  0.00  0.00    -0.083 Cl
ENDBRANCH   3   6
BRANCH   4  14
ATOM     14  N   UNL d   1       3.149   1.013  -0.665  0.00  0.00    -0.358 N 
ATOM     15  C   UNL d   1       2.553   2.341  -0.434  0.00  0.00     0.151 C 
ATOM     16  C   UNL d   1       2.571   3.166  -1.729  0.00  0.00     0.187 C 
ATOM     17  O   UNL d   1       3.898   3.267  -2.272  0.00  0.00    -0.388 OA
ATOM     18  C   UNL d   1       4.419   1.958  -2.552  0.00  0.00     0.187 C 
ATOM     19  C   UNL d   1       4.489   1.112  -1.273  0.00  0.00     0.151 C 
ENDBRANCH   4  14
BRANCH   4  20
ATOM     20  S   UNL d   1       3.305  -1.673  -0.679  0.00  0.00    -0.098 SA
ATOM     21  C   UNL d   1       4.179  -1.858   0.896  0.00  0.00     0.099 C 
ENDBRANCH   4  20
TORSDOF 3
