REMARK  3 active torsions:
REMARK  status: ('A' for Active; 'I' for Inactive)
REMARK    1  A    between atoms: C_2  and  S_1 
REMARK    2  A    between atoms: N_3  and  S_1 
REMARK    3  A    between atoms: C_11  and  N_3 
ROOT
ATOM      1  C   UNL d   1       0.063  -4.759  -3.462  0.00  0.00    -0.078 C 
ATOM      2  C   UNL d   1      -0.513  -5.151  -4.439  0.00  0.00     0.018 C 
ATOM      3  C   UNL d   1       0.842  -2.619  -0.522  0.00  0.00     0.044 A 
ATOM      4  C   UNL d   1       0.711  -4.266  -2.283  0.00  0.00     0.019 A 
ATOM      5  C   UNL d   1       0.235  -3.101  -1.680  0.00  0.00     0.050 A 
ATOM      6  C   UNL d   1       2.394  -4.467  -0.559  0.00  0.00     0.004 A 
ATOM      7  C   UNL d   1       1.918  -3.299   0.044  0.00  0.00     0.030 A 
ATOM      8  C   UNL d   1       1.790  -4.951  -1.723  0.00  0.00     0.021 A 
ENDROOT
BRANCH   3   9
ATOM      9  N   UNL d   1       0.271  -1.496   0.120  0.00  0.00    -0.281 N 
ATOM     10  H   UNL d   1      -0.410  -1.627   0.866  0.00  0.00     0.179 HD
BRANCH   9  11
ATOM     11  S   UNL d   1       0.901   0.039  -0.060  0.00  0.00     0.263 S 
ATOM     12  O   UNL d   1       0.061   0.914   0.734  0.00  0.00    -0.200 OA
ATOM     13  O   UNL d   1       2.332   0.004   0.128  0.00  0.00    -0.200 OA
BRANCH  11  14
ATOM     14  C   UNL d   1       0.572   0.407  -1.770  0.00  0.00     0.081 A 
ATOM     15  C   UNL d   1      -0.643   0.991  -2.144  0.00  0.00     0.050 A 
ATOM     16  C   UNL d   1      -0.883   1.280  -3.491  0.00  0.00     0.057 A 
ATOM     17 CL   UNL d   1      -2.405   1.986  -3.904  0.00  0.00    -0.083 Cl
ATOM     18  C   UNL d   1       0.093   0.994  -4.456  0.00  0.00     0.055 A 
ATOM     19  C   UNL d   1       1.314   0.433  -4.068  0.00  0.00     0.027 A 
ATOM     20 CL   UNL d   1      -0.145   1.306  -6.138  0.00  0.00    -0.083 Cl
ATOM     21  C   UNL d   1       1.559   0.145  -2.724  0.00  0.00     0.027 A 
ENDBRANCH  11  14
ENDBRANCH   9  11
ENDBRANCH   3   9
TORSDOF 3
