REMARK  6 active torsions:
REMARK  status: ('A' for Active; 'I' for Inactive)
REMARK    1  A    between atoms: C_6  and  C_1 
REMARK    2  A    between atoms: N_7  and  C_2 
REMARK    3  A    between atoms: C_8  and  N_4 
REMARK    4  A    between atoms: O_12  and  C_6 
REMARK    5  A    between atoms: C_11  and  N_7 
REMARK    6  A    between atoms: C_22  and  O_12 
ROOT
ATOM      1  C   UNL d   1      -1.458   0.823   0.062  0.00  0.00     0.067 A 
ATOM      2  C   UNL d   1      -0.211   1.310   0.010  0.00  0.00     0.115 A 
ATOM      3  C   UNL d   1       0.684   0.109  -0.007  0.00  0.00     0.272 A 
ATOM      4  N   UNL d   1      -0.130  -1.020  -0.044  0.00  0.00    -0.334 N 
ATOM      5  C   UNL d   1      -1.526  -0.657   0.036  0.00  0.00     0.174 A 
ATOM      6  O   UNL d   1       1.896   0.174  -0.019  0.00  0.00    -0.266 OA
ENDROOT
BRANCH   2   7
ATOM      7  N   UNL d   1       0.260   2.595  -0.054  0.00  0.00    -0.351 N 
ATOM      8  H   UNL d   1       1.034   2.770   0.587  0.00  0.00     0.166 HD
BRANCH   7   9
ATOM      9  C   UNL d   1       0.413   3.335  -1.254  0.00  0.00     0.032 A 
ATOM     10  C   UNL d   1       0.099   2.824  -2.521  0.00  0.00     0.031 A 
ATOM     11  C   UNL d   1       0.184   3.629  -3.664  0.00  0.00     0.026 A 
ATOM     12  C   UNL d   1       0.558   4.966  -3.545  0.00  0.00     0.034 A 
ATOM     13  C   UNL d   1       0.853   5.498  -2.293  0.00  0.00     0.026 A 
ATOM     14 CL   UNL d   1       0.634   5.967  -4.939  0.00  0.00    -0.084 Cl
ATOM     15  C   UNL d   1       0.779   4.686  -1.158  0.00  0.00     0.031 A 
ENDBRANCH   7   9
ENDBRANCH   2   7
BRANCH   1  16
ATOM     16  C   UNL d   1      -2.685   1.626   0.043  0.00  0.00     0.293 C 
ATOM     17  O   UNL d   1      -3.770   1.162  -0.262  0.00  0.00    -0.259 OA
BRANCH  16  18
ATOM     18  O   UNL d   1      -2.424   2.914   0.365  0.00  0.00    -0.318 OA
BRANCH  18  19
ATOM     19  C   UNL d   1      -3.317   3.911  -0.138  0.00  0.00     0.174 C 
ATOM     20  C   UNL d   1      -3.939   4.674   1.011  0.00  0.00     0.034 C 
ENDBRANCH  18  19
ENDBRANCH  16  18
ENDBRANCH   1  16
BRANCH   4  21
ATOM     21  C   UNL d   1       0.360  -2.421  -0.178  0.00  0.00     0.025 C 
ATOM     22  C   UNL d   1      -0.795  -3.447  -0.186  0.00  0.00     0.037 C 
ATOM     23  C   UNL d   1       1.135  -2.585  -1.498  0.00  0.00     0.037 C 
ATOM     24  C   UNL d   1       1.288  -2.775   1.000  0.00  0.00     0.037 C 
ENDBRANCH   4  21
TORSDOF 6
