REMARK  7 active torsions:
REMARK  status: ('A' for Active; 'I' for Inactive)
REMARK    1  A    between atoms: N_9  and  C_1 
REMARK    2  A    between atoms: C_15  and  N_2 
REMARK    3  A    between atoms: C_3  and  C_15 
REMARK    4  A    between atoms: S_16  and  C_10 
REMARK    5  A    between atoms: C_21  and  S_16 
REMARK    6  A    between atoms: C_18  and  C_21 
REMARK    7  A    between atoms: C_20  and  C_18 
ROOT
ATOM      1  C   UNL d   1       3.325   0.907  -0.194  0.00  0.00     0.120 C 
ATOM      2  N   UNL d   1       3.521   0.115  -1.311  0.00  0.00    -0.318 N 
ATOM      3  C   UNL d   1       4.712  -0.536  -1.099  0.00  0.00     0.162 C 
ATOM      4  N   UNL d   1       4.425   0.888   0.529  0.00  0.00    -0.285 N 
ATOM      5  HN  UNL d   1       4.604   1.447   1.363  1.00  0.00     0.188 HD
ATOM      6  N   UNL d   1       5.287  -0.014  -0.036  0.00  0.00    -0.278 N 
ATOM      7  HN  UNL d   1       6.219  -0.243   0.309  1.00  0.00     0.189 HD
ATOM      8  C   UNL d   1       2.628   0.033  -2.435  0.00  0.00     0.160 C 
ENDROOT
BRANCH   1   9
ATOM      9  C   UNL d   1       2.037   1.529   0.212  0.00  0.00     0.227 C 
BRANCH   9  10
ATOM     10  N   UNL d   1       2.071   2.991   0.193  0.00  0.00    -0.287 N 
ATOM     11  C   UNL d   1       2.245   3.842   1.261  0.00  0.00     0.060 A 
ATOM     12  C   UNL d   1       1.837   5.093   0.808  0.00  0.00     0.150 A 
ATOM     13  C   UNL d   1       2.751   3.407   2.592  0.00  0.00     0.072 C 
ATOM     14  C   UNL d   1       1.538   4.910  -0.566  0.00  0.00     0.057 A 
ATOM     15  N   UNL d   1       1.670   3.628  -0.934  0.00  0.00    -0.300 N 
ATOM     16  C   UNL d   1       1.103   5.922  -1.567  0.00  0.00     0.072 C 
ATOM     17  HN  UNL d   1       1.506   3.223  -1.855  1.00  0.00     0.187 HD
BRANCH  12  18
ATOM     18  N   UNL d   1       1.735   6.307   1.577  0.00  0.00    -0.112 N 
ATOM     19  O   UNL d   1       1.966   6.239   2.791  0.00  0.00    -0.532 OA
ATOM     20  O   UNL d   1       1.392   7.331   0.974  0.00  0.00    -0.532 OA
ENDBRANCH  12  18
ENDBRANCH   9  10
ENDBRANCH   1   9
BRANCH   3  21
ATOM     21  S   UNL d   1       5.352  -1.965  -1.849  0.00  0.00    -0.085 SA
BRANCH  21  22
ATOM     22  C   UNL d   1       4.673  -2.129  -3.499  0.00  0.00     0.161 C 
BRANCH  22  23
ATOM     23  C   UNL d   1       4.979  -3.501  -4.080  0.00  0.00     0.144 C 
ATOM     24  O   UNL d   1       4.221  -4.443  -3.812  0.00  0.00    -0.296 OA
BRANCH  23  25
ATOM     25  C   UNL d   1       6.233  -3.737  -4.951  0.00  0.00     0.010 C 
ATOM     26  C   UNL d   1       7.351  -4.302  -4.067  0.00  0.00     0.022 C 
ATOM     27  C   UNL d   1       5.869  -4.778  -6.030  0.00  0.00     0.022 C 
ATOM     28  C   UNL d   1       6.728  -2.475  -5.667  0.00  0.00     0.022 C 
ENDBRANCH  23  25
ENDBRANCH  22  23
ENDBRANCH  21  22
ENDBRANCH   3  21
TORSDOF 7
