REMARK  6 active torsions:
REMARK  status: ('A' for Active; 'I' for Inactive)
REMARK    1  A    between atoms: C_7  and  S_1 
REMARK    2  A    between atoms: C_12  and  S_1 
REMARK    3  A    between atoms: N_4  and  C_11 
REMARK    4  A    between atoms: C_5  and  C_7 
REMARK    5  A    between atoms: C_13  and  C_6 
REMARK    6  A    between atoms: C_8  and  C_15 
ROOT
ATOM      1  N   UNL d   1       0.237  -3.006   1.606  0.00  0.00    -0.352 N 
ATOM      2  HN  UNL d   1      -0.673  -2.983   1.147  1.00  0.00     0.166 HD
ATOM      3  C   UNL d   1       0.950  -1.942   1.918  0.00  0.00     0.065 A 
ATOM      4  C   UNL d   1       0.902  -4.160   1.990  0.00  0.00     0.049 A 
ATOM      5  S   UNL d   1       2.404  -2.262   2.776  0.00  0.00    -0.085 SA
ATOM      6  C   UNL d   1       2.091  -3.942   2.657  0.00  0.00     0.081 A 
ENDROOT
BRANCH   3   7
ATOM      7  C   UNL d   1       0.542  -0.547   1.619  0.00  0.00     0.210 C 
BRANCH   7   8
ATOM      8  S   UNL d   1       1.121  -0.119  -0.007  0.00  0.00     0.181 S 
ATOM      9  O   UNL d   1       2.563  -0.296  -0.063  0.00  0.00    -0.222 OA
ATOM     10  O   UNL d   1       0.541   1.167  -0.362  0.00  0.00    -0.222 OA
BRANCH   8  11
ATOM     11  C   UNL d   1       0.375  -1.311  -1.093  0.00  0.00     0.059 A 
ATOM     12  C   UNL d   1      -1.019  -1.358  -1.186  0.00  0.00     0.024 A 
ATOM     13  C   UNL d   1      -1.620  -2.341  -1.970  0.00  0.00     0.017 A 
ATOM     14  C   UNL d   1      -0.837  -3.267  -2.677  0.00  0.00     0.048 A 
ATOM     15  C   UNL d   1       0.565  -3.183  -2.595  0.00  0.00     0.017 A 
ATOM     16  C   UNL d   1       1.174  -2.207  -1.805  0.00  0.00     0.024 A 
BRANCH  14  17
ATOM     17  C   UNL d   1      -1.477  -4.347  -3.514  0.00  0.00     0.417 C 
ATOM     18  F   UNL d   1      -2.839  -4.326  -3.483  0.00  0.00    -0.166 F 
ATOM     19  F   UNL d   1      -1.131  -4.261  -4.828  0.00  0.00    -0.166 F 
ATOM     20  F   UNL d   1      -1.115  -5.597  -3.112  0.00  0.00    -0.166 F 
ENDBRANCH  14  17
ENDBRANCH   8  11
ENDBRANCH   7   8
ENDBRANCH   3   7
BRANCH   4  21
ATOM     21  C   UNL d   1       0.342  -5.482   1.727  0.00  0.00    -0.007 A 
ATOM     22  C   UNL d   1      -1.047  -5.634   1.601  0.00  0.00     0.049 A 
ATOM     23  C   UNL d   1      -1.594  -6.907   1.377  0.00  0.00     0.103 A 
ATOM     24  C   UNL d   1      -0.767  -8.031   1.262  0.00  0.00     0.036 A 
ATOM     25  C   UNL d   1       0.614  -7.879   1.368  0.00  0.00     0.003 A 
ATOM     26  C   UNL d   1       1.163  -6.614   1.597  0.00  0.00     0.014 A 
BRANCH  23  27
ATOM     27  N   UNL d   1      -3.049  -7.068   1.277  0.00  0.00    -0.116 N 
ATOM     28  O   UNL d   1      -3.752  -6.055   1.397  0.00  0.00    -0.532 OA
ATOM     29  O   UNL d   1      -3.491  -8.211   1.086  0.00  0.00    -0.532 OA
ENDBRANCH  23  27
ENDBRANCH   4  21
TORSDOF 6
