REMARK  3 active torsions:
REMARK  status: ('A' for Active; 'I' for Inactive)
REMARK    1  A    between atoms: C_4  and  C_11 
REMARK    2  A    between atoms: O_13  and  C_4 
REMARK    3  A    between atoms: C_11  and  C_8 
ROOT
ATOM      1  C   UNL d   1      -0.157  -0.673   0.053  0.00  0.00     0.105 A 
ATOM      2  C   UNL d   1      -0.235   0.698   0.059  0.00  0.00     0.105 A 
ATOM      3  O   UNL d   1      -1.382  -1.263   0.063  0.00  0.00    -0.323 OA
ATOM      4  O   UNL d   1      -1.519   1.145   0.079  0.00  0.00    -0.323 OA
ATOM      5  C   UNL d   1      -2.241  -0.103   0.093  0.00  0.00     0.352 A 
ATOM      6  C   UNL d   1       1.054  -1.334   0.028  0.00  0.00     0.047 A 
ATOM      7  C   UNL d   1       2.233  -0.568   0.016  0.00  0.00    -0.045 A 
ATOM      8  C   UNL d   1       0.894   1.485   0.034  0.00  0.00     0.040 A 
ATOM      9  C   UNL d   1       2.138   0.844   0.002  0.00  0.00     0.010 A 
ENDROOT
BRANCH   7  10
ATOM     10  C   UNL d   1       3.569  -1.273  -0.078  0.00  0.00     0.148 C 
BRANCH  10  11
ATOM     11  C   UNL d   1       4.718  -0.596   0.635  0.00  0.00     0.143 C 
ATOM     12  O   UNL d   1       5.779  -0.314   0.099  0.00  0.00    -0.650 OA
BRANCH  11  13
ATOM     13  O   UNL d   1       4.494  -0.366   1.949  0.00  0.00    -0.776 OA
ATOM     14  H   UNL d   1       3.600  -0.629   2.244  0.00  0.00     0.167 HD
ENDBRANCH  11  13
ENDBRANCH  10  11
ENDBRANCH   7  10
TORSDOF 3
