REMARK  1 active torsions:
REMARK  status: ('A' for Active; 'I' for Inactive)
REMARK    1  A    between atoms: C_5  and  C_1 
REMARK       I    between atoms: N_9  and  C_5 
ROOT
ATOM      1  C   UNL d   1       1.063  -0.740   0.001  0.00  0.00     0.094 A 
ATOM      2  C   UNL d   1       0.993   0.644   0.003  0.00  0.00     0.063 A 
ATOM      3  S   UNL d   1      -0.511  -1.430   0.000  0.00  0.00    -0.094 SA
ATOM      4  C   UNL d   1      -0.359   1.142   0.002  0.00  0.00    -0.032 A 
ATOM      5  C   UNL d   1      -1.263   0.096  -0.001  0.00  0.00     0.059 A 
ATOM      6 CL   UNL d   1       2.349   1.704   0.005  0.00  0.00    -0.082 Cl
ATOM      7  C   UNL d   1      -0.782   2.576   0.004  0.00  0.00     0.050 C 
ENDROOT
BRANCH   1   8
ATOM      8  C   UNL d   1       2.247  -1.589  -0.001  0.00  0.00     0.258 C 
ATOM      9  O   UNL d   1       3.408  -1.188  -0.002  0.00  0.00    -0.267 OA
ATOM     10  N   UNL d   1       2.038  -2.943  -0.003  0.00  0.00    -0.365 N 
ATOM     11  H   UNL d   1       1.112  -3.344  -0.008  0.00  0.00     0.159 HD
ATOM     12  H   UNL d   1       2.850  -3.544  -0.011  0.00  0.00     0.159 HD
ENDBRANCH   1   8
TORSDOF 1
