REMARK  6 active torsions:
REMARK  status: ('A' for Active; 'I' for Inactive)
REMARK       I    between atoms: N_2  and  C_1 
REMARK    1  A    between atoms: C_3  and  C_1 
REMARK       I    between atoms: C_4  and  N_2 
REMARK       I    between atoms: N_11  and  C_4 
REMARK    2  A    between atoms: C_5  and  C_7 
REMARK    3  A    between atoms: C_6  and  C_8 
REMARK    4  A    between atoms: C_10  and  N_11 
REMARK    5  A    between atoms: O_24  and  C_15 
REMARK    6  A    between atoms: O_25  and  C_16 
ROOT
ATOM      1  C   UNL d   1       0.784  -0.133   0.238  0.00  0.00     0.265 C 
ATOM      2  N   UNL d   1       0.354   0.738   1.232  0.00  0.00    -0.275 N 
ATOM      3  C   UNL d   1       1.024   1.746   1.882  0.00  0.00     0.327 C 
ATOM      4  N   UNL d   1       2.375   1.801   1.671  0.00  0.00    -0.309 N 
ATOM      5  O   UNL d   1       1.934  -0.173  -0.186  0.00  0.00    -0.267 OA
ATOM      6  O   UNL d   1       0.363   2.485   2.609  0.00  0.00    -0.247 OA
ATOM      7  H   UNL d   1      -0.630   0.752   1.448  0.00  0.00     0.173 HD
ATOM      8  H   UNL d   1       2.715   1.197   0.922  0.00  0.00     0.170 HD
ENDROOT
BRANCH   4   9
ATOM      9  C   UNL d   1       3.322   2.473   2.464  0.00  0.00     0.037 A 
ATOM     10  C   UNL d   1       2.985   3.192   3.614  0.00  0.00     0.045 A 
ATOM     11  C   UNL d   1       3.973   3.682   4.484  0.00  0.00     0.050 A 
ATOM     12  C   UNL d   1       5.320   3.476   4.162  0.00  0.00     0.032 A 
ATOM     13  C   UNL d   1       5.682   2.773   3.002  0.00  0.00     0.050 A 
ATOM     14  C   UNL d   1       4.672   2.301   2.145  0.00  0.00     0.045 A 
BRANCH  11  15
ATOM     15  C   UNL d   1       3.558   4.340   5.779  0.00  0.00     0.417 C 
ATOM     16  F   UNL d   1       4.612   4.660   6.580  0.00  0.00    -0.166 F 
ATOM     17  F   UNL d   1       2.867   5.496   5.590  0.00  0.00    -0.166 F 
ATOM     18  F   UNL d   1       2.755   3.537   6.532  0.00  0.00    -0.166 F 
ENDBRANCH  11  15
BRANCH  13  19
ATOM     19  C   UNL d   1       7.129   2.463   2.705  0.00  0.00     0.417 C 
ATOM     20  F   UNL d   1       7.949   2.652   3.777  0.00  0.00    -0.166 F 
ATOM     21  F   UNL d   1       7.315   1.169   2.324  0.00  0.00    -0.166 F 
ATOM     22  F   UNL d   1       7.638   3.229   1.703  0.00  0.00    -0.166 F 
ENDBRANCH  13  19
ENDBRANCH   4   9
BRANCH   1  23
ATOM     23  C   UNL d   1      -0.306  -1.000  -0.294  0.00  0.00     0.099 A 
ATOM     24  C   UNL d   1      -1.557  -0.435  -0.612  0.00  0.00     0.086 A 
ATOM     25  C   UNL d   1      -2.638  -1.253  -0.939  0.00  0.00     0.038 A 
ATOM     26  C   UNL d   1      -2.476  -2.634  -0.983  0.00  0.00     0.005 A 
ATOM     27  C   UNL d   1      -1.230  -3.201  -0.710  0.00  0.00     0.038 A 
ATOM     28  C   UNL d   1      -0.130  -2.394  -0.380  0.00  0.00     0.086 A 
BRANCH  24  29
ATOM     29  O   UNL d   1      -1.843   0.903  -0.493  0.00  0.00    -0.355 OA
ATOM     30  C   UNL d   1      -1.163   1.706  -1.464  0.00  0.00     0.210 C 
ENDBRANCH  24  29
BRANCH  28  31
ATOM     31  O   UNL d   1       1.101  -2.905  -0.058  0.00  0.00    -0.355 OA
ATOM     32  C   UNL d   1       1.375  -4.240  -0.475  0.00  0.00     0.210 C 
ENDBRANCH  28  31
ENDBRANCH   1  23
TORSDOF 6
