REMARK  7 active torsions:
REMARK  status: ('A' for Active; 'I' for Inactive)
REMARK    1  A    between atoms: N_12  and  C_3 
REMARK    2  A    between atoms: C_6  and  C_4 
REMARK    3  A    between atoms: C_9  and  C_5 
REMARK    4  A    between atoms: O_22  and  C_9 
REMARK       I    between atoms: C_10  and  N_13 
REMARK    5  A    between atoms: C_14  and  C_10 
REMARK    6  A    between atoms: N_13  and  N_12 
REMARK    7  A    between atoms: C_26  and  O_22 
ROOT
ATOM      1  N   UNL d   1       1.144   0.383  -0.191  0.00  0.00    -0.327 N 
ATOM      2  HN  UNL d   1       2.055   0.819  -0.334  1.00  0.00     0.168 HD
ATOM      3  C   UNL d   1       1.018  -0.966  -0.225  0.00  0.00     0.117 A 
ATOM      4  C   UNL d   1       0.044   1.148   0.035  0.00  0.00     0.191 A 
ATOM      5  C   UNL d   1      -0.219  -1.567  -0.037  0.00  0.00     0.094 A 
ATOM      6  N   UNL d   1      -1.189   0.623   0.215  0.00  0.00    -0.347 N 
ATOM      7  HN  UNL d   1      -2.004   1.214   0.374  1.00  0.00     0.166 HD
ATOM      8  C   UNL d   1      -1.287  -0.720   0.173  0.00  0.00     0.110 A 
ENDROOT
BRANCH   3   9
ATOM      9  N   UNL d   1       2.194  -1.631  -0.614  0.00  0.00    -0.186 NA
ATOM     10  H   UNL d   1       2.959  -0.952  -0.669  0.00  0.00     0.154 HD
BRANCH   9  11
ATOM     11  N   UNL d   1       2.583  -2.779   0.107  0.00  0.00    -0.281 N 
ATOM     12  C   UNL d   1       3.676  -3.467  -0.404  0.00  0.00     0.266 C 
ATOM     13  O   UNL d   1       4.456  -2.976  -1.217  0.00  0.00    -0.266 OA
ATOM     14  H   UNL d   1       1.833  -3.322   0.534  0.00  0.00     0.184 HD
BRANCH  12  15
ATOM     15  C   UNL d   1       3.873  -4.874   0.073  0.00  0.00     0.033 A 
ATOM     16  C   UNL d   1       3.201  -5.407   1.181  0.00  0.00     0.017 A 
ATOM     17  C   UNL d   1       3.462  -6.715   1.604  0.00  0.00     0.007 A 
ATOM     18  C   UNL d   1       4.404  -7.507   0.938  0.00  0.00    -0.062 A 
ATOM     19  C   UNL d   1       5.062  -6.983  -0.179  0.00  0.00     0.007 A 
ATOM     20  C   UNL d   1       4.718  -8.881   1.450  0.00  0.00     0.048 C 
ATOM     21  C   UNL d   1       4.797  -5.678  -0.609  0.00  0.00     0.017 A 
ENDBRANCH  12  15
ENDBRANCH   9  11
ENDBRANCH   3   9
BRANCH   5  22
ATOM     22  C   UNL d   1      -0.457  -3.016  -0.015  0.00  0.00     0.298 C 
ATOM     23  O   UNL d   1       0.270  -3.817   0.555  0.00  0.00    -0.259 OA
BRANCH  22  24
ATOM     24  O   UNL d   1      -1.609  -3.304  -0.664  0.00  0.00    -0.318 OA
BRANCH  24  25
ATOM     25  C   UNL d   1      -1.968  -4.699  -0.711  0.00  0.00     0.174 C 
ATOM     26  C   UNL d   1      -2.569  -5.147   0.611  0.00  0.00     0.034 C 
ENDBRANCH  24  25
ENDBRANCH  22  24
ENDBRANCH   5  22
BRANCH   4  27
ATOM     27  C   UNL d   1       0.188   2.678   0.056  0.00  0.00     0.449 C 
ATOM     28  F   UNL d   1       1.482   3.114   0.014  0.00  0.00    -0.163 F 
ATOM     29  F   UNL d   1      -0.435   3.284  -0.999  0.00  0.00    -0.163 F 
ATOM     30  F   UNL d   1      -0.348   3.249   1.177  0.00  0.00    -0.163 F 
ENDBRANCH   4  27
TORSDOF 7
