REMARK  4 active torsions:
REMARK  status: ('A' for Active; 'I' for Inactive)
REMARK    1  A    between atoms: C_9  and  C_2 
REMARK    2  A    between atoms: C_10  and  C_3 
REMARK    3  A    between atoms: O_18  and  C_9 
REMARK    4  A    between atoms: O_17  and  C_10 
ROOT
ATOM      1  C   UNL d   1       1.025  -0.297  -0.040  0.00  0.00     0.072 C 
ATOM      2  C   UNL d   1       0.032  -1.494  -0.040  0.00  0.00     0.115 C 
ATOM      3  C   UNL d   1      -2.194   1.257   1.268  0.00  0.00     0.156 C 
ATOM      4  C   UNL d   1      -2.726   0.887  -0.101  0.00  0.00     0.144 C 
ATOM      5  C   UNL d   1       0.231   1.050   0.122  0.00  0.00     0.017 C 
ATOM      6  C   UNL d   1      -1.753   0.259  -1.068  0.00  0.00     0.057 C 
ATOM      7  C   UNL d   1      -1.380  -1.177  -0.647  0.00  0.00     0.029 C 
ATOM      8  C   UNL d   1      -0.657   1.104   1.422  0.00  0.00     0.029 C 
ATOM      9  C   UNL d   1      -0.630   1.268  -1.117  0.00  0.00     0.019 C 
ATOM     10  S   UNL d   1       2.070  -0.231  -1.584  0.00  0.00    -0.146 SA
ATOM     11  S   UNL d   1       2.239  -0.383   1.381  0.00  0.00    -0.146 SA
ATOM     12  O   UNL d   1      -3.883   1.132  -0.438  0.00  0.00    -0.297 OA
ATOM     13  C   UNL d   1       3.778  -0.099   0.454  0.00  0.00     0.086 C 
ATOM     14  C   UNL d   1       3.474   0.622  -0.840  0.00  0.00     0.086 C 
ENDROOT
BRANCH   2  15
ATOM     15  C   UNL d   1       0.556  -2.805  -0.645  0.00  0.00     0.265 C 
ATOM     16  O   UNL d   1      -0.120  -3.561  -1.336  0.00  0.00    -0.265 OA
BRANCH  15  17
ATOM     17  O   UNL d   1       1.829  -3.086  -0.264  0.00  0.00    -0.326 OA
ATOM     18  C   UNL d   1       2.396  -4.239  -0.889  0.00  0.00     0.213 C 
ENDBRANCH  15  17
ENDBRANCH   2  15
BRANCH   3  19
ATOM     19  C   UNL d   1      -2.922   0.522   2.377  0.00  0.00     0.269 C 
ATOM     20  O   UNL d   1      -2.765   0.774   3.568  0.00  0.00    -0.264 OA
BRANCH  19  21
ATOM     21  O   UNL d   1      -3.721  -0.464   1.896  0.00  0.00    -0.326 OA
ATOM     22  C   UNL d   1      -4.553  -1.143   2.837  0.00  0.00     0.213 C 
ENDBRANCH  19  21
ENDBRANCH   3  19
TORSDOF 4
