REMARK  4 active torsions:
REMARK  status: ('A' for Active; 'I' for Inactive)
REMARK    1  A    between atoms: C_11  and  C_1 
REMARK    2  A    between atoms: S_13  and  C_3 
REMARK    3  A    between atoms: C_8  and  S_13 
REMARK    4  A    between atoms: C_18  and  C_12 
ROOT
ATOM      1  C   UNL d   1       2.199  -2.754  -0.128  0.00  0.00     0.051 A 
ATOM      2  N   UNL d   1       4.380  -2.331   0.963  0.00  0.00    -0.331 N 
ATOM      3  HN  UNL d   1       4.926  -2.028   1.769  1.00  0.00     0.168 HD
ATOM      4  C   UNL d   1       3.078  -2.355   1.027  0.00  0.00     0.063 A 
ATOM      5  C   UNL d   1       5.012  -2.715  -0.189  0.00  0.00     0.176 A 
ATOM      6  N   UNL d   1       4.243  -3.163  -1.233  0.00  0.00    -0.342 N 
ATOM      7  C   UNL d   1       2.877  -3.170  -1.207  0.00  0.00     0.111 A 
ATOM      8  S   UNL d   1       6.676  -2.690  -0.391  0.00  0.00    -0.041 SA
ATOM      9  H   UNL d   1       4.740  -3.443  -2.071  0.00  0.00     0.167 HD
ENDROOT
BRANCH   1  10
ATOM     10  S   UNL d   1       0.479  -2.705  -0.094  0.00  0.00    -0.049 SA
BRANCH  10  11
ATOM     11  C   UNL d   1       0.237  -1.122  -0.751  0.00  0.00     0.167 A 
ATOM     12  N   UNL d   1      -0.886  -0.369  -0.507  0.00  0.00    -0.312 N 
ATOM     13  C   UNL d   1      -0.765   0.744  -1.314  0.00  0.00     0.209 A 
ATOM     14  C   UNL d   1      -1.941  -0.721   0.410  0.00  0.00     0.160 C 
ATOM     15  N   UNL d   1       0.396   0.671  -1.945  0.00  0.00    -0.279 N 
ATOM     16  N   UNL d   1       1.016  -0.498  -1.598  0.00  0.00    -0.278 N 
ATOM     17  HN  UNL d   1       0.767   1.373  -2.586  1.00  0.00     0.188 HD
ATOM     18  HN  UNL d   1       1.921  -0.824  -1.937  1.00  0.00     0.189 HD
BRANCH  13  19
ATOM     19  C   UNL d   1      -1.759   1.841  -1.477  0.00  0.00     0.450 C 
ATOM     20  F   UNL d   1      -2.926   1.626  -0.820  0.00  0.00    -0.163 F 
ATOM     21  F   UNL d   1      -1.282   3.029  -1.025  0.00  0.00    -0.163 F 
ATOM     22  F   UNL d   1      -2.100   2.022  -2.781  0.00  0.00    -0.163 F 
ENDBRANCH  13  19
ENDBRANCH  10  11
ENDBRANCH   1  10
BRANCH   4  23
ATOM     23  C   UNL d   1       2.484  -1.953   2.341  0.00  0.00    -0.008 A 
ATOM     24  C   UNL d   1       3.049  -0.861   3.014  0.00  0.00     0.014 A 
ATOM     25  C   UNL d   1       2.587  -0.492   4.279  0.00  0.00     0.001 A 
ATOM     26  C   UNL d   1       1.552  -1.208   4.878  0.00  0.00     0.000 A 
ATOM     27  C   UNL d   1       0.999  -2.309   4.226  0.00  0.00     0.001 A 
ATOM     28  C   UNL d   1       1.480  -2.697   2.973  0.00  0.00     0.014 A 
ENDBRANCH   4  23
TORSDOF 4
