REMARK  3 active torsions:
REMARK  status: ('A' for Active; 'I' for Inactive)
REMARK       I    between atoms: N_2  and  C_1 
REMARK    1  A    between atoms: C_4  and  C_1 
REMARK    2  A    between atoms: C_5  and  N_3 
REMARK    3  A    between atoms: O_16  and  C_14 
ROOT
ATOM      1  C   UNL d   1       1.248   0.234   0.046  0.00  0.00     0.260 C 
ATOM      2  N   UNL d   1       0.740  -0.085  -1.231  0.00  0.00    -0.344 N 
ATOM      3  N   UNL d   1      -0.561  -1.313  -3.485  0.00  0.00    -0.376 N 
ATOM      4  C   UNL d   1       1.267  -1.328  -1.824  0.00  0.00     0.146 C 
ATOM      5  C   UNL d   1      -0.665   0.198  -1.563  0.00  0.00     0.146 C 
ATOM      6  C   UNL d   1       0.887  -1.543  -3.307  0.00  0.00     0.143 C 
ATOM      7  C   UNL d   1      -0.966   0.036  -3.060  0.00  0.00     0.143 C 
ATOM      8  O   UNL d   1       2.092  -0.493   0.573  0.00  0.00    -0.267 OA
ENDROOT
BRANCH   3   9
ATOM      9  C   UNL d   1      -1.159  -1.865  -4.624  0.00  0.00     0.064 A 
ATOM     10  C   UNL d   1      -1.262  -3.264  -4.817  0.00  0.00     0.094 A 
ATOM     11  C   UNL d   1      -1.943  -3.797  -5.923  0.00  0.00     0.039 A 
ATOM     12  C   UNL d   1      -2.542  -2.962  -6.855  0.00  0.00     0.003 A 
ATOM     13  C   UNL d   1      -2.435  -1.584  -6.708  0.00  0.00     0.002 A 
ATOM     14  C   UNL d   1      -1.747  -1.050  -5.611  0.00  0.00     0.032 A 
BRANCH  10  15
ATOM     15  O   UNL d   1      -0.695  -4.208  -3.997  0.00  0.00    -0.354 OA
ATOM     16  C   UNL d   1      -1.150  -4.149  -2.647  0.00  0.00     0.210 C 
ENDBRANCH  10  15
ENDBRANCH   3   9
BRANCH   1  17
ATOM     17  C   UNL d   1       0.770   1.450   0.695  0.00  0.00     0.072 A 
ATOM     18  S   UNL d   1       0.535   1.448   2.396  0.00  0.00    -0.097 SA
ATOM     19  C   UNL d   1       0.054   3.088   2.403  0.00  0.00     0.050 A 
ATOM     20  C   UNL d   1       0.080   3.639   1.143  0.00  0.00     0.009 A 
ATOM     21  C   UNL d   1       0.510   2.699   0.161  0.00  0.00     0.025 A 
ENDBRANCH   1  17
TORSDOF 3
