REMARK  5 active torsions:
REMARK  status: ('A' for Active; 'I' for Inactive)
REMARK    1  A    between atoms: C_6  and  C_1 
REMARK    2  A    between atoms: C_7  and  C_3 
REMARK    3  A    between atoms: O_12  and  C_6 
REMARK    4  A    between atoms: O_14  and  N_8 
REMARK    5  A    between atoms: C_16  and  O_12 
ROOT
ATOM      1  C   UNL d   1      -5.788  -1.406   0.010  0.00  0.00     0.115 A 
ATOM      2  C   UNL d   1      -5.122  -0.186  -0.036  0.00  0.00    -0.015 A 
ATOM      3  C   UNL d   1      -3.696  -0.454  -0.014  0.00  0.00     0.018 A 
ATOM      4  N   UNL d   1      -4.821  -2.382   0.031  0.00  0.00    -0.354 N 
ATOM      5  C   UNL d   1      -3.561  -1.838   0.041  0.00  0.00     0.018 A 
ATOM      6  C   UNL d   1      -5.752   1.169  -0.077  0.00  0.00     0.052 C 
ATOM      7  C   UNL d   1      -2.380  -2.737   0.155  0.00  0.00     0.069 C 
ATOM      8  H   UNL d   1      -5.035  -3.369   0.091  0.00  0.00     0.166 HD
ENDROOT
BRANCH   3   9
ATOM      9  C   UNL d   1      -2.620   0.552  -0.007  0.00  0.00     0.041 C 
ATOM     10  N   UNL d   1      -2.911   1.699   0.539  0.00  0.00    -0.273 N 
ATOM     11  HN  UNL d   1      -3.816   1.917   0.956  1.00  0.00     0.194 HD
ATOM     12  C   UNL d   1      -1.266   0.276  -0.614  0.00  0.00     0.071 C 
BRANCH  10  13
ATOM     13  O   UNL d   1      -1.839   2.598   0.490  0.00  0.00    -0.290 OA
ATOM     14  H   UNL d   1      -2.219   3.394   0.907  0.00  0.00     0.244 HD
ENDBRANCH  10  13
ENDBRANCH   3   9
BRANCH   1  15
ATOM     15  C   UNL d   1      -7.204  -1.688   0.087  0.00  0.00     0.310 C 
ATOM     16  O   UNL d   1      -8.111  -0.863   0.091  0.00  0.00    -0.258 OA
BRANCH  15  17
ATOM     17  O   UNL d   1      -7.386  -3.031   0.257  0.00  0.00    -0.317 OA
BRANCH  17  18
ATOM     18  C   UNL d   1      -8.670  -3.399   0.778  0.00  0.00     0.175 C 
ATOM     19  C   UNL d   1      -8.587  -3.367   2.294  0.00  0.00     0.034 C 
ENDBRANCH  17  18
ENDBRANCH  15  17
ENDBRANCH   1  15
TORSDOF 5
