REMARK  4 active torsions:
REMARK  status: ('A' for Active; 'I' for Inactive)
REMARK    1  A    between atoms: C_2  and  S_1 
REMARK    2  A    between atoms: C_12  and  S_1 
REMARK    3  A    between atoms: N_5  and  C_3 
REMARK       I    between atoms: C_4  and  N_5 
REMARK       I    between atoms: N_11  and  C_4 
REMARK    4  A    between atoms: C_14  and  N_11 
ROOT
ATOM      1  C   UNL d   1       2.942  -2.192   1.484  0.00  0.00     0.325 C 
ATOM      2  N   UNL d   1       1.924  -2.898   0.883  0.00  0.00    -0.307 N 
ATOM      3  N   UNL d   1       3.139  -2.657   2.775  0.00  0.00    -0.309 N 
ATOM      4  O   UNL d   1       3.587  -1.312   0.941  0.00  0.00    -0.247 OA
ATOM      5  H   UNL d   1       1.900  -3.872   1.153  0.00  0.00     0.170 HD
ATOM      6  H   UNL d   1       2.320  -3.080   3.186  0.00  0.00     0.170 HD
ENDROOT
BRANCH   2   7
ATOM      7  C   UNL d   1       1.155  -2.551  -0.227  0.00  0.00     0.065 A 
ATOM      8  C   UNL d   1       0.799  -1.292  -0.846  0.00  0.00     0.093 A 
ATOM      9  C   UNL d   1      -0.095  -1.478  -1.891  0.00  0.00     0.075 A 
ATOM     10  S   UNL d   1      -0.494  -3.109  -2.156  0.00  0.00    -0.110 SA
ATOM     11  C   UNL d   1       0.494  -3.595  -0.860  0.00  0.00     0.080 A 
BRANCH   8  12
ATOM     12  S   UNL d   1       1.187   0.340  -0.353  0.00  0.00     0.181 S 
ATOM     13  O   UNL d   1       1.201   0.285   1.091  0.00  0.00    -0.222 OA
ATOM     14  O   UNL d   1       0.204   1.163  -1.038  0.00  0.00    -0.222 OA
BRANCH  12  15
ATOM     15  C   UNL d   1       2.805   0.747  -1.030  0.00  0.00     0.105 C 
ATOM     16  C   UNL d   1       2.840   0.701  -2.554  0.00  0.00     0.026 C 
ATOM     17  C   UNL d   1       3.231   2.123  -0.522  0.00  0.00     0.026 C 
ENDBRANCH  12  15
ENDBRANCH   8  12
ENDBRANCH   2   7
BRANCH   3  18
ATOM     18  C   UNL d   1       4.076  -2.129   3.686  0.00  0.00     0.036 A 
ATOM     19  C   UNL d   1       3.748  -2.183   5.045  0.00  0.00     0.029 A 
ATOM     20  C   UNL d   1       4.586  -1.600   5.997  0.00  0.00     0.002 A 
ATOM     21  C   UNL d   1       5.775  -0.994   5.599  0.00  0.00     0.000 A 
ATOM     22  C   UNL d   1       6.133  -0.984   4.252  0.00  0.00     0.002 A 
ATOM     23  C   UNL d   1       5.284  -1.549   3.296  0.00  0.00     0.029 A 
ENDBRANCH   3  18
TORSDOF 4
