REMARK  8 active torsions:
REMARK  status: ('A' for Active; 'I' for Inactive)
REMARK    1  A    between atoms: C_4  and  S_1 
REMARK    2  A    between atoms: C_15  and  S_1 
REMARK    3  A    between atoms: C_2  and  C_3 
REMARK    4  A    between atoms: C_3  and  O_8 
REMARK    5  A    between atoms: C_5  and  C_4 
REMARK    6  A    between atoms: N_13  and  C_5 
REMARK    7  A    between atoms: O_8  and  N_6 
REMARK    8  A    between atoms: C_18  and  C_15 
ROOT
ATOM      1  C   UNL d   1       1.095   1.861  -1.821  0.00  0.00     0.089 C 
ATOM      2  N   UNL d   1       1.945   2.495  -1.070  0.00  0.00    -0.250 N 
ATOM      3  HN  UNL d   1       2.421   3.356  -1.339  1.00  0.00     0.196 HD
ENDROOT
BRANCH   2   4
ATOM      4  O   UNL d   1       2.125   1.837   0.166  0.00  0.00    -0.194 OA
BRANCH   4   5
ATOM      5  C   UNL d   1       3.073   2.474   0.910  0.00  0.00     0.316 C 
ATOM      6  O   UNL d   1       3.685   3.495   0.621  0.00  0.00    -0.257 OA
BRANCH   5   7
ATOM      7  C   UNL d   1       3.223   1.830   2.244  0.00  0.00     0.063 A 
ATOM      8  C   UNL d   1       3.075   0.460   2.503  0.00  0.00     0.050 A 
ATOM      9 CL   UNL d   1       2.751  -0.726   1.286  0.00  0.00    -0.083 Cl
ATOM     10  C   UNL d   1       3.241  -0.025   3.810  0.00  0.00     0.025 A 
ATOM     11  C   UNL d   1       3.570   0.839   4.856  0.00  0.00     0.002 A 
ATOM     12  C   UNL d   1       3.743   2.196   4.603  0.00  0.00     0.001 A 
ATOM     13  C   UNL d   1       3.572   2.687   3.307  0.00  0.00     0.019 A 
ENDBRANCH   5   7
ENDBRANCH   4   5
ENDBRANCH   2   4
BRANCH   1  14
ATOM     14  C   UNL d   1       0.754   2.497  -3.152  0.00  0.00     0.211 C 
BRANCH  14  15
ATOM     15  S   UNL d   1       1.096   1.390  -4.497  0.00  0.00     0.150 S 
ATOM     16  O   UNL d   1       0.316   0.183  -4.282  0.00  0.00    -0.228 OA
ATOM     17  O   UNL d   1       2.531   1.318  -4.689  0.00  0.00    -0.228 OA
BRANCH  15  18
ATOM     18  C   UNL d   1       0.396   2.248  -5.903  0.00  0.00     0.140 C 
BRANCH  18  19
ATOM     19  C   UNL d   1       0.618   1.479  -7.201  0.00  0.00     0.010 C 
ATOM     20  C   UNL d   1       0.001   2.197  -8.391  0.00  0.00     0.006 C 
ENDBRANCH  18  19
ENDBRANCH  15  18
ENDBRANCH  14  15
ENDBRANCH   1  14
BRANCH   1  21
ATOM     21  N   UNL d   1       0.450   0.702  -1.450  0.00  0.00    -0.290 NA
ATOM     22  H   UNL d   1       0.185   0.073  -2.213  0.00  0.00     0.125 HD
ATOM     23  H   UNL d   1       0.922   0.206  -0.700  0.00  0.00     0.125 HD
ENDBRANCH   1  21
TORSDOF 8
