REMARK  6 active torsions:
REMARK  status: ('A' for Active; 'I' for Inactive)
REMARK    1  A    between atoms: C_7  and  C_1 
REMARK    2  A    between atoms: C_12  and  N_2 
REMARK    3  A    between atoms: C_20  and  C_3 
REMARK       I    between atoms: N_9  and  C_7 
REMARK    4  A    between atoms: C_19  and  N_9 
REMARK    5  A    between atoms: C_18  and  C_19 
REMARK    6  A    between atoms: C_24  and  C_20 
ROOT
ATOM      1  C   UNL d   1      -0.179   1.148  -0.069  0.00  0.00     0.073 C 
ATOM      2  N   UNL d   1       0.915  -0.806   0.061  0.00  0.00    -0.260 N 
ATOM      3  C   UNL d   1       1.109   0.591  -0.059  0.00  0.00     0.051 C 
ATOM      4  N   UNL d   1      -0.392  -1.110   0.235  0.00  0.00    -0.304 N 
ATOM      5  HN  UNL d   1      -0.794  -2.020   0.461  1.00  0.00     0.186 HD
ATOM      6  C   UNL d   1      -1.034   0.028   0.050  0.00  0.00     0.126 C 
ENDROOT
BRANCH   1   7
ATOM      7  C   UNL d   1      -0.751   2.491  -0.130  0.00  0.00     0.255 C 
ATOM      8  N   UNL d   1       0.048   3.616  -0.057  0.00  0.00    -0.353 N 
ATOM      9  H   UNL d   1       1.013   3.537   0.217  0.00  0.00     0.163 HD
ATOM     10  O   UNL d   1      -1.981   2.616  -0.209  0.00  0.00    -0.268 OA
BRANCH   8  11
ATOM     11  C   UNL d   1      -0.645   4.887   0.011  0.00  0.00     0.161 C 
BRANCH  11  12
ATOM     12  C   UNL d   1       0.134   6.179  -0.006  0.00  0.00    -0.038 A 
ATOM     13  C   UNL d   1       1.530   6.293   0.004  0.00  0.00     0.048 A 
ATOM     14  C   UNL d   1       2.079   7.565  -0.024  0.00  0.00     0.105 A 
ATOM     15  O   UNL d   1       3.410   7.855  -0.034  0.00  0.00    -0.323 OA
ATOM     16  C   UNL d   1       1.304   8.703  -0.052  0.00  0.00     0.105 A 
ATOM     17  C   UNL d   1       3.377   9.298  -0.106  0.00  0.00     0.352 A 
ATOM     18  O   UNL d   1       2.043   9.844  -0.084  0.00  0.00    -0.323 OA
ATOM     19  C   UNL d   1      -0.067   8.643  -0.052  0.00  0.00     0.040 A 
ATOM     20  C   UNL d   1      -0.647   7.372  -0.029  0.00  0.00     0.012 A 
ENDBRANCH  11  12
ENDBRANCH   8  11
ENDBRANCH   1   7
BRANCH   3  21
ATOM     21  C   UNL d   1       2.462   1.240   0.033  0.00  0.00     0.060 C 
BRANCH  21  22
ATOM     22  C   UNL d   1       3.147   1.630  -1.281  0.00  0.00     0.002 C 
ATOM     23  C   UNL d   1       2.407   2.613  -2.166  0.00  0.00     0.005 C 
ENDBRANCH  21  22
ENDBRANCH   3  21
BRANCH   2  24
ATOM     24  C   UNL d   1       1.811  -1.918  -0.019  0.00  0.00     0.056 A 
ATOM     25  C   UNL d   1       1.470  -3.113   0.643  0.00  0.00     0.031 A 
ATOM     26  C   UNL d   1       2.220  -4.276   0.451  0.00  0.00     0.002 A 
ATOM     27  C   UNL d   1       3.307  -4.266  -0.419  0.00  0.00     0.000 A 
ATOM     28  C   UNL d   1       3.662  -3.085  -1.064  0.00  0.00     0.002 A 
ATOM     29  C   UNL d   1       2.924  -1.915  -0.857  0.00  0.00     0.031 A 
ENDBRANCH   2  24
TORSDOF 6
