REMARK  5 active torsions:
REMARK  status: ('A' for Active; 'I' for Inactive)
REMARK    1  A    between atoms: C_2  and  C_1 
REMARK    2  A    between atoms: C_22  and  C_7 
REMARK    3  A    between atoms: C_9  and  C_15 
REMARK    4  A    between atoms: C_10  and  C_16 
REMARK    5  A    between atoms: C_19  and  N_17 
ROOT
ATOM      1  C   UNL d   1       0.312  -2.737  -0.106  0.00  0.00     0.056 A 
ATOM      2  N   UNL d   1       0.920  -3.266   1.009  0.00  0.00    -0.335 N 
ATOM      3  HN  UNL d   1       1.050  -2.764   1.887  1.00  0.00     0.168 HD
ATOM      4  C   UNL d   1       1.312  -4.502   0.797  0.00  0.00     0.149 A 
ATOM      5  S   UNL d   1       0.882  -5.118  -0.757  0.00  0.00    -0.064 SA
ATOM      6  C   UNL d   1       0.121  -3.626  -1.140  0.00  0.00     0.083 A 
ATOM      7  N   UNL d   1       2.027  -5.256   1.665  0.00  0.00    -0.337 N 
ATOM      8  H   UNL d   1       2.446  -6.109   1.318  0.00  0.00     0.168 HD
ENDROOT
BRANCH   7   9
ATOM      9  C   UNL d   1       1.977  -5.165   3.069  0.00  0.00     0.035 A 
ATOM     10  C   UNL d   1       0.932  -4.525   3.747  0.00  0.00     0.045 A 
ATOM     11  C   UNL d   1       0.893  -4.446   5.148  0.00  0.00     0.050 A 
ATOM     12  C   UNL d   1       1.958  -4.982   5.885  0.00  0.00     0.032 A 
ATOM     13  C   UNL d   1       3.040  -5.594   5.235  0.00  0.00     0.050 A 
ATOM     14  C   UNL d   1       3.035  -5.678   3.830  0.00  0.00     0.045 A 
BRANCH  11  15
ATOM     15  C   UNL d   1      -0.297  -3.804   5.819  0.00  0.00     0.417 C 
ATOM     16  F   UNL d   1      -0.248  -3.866   7.179  0.00  0.00    -0.166 F 
ATOM     17  F   UNL d   1      -0.435  -2.488   5.509  0.00  0.00    -0.166 F 
ATOM     18  F   UNL d   1      -1.471  -4.401   5.466  0.00  0.00    -0.166 F 
ENDBRANCH  11  15
BRANCH  13  19
ATOM     19  C   UNL d   1       4.199  -6.162   6.017  0.00  0.00     0.417 C 
ATOM     20  F   UNL d   1       4.055  -6.046   7.366  0.00  0.00    -0.166 F 
ATOM     21  F   UNL d   1       4.385  -7.489   5.774  0.00  0.00    -0.166 F 
ATOM     22  F   UNL d   1       5.380  -5.557   5.713  0.00  0.00    -0.166 F 
ENDBRANCH  13  19
ENDBRANCH   7   9
BRANCH   1  23
ATOM     23  C   UNL d   1      -0.024  -1.318  -0.087  0.00  0.00     0.052 A 
ATOM     24  C   UNL d   1       0.766  -0.261   0.467  0.00  0.00     0.080 A 
ATOM     25  N   UNL d   1       0.119   0.910   0.320  0.00  0.00    -0.259 N 
ATOM     26  O   UNL d   1      -1.059   0.632  -0.336  0.00  0.00    -0.241 OA
ATOM     27  HN  UNL d   1       0.439   1.826   0.634  1.00  0.00     0.195 HD
ATOM     28  C   UNL d   1      -1.145  -0.699  -0.587  0.00  0.00     0.087 A 
ATOM     29  C   UNL d   1      -2.366  -1.148  -1.280  0.00  0.00     0.080 C 
BRANCH  24  30
ATOM     30  C   UNL d   1       2.094  -0.289   1.099  0.00  0.00    -0.007 A 
ATOM     31  C   UNL d   1       2.384   0.575   2.166  0.00  0.00     0.014 A 
ATOM     32  C   UNL d   1       3.641   0.556   2.781  0.00  0.00     0.001 A 
ATOM     33  C   UNL d   1       4.621  -0.330   2.340  0.00  0.00     0.000 A 
ATOM     34  C   UNL d   1       4.354  -1.183   1.273  0.00  0.00     0.001 A 
ATOM     35  C   UNL d   1       3.103  -1.151   0.648  0.00  0.00     0.014 A 
ENDBRANCH  24  30
ENDBRANCH   1  23
TORSDOF 5
