REMARK  5 active torsions:
REMARK  status: ('A' for Active; 'I' for Inactive)
REMARK    1  A    between atoms: C_2  and  C_1 
REMARK       I    between atoms: C_3  and  N_6 
REMARK    2  A    between atoms: C_4  and  C_3 
REMARK    3  A    between atoms: C_7  and  C_5 
REMARK    4  A    between atoms: N_6  and  C_10 
REMARK    5  A    between atoms: O_17  and  C_7 
ROOT
ATOM      1  C   UNL d   1       5.187  -1.194   0.267  0.00  0.00     0.257 C 
ATOM      2  N   UNL d   1       4.322  -0.133   0.417  0.00  0.00    -0.323 N 
ATOM      3  O   UNL d   1       6.408  -1.115   0.387  0.00  0.00    -0.267 OA
ATOM      4  H   UNL d   1       3.324  -0.305   0.288  0.00  0.00     0.169 HD
ENDROOT
BRANCH   2   5
ATOM      5  C   UNL d   1       4.646   1.181   0.829  0.00  0.00     0.035 A 
ATOM      6  C   UNL d   1       5.947   1.645   1.044  0.00  0.00     0.047 A 
ATOM      7  C   UNL d   1       6.215   2.942   1.550  0.00  0.00     0.067 A 
ATOM      8  C   UNL d   1       5.130   3.795   1.777  0.00  0.00     0.026 A 
ATOM      9  C   UNL d   1       3.825   3.350   1.531  0.00  0.00     0.022 A 
ATOM     10 BR   UNL d   1       5.295   5.574   2.417  0.00  0.00    -0.050 Br
ATOM     11  C   UNL d   1       3.586   2.056   1.063  0.00  0.00     0.031 A 
BRANCH   7  12
ATOM     12  C   UNL d   1       7.668   3.276   1.806  0.00  0.00     0.418 C 
ATOM     13  F   UNL d   1       7.910   4.443   2.457  0.00  0.00    -0.166 F 
ATOM     14  F   UNL d   1       8.291   2.315   2.547  0.00  0.00    -0.166 F 
ATOM     15  F   UNL d   1       8.378   3.356   0.642  0.00  0.00    -0.166 F 
ENDBRANCH   7  12
ENDBRANCH   2   5
BRANCH   1  16
ATOM     16  C   UNL d   1       4.641  -2.555  -0.069  0.00  0.00     0.049 A 
ATOM     17  C   UNL d   1       3.396  -3.107   0.288  0.00  0.00     0.053 A 
ATOM     18  C   UNL d   1       3.113  -4.458  -0.019  0.00  0.00     0.019 A 
ATOM     19  C   UNL d   1       4.059  -5.267  -0.647  0.00  0.00     0.001 A 
ATOM     20  C   UNL d   1       5.284  -4.731  -1.014  0.00  0.00     0.001 A 
ATOM     21  C   UNL d   1       5.566  -3.394  -0.733  0.00  0.00     0.018 A 
BRANCH  17  22
ATOM     22  C   UNL d   1       2.307  -2.338   0.928  0.00  0.00     0.177 C 
ATOM     23  O   UNL d   1       2.006  -1.209   0.576  0.00  0.00    -0.646 OA
BRANCH  22  24
ATOM     24  O   UNL d   1       1.645  -2.999   1.899  0.00  0.00    -0.773 OA
ATOM     25  H   UNL d   1       2.008  -3.868   2.160  0.00  0.00     0.167 HD
ENDBRANCH  22  24
ENDBRANCH  17  22
ENDBRANCH   1  16
TORSDOF 5
