REMARK  4 active torsions:
REMARK  status: ('A' for Active; 'I' for Inactive)
REMARK    1  A    between atoms: C_4  and  S_1 
REMARK    2  A    between atoms: N_5  and  S_1 
REMARK    3  A    between atoms: S_2  and  C_3 
REMARK    4  A    between atoms: C_7  and  N_5 
ROOT
ATOM      1  C   UNL d   1       0.518   0.629  -3.871  0.00  0.00     0.154 C 
ATOM      2  C   UNL d   1       0.849   0.819  -2.587  0.00  0.00     0.132 C 
ATOM      3  C   UNL d   1       1.006   1.393  -4.955  0.00  0.00     0.113 C 
ATOM      4  N   UNL d   1       1.410   1.977  -5.873  0.00  0.00    -0.191 NA
ENDROOT
BRANCH   1   5
ATOM      5  S   UNL d   1      -0.564  -0.667  -4.236  0.00  0.00     0.183 S 
ATOM      6  O   UNL d   1      -1.277  -1.058  -3.031  0.00  0.00    -0.222 OA
ATOM      7  O   UNL d   1      -1.310  -0.375  -5.444  0.00  0.00    -0.222 OA
ATOM      8  C   UNL d   1       0.552  -1.996  -4.617  0.00  0.00     0.168 C 
ENDBRANCH   1   5
BRANCH   2   9
ATOM      9  N   UNL d   1       1.765   1.863  -2.225  0.00  0.00    -0.321 N 
ATOM     10  HN  UNL d   1       2.174   2.401  -2.989  1.00  0.00     0.175 HD
BRANCH   9  11
ATOM     11  S   UNL d   1       2.191   2.249  -0.793  0.00  0.00     0.052 S 
ATOM     12  O   UNL d   1       3.103   3.315  -0.436  0.00  0.00    -0.245 OA
ATOM     13  C   UNL d   1       0.784   2.361   0.275  0.00  0.00     0.142 C 
BRANCH  11  14
ATOM     14  C   UNL d   1       3.072   0.827  -0.317  0.00  0.00     0.045 A 
ATOM     15  C   UNL d   1       4.223   0.363  -1.030  0.00  0.00     0.029 A 
ATOM     16  C   UNL d   1       4.784  -0.748  -0.440  0.00  0.00     0.051 A 
ATOM     17  S   UNL d   1       3.928  -1.232   0.961  0.00  0.00    -0.112 SA
ATOM     18  C   UNL d   1       2.812   0.059   0.797  0.00  0.00     0.071 A 
ENDBRANCH  11  14
ENDBRANCH   9  11
ENDBRANCH   2   9
TORSDOF 4
