REMARK  3 active torsions:
REMARK  status: ('A' for Active; 'I' for Inactive)
REMARK    1  A    between atoms: N_11  and  C_4 
REMARK    2  A    between atoms: C_12  and  C_7 
REMARK    3  A    between atoms: C_13  and  C_8 
ROOT
ATOM      1  N   UNL d   1       1.388   1.225   0.015  0.00  0.00    -0.327 N 
ATOM      2  HN  UNL d   1       1.886   2.114   0.028  1.00  0.00     0.169 HD
ATOM      3  C   UNL d   1      -0.633  -0.034   0.085  0.00  0.00     0.116 A 
ATOM      4  C   UNL d   1       0.037   1.193   0.094  0.00  0.00     0.127 A 
ATOM      5  N   UNL d   1       1.476  -1.138  -0.150  0.00  0.00    -0.340 N 
ATOM      6  HN  UNL d   1       2.031  -1.988  -0.252  1.00  0.00     0.167 HD
ATOM      7  C   UNL d   1       2.063   0.065  -0.081  0.00  0.00     0.117 A 
ATOM      8  C   UNL d   1       0.127  -1.191  -0.080  0.00  0.00     0.068 A 
ATOM      9  C   UNL d   1      -2.031  -0.106   0.354  0.00  0.00     0.105 C 
ATOM     10  N   UNL d   1      -3.182  -0.163   0.525  0.00  0.00    -0.191 NA
ENDROOT
BRANCH   4  11
ATOM     11  N   UNL d   1      -0.625   2.408   0.287  0.00  0.00    -0.375 N 
ATOM     12  C   UNL d   1       0.170   3.543   0.751  0.00  0.00     0.150 C 
ATOM     13  C   UNL d   1      -1.762   2.781  -0.561  0.00  0.00     0.150 C 
ENDBRANCH   4  11
BRANCH   8  14
ATOM     14  C   UNL d   1      -0.408  -2.579  -0.163  0.00  0.00    -0.008 A 
ATOM     15  C   UNL d   1       0.310  -3.656   0.396  0.00  0.00     0.014 A 
ATOM     16  C   UNL d   1      -0.158  -4.973   0.320  0.00  0.00     0.001 A 
ATOM     17  C   UNL d   1      -1.368  -5.245  -0.308  0.00  0.00     0.000 A 
ATOM     18  C   UNL d   1      -2.095  -4.207  -0.878  0.00  0.00     0.001 A 
ATOM     19  C   UNL d   1      -1.609  -2.896  -0.825  0.00  0.00     0.014 A 
ENDBRANCH   8  14
BRANCH   7  20
ATOM     20  C   UNL d   1       3.541   0.103  -0.101  0.00  0.00     0.008 A 
ATOM     21  C   UNL d   1       4.307  -1.081  -0.119  0.00  0.00     0.015 A 
ATOM     22  C   UNL d   1       5.707  -1.052  -0.164  0.00  0.00     0.001 A 
ATOM     23  C   UNL d   1       6.375   0.167  -0.186  0.00  0.00     0.000 A 
ATOM     24  C   UNL d   1       5.649   1.353  -0.152  0.00  0.00     0.001 A 
ATOM     25  C   UNL d   1       4.249   1.320  -0.106  0.00  0.00     0.015 A 
ENDBRANCH   7  20
TORSDOF 3
