REMARK  3 active torsions:
REMARK  status: ('A' for Active; 'I' for Inactive)
REMARK    1  A    between atoms: N_10  and  N_6 
REMARK    2  A    between atoms: C_8  and  C_9 
REMARK    3  A    between atoms: C_16  and  N_10 
ROOT
ATOM      1  C   UNL d   1      -0.827  -1.208  -0.009  0.00  0.00     0.129 A 
ATOM      2  C   UNL d   1       0.621  -0.713  -0.019  0.00  0.00     0.277 A 
ATOM      3  N   UNL d   1       0.534   0.667  -0.096  0.00  0.00    -0.316 N 
ATOM      4  C   UNL d   1      -1.664  -0.018  -0.041  0.00  0.00     0.025 A 
ATOM      5  C   UNL d   1      -0.807   1.080  -0.100  0.00  0.00     0.049 A 
ATOM      6  N   UNL d   1      -1.271  -2.425   0.003  0.00  0.00    -0.294 N 
ATOM      7  HN  UNL d   1      -2.270  -2.630   0.004  1.00  0.00     0.187 HD
ATOM      8  O   UNL d   1       1.596  -1.434   0.045  0.00  0.00    -0.265 OA
ATOM      9  C   UNL d   1       1.659   1.560  -0.156  0.00  0.00     0.159 C 
ATOM     10  C   UNL d   1      -3.041   0.101  -0.027  0.00  0.00     0.016 A 
ATOM     11  C   UNL d   1      -1.319   2.364  -0.146  0.00  0.00     0.031 A 
ATOM     12  C   UNL d   1      -3.566   1.393  -0.069  0.00  0.00     0.001 A 
ATOM     13  C   UNL d   1      -2.713   2.513  -0.128  0.00  0.00     0.002 A 
ENDROOT
BRANCH   6  14
ATOM     14  N   UNL d   1      -0.343  -3.410   0.012  0.00  0.00    -0.300 N 
ATOM     15  H   UNL d   1       0.646  -3.214   0.194  0.00  0.00     0.187 HD
BRANCH  14  16
ATOM     16  C   UNL d   1      -0.751  -4.753  -0.012  0.00  0.00     0.048 A 
ATOM     17  C   UNL d   1       0.208  -5.772   0.056  0.00  0.00     0.047 A 
ATOM     18  C   UNL d   1      -0.161  -7.129  -0.001  0.00  0.00     0.050 A 
ATOM     19  C   UNL d   1      -1.517  -7.461  -0.133  0.00  0.00     0.016 A 
ATOM     20  C   UNL d   1      -2.480  -6.459  -0.211  0.00  0.00     0.003 A 
ATOM     21  C   UNL d   1      -2.096  -5.119  -0.154  0.00  0.00     0.031 A 
BRANCH  18  22
ATOM     22  C   UNL d   1       0.874  -8.222   0.072  0.00  0.00     0.417 C 
ATOM     23  F   UNL d   1       2.153  -7.765   0.174  0.00  0.00    -0.166 F 
ATOM     24  F   UNL d   1       0.687  -9.045   1.142  0.00  0.00    -0.166 F 
ATOM     25  F   UNL d   1       0.856  -9.031  -1.025  0.00  0.00    -0.166 F 
ENDBRANCH  18  22
ENDBRANCH  14  16
ENDBRANCH   6  14
TORSDOF 3
