REMARK  2 active torsions:
REMARK  status: ('A' for Active; 'I' for Inactive)
REMARK    1  A    between atoms: C_8  and  C_4 
REMARK    2  A    between atoms: N_10  and  C_7 
ROOT
ATOM      1  C   UNL d   1       0.051  -0.812   0.020  0.00  0.00     0.086 A 
ATOM      2  N   UNL d   1      -1.799   0.532   0.043  0.00  0.00    -0.256 N 
ATOM      3  HN  UNL d   1      -2.765   0.860   0.046  1.00  0.00     0.195 HD
ATOM      4  C   UNL d   1      -1.409  -0.709   0.073  0.00  0.00     0.083 A 
ATOM      5  C   UNL d   1       0.516   0.581  -0.002  0.00  0.00     0.318 A 
ATOM      6  O   UNL d   1      -0.625   1.354   0.004  0.00  0.00    -0.194 OA
ATOM      7  C   UNL d   1       0.763  -1.942  -0.105  0.00  0.00     0.104 C 
ATOM      8  O   UNL d   1       1.654   1.014  -0.068  0.00  0.00    -0.257 OA
ENDROOT
BRANCH   4   9
ATOM      9  C   UNL d   1      -2.357  -1.837   0.149  0.00  0.00    -0.006 A 
ATOM     10  C   UNL d   1      -3.591  -1.712  -0.503  0.00  0.00     0.014 A 
ATOM     11  C   UNL d   1      -4.506  -2.767  -0.485  0.00  0.00     0.001 A 
ATOM     12  C   UNL d   1      -4.195  -3.951   0.182  0.00  0.00     0.000 A 
ATOM     13  C   UNL d   1      -2.986  -4.068   0.864  0.00  0.00     0.001 A 
ATOM     14  C   UNL d   1      -2.081  -3.005   0.872  0.00  0.00     0.014 A 
ENDBRANCH   4   9
BRANCH   7  15
ATOM     15  N   UNL d   1       2.112  -2.267  -0.110  0.00  0.00    -0.397 N 
ATOM     16  C   UNL d   1       3.165  -1.457   0.508  0.00  0.00     0.148 C 
ATOM     17  C   UNL d   1       2.587  -3.538  -0.662  0.00  0.00     0.148 C 
ENDBRANCH   7  15
TORSDOF 2
