REMARK  5 active torsions:
REMARK  status: ('A' for Active; 'I' for Inactive)
REMARK    1  A    between atoms: C_4  and  C_1 
REMARK    2  A    between atoms: O_10  and  C_4 
REMARK    3  A    between atoms: C_11  and  C_5 
REMARK    4  A    between atoms: C_6  and  C_11 
REMARK    5  A    between atoms: C_9  and  O_10 
ROOT
ATOM      1  C   UNL d   1       1.272   0.773  -0.192  0.00  0.00     0.116 A 
ATOM      2  N   UNL d   1       1.380  -0.569   0.178  0.00  0.00    -0.348 N 
ATOM      3  HN  UNL d   1       2.209  -0.994   0.594  1.00  0.00     0.166 HD
ATOM      4  C   UNL d   1       0.257  -1.210  -0.086  0.00  0.00     0.055 A 
ATOM      5  C   UNL d   1       0.032   1.123  -0.696  0.00  0.00     0.087 A 
ATOM      6  S   UNL d   1      -1.004  -0.232  -0.735  0.00  0.00    -0.086 SA
ENDROOT
BRANCH   1   7
ATOM      7  C   UNL d   1       2.381   1.722  -0.103  0.00  0.00     0.315 C 
ATOM      8  O   UNL d   1       2.379   2.789  -0.712  0.00  0.00    -0.257 OA
BRANCH   7   9
ATOM      9  O   UNL d   1       3.410   1.272   0.731  0.00  0.00    -0.274 OA
BRANCH   9  10
ATOM     10  C   UNL d   1       4.611   1.995   0.909  0.00  0.00     0.082 A 
ATOM     11  C   UNL d   1       4.712   3.382   0.807  0.00  0.00     0.061 A 
ATOM     12  C   UNL d   1       5.961   3.987   0.955  0.00  0.00     0.038 A 
ATOM     13 CL   UNL d   1       6.106   5.694   0.776  0.00  0.00    -0.084 Cl
ATOM     14  C   UNL d   1       7.093   3.228   1.238  0.00  0.00     0.048 A 
ATOM     15  C   UNL d   1       6.968   1.848   1.387  0.00  0.00     0.038 A 
ATOM     16  C   UNL d   1       5.731   1.225   1.228  0.00  0.00     0.061 A 
ATOM     17 CL   UNL d   1       8.356   0.904   1.764  0.00  0.00    -0.084 Cl
ENDBRANCH   9  10
ENDBRANCH   7   9
ENDBRANCH   1   7
BRANCH   4  18
ATOM     18  C   UNL d   1       0.054  -2.692   0.074  0.00  0.00     0.107 C 
BRANCH  18  19
ATOM     19  C   UNL d   1      -0.237  -3.118   1.499  0.00  0.00    -0.009 A 
ATOM     20  C   UNL d   1      -1.557  -3.191   1.988  0.00  0.00     0.042 A 
ATOM     21 CL   UNL d   1      -2.933  -2.819   1.007  0.00  0.00    -0.084 Cl
ATOM     22  C   UNL d   1      -1.823  -3.590   3.304  0.00  0.00     0.024 A 
ATOM     23  C   UNL d   1      -0.781  -3.925   4.161  0.00  0.00     0.003 A 
ATOM     24  C   UNL d   1       0.530  -3.854   3.703  0.00  0.00     0.024 A 
ATOM     25  C   UNL d   1       0.802  -3.450   2.390  0.00  0.00     0.042 A 
ATOM     26 CL   UNL d   1       2.469  -3.403   1.927  0.00  0.00    -0.084 Cl
ENDBRANCH  18  19
ENDBRANCH   4  18
TORSDOF 5
