REMARK  3 active torsions:
REMARK  status: ('A' for Active; 'I' for Inactive)
REMARK    1  A    between atoms: C_11  and  N_1 
REMARK    2  A    between atoms: C_8  and  N_3 
REMARK    3  A    between atoms: N_10  and  C_8 
ROOT
ATOM      1  N   UNL d   1      -0.704  -1.123  -0.586  0.00  0.00    -0.213 N 
ATOM      2  C   UNL d   1       0.063  -0.044  -1.040  0.00  0.00     0.219 A 
ATOM      3  N   UNL d   1       1.028   0.092  -0.042  0.00  0.00    -0.221 N 
ATOM      4  N   UNL d   1      -0.254  -1.494   0.654  0.00  0.00    -0.218 N 
ATOM      5  HN  UNL d   1      -0.669  -2.220   1.237  1.00  0.00     0.210 HD
ATOM      6  N   UNL d   1       0.759  -0.797   0.965  0.00  0.00    -0.222 N 
ATOM      7  HN  UNL d   1       1.291  -0.885   1.831  1.00  0.00     0.210 HD
ATOM      8  S   UNL d   1      -0.128   0.944  -2.372  0.00  0.00    -0.037 SA
ENDROOT
BRANCH   3   9
ATOM      9  C   UNL d   1       2.002   1.145   0.141  0.00  0.00     0.424 C 
BRANCH   9  10
ATOM     10  N   UNL d   1       3.389   0.647   0.083  0.00  0.00     0.107 N 
ATOM     11  C   UNL d   1       3.669  -0.006  -1.207  0.00  0.00     0.274 C 
ATOM     12  C   UNL d   1       5.136  -0.422  -1.342  0.00  0.00     0.030 C 
ATOM     13  C   UNL d   1       6.054   0.777  -1.162  0.00  0.00     0.003 C 
ATOM     14  C   UNL d   1       5.772   1.433   0.180  0.00  0.00     0.030 C 
ATOM     15  C   UNL d   1       4.293   1.789   0.315  0.00  0.00     0.274 C 
ENDBRANCH   9  10
ENDBRANCH   3   9
BRANCH   1  16
ATOM     16  C   UNL d   1      -1.838  -1.753  -1.134  0.00  0.00     0.060 A 
ATOM     17  C   UNL d   1      -2.032  -1.841  -2.516  0.00  0.00     0.031 A 
ATOM     18  C   UNL d   1      -3.197  -2.408  -3.047  0.00  0.00     0.002 A 
ATOM     19  C   UNL d   1      -4.180  -2.902  -2.197  0.00  0.00     0.000 A 
ATOM     20  C   UNL d   1      -3.985  -2.852  -0.817  0.00  0.00     0.002 A 
ATOM     21  C   UNL d   1      -2.811  -2.305  -0.291  0.00  0.00     0.031 A 
ENDBRANCH   1  16
TORSDOF 3
