REMARK  5 active torsions:
REMARK  status: ('A' for Active; 'I' for Inactive)
REMARK    1  A    between atoms: S_11  and  C_4 
REMARK    2  A    between atoms: C_10  and  C_18 
REMARK       I    between atoms: N_13  and  C_10 
REMARK    3  A    between atoms: C_18  and  S_11 
REMARK    4  A    between atoms: C_20  and  N_13 
REMARK    5  A    between atoms: C_22  and  C_14 
ROOT
ATOM      1  C   UNL d   1       7.057   3.011   0.221  0.00  0.00     0.184 C 
ENDROOT
BRANCH   1   2
ATOM      2  C   UNL d   1       6.128   1.812   0.011  0.00  0.00     0.231 C 
ATOM      3  N   UNL d   1       6.808   0.600   0.116  0.00  0.00    -0.327 N 
ATOM      4  H   UNL d   1       7.742   0.628   0.504  0.00  0.00     0.169 HD
ATOM      5  O   UNL d   1       4.946   1.951  -0.282  0.00  0.00    -0.272 OA
BRANCH   3   6
ATOM      6  C   UNL d   1       6.320  -0.688  -0.200  0.00  0.00     0.034 A 
ATOM      7  C   UNL d   1       5.076  -0.921  -0.779  0.00  0.00     0.030 A 
ATOM      8  C   UNL d   1       4.680  -2.218  -1.128  0.00  0.00     0.010 A 
ATOM      9  C   UNL d   1       5.523  -3.315  -0.904  0.00  0.00    -0.055 A 
ATOM     10  C   UNL d   1       6.765  -3.082  -0.302  0.00  0.00     0.010 A 
ATOM     11  C   UNL d   1       7.157  -1.781   0.044  0.00  0.00     0.030 A 
BRANCH   9  12
ATOM     12  C   UNL d   1       5.125  -4.716  -1.339  0.00  0.00     0.010 C 
ATOM     13  C   UNL d   1       3.827  -5.183  -0.675  0.00  0.00     0.015 C 
ATOM     14  C   UNL d   1       5.010  -4.804  -2.864  0.00  0.00     0.015 C 
ENDBRANCH   9  12
ENDBRANCH   3   6
ENDBRANCH   1   2
BRANCH   1  15
ATOM     15  S   UNL d   1       6.246   4.422   1.026  0.00  0.00    -0.096 SA
BRANCH  15  16
ATOM     16  C   UNL d   1       5.699   3.676   2.508  0.00  0.00     0.113 C 
ATOM     17  N   UNL d   1       6.126   2.492   2.872  0.00  0.00    -0.343 N 
ATOM     18  C   UNL d   1       5.397   2.046   3.966  0.00  0.00     0.072 A 
ATOM     19  HN  UNL d   1       6.881   1.976   2.420  1.00  0.00     0.167 HD
ATOM     20  C   UNL d   1       4.491   2.977   4.486  0.00  0.00     0.037 A 
ATOM     21  C   UNL d   1       5.449   0.779   4.586  0.00  0.00     0.063 A 
ATOM     22  C   UNL d   1       3.667   2.684   5.589  0.00  0.00     0.045 A 
ATOM     23  S   UNL d   1       4.573   4.423   3.553  0.00  0.00    -0.063 SA
ATOM     24  C   UNL d   1       3.741   1.402   6.144  0.00  0.00     0.037 A 
ATOM     25  C   UNL d   1       4.621   0.447   5.655  0.00  0.00     0.050 A 
ATOM     26 CL   UNL d   1       2.698   0.997   7.454  0.00  0.00    -0.084 Cl
ATOM     27 CL   UNL d   1       6.564  -0.339   3.926  0.00  0.00    -0.082 Cl
ENDBRANCH  15  16
ENDBRANCH   1  15
TORSDOF 5
