REMARK  3 active torsions:
REMARK  status: ('A' for Active; 'I' for Inactive)
REMARK    1  A    between atoms: C_11  and  C_7 
REMARK    2  A    between atoms: O_17  and  C_8 
REMARK    3  A    between atoms: O_18  and  C_14 
ROOT
ATOM      1  C   UNL d   1       2.887  -1.092   0.486  0.00  0.00     0.101 A 
ATOM      2  N   UNL d   1       2.333  -3.428   0.721  0.00  0.00    -0.275 N 
ATOM      3  N   UNL d   1       4.331  -2.658   1.605  0.00  0.00    -0.275 N 
ATOM      4  C   UNL d   1       1.941  -2.210   0.240  0.00  0.00     0.265 A 
ATOM      5  C   UNL d   1       4.124  -1.349   1.268  0.00  0.00     0.265 A 
ATOM      6  C   UNL d   1       3.484  -3.698   1.396  0.00  0.00     0.329 A 
ATOM      7  C   UNL d   1       2.558   0.103  -0.041  0.00  0.00     0.034 C 
ATOM      8  O   UNL d   1       0.876  -2.082  -0.353  0.00  0.00    -0.267 OA
ATOM      9  O   UNL d   1       4.913  -0.485   1.630  0.00  0.00    -0.267 OA
ATOM     10  O   UNL d   1       3.736  -4.827   1.805  0.00  0.00    -0.246 OA
ATOM     11  H   UNL d   1       1.704  -4.202   0.568  0.00  0.00     0.173 HD
ATOM     12  H   UNL d   1       5.165  -2.856   2.141  0.00  0.00     0.173 HD
ENDROOT
BRANCH   7  13
ATOM     13  C   UNL d   1       3.337   1.339   0.028  0.00  0.00    -0.032 A 
ATOM     14  C   UNL d   1       3.161   2.223   1.100  0.00  0.00     0.051 A 
ATOM     15  C   UNL d   1       3.834   3.454   1.143  0.00  0.00     0.102 A 
ATOM     16  C   UNL d   1       4.735   3.770   0.109  0.00  0.00     0.101 A 
ATOM     17  C   UNL d   1       4.914   2.873  -0.954  0.00  0.00     0.040 A 
ATOM     18  C   UNL d   1       4.220   1.665  -0.999  0.00  0.00     0.014 A 
BRANCH  15  19
ATOM     19  O   UNL d   1       3.618   4.390   2.121  0.00  0.00    -0.353 OA
ATOM     20  C   UNL d   1       2.667   4.086   3.135  0.00  0.00     0.210 C 
ENDBRANCH  15  19
BRANCH  16  21
ATOM     21  O   UNL d   1       5.455   4.927  -0.047  0.00  0.00    -0.353 OA
ATOM     22  C   UNL d   1       5.876   5.592   1.136  0.00  0.00     0.210 C 
ENDBRANCH  16  21
ENDBRANCH   7  13
TORSDOF 3
