REMARK  5 active torsions:
REMARK  status: ('A' for Active; 'I' for Inactive)
REMARK    1  A    between atoms: C_10  and  C_1 
REMARK    2  A    between atoms: C_4  and  C_2 
REMARK       I    between atoms: N_14  and  C_10 
REMARK    3  A    between atoms: C_12  and  N_16 
REMARK    4  A    between atoms: N_19  and  C_12 
REMARK    5  A    between atoms: N_16  and  N_14 
ROOT
ATOM      1  C   UNL d   1      -0.094  -1.147  -0.035  0.00  0.00     0.098 A 
ATOM      2  C   UNL d   1       0.655   1.170  -0.030  0.00  0.00     0.104 A 
ATOM      3  S   UNL d   1       1.430  -0.358  -0.110  0.00  0.00    -0.063 SA
ATOM      4  N   UNL d   1      -0.660   1.125   0.040  0.00  0.00    -0.351 N 
ATOM      5  HN  UNL d   1      -1.268   1.942   0.099  1.00  0.00     0.166 HD
ATOM      6  C   UNL d   1      -1.100  -0.193   0.021  0.00  0.00     0.029 A 
ATOM      7  C   UNL d   1      -2.568  -0.440   0.060  0.00  0.00     0.070 C 
ENDROOT
BRANCH   1   8
ATOM      8  C   UNL d   1      -0.221  -2.595  -0.034  0.00  0.00     0.279 C 
ATOM      9  N   UNL d   1       0.962  -3.303  -0.152  0.00  0.00    -0.263 N 
ATOM     10  H   UNL d   1       1.869  -2.846  -0.239  0.00  0.00     0.190 HD
ATOM     11  O   UNL d   1      -1.298  -3.187   0.066  0.00  0.00    -0.265 OA
BRANCH   9  12
ATOM     12  N   UNL d   1       0.945  -4.702  -0.148  0.00  0.00    -0.274 N 
ATOM     13  H   UNL d   1       0.033  -5.132  -0.016  0.00  0.00     0.189 HD
BRANCH  12  14
ATOM     14  C   UNL d   1       2.115  -5.434  -0.284  0.00  0.00     0.186 C 
ATOM     15  S   UNL d   1       3.622  -4.724  -0.474  0.00  0.00    -0.040 SA
BRANCH  14  16
ATOM     16  N   UNL d   1       1.871  -6.790  -0.241  0.00  0.00    -0.370 N 
ATOM     17  C   UNL d   1       2.841  -7.866  -0.350  0.00  0.00     0.148 C 
ATOM     18  H   UNL d   1       0.909  -7.081  -0.132  0.00  0.00     0.161 HD
ENDBRANCH  14  16
ENDBRANCH  12  14
ENDBRANCH   9  12
ENDBRANCH   1   8
BRANCH   2  19
ATOM     19  C   UNL d   1       1.407   2.471  -0.037  0.00  0.00     0.091 A 
ATOM     20  N   UNL d   1       2.739   2.556  -0.165  0.00  0.00    -0.258 N 
ATOM     21  O   UNL d   1       3.035   3.908  -0.130  0.00  0.00    -0.242 OA
ATOM     22  HN  UNL d   1       3.398   1.784  -0.267  1.00  0.00     0.195 HD
ATOM     23  C   UNL d   1       1.887   4.620   0.028  0.00  0.00     0.074 A 
ATOM     24  C   UNL d   1       0.823   3.754   0.089  0.00  0.00     0.068 A 
ATOM     25  C   UNL d   1       2.032   6.084   0.094  0.00  0.00     0.079 C 
ENDBRANCH   2  19
TORSDOF 5
