REMARK  5 active torsions:
REMARK  status: ('A' for Active; 'I' for Inactive)
REMARK    1  A    between atoms: S_5  and  C_1 
REMARK    2  A    between atoms: C_2  and  C_4 
REMARK    3  A    between atoms: O_11  and  C_2 
REMARK    4  A    between atoms: C_13  and  S_5 
REMARK    5  A    between atoms: C_12  and  C_13 
ROOT
ATOM      1  C   UNL d   1       1.836   7.631  -0.152  0.00  0.00     0.038 A 
ATOM      2  C   UNL d   1       2.004   6.238  -0.227  0.00  0.00     0.026 A 
ATOM      3  C   UNL d   1       0.913   5.373  -0.020  0.00  0.00    -0.048 A 
ATOM      4  C   UNL d   1       0.574   8.172   0.098  0.00  0.00     0.018 A 
ATOM      5  C   UNL d   1      -0.510   7.327   0.321  0.00  0.00     0.002 A 
ATOM      6  C   UNL d   1      -0.336   5.941   0.283  0.00  0.00     0.008 A 
ENDROOT
BRANCH   3   7
ATOM      7  C   UNL d   1       1.127   3.871  -0.054  0.00  0.00     0.118 C 
BRANCH   7   8
ATOM      8  S   UNL d   1      -0.187   2.950  -0.896  0.00  0.00    -0.118 SA
BRANCH   8   9
ATOM      9  C   UNL d   1       0.295   1.267  -0.725  0.00  0.00     0.041 A 
ATOM     10  S   UNL d   1      -0.784   0.022  -1.210  0.00  0.00    -0.095 SA
ATOM     11  C   UNL d   1       0.339  -1.204  -0.816  0.00  0.00     0.051 A 
ATOM     12  C   UNL d   1       1.508  -0.685  -0.312  0.00  0.00     0.009 A 
ATOM     13  C   UNL d   1       1.481   0.742  -0.253  0.00  0.00     0.026 A 
ENDBRANCH   8   9
ENDBRANCH   7   8
ENDBRANCH   3   7
BRANCH   1  14
ATOM     14  C   UNL d   1       2.967   8.569  -0.365  0.00  0.00     0.176 C 
ATOM     15  O   UNL d   1       2.845   9.645  -0.919  0.00  0.00    -0.646 OA
BRANCH  14  16
ATOM     16  O   UNL d   1       4.128   8.133   0.169  0.00  0.00    -0.773 OA
ATOM     17  H   UNL d   1       4.042   7.363   0.758  0.00  0.00     0.167 HD
ENDBRANCH  14  16
ENDBRANCH   1  14
TORSDOF 5
