REMARK  3 active torsions:
REMARK  status: ('A' for Active; 'I' for Inactive)
REMARK    1  A    between atoms: C_3  and  C_1 
REMARK       I    between atoms: N_5  and  C_3 
REMARK    2  A    between atoms: C_11  and  C_6 
REMARK    3  A    between atoms: O_17  and  C_6 
ROOT
ATOM      1  C   UNL d   1       3.388  -1.494   0.028  0.00  0.00     0.260 C 
ATOM      2  N   UNL d   1       3.582  -2.883   0.075  0.00  0.00    -0.347 N 
ATOM      3  C   UNL d   1       5.219  -5.284  -0.283  0.00  0.00     0.088 C 
ATOM      4  C   UNL d   1       4.475  -4.596  -1.441  0.00  0.00     0.063 C 
ATOM      5  C   UNL d   1       5.503  -4.249   0.827  0.00  0.00     0.063 C 
ATOM      6  C   UNL d   1       4.245  -3.478   1.232  0.00  0.00     0.129 C 
ATOM      7  C   UNL d   1       3.242  -3.834  -0.978  0.00  0.00     0.129 C 
ATOM      8  O   UNL d   1       3.942  -0.764   0.855  0.00  0.00    -0.267 OA
ENDROOT
BRANCH   1   9
ATOM      9  C   UNL d   1       2.514  -0.950  -1.006  0.00  0.00     0.074 A 
ATOM     10  S   UNL d   1       2.893   0.558  -1.720  0.00  0.00    -0.084 SA
ATOM     11  C   UNL d   1       1.537   0.500  -2.780  0.00  0.00     0.016 A 
ATOM     12  C   UNL d   1       1.167   1.454  -3.747  0.00  0.00     0.019 A 
ATOM     13  C   UNL d   1       0.786  -0.659  -2.578  0.00  0.00    -0.018 A 
ATOM     14  C   UNL d   1       0.037   1.214  -4.535  0.00  0.00     0.001 A 
ATOM     15  C   UNL d   1      -0.705   0.052  -4.372  0.00  0.00     0.001 A 
ATOM     16  C   UNL d   1      -0.344  -0.883  -3.399  0.00  0.00     0.013 A 
ATOM     17  C   UNL d   1       1.323  -1.441  -1.506  0.00  0.00     0.037 A 
ENDBRANCH   1   9
BRANCH   3  18
ATOM     18  C   UNL d   1       6.498  -6.007  -0.729  0.00  0.00    -0.024 A 
ATOM     19  C   UNL d   1       6.941  -6.015  -2.065  0.00  0.00     0.012 A 
ATOM     20  C   UNL d   1       8.096  -6.706  -2.444  0.00  0.00     0.024 A 
ATOM     21  C   UNL d   1       8.829  -7.403  -1.493  0.00  0.00     0.034 A 
ATOM     22  C   UNL d   1       8.414  -7.419  -0.165  0.00  0.00     0.024 A 
ATOM     23 CL   UNL d   1      10.246  -8.256  -1.964  0.00  0.00    -0.084 Cl
ATOM     24  C   UNL d   1       7.256  -6.731   0.212  0.00  0.00     0.012 A 
ENDBRANCH   3  18
BRANCH   3  25
ATOM     25  O   UNL d   1       4.332  -6.280   0.248  0.00  0.00    -0.385 OA
ATOM     26  H   UNL d   1       4.499  -7.111  -0.230  0.00  0.00     0.211 HD
ENDBRANCH   3  25
TORSDOF 3
