REMARK  2 active torsions:
REMARK  status: ('A' for Active; 'I' for Inactive)
REMARK    1  A    between atoms: C_7  and  C_2 
REMARK    2  A    between atoms: N_9  and  C_5 
ROOT
ATOM      1  C   UNL d   1       0.915  -0.791  -0.403  0.00  0.00     0.084 A 
ATOM      2  C   UNL d   1       0.991   0.581  -0.031  0.00  0.00     0.079 A 
ATOM      3  N   UNL d   1      -0.203   0.995   0.440  0.00  0.00    -0.297 N 
ATOM      4  HN  UNL d   1      -0.449   1.921   0.791  1.00  0.00     0.187 HD
ATOM      5  C   UNL d   1      -0.380  -1.188  -0.172  0.00  0.00     0.133 A 
ATOM      6  N   UNL d   1      -0.997  -0.083   0.341  0.00  0.00    -0.284 N 
ATOM      7 BR   UNL d   1       2.300  -1.890  -1.034  0.00  0.00    -0.044 Br
ATOM      8  H   UNL d   1      -1.956  -0.003   0.655  0.00  0.00     0.188 HD
ENDROOT
BRANCH   2   9
ATOM      9  C   UNL d   1       2.121   1.515  -0.073  0.00  0.00    -0.007 A 
ATOM     10  C   UNL d   1       3.021   1.535  -1.147  0.00  0.00     0.014 A 
ATOM     11  C   UNL d   1       4.093   2.432  -1.163  0.00  0.00     0.001 A 
ATOM     12  C   UNL d   1       4.267   3.333  -0.114  0.00  0.00     0.000 A 
ATOM     13  C   UNL d   1       3.367   3.341   0.949  0.00  0.00     0.001 A 
ATOM     14  C   UNL d   1       2.301   2.439   0.968  0.00  0.00     0.014 A 
ENDBRANCH   2   9
BRANCH   5  15
ATOM     15  N   UNL d   1      -1.025  -2.360  -0.340  0.00  0.00    -0.383 N 
ATOM     16  H   UNL d   1      -0.568  -3.128  -0.829  0.00  0.00     0.157 HD
ATOM     17  H   UNL d   1      -2.033  -2.464  -0.270  0.00  0.00     0.157 HD
ENDBRANCH   5  15
TORSDOF 2
