REMARK  7 active torsions:
REMARK  status: ('A' for Active; 'I' for Inactive)
REMARK    1  A    between atoms: C_2  and  S_1 
REMARK    2  A    between atoms: N_15  and  S_1 
REMARK    3  A    between atoms: C_3  and  C_7 
REMARK       I    between atoms: C_8  and  N_9 
REMARK    4  A    between atoms: O_16  and  C_8 
REMARK    5  A    between atoms: C_23  and  N_15 
REMARK    6  A    between atoms: C_22  and  O_16 
REMARK    7  A    between atoms: C_26  and  C_23 
ROOT
ATOM      1  N   UNL d   1       0.882   0.051   3.038  0.00  0.00    -0.215 NA
ATOM      2  H   UNL d   1       0.879   0.060   4.060  0.00  0.00     0.140 HD
ENDROOT
BRANCH   1   3
ATOM      3  S   UNL d   1       1.465  -1.428   2.476  0.00  0.00     0.248 S 
ATOM      4  O   UNL d   1       0.766  -2.463   3.203  0.00  0.00    -0.205 OA
ATOM      5  O   UNL d   1       1.508  -1.388   1.035  0.00  0.00    -0.205 OA
BRANCH   3   6
ATOM      6  C   UNL d   1       3.159  -1.572   2.991  0.00  0.00     0.115 A 
ATOM      7  S   UNL d   1       3.481  -1.258   4.646  0.00  0.00    -0.075 SA
ATOM      8  C   UNL d   1       5.165  -1.415   4.414  0.00  0.00     0.033 A 
ATOM      9  C   UNL d   1       5.470  -1.794   3.123  0.00  0.00     0.023 A 
ATOM     10  C   UNL d   1       4.310  -1.894   2.304  0.00  0.00     0.034 A 
BRANCH   8  11
ATOM     11  C   UNL d   1       6.220  -1.139   5.441  0.00  0.00     0.056 A 
ATOM     12  N   UNL d   1       7.555  -1.119   5.073  0.00  0.00    -0.353 N 
ATOM     13  C   UNL d   1       8.301  -0.763   6.095  0.00  0.00     0.047 A 
ATOM     14  HN  UNL d   1       7.908  -1.348   4.144  1.00  0.00     0.166 HD
ATOM     15  C   UNL d   1       9.774  -0.570   6.023  0.00  0.00     0.076 C 
ATOM     16  S   UNL d   1       7.458  -0.503   7.569  0.00  0.00    -0.087 SA
ATOM     17  C   UNL d   1       5.978  -0.844   6.768  0.00  0.00     0.082 A 
ENDBRANCH   8  11
ENDBRANCH   3   6
ENDBRANCH   1   3
BRANCH   1  18
ATOM     18  C   UNL d   1       1.356   1.294   2.398  0.00  0.00     0.109 C 
BRANCH  18  19
ATOM     19  C   UNL d   1       0.602   2.479   3.041  0.00  0.00     0.002 C 
ATOM     20  C   UNL d   1      -0.921   2.415   2.809  0.00  0.00     0.026 C 
ATOM     21  C   UNL d   1      -1.335   2.880   1.416  0.00  0.00     0.128 C 
ATOM     22  N   UNL d   1      -0.814   4.215   1.155  0.00  0.00    -0.328 N 
ATOM     23  C   UNL d   1      -1.555   5.229   0.560  0.00  0.00     0.363 C 
ATOM     24  C   UNL d   1       0.630   4.361   1.270  0.00  0.00     0.128 C 
ATOM     25  O   UNL d   1      -1.074   6.307   0.233  0.00  0.00    -0.238 OA
ATOM     26  C   UNL d   1       1.155   3.851   2.614  0.00  0.00     0.026 C 
BRANCH  23  27
ATOM     27  O   UNL d   1      -2.862   4.897   0.373  0.00  0.00    -0.294 OA
BRANCH  27  28
ATOM     28  C   UNL d   1      -3.771   5.795  -0.326  0.00  0.00     0.061 C 
ATOM     29  C   UNL d   1      -3.262   6.124  -1.736  0.00  0.00     0.046 C 
ATOM     30  C   UNL d   1      -5.091   5.016  -0.452  0.00  0.00     0.046 C 
ATOM     31  C   UNL d   1      -4.035   7.068   0.487  0.00  0.00     0.046 C 
ENDBRANCH  27  28
ENDBRANCH  23  27
ENDBRANCH  18  19
ENDBRANCH   1  18
TORSDOF 7
