REMARK  5 active torsions:
REMARK  status: ('A' for Active; 'I' for Inactive)
REMARK    1  A    between atoms: N_2  and  S_1 
REMARK    2  A    between atoms: C_5  and  S_1 
REMARK    3  A    between atoms: C_3  and  C_7 
REMARK       I    between atoms: C_4  and  N_6 
REMARK    4  A    between atoms: C_8  and  C_4 
REMARK    5  A    between atoms: N_6  and  C_19 
ROOT
ATOM      1  C   UNL d   1       0.086  -0.450   1.604  0.00  0.00     0.074 A 
ATOM      2  C   UNL d   1      -0.339  -1.772   1.786  0.00  0.00     0.027 A 
ATOM      3  C   UNL d   1       0.210   0.390   2.709  0.00  0.00     0.027 A 
ATOM      4  C   UNL d   1      -0.383  -1.460   4.208  0.00  0.00     0.035 A 
ATOM      5  C   UNL d   1      -0.038  -0.114   4.002  0.00  0.00     0.031 A 
ATOM      6  C   UNL d   1      -0.571  -2.268   3.077  0.00  0.00     0.031 A 
ENDROOT
BRANCH   4   7
ATOM      7  N   UNL d   1      -0.506  -2.080   5.482  0.00  0.00    -0.323 N 
ATOM      8  C   UNL d   1      -0.217  -1.504   6.713  0.00  0.00     0.256 C 
ATOM      9  O   UNL d   1       0.174  -0.352   6.881  0.00  0.00    -0.267 OA
ATOM     10  H   UNL d   1      -0.709  -3.071   5.466  0.00  0.00     0.169 HD
BRANCH   8  11
ATOM     11  C   UNL d   1      -0.372  -2.358   7.942  0.00  0.00     0.033 A 
ATOM     12  C   UNL d   1      -1.236  -3.460   8.026  0.00  0.00     0.033 A 
ATOM     13  C   UNL d   1      -1.415  -4.140   9.253  0.00  0.00     0.048 A 
ATOM     14  C   UNL d   1      -0.700  -3.718  10.386  0.00  0.00     0.016 A 
ATOM     15  C   UNL d   1       0.171  -2.637  10.307  0.00  0.00     0.002 A 
ATOM     16  C   UNL d   1       0.328  -1.960   9.095  0.00  0.00     0.017 A 
BRANCH  13  17
ATOM     17  C   UNL d   1      -2.399  -5.279   9.390  0.00  0.00     0.417 C 
ATOM     18  F   UNL d   1      -3.028  -5.592   8.223  0.00  0.00    -0.166 F 
ATOM     19  F   UNL d   1      -1.812  -6.430   9.819  0.00  0.00    -0.166 F 
ATOM     20  F   UNL d   1      -3.387  -5.006  10.286  0.00  0.00    -0.166 F 
ENDBRANCH  13  17
ENDBRANCH   8  11
ENDBRANCH   4   7
BRANCH   1  21
ATOM     21  S   UNL d   1       0.749   0.033   0.017  0.00  0.00     0.243 S 
ATOM     22  O   UNL d   1       2.118   0.438   0.253  0.00  0.00    -0.206 OA
ATOM     23  O   UNL d   1       0.448  -1.028  -0.917  0.00  0.00    -0.206 OA
BRANCH  21  24
ATOM     24  N   UNL d   1      -0.104   1.417  -0.502  0.00  0.00    -0.202 NA
ATOM     25  C   UNL d   1      -1.581   1.305  -0.707  0.00  0.00     0.134 C 
ATOM     26  C   UNL d   1      -1.940   0.676  -2.060  0.00  0.00     0.183 C 
ATOM     27  O   UNL d   1      -1.347   1.401  -3.146  0.00  0.00    -0.389 OA
ATOM     28  C   UNL d   1       0.082   1.407  -3.022  0.00  0.00     0.183 C 
ATOM     29  C   UNL d   1       0.518   2.078  -1.712  0.00  0.00     0.134 C 
ENDBRANCH  21  24
ENDBRANCH   1  21
TORSDOF 5
