REMARK  3 active torsions:
REMARK  status: ('A' for Active; 'I' for Inactive)
REMARK       I    between atoms: N_2  and  C_1 
REMARK       I    between atoms: N_3  and  C_1 
REMARK    1  A    between atoms: C_9  and  N_3 
REMARK    2  A    between atoms: C_7  and  N_4 
REMARK    3  A    between atoms: C_11  and  C_7 
ROOT
ATOM      1  C   UNL d   1       0.814   0.245   0.309  0.00  0.00     0.322 C 
ATOM      2  N   UNL d   1       0.186  -1.011   0.306  0.00  0.00    -0.332 N 
ATOM      3  N   UNL d   1       1.333   0.639   1.522  0.00  0.00    -0.309 N 
ATOM      4  N   UNL d   1      -1.850  -3.382  -0.211  0.00  0.00     0.094 N 
ATOM      5  O   UNL d   1       0.869   0.923  -0.716  0.00  0.00    -0.247 OA
ATOM      6  C   UNL d   1      -0.380  -1.417  -0.992  0.00  0.00     0.157 C 
ATOM      7  C   UNL d   1      -1.746  -2.112  -0.937  0.00  0.00     0.292 C 
ATOM      8  C   UNL d   1      -0.523  -2.811   1.949  0.00  0.00     0.050 C 
ATOM      9  C   UNL d   1       0.595  -2.105   1.185  0.00  0.00     0.129 C 
ATOM     10  C   UNL d   1      -1.834  -3.162   1.234  0.00  0.00     0.274 C 
ATOM     11  H   UNL d   1       1.043   0.112   2.328  0.00  0.00     0.170 HD
ENDROOT
BRANCH   3  12
ATOM     12  C   UNL d   1       2.100   1.800   1.784  0.00  0.00     0.036 A 
ATOM     13  C   UNL d   1       2.454   2.740   0.812  0.00  0.00     0.029 A 
ATOM     14  C   UNL d   1       3.227   3.857   1.141  0.00  0.00     0.002 A 
ATOM     15  C   UNL d   1       3.667   4.041   2.447  0.00  0.00     0.000 A 
ATOM     16  C   UNL d   1       3.326   3.115   3.428  0.00  0.00     0.002 A 
ATOM     17  C   UNL d   1       2.542   2.002   3.099  0.00  0.00     0.029 A 
ENDBRANCH   3  12
BRANCH   4  18
ATOM     18  C   UNL d   1      -0.961  -4.454  -0.660  0.00  0.00     0.311 C 
BRANCH  18  19
ATOM     19  C   UNL d   1      -1.122  -4.869  -2.110  0.00  0.00    -0.030 A 
ATOM     20  C   UNL d   1      -0.063  -4.699  -3.020  0.00  0.00     0.012 A 
ATOM     21  C   UNL d   1      -0.169  -5.171  -4.329  0.00  0.00     0.043 A 
ATOM     22  C   UNL d   1      -1.332  -5.813  -4.733  0.00  0.00     0.116 A 
ATOM     23  C   UNL d   1      -2.401  -5.971  -3.859  0.00  0.00     0.043 A 
ATOM     24  F   UNL d   1      -1.420  -6.296  -5.980  0.00  0.00    -0.206 F 
ATOM     25  C   UNL d   1      -2.300  -5.494  -2.550  0.00  0.00     0.012 A 
ENDBRANCH  18  19
ENDBRANCH   4  18
TORSDOF 3
