REMARK  5 active torsions:
REMARK  status: ('A' for Active; 'I' for Inactive)
REMARK    1  A    between atoms: C_3  and  C_1 
REMARK       I    between atoms: N_4  and  C_1 
REMARK    2  A    between atoms: C_2  and  C_5 
REMARK    3  A    between atoms: C_13  and  N_6 
REMARK    4  A    between atoms: C_17  and  C_13 
REMARK    5  A    between atoms: C_19  and  C_17 
ROOT
ATOM      1  C   UNL d   1       0.867   0.302  -0.417  0.00  0.00     0.254 C 
ATOM      2  N   UNL d   1       0.396   0.914   0.749  0.00  0.00    -0.346 N 
ATOM      3  N   UNL d   1      -2.072   2.503   1.773  0.00  0.00     0.090 N 
ATOM      4  O   UNL d   1       1.651   0.839  -1.196  0.00  0.00    -0.267 OA
ATOM      5  C   UNL d   1      -0.591   0.372   1.698  0.00  0.00     0.156 C 
ATOM      6  C   UNL d   1      -1.986   1.040   1.611  0.00  0.00     0.292 C 
ATOM      7  C   UNL d   1       0.047   3.384   0.558  0.00  0.00     0.050 C 
ATOM      8  C   UNL d   1       0.908   2.238   1.072  0.00  0.00     0.128 C 
ATOM      9  C   UNL d   1      -1.474   3.218   0.644  0.00  0.00     0.274 C 
ENDROOT
BRANCH   1  10
ATOM     10  C   UNL d   1       0.430  -1.065  -0.774  0.00  0.00     0.047 A 
ATOM     11  C   UNL d   1       1.354  -2.097  -1.015  0.00  0.00     0.063 A 
ATOM     12  C   UNL d   1       0.863  -3.354  -1.426  0.00  0.00     0.017 A 
ATOM     13  C   UNL d   1      -0.511  -3.585  -1.567  0.00  0.00     0.001 A 
ATOM     14  C   UNL d   1      -1.409  -2.549  -1.344  0.00  0.00     0.001 A 
ATOM     15  C   UNL d   1      -0.944  -1.292  -0.984  0.00  0.00     0.018 A 
BRANCH  11  16
ATOM     16  C   UNL d   1       2.850  -1.930  -0.913  0.00  0.00     0.418 C 
ATOM     17  F   UNL d   1       3.283  -0.914  -0.125  0.00  0.00    -0.166 F 
ATOM     18  F   UNL d   1       3.429  -3.046  -0.377  0.00  0.00    -0.166 F 
ATOM     19  F   UNL d   1       3.442  -1.776  -2.126  0.00  0.00    -0.166 F 
ENDBRANCH  11  16
ENDBRANCH   1  10
BRANCH   3  20
ATOM     20  C   UNL d   1      -1.700   2.943   3.121  0.00  0.00     0.277 C 
BRANCH  20  21
ATOM     21  C   UNL d   1      -1.865   4.446   3.396  0.00  0.00     0.068 C 
BRANCH  21  22
ATOM     22  C   UNL d   1      -1.382   4.784   4.789  0.00  0.00    -0.057 A 
ATOM     23  C   UNL d   1      -0.028   5.071   5.016  0.00  0.00     0.007 A 
ATOM     24  C   UNL d   1       0.430   5.345   6.304  0.00  0.00     0.001 A 
ATOM     25  C   UNL d   1      -0.458   5.332   7.378  0.00  0.00     0.000 A 
ATOM     26  C   UNL d   1      -1.804   5.039   7.163  0.00  0.00     0.001 A 
ATOM     27  C   UNL d   1      -2.265   4.763   5.875  0.00  0.00     0.007 A 
ENDBRANCH  21  22
ENDBRANCH  20  21
ENDBRANCH   3  20
TORSDOF 5
