REMARK  6 active torsions:
REMARK  status: ('A' for Active; 'I' for Inactive)
REMARK    1  A    between atoms: C_5  and  N_1 
REMARK    2  A    between atoms: S_2  and  C_7 
REMARK    3  A    between atoms: N_8  and  S_2 
REMARK    4  A    between atoms: C_19  and  N_8 
REMARK    5  A    between atoms: C_20  and  N_12 
REMARK    6  A    between atoms: C_28  and  C_20 
ROOT
ATOM      1  C   UNL d   1       3.077  -1.311  -0.342  0.00  0.00     0.067 A 
ATOM      2  C   UNL d   1       5.107  -3.147   0.212  0.00  0.00     0.081 A 
ATOM      3  C   UNL d   1       4.392  -0.864  -0.133  0.00  0.00     0.062 A 
ATOM      4  C   UNL d   1       5.417  -1.788   0.121  0.00  0.00     0.051 A 
ATOM      5  C   UNL d   1       2.784  -2.675  -0.211  0.00  0.00     0.033 A 
ATOM      6  C   UNL d   1       3.789  -3.584   0.102  0.00  0.00     0.027 A 
ATOM      7 CL   UNL d   1       4.808   0.808  -0.260  0.00  0.00    -0.082 Cl
ENDROOT
BRANCH   2   8
ATOM      8  S   UNL d   1       6.451  -4.286   0.479  0.00  0.00     0.259 S 
ATOM      9  O   UNL d   1       7.367  -4.129  -0.622  0.00  0.00    -0.201 OA
ATOM     10  O   UNL d   1       6.859  -4.088   1.855  0.00  0.00    -0.201 OA
BRANCH   8  11
ATOM     11  N   UNL d   1       5.763  -5.818   0.435  0.00  0.00    -0.311 N 
ATOM     12  H   UNL d   1       5.365  -6.085   1.332  0.00  0.00     0.172 HD
BRANCH  11  13
ATOM     13  C   UNL d   1       5.267  -6.494  -0.788  0.00  0.00     0.096 C 
ATOM     14  C   UNL d   1       4.691  -7.865  -0.406  0.00  0.00     0.056 C 
ATOM     15  C   UNL d   1       5.780  -8.879  -0.037  0.00  0.00     0.275 C 
ATOM     16  N   UNL d   1       6.851  -8.990  -1.046  0.00  0.00     0.092 N 
ATOM     17  C   UNL d   1       7.420  -7.666  -1.356  0.00  0.00     0.275 C 
ATOM     18  C   UNL d   1       6.335  -6.714  -1.848  0.00  0.00     0.056 C 
BRANCH  16  19
ATOM     19  C   UNL d   1       7.890  -9.912  -0.529  0.00  0.00     0.311 C 
BRANCH  19  20
ATOM     20  C   UNL d   1       9.081 -10.133  -1.439  0.00  0.00    -0.030 A 
ATOM     21  C   UNL d   1      10.366  -9.756  -1.015  0.00  0.00     0.009 A 
ATOM     22  C   UNL d   1      11.477  -9.963  -1.834  0.00  0.00     0.001 A 
ATOM     23  C   UNL d   1      11.317 -10.552  -3.086  0.00  0.00     0.000 A 
ATOM     24  C   UNL d   1      10.049 -10.937  -3.518  0.00  0.00     0.001 A 
ATOM     25  C   UNL d   1       8.935 -10.729  -2.699  0.00  0.00     0.009 A 
ENDBRANCH  19  20
ENDBRANCH  16  19
ENDBRANCH  11  13
ENDBRANCH   8  11
ENDBRANCH   2   8
BRANCH   1  26
ATOM     26  N   UNL d   1       2.051  -0.421  -0.721  0.00  0.00    -0.250 N 
ATOM     27  C   UNL d   1       1.339   0.280   0.218  0.00  0.00     0.232 C 
ATOM     28  C   UNL d   1       0.144   0.913  -0.444  0.00  0.00     0.123 C 
ATOM     29  O   UNL d   1       1.536   0.320   1.426  0.00  0.00    -0.273 OA
ATOM     30  C   UNL d   1       0.218   0.430  -1.893  0.00  0.00     0.050 C 
ATOM     31  C   UNL d   1       1.312  -0.610  -1.862  0.00  0.00     0.240 C 
ATOM     32  C   UNL d   1       0.538   1.562  -2.872  0.00  0.00     0.020 C 
ATOM     33  C   UNL d   1      -1.091  -0.128  -2.448  0.00  0.00     0.020 C 
ATOM     34  O   UNL d   1       1.480  -1.468  -2.717  0.00  0.00    -0.272 OA
ATOM     35  C   UNL d   1      -0.820   2.176  -3.205  0.00  0.00     0.001 C 
ATOM     36  C   UNL d   1      -1.860   1.086  -2.954  0.00  0.00     0.001 C 
ENDBRANCH   1  26
TORSDOF 6
