REMARK  4 active torsions:
REMARK  status: ('A' for Active; 'I' for Inactive)
REMARK    1  A    between atoms: C_17  and  C_2 
REMARK    2  A    between atoms: C_15  and  C_3 
REMARK    3  A    between atoms: C_11  and  C_16 
REMARK    4  A    between atoms: C_21  and  C_15 
ROOT
ATOM      1  S   UNL d   1      -0.994   1.762  -0.056  0.00  0.00     0.209 S 
ATOM      2  C   UNL d   1      -2.415   0.779  -0.008  0.00  0.00     0.085 C 
ATOM      3  C   UNL d   1      -2.428  -0.569  -0.056  0.00  0.00     0.020 C 
ATOM      4  C   UNL d   1      -1.136  -1.339  -0.125  0.00  0.00     0.191 C 
ATOM      5  C   UNL d   1       0.370   0.672   0.010  0.00  0.00     0.078 A 
ATOM      6  C   UNL d   1       0.183  -0.692  -0.009  0.00  0.00     0.036 A 
ATOM      7  O   UNL d   1      -0.897   2.400  -1.357  0.00  0.00    -0.217 OA
ATOM      8  O   UNL d   1      -0.903   2.540   1.167  0.00  0.00    -0.217 OA
ATOM      9  O   UNL d   1      -1.104  -2.552  -0.297  0.00  0.00    -0.287 OA
ATOM     10  C   UNL d   1       1.327  -1.517   0.042  0.00  0.00     0.017 A 
ATOM     11  C   UNL d   1       1.653   1.238   0.068  0.00  0.00     0.025 A 
ATOM     12  C   UNL d   1       2.611  -0.967   0.099  0.00  0.00     0.001 A 
ATOM     13  C   UNL d   1       2.772   0.412   0.107  0.00  0.00     0.002 A 
ENDROOT
BRANCH   3  14
ATOM     14  C   UNL d   1      -3.774  -1.321  -0.069  0.00  0.00     0.083 C 
BRANCH  14  15
ATOM     15  C   UNL d   1      -3.749  -2.838  -0.063  0.00  0.00    -0.054 C 
ATOM     16  C   UNL d   1      -3.655  -3.541   1.145  0.00  0.00     0.008 C 
ATOM     17  C   UNL d   1      -3.291  -4.892   1.147  0.00  0.00     0.016 C 
ATOM     18  C   UNL d   1      -3.020  -5.569  -0.052  0.00  0.00     0.010 C 
ATOM     19  C   UNL d   1      -3.262  -4.901  -1.261  0.00  0.00     0.016 C 
ATOM     20  C   UNL d   1      -3.632  -3.550  -1.268  0.00  0.00     0.008 C 
BRANCH  18  21
ATOM     21  C   UNL d   1      -2.382  -6.884   0.002  0.00  0.00     0.141 A 
ATOM     22  N   UNL d   1      -1.853  -7.475   1.061  0.00  0.00    -0.270 N 
ATOM     23  N   UNL d   1      -1.264  -8.633   0.616  0.00  0.00    -0.007 NA
ATOM     24  HN  UNL d   1      -1.878  -7.136   2.022  1.00  0.00     0.185 HD
ATOM     25  N   UNL d   1      -1.436  -8.780  -0.688  0.00  0.00    -0.007 NA
ATOM     26  N   UNL d   1      -2.138  -7.704  -1.066  0.00  0.00    -0.270 N 
ATOM     27  H   UNL d   1      -2.387  -7.593  -2.039  0.00  0.00     0.185 HD
ENDBRANCH  18  21
ENDBRANCH  14  15
ENDBRANCH   3  14
BRANCH   2  28
ATOM     28  C   UNL d   1      -3.569   1.691   0.050  0.00  0.00    -0.014 A 
ATOM     29  C   UNL d   1      -4.059   2.130   1.289  0.00  0.00     0.013 A 
ATOM     30  C   UNL d   1      -5.019   3.143   1.349  0.00  0.00     0.001 A 
ATOM     31  C   UNL d   1      -5.511   3.710   0.175  0.00  0.00     0.000 A 
ATOM     32  C   UNL d   1      -5.063   3.250  -1.061  0.00  0.00     0.001 A 
ATOM     33  C   UNL d   1      -4.103   2.237  -1.126  0.00  0.00     0.013 A 
ENDBRANCH   2  28
TORSDOF 4
