REMARK  9 active torsions:
REMARK  status: ('A' for Active; 'I' for Inactive)
REMARK       I    between atoms: C_3  and  N_1 
REMARK    1  A    between atoms: C_2  and  C_5 
REMARK       I    between atoms: N_6  and  C_2 
REMARK    2  A    between atoms: O_14  and  C_3 
REMARK    3  A    between atoms: C_4  and  C_12 
REMARK    4  A    between atoms: C_9  and  N_6 
REMARK    5  A    between atoms: C_11  and  C_9 
REMARK    6  A    between atoms: C_12  and  C_9 
REMARK    7  A    between atoms: O_20  and  C_11 
REMARK    8  A    between atoms: C_19  and  O_14 
REMARK    9  A    between atoms: C_22  and  C_19 
ROOT
ATOM      1  C   UNL d   1      -1.634  -1.865   0.956  0.00  0.00     0.241 C 
ATOM      2  N   UNL d   1      -2.860  -1.271   1.207  0.00  0.00    -0.345 N 
ATOM      3  O   UNL d   1      -1.480  -3.080   1.100  0.00  0.00    -0.271 OA
ATOM      4  H   UNL d   1      -2.897  -0.251   1.253  0.00  0.00     0.163 HD
ENDROOT
BRANCH   2   5
ATOM      5  C   UNL d   1      -4.039  -2.029   1.688  0.00  0.00     0.188 C 
BRANCH   5   6
ATOM      6  C   UNL d   1      -4.210  -2.217   3.203  0.00  0.00     0.281 C 
ATOM      7  O   UNL d   1      -5.195  -2.724   3.717  0.00  0.00    -0.263 OA
BRANCH   6   8
ATOM      8  O   UNL d   1      -3.084  -1.857   3.889  0.00  0.00    -0.325 OA
ATOM      9  C   UNL d   1      -3.093  -2.199   5.275  0.00  0.00     0.213 C 
ENDBRANCH   6   8
ENDBRANCH   5   6
BRANCH   5  10
ATOM     10  C   UNL d   1      -5.384  -1.586   1.054  0.00  0.00     0.076 C 
BRANCH  10  11
ATOM     11  C   UNL d   1      -5.788  -0.147   1.229  0.00  0.00    -0.028 A 
ATOM     12  C   UNL d   1      -5.453   0.877   0.367  0.00  0.00     0.096 A 
ATOM     13  N   UNL d   1      -6.008   2.038   0.827  0.00  0.00    -0.365 N 
ATOM     14  C   UNL d   1      -6.746   1.797   1.958  0.00  0.00     0.042 A 
ATOM     15  H   UNL d   1      -5.920   2.941   0.384  0.00  0.00     0.165 HD
ATOM     16  C   UNL d   1      -6.668   0.426   2.217  0.00  0.00    -0.002 A 
ATOM     17  C   UNL d   1      -7.482   2.688   2.750  0.00  0.00     0.030 A 
ATOM     18  C   UNL d   1      -7.421  -0.081   3.297  0.00  0.00     0.014 A 
ATOM     19  C   UNL d   1      -8.181   0.793   4.089  0.00  0.00     0.001 A 
ATOM     20  C   UNL d   1      -8.197   2.161   3.828  0.00  0.00     0.002 A 
ENDBRANCH  10  11
ENDBRANCH   5  10
ENDBRANCH   2   5
BRANCH   1  21
ATOM     21  C   UNL d   1      -0.552  -0.994   0.220  0.00  0.00     0.181 C 
ATOM     22  N   UNL d   1      -0.074   0.291   0.738  0.00  0.00    -0.315 N 
ATOM     23  C   UNL d   1      -0.928   1.353   0.895  0.00  0.00     0.363 C 
ATOM     24  C   UNL d   1       1.284   0.563   0.278  0.00  0.00     0.129 C 
ATOM     25  O   UNL d   1      -2.150   1.255   0.840  0.00  0.00    -0.238 OA
ATOM     26  C   UNL d   1       1.796  -0.722  -0.340  0.00  0.00     0.022 C 
ATOM     27  C   UNL d   1       0.766  -1.773   0.058  0.00  0.00     0.037 C 
BRANCH  23  28
ATOM     28  O   UNL d   1      -0.251   2.519   1.029  0.00  0.00    -0.299 OA
BRANCH  28  29
ATOM     29  C   UNL d   1      -1.030   3.683   0.761  0.00  0.00     0.219 C 
BRANCH  29  30
ATOM     30  C   UNL d   1      -1.837   4.128   1.948  0.00  0.00    -0.034 A 
ATOM     31  C   UNL d   1      -1.328   4.056   3.252  0.00  0.00     0.009 A 
ATOM     32  C   UNL d   1      -2.085   4.516   4.329  0.00  0.00     0.001 A 
ATOM     33  C   UNL d   1      -3.353   5.054   4.106  0.00  0.00     0.000 A 
ATOM     34  C   UNL d   1      -3.868   5.124   2.815  0.00  0.00     0.001 A 
ATOM     35  C   UNL d   1      -3.113   4.664   1.740  0.00  0.00     0.009 A 
ENDBRANCH  29  30
ENDBRANCH  28  29
ENDBRANCH  23  28
ENDBRANCH   1  21
TORSDOF 9
