REMARK  1 active torsions:
REMARK  status: ('A' for Active; 'I' for Inactive)
REMARK    1  A    between atoms: C_8  and  C_7 
ROOT
ATOM      1  C   UNL d   1       1.323   0.065  -0.629  0.00  0.00     0.101 C 
ATOM      2  N   UNL d   1      -0.621  -1.308  -1.017  0.00  0.00    -0.275 N 
ATOM      3  N   UNL d   1      -0.655   0.895  -1.719  0.00  0.00    -0.275 N 
ATOM      4  C   UNL d   1       0.634  -1.242  -0.478  0.00  0.00     0.265 C 
ATOM      5  C   UNL d   1       0.647   1.151  -1.384  0.00  0.00     0.265 C 
ATOM      6  C   UNL d   1      -1.291  -0.303  -1.637  0.00  0.00     0.329 C 
ATOM      7  C   UNL d   1       2.531   0.186  -0.042  0.00  0.00     0.036 C 
ATOM      8  O   UNL d   1       1.174   2.195  -1.748  0.00  0.00    -0.267 OA
ATOM      9  O   UNL d   1       1.127  -2.212   0.090  0.00  0.00    -0.267 OA
ATOM     10  O   UNL d   1      -2.405  -0.475  -2.121  0.00  0.00    -0.246 OA
ATOM     11  H   UNL d   1      -1.101  -2.193  -0.942  0.00  0.00     0.173 HD
ATOM     12  H   UNL d   1      -1.125   1.618  -2.247  0.00  0.00     0.173 HD
ENDROOT
BRANCH   7  13
ATOM     13  C   UNL d   1       3.331   1.362   0.021  0.00  0.00    -0.007 A 
ATOM     14  C   UNL d   1       4.261   1.725  -0.925  0.00  0.00     0.100 A 
ATOM     15  N   UNL d   1       4.769   2.943  -0.554  0.00  0.00    -0.364 N 
ATOM     16  C   UNL d   1       4.216   3.351   0.640  0.00  0.00     0.043 A 
ATOM     17  H   UNL d   1       5.442   3.478  -1.084  0.00  0.00     0.165 HD
ATOM     18  C   UNL d   1       3.323   2.356   1.042  0.00  0.00     0.002 A 
ATOM     19  C   UNL d   1       4.430   4.519   1.382  0.00  0.00     0.030 A 
ATOM     20  C   UNL d   1       2.628   2.524   2.258  0.00  0.00     0.014 A 
ATOM     21  C   UNL d   1       2.836   3.684   3.014  0.00  0.00     0.001 A 
ATOM     22  C   UNL d   1       3.719   4.668   2.576  0.00  0.00     0.002 A 
ENDBRANCH   7  13
TORSDOF 1
