REMARK  7 active torsions:
REMARK  status: ('A' for Active; 'I' for Inactive)
REMARK    1  A    between atoms: C_2  and  C_1 
REMARK    2  A    between atoms: C_4  and  C_1 
REMARK    3  A    between atoms: C_6  and  C_1 
REMARK    4  A    between atoms: O_13  and  C_1 
REMARK       I    between atoms: C_3  and  N_5 
REMARK    5  A    between atoms: C_7  and  C_3 
REMARK    6  A    between atoms: O_19  and  C_4 
REMARK    7  A    between atoms: N_5  and  C_18 
ROOT
ATOM      1  C   UNL d   1       0.604   0.443  -1.264  0.00  0.00    -0.005 A 
ATOM      2  C   UNL d   1       0.294  -0.547  -2.213  0.00  0.00     0.013 A 
ATOM      3  C   UNL d   1       0.504   1.780  -1.681  0.00  0.00     0.013 A 
ATOM      4  C   UNL d   1      -0.319   1.130  -3.872  0.00  0.00     0.035 A 
ATOM      5  C   UNL d   1       0.050   2.117  -2.962  0.00  0.00     0.030 A 
ATOM      6  C   UNL d   1      -0.161  -0.208  -3.497  0.00  0.00     0.030 A 
ENDROOT
BRANCH   1   7
ATOM      7  C   UNL d   1       1.000   0.087   0.179  0.00  0.00     0.271 C 
BRANCH   7   8
ATOM      8  C   UNL d   1       2.276  -0.783   0.294  0.00  0.00     0.432 C 
ATOM      9  F   UNL d   1       2.057  -1.986   0.879  0.00  0.00    -0.167 F 
ATOM     10  F   UNL d   1       2.879  -1.031  -0.890  0.00  0.00    -0.167 F 
ATOM     11  F   UNL d   1       3.201  -0.157   1.075  0.00  0.00    -0.167 F 
ENDBRANCH   7   8
BRANCH   7  12
ATOM     12  C   UNL d   1      -0.098  -0.729   0.887  0.00  0.00     0.307 C 
ATOM     13  O   UNL d   1      -0.857  -1.528   0.356  0.00  0.00    -0.261 OA
BRANCH  12  14
ATOM     14  O   UNL d   1      -0.083  -0.481   2.238  0.00  0.00    -0.324 OA
ATOM     15  C   UNL d   1      -1.068  -1.212   2.973  0.00  0.00     0.213 C 
ENDBRANCH  12  14
ENDBRANCH   7  12
BRANCH   7  16
ATOM     16  O   UNL d   1       1.161   1.340   0.912  0.00  0.00    -0.368 OA
ATOM     17  H   UNL d   1       1.489   1.104   1.801  0.00  0.00     0.212 HD
ENDBRANCH   7  16
ENDBRANCH   1   7
BRANCH   4  18
ATOM     18  N   UNL d   1      -0.861   1.401  -5.149  0.00  0.00    -0.323 N 
ATOM     19  C   UNL d   1      -1.177   2.648  -5.665  0.00  0.00     0.256 C 
ATOM     20  O   UNL d   1      -1.017   3.731  -5.118  0.00  0.00    -0.267 OA
ATOM     21  H   UNL d   1      -1.022   0.596  -5.738  0.00  0.00     0.169 HD
BRANCH  19  22
ATOM     22  C   UNL d   1      -1.732   2.650  -7.050  0.00  0.00     0.032 A 
ATOM     23  C   UNL d   1      -2.576   1.642  -7.526  0.00  0.00     0.017 A 
ATOM     24  C   UNL d   1      -3.022   1.679  -8.852  0.00  0.00     0.007 A 
ATOM     25  C   UNL d   1      -2.640   2.724  -9.706  0.00  0.00    -0.062 A 
ATOM     26  C   UNL d   1      -1.835   3.752  -9.207  0.00  0.00     0.007 A 
ATOM     27  C   UNL d   1      -3.055   2.710 -11.148  0.00  0.00     0.048 C 
ATOM     28  C   UNL d   1      -1.391   3.720  -7.885  0.00  0.00     0.017 A 
ENDBRANCH  19  22
ENDBRANCH   4  18
TORSDOF 7
