REMARK  7 active torsions:
REMARK  status: ('A' for Active; 'I' for Inactive)
REMARK    1  A    between atoms: O_4  and  C_1 
REMARK    2  A    between atoms: C_3  and  C_2 
REMARK       I    between atoms: N_5  and  C_3 
REMARK    3  A    between atoms: C_12  and  O_4 
REMARK    4  A    between atoms: C_11  and  N_5 
REMARK    5  A    between atoms: C_8  and  C_11 
REMARK    6  A    between atoms: O_13  and  C_8 
REMARK    7  A    between atoms: C_21  and  O_13 
ROOT
ATOM      1  C   UNL d   1      -0.273   0.499  -0.250  0.00  0.00     0.163 A 
ATOM      2  C   UNL d   1       1.062   0.826  -0.001  0.00  0.00     0.083 A 
ATOM      3  N   UNL d   1      -0.723  -0.787  -0.247  0.00  0.00    -0.346 N 
ATOM      4  HN  UNL d   1      -1.707  -0.997  -0.417  1.00  0.00     0.167 HD
ATOM      5  C   UNL d   1       1.953  -0.231   0.241  0.00  0.00     0.023 A 
ATOM      6  C   UNL d   1       0.161  -1.774  -0.015  0.00  0.00     0.090 A 
ATOM      7  C   UNL d   1       1.502  -1.549   0.219  0.00  0.00     0.018 A 
ENDROOT
BRANCH   2   8
ATOM      8  C   UNL d   1       1.528   2.227   0.152  0.00  0.00     0.256 C 
ATOM      9  N   UNL d   1       2.850   2.547  -0.091  0.00  0.00    -0.347 N 
ATOM     10  H   UNL d   1       3.046   3.491   0.225  0.00  0.00     0.163 HD
ATOM     11  O   UNL d   1       0.787   3.097   0.602  0.00  0.00    -0.268 OA
BRANCH   9  12
ATOM     12  C   UNL d   1       3.590   2.155  -1.291  0.00  0.00     0.233 C 
BRANCH  12  13
ATOM     13  C   UNL d   1       5.024   1.643  -1.116  0.00  0.00     0.276 C 
ATOM     14  O   UNL d   1       5.748   1.386  -2.069  0.00  0.00    -0.263 OA
BRANCH  13  15
ATOM     15  O   UNL d   1       5.365   1.460   0.190  0.00  0.00    -0.321 OA
BRANCH  15  16
ATOM     16  C   UNL d   1       6.646   0.849   0.434  0.00  0.00     0.174 C 
ATOM     17  C   UNL d   1       7.650   1.889   0.892  0.00  0.00     0.034 C 
ENDBRANCH  15  16
ENDBRANCH  13  15
ENDBRANCH  12  13
ENDBRANCH   9  12
ENDBRANCH   2   8
BRANCH   1  18
ATOM     18  O   UNL d   1      -1.192   1.511  -0.524  0.00  0.00    -0.293 OA
BRANCH  18  19
ATOM     19  C   UNL d   1      -2.403   1.119  -1.060  0.00  0.00     0.077 A 
ATOM     20  C   UNL d   1      -3.571   1.456  -0.379  0.00  0.00     0.038 A 
ATOM     21  C   UNL d   1      -4.811   1.041  -0.876  0.00  0.00     0.009 A 
ATOM     22  C   UNL d   1      -4.892   0.301  -2.065  0.00  0.00    -0.062 A 
ATOM     23  C   UNL d   1      -3.714   0.010  -2.766  0.00  0.00     0.009 A 
ATOM     24  C   UNL d   1      -6.216  -0.206  -2.554  0.00  0.00     0.048 C 
ATOM     25  C   UNL d   1      -2.477   0.434  -2.274  0.00  0.00     0.038 A 
ENDBRANCH  18  19
ENDBRANCH   1  18
TORSDOF 7
