REMARK  4 active torsions:
REMARK  status: ('A' for Active; 'I' for Inactive)
REMARK    1  A    between atoms: N_9  and  C_3 
REMARK    2  A    between atoms: C_15  and  N_4 
REMARK    3  A    between atoms: C_26  and  N_5 
REMARK    4  A    between atoms: C_14  and  C_16 
ROOT
ATOM      1  C   UNL d   1      -0.082  -1.328  -0.073  0.00  0.00     0.132 A 
ATOM      2  C   UNL d   1      -0.415  -2.722  -0.024  0.00  0.00     0.169 C 
ATOM      3  C   UNL d   1       1.103  -0.668   0.229  0.00  0.00     0.158 A 
ATOM      4  N   UNL d   1       0.006  -3.662   0.913  0.00  0.00    -0.223 N 
ATOM      5  N   UNL d   1      -0.942  -0.328  -0.476  0.00  0.00    -0.286 N 
ATOM      6  N   UNL d   1      -0.427   0.912  -0.314  0.00  0.00    -0.300 N 
ATOM      7  HN  UNL d   1      -0.891   1.805  -0.480  1.00  0.00     0.187 HD
ATOM      8  C   UNL d   1       0.826   0.711   0.113  0.00  0.00     0.057 A 
ATOM      9  N   UNL d   1      -1.073  -3.358  -0.971  0.00  0.00    -0.268 N 
ATOM     10  HN  UNL d   1      -1.578  -2.941  -1.753  1.00  0.00     0.185 HD
ATOM     11  N   UNL d   1      -0.235  -4.892   0.408  0.00  0.00     0.001 NA
ATOM     12  N   UNL d   1      -0.945  -4.696  -0.693  0.00  0.00    -0.007 NA
ATOM     13  C   UNL d   1       1.703   1.878   0.390  0.00  0.00     0.072 C 
ENDROOT
BRANCH   4  14
ATOM     14  C   UNL d   1       0.589  -3.470   2.188  0.00  0.00     0.056 A 
ATOM     15  C   UNL d   1       0.247  -2.354   2.963  0.00  0.00     0.032 A 
ATOM     16  C   UNL d   1       0.926  -2.099   4.156  0.00  0.00     0.018 A 
ATOM     17  C   UNL d   1       1.953  -2.950   4.589  0.00  0.00     0.048 A 
ATOM     18  C   UNL d   1       2.255  -4.092   3.827  0.00  0.00     0.018 A 
ATOM     19  C   UNL d   1       1.563  -4.367   2.642  0.00  0.00     0.032 A 
BRANCH  17  20
ATOM     20  C   UNL d   1       2.732  -2.648   5.848  0.00  0.00     0.417 C 
ATOM     21  F   UNL d   1       2.329  -1.506   6.475  0.00  0.00    -0.166 F 
ATOM     22  F   UNL d   1       2.624  -3.638   6.776  0.00  0.00    -0.166 F 
ATOM     23  F   UNL d   1       4.065  -2.494   5.616  0.00  0.00    -0.166 F 
ENDBRANCH  17  20
ENDBRANCH   4  14
BRANCH   3  24
ATOM     24  N   UNL d   1       2.346  -1.263   0.615  0.00  0.00    -0.111 N 
ATOM     25  O   UNL d   1       2.709  -2.256  -0.022  0.00  0.00    -0.532 OA
ATOM     26  O   UNL d   1       2.932  -0.757   1.580  0.00  0.00    -0.532 OA
ENDBRANCH   3  24
BRANCH   5  27
ATOM     27  C   UNL d   1      -2.324  -0.432  -0.919  0.00  0.00     0.145 C 
ATOM     28  C   UNL d   1      -2.462  -0.496  -2.430  0.00  0.00     0.028 C 
ENDBRANCH   5  27
TORSDOF 4
