REMARK  2 active torsions:
REMARK  status: ('A' for Active; 'I' for Inactive)
REMARK    1  A    between atoms: S_8  and  C_2 
REMARK    2  A    between atoms: C_7  and  C_5 
ROOT
ATOM      1  N   UNL d   1       0.894   0.675  -0.486  0.00  0.00    -0.335 N 
ATOM      2  C   UNL d   1       0.992  -0.666  -0.261  0.00  0.00     0.141 A 
ATOM      3  N   UNL d   1      -0.064  -1.137   0.351  0.00  0.00    -0.345 N 
ATOM      4  HN  UNL d   1      -0.243  -2.102   0.629  1.00  0.00     0.167 HD
ATOM      5  C   UNL d   1      -0.313   1.108   0.020  0.00  0.00     0.060 A 
ATOM      6  C   UNL d   1      -0.878  -0.047   0.536  0.00  0.00     0.120 A 
ATOM      7  H   UNL d   1       1.598   1.250  -0.922  0.00  0.00     0.168 HD
ENDROOT
BRANCH   5   8
ATOM      8  C   UNL d   1      -0.766   2.495  -0.005  0.00  0.00    -0.008 A 
ATOM      9  C   UNL d   1      -0.396   3.359  -1.047  0.00  0.00     0.015 A 
ATOM     10  C   UNL d   1      -0.816   4.694  -1.051  0.00  0.00     0.024 A 
ATOM     11  C   UNL d   1      -1.611   5.173  -0.013  0.00  0.00     0.034 A 
ATOM     12  C   UNL d   1      -1.998   4.327   1.022  0.00  0.00     0.024 A 
ATOM     13 CL   UNL d   1      -2.116   6.817  -0.013  0.00  0.00    -0.084 Cl
ATOM     14  C   UNL d   1      -1.579   2.993   1.024  0.00  0.00     0.015 A 
ENDBRANCH   5   8
BRANCH   2  15
ATOM     15  S   UNL d   1       2.380  -1.563  -0.746  0.00  0.00    -0.107 SA
ATOM     16  H   UNL d   1       3.129  -0.574  -1.249  0.00  0.00     0.110 HD
ENDBRANCH   2  15
TORSDOF 2
