REMARK  9 active torsions:
REMARK  status: ('A' for Active; 'I' for Inactive)
REMARK    1  A    between atoms: N_2  and  C_1 
REMARK    2  A    between atoms: O_13  and  C_4 
REMARK    3  A    between atoms: O_11  and  N_5 
REMARK    4  A    between atoms: C_7  and  C_9 
REMARK    5  A    between atoms: N_24  and  C_7 
REMARK    6  A    between atoms: C_8  and  O_11 
REMARK    7  A    between atoms: C_14  and  C_8 
REMARK    8  A    between atoms: C_10  and  C_18 
REMARK    9  A    between atoms: C_25  and  O_13 
ROOT
ATOM      1  C   UNL d   1       0.626  -4.983  -0.149  0.00  0.00     0.137 A 
ATOM      2  C   UNL d   1       0.147  -3.664  -0.166  0.00  0.00     0.053 A 
ATOM      3  C   UNL d   1      -0.228  -6.079   0.028  0.00  0.00     0.109 A 
ATOM      4  C   UNL d   1      -1.226  -3.443  -0.025  0.00  0.00     0.006 A 
ATOM      5  C   UNL d   1      -1.607  -5.843   0.073  0.00  0.00     0.041 A 
ATOM      6  C   UNL d   1      -2.101  -4.534   0.067  0.00  0.00     0.018 A 
ENDROOT
BRANCH   4   7
ATOM      7  C   UNL d   1      -1.772  -2.050   0.030  0.00  0.00     0.109 C 
ATOM      8  N   UNL d   1      -1.117  -1.111  -0.581  0.00  0.00    -0.246 N 
ATOM      9  HN  UNL d   1      -0.251  -1.258  -1.101  1.00  0.00     0.196 HD
BRANCH   8  10
ATOM     10  O   UNL d   1      -1.755   0.139  -0.433  0.00  0.00    -0.198 OA
BRANCH  10  11
ATOM     11  C   UNL d   1      -1.180   1.071  -1.261  0.00  0.00     0.288 C 
ATOM     12  O   UNL d   1      -0.257   0.864  -2.045  0.00  0.00    -0.262 OA
BRANCH  11  13
ATOM     13  C   UNL d   1      -1.806   2.461  -1.067  0.00  0.00     0.039 C 
ATOM     14  C   UNL d   1      -3.075   2.447  -0.200  0.00  0.00     0.025 C 
ATOM     15  C   UNL d   1      -0.750   3.354  -0.401  0.00  0.00     0.025 C 
ATOM     16  C   UNL d   1      -2.167   3.027  -2.449  0.00  0.00     0.025 C 
ENDBRANCH  11  13
ENDBRANCH  10  11
ENDBRANCH   8  10
BRANCH   7  17
ATOM     17  N   UNL d   1      -2.934  -1.833   0.738  0.00  0.00    -0.286 NA
ATOM     18  H   UNL d   1      -3.095  -0.849   0.924  0.00  0.00     0.125 HD
ATOM     19  H   UNL d   1      -3.061  -2.405   1.567  0.00  0.00     0.125 HD
ENDBRANCH   7  17
ENDBRANCH   4   7
BRANCH   1  20
ATOM     20  N   UNL d   1       2.052  -5.195  -0.316  0.00  0.00    -0.113 N 
ATOM     21  O   UNL d   1       2.803  -4.567   0.446  0.00  0.00    -0.532 OA
ATOM     22  O   UNL d   1       2.418  -5.952  -1.223  0.00  0.00    -0.532 OA
ENDBRANCH   1  20
BRANCH   3  23
ATOM     23  O   UNL d   1       0.300  -7.348   0.106  0.00  0.00    -0.308 OA
BRANCH  23  24
ATOM     24  C   UNL d   1      -0.276  -8.270   0.955  0.00  0.00     0.076 A 
ATOM     25  C   UNL d   1      -0.248  -9.598   0.531  0.00  0.00     0.038 A 
ATOM     26  C   UNL d   1      -0.795 -10.607   1.333  0.00  0.00     0.012 A 
ATOM     27  C   UNL d   1      -1.373 -10.305   2.578  0.00  0.00    -0.035 A 
ATOM     28  C   UNL d   1      -1.375  -8.963   2.999  0.00  0.00     0.012 A 
ATOM     29  C   UNL d   1      -0.810  -7.958   2.206  0.00  0.00     0.038 A 
BRANCH  27  30
ATOM     30  C   UNL d   1      -1.927 -11.421   3.444  0.00  0.00     0.141 C 
ATOM     31  S   UNL d   1      -3.697 -11.202   3.834  0.00  0.00    -0.148 SA
ATOM     32  C   UNL d   1      -3.592 -11.724   5.566  0.00  0.00     0.085 C 
ATOM     33  C   UNL d   1      -2.301 -11.164   6.127  0.00  0.00     0.085 C 
ATOM     34  S   UNL d   1      -0.971 -11.620   4.988  0.00  0.00    -0.148 SA
ENDBRANCH  27  30
ENDBRANCH  23  24
ENDBRANCH   3  23
TORSDOF 9
