REMARK  1 active torsions:
REMARK  status: ('A' for Active; 'I' for Inactive)
REMARK    1  A    between atoms: C_11  and  C_7 
ROOT
ATOM      1  N   UNL d   1      -0.309  -0.650   0.059  0.00  0.00    -0.204 N 
ATOM      2  C   UNL d   1      -0.282   0.733   0.017  0.00  0.00     0.133 A 
ATOM      3  N   UNL d   1      -1.582  -1.134   0.073  0.00  0.00    -0.293 N 
ATOM      4  HN  UNL d   1      -1.886  -2.107   0.108  1.00  0.00     0.187 HD
ATOM      5  C   UNL d   1      -1.583   1.160  -0.005  0.00  0.00     0.077 A 
ATOM      6  C   UNL d   1       0.838  -1.460   0.076  0.00  0.00     0.270 A 
ATOM      7  C   UNL d   1      -2.338  -0.032   0.029  0.00  0.00     0.034 A 
ATOM      8  C   UNL d   1       2.118  -0.697   0.050  0.00  0.00     0.101 A 
ATOM      9  N   UNL d   1       0.914   1.363   0.002  0.00  0.00    -0.345 N 
ATOM     10  C   UNL d   1       2.104   0.651   0.018  0.00  0.00     0.012 A 
ATOM     11  O   UNL d   1       0.784  -2.684   0.110  0.00  0.00    -0.266 OA
ATOM     12  C   UNL d   1       3.379   1.447   0.000  0.00  0.00     0.068 C 
ATOM     13  H   UNL d   1       0.986   2.378  -0.029  0.00  0.00     0.167 HD
ENDROOT
BRANCH   7  14
ATOM     14  C   UNL d   1      -3.860  -0.039   0.004  0.00  0.00     0.037 A 
ATOM     15  C   UNL d   1      -4.609  -1.131   0.740  0.00  0.00     0.011 A 
ATOM     16  C   UNL d   1      -4.563  -1.150  -0.750  0.00  0.00     0.011 A 
ENDBRANCH   7  14
TORSDOF 1
