REMARK  6 active torsions:
REMARK  status: ('A' for Active; 'I' for Inactive)
REMARK    1  A    between atoms: C_2  and  C_1 
REMARK    2  A    between atoms: C_3  and  C_1 
REMARK    3  A    between atoms: C_6  and  C_1 
REMARK       I    between atoms: N_5  and  C_2 
REMARK    4  A    between atoms: N_4  and  C_3 
REMARK    5  A    between atoms: C_10  and  N_4 
REMARK    6  A    between atoms: N_7  and  C_6 
ROOT
ATOM      1  C   UNL d   1       1.058  -0.059  -0.057  0.00  0.00     0.227 C 
ENDROOT
BRANCH   1   2
ATOM      2  C   UNL d   1       0.516   0.297   1.313  0.00  0.00     0.243 C 
ATOM      3  N   UNL d   1       0.884  -0.466   2.412  0.00  0.00    -0.347 N 
ATOM      4  C   UNL d   1       0.428  -0.082   3.752  0.00  0.00     0.152 C 
ATOM      5  C   UNL d   1       1.504  -1.802   2.388  0.00  0.00     0.152 C 
ATOM      6  C   UNL d   1      -0.505  -1.155   4.320  0.00  0.00     0.187 C 
ATOM      7  O   UNL d   1       0.141  -2.441   4.327  0.00  0.00    -0.388 OA
ATOM      8  C   UNL d   1       0.544  -2.830   3.006  0.00  0.00     0.187 C 
ATOM      9  O   UNL d   1      -0.303   1.218   1.438  0.00  0.00    -0.271 OA
ENDBRANCH   1   2
BRANCH   1  10
ATOM     10  C   UNL d   1       0.666   0.972  -1.173  0.00  0.00     0.103 C 
ATOM     11  S   UNL d   1       1.449   2.469  -1.360  0.00  0.00    -0.063 SA
BRANCH  10  12
ATOM     12  N   UNL d   1      -0.422   0.610  -1.965  0.00  0.00    -0.348 N 
ATOM     13  H   UNL d   1      -1.306   0.576  -1.457  0.00  0.00     0.166 HD
BRANCH  12  14
ATOM     14  C   UNL d   1      -0.561   0.968  -3.344  0.00  0.00     0.054 A 
ATOM     15  C   UNL d   1      -1.769   1.480  -3.847  0.00  0.00     0.060 A 
ATOM     16 CL   UNL d   1      -3.052   1.933  -2.782  0.00  0.00    -0.082 Cl
ATOM     17  C   UNL d   1      -1.940   1.683  -5.222  0.00  0.00     0.026 A 
ATOM     18  C   UNL d   1      -0.918   1.359  -6.110  0.00  0.00     0.002 A 
ATOM     19  C   UNL d   1       0.296   0.874  -5.619  0.00  0.00     0.002 A 
ATOM     20  C   UNL d   1       0.481   0.697  -4.241  0.00  0.00     0.031 A 
ENDBRANCH  12  14
ENDBRANCH  10  12
ENDBRANCH   1  10
BRANCH   1  21
ATOM     21  C   UNL d   1       2.578  -0.059  -0.057  0.00  0.00    -0.056 C 
BRANCH  21  22
ATOM     22  N   UNL d   1       3.838  -0.059  -0.057  0.00  0.00    -0.369 N 
ATOM     23  HN2 UNL d   1       2.818  -0.059  -0.057  1.00  0.00     0.165 HD
ATOM     24  HN1 UNL d   1       4.858  -0.059  -0.057  1.00  0.00     0.165 HD
ENDBRANCH  21  22
ENDBRANCH   1  21
TORSDOF 6
