REMARK  7 active torsions:
REMARK  status: ('A' for Active; 'I' for Inactive)
REMARK    1  A    between atoms: C_5  and  C_1 
REMARK    2  A    between atoms: C_11  and  C_4 
REMARK    3  A    between atoms: S_16  and  C_10 
REMARK    4  A    between atoms: C_12  and  C_24 
REMARK       I    between atoms: N_15  and  C_12 
REMARK    5  A    between atoms: C_25  and  N_15 
REMARK    6  A    between atoms: C_24  and  S_16 
REMARK    7  A    between atoms: C_28  and  C_17 
ROOT
ATOM      1  C   UNL d   1       1.112  -4.016   1.362  0.00  0.00     0.050 A 
ATOM      2  N   UNL d   1       0.149  -4.775   0.811  0.00  0.00    -0.336 N 
ATOM      3  HN  UNL d   1      -0.622  -5.146   1.368  1.00  0.00     0.168 HD
ATOM      4  C   UNL d   1       0.248  -5.022  -0.500  0.00  0.00     0.145 A 
ATOM      5  N   UNL d   1       1.243  -4.609  -1.292  0.00  0.00    -0.347 N 
ATOM      6  HN  UNL d   1       1.274  -4.839  -2.285  1.00  0.00     0.167 HD
ATOM      7  C   UNL d   1       2.179  -3.538   0.632  0.00  0.00     0.047 A 
ATOM      8  C   UNL d   1       2.199  -3.874  -0.701  0.00  0.00     0.092 A 
ENDROOT
BRANCH   4   9
ATOM      9  S   UNL d   1      -0.951  -6.148  -1.146  0.00  0.00    -0.085 SA
BRANCH   9  10
ATOM     10  C   UNL d   1       0.197  -7.373  -1.814  0.00  0.00     0.185 C 
BRANCH  10  11
ATOM     11  C   UNL d   1       1.124  -8.052  -0.818  0.00  0.00     0.231 C 
ATOM     12  N   UNL d   1       0.933  -7.802   0.529  0.00  0.00    -0.327 N 
ATOM     13  H   UNL d   1       0.103  -7.281   0.788  0.00  0.00     0.169 HD
ATOM     14  O   UNL d   1       1.991  -8.806  -1.269  0.00  0.00    -0.272 OA
BRANCH  12  15
ATOM     15  C   UNL d   1       1.801  -8.147   1.589  0.00  0.00     0.034 A 
ATOM     16  C   UNL d   1       3.054  -8.733   1.393  0.00  0.00     0.030 A 
ATOM     17  C   UNL d   1       3.903  -8.998   2.471  0.00  0.00     0.010 A 
ATOM     18  C   UNL d   1       3.526  -8.683   3.781  0.00  0.00    -0.055 A 
ATOM     19  C   UNL d   1       2.264  -8.111   3.985  0.00  0.00     0.010 A 
ATOM     20  C   UNL d   1       1.414  -7.841   2.898  0.00  0.00     0.030 A 
BRANCH  18  21
ATOM     21  C   UNL d   1       4.479  -8.922   4.940  0.00  0.00     0.010 C 
ATOM     22  C   UNL d   1       4.843 -10.404   5.089  0.00  0.00     0.015 C 
ATOM     23  C   UNL d   1       5.747  -8.075   4.781  0.00  0.00     0.015 C 
ENDBRANCH  18  21
ENDBRANCH  12  15
ENDBRANCH  10  11
ENDBRANCH   9  10
ENDBRANCH   4   9
BRANCH   1  24
ATOM     24  C   UNL d   1       0.929  -3.723   2.773  0.00  0.00     0.051 A 
ATOM     25  C   UNL d   1      -0.267  -3.524   3.549  0.00  0.00     0.080 A 
ATOM     26  N   UNL d   1       0.052  -3.337   4.842  0.00  0.00    -0.259 N 
ATOM     27  O   UNL d   1       1.418  -3.445   4.932  0.00  0.00    -0.241 OA
ATOM     28  HN  UNL d   1      -0.596  -3.153   5.607  1.00  0.00     0.195 HD
ATOM     29  C   UNL d   1       1.944  -3.699   3.708  0.00  0.00     0.087 A 
ATOM     30  C   UNL d   1       3.406  -3.919   3.681  0.00  0.00     0.080 C 
BRANCH  25  31
ATOM     31  C   UNL d   1      -1.676  -3.540   3.134  0.00  0.00    -0.006 A 
ATOM     32  C   UNL d   1      -2.079  -3.057   1.880  0.00  0.00     0.015 A 
ATOM     33  C   UNL d   1      -3.402  -3.201   1.448  0.00  0.00     0.024 A 
ATOM     34  C   UNL d   1      -4.345  -3.789   2.286  0.00  0.00     0.034 A 
ATOM     35  C   UNL d   1      -3.982  -4.210   3.563  0.00  0.00     0.024 A 
ATOM     36 CL   UNL d   1      -5.960  -4.007   1.736  0.00  0.00    -0.084 Cl
ATOM     37  C   UNL d   1      -2.654  -4.084   3.984  0.00  0.00     0.015 A 
ENDBRANCH  25  31
ENDBRANCH   1  24
TORSDOF 7
