REMARK  7 active torsions:
REMARK  status: ('A' for Active; 'I' for Inactive)
REMARK    1  A    between atoms: N_7  and  C_1 
REMARK    2  A    between atoms: C_13  and  C_1 
REMARK    3  A    between atoms: O_17  and  C_2 
REMARK    4  A    between atoms: C_3  and  C_4 
REMARK       I    between atoms: C_4  and  N_8 
REMARK    5  A    between atoms: O_19  and  C_5 
REMARK    6  A    between atoms: O_18  and  C_6 
REMARK    7  A    between atoms: N_8  and  N_7 
ROOT
ATOM      1  C   UNL d   1       0.241  -3.640  -0.006  0.00  0.00     0.266 C 
ATOM      2  N   UNL d   1       0.917  -3.340  -1.175  0.00  0.00    -0.281 N 
ATOM      3  O   UNL d   1       0.786  -3.798   1.084  0.00  0.00    -0.266 OA
ATOM      4  H   UNL d   1       0.523  -3.640  -2.060  0.00  0.00     0.184 HD
ENDROOT
BRANCH   2   5
ATOM      5  N   UNL d   1       2.324  -3.286  -1.110  0.00  0.00    -0.186 NA
ATOM      6  H   UNL d   1       2.691  -3.348  -0.149  0.00  0.00     0.154 HD
BRANCH   5   7
ATOM      7  C   UNL d   1       2.931  -2.288  -1.860  0.00  0.00     0.119 C 
ATOM      8  N   UNL d   1       2.423  -1.831  -2.968  0.00  0.00    -0.387 N 
ATOM      9  H   UNL d   1       1.548  -2.326  -3.139  0.00  0.00     0.157 HD
ATOM     10  HN  UNL d   1       2.828  -1.106  -3.560  1.00  0.00     0.157 HD
BRANCH   7  11
ATOM     11  C   UNL d   1       4.241  -1.729  -1.371  0.00  0.00     0.071 A 
ATOM     12  N   UNL d   1       4.683  -2.218  -0.181  0.00  0.00    -0.363 N 
ATOM     13  C   UNL d   1       5.855  -1.714   0.268  0.00  0.00     0.088 A 
ATOM     14  HN  UNL d   1       4.161  -2.922   0.342  1.00  0.00     0.165 HD
ATOM     15  C   UNL d   1       6.600  -0.756  -0.407  0.00  0.00     0.017 A 
ATOM     16  C   UNL d   1       6.122  -0.277  -1.621  0.00  0.00     0.004 A 
ATOM     17  C   UNL d   1       4.919  -0.770  -2.116  0.00  0.00     0.033 A 
ENDBRANCH   7  11
ENDBRANCH   5   7
ENDBRANCH   2   5
BRANCH   1  18
ATOM     18  C   UNL d   1      -1.229  -3.796  -0.149  0.00  0.00     0.038 A 
ATOM     19  C   UNL d   1      -1.899  -4.739   0.629  0.00  0.00     0.057 A 
ATOM     20  C   UNL d   1      -3.294  -4.883   0.534  0.00  0.00     0.105 A 
ATOM     21  C   UNL d   1      -4.038  -4.057  -0.346  0.00  0.00     0.135 A 
ATOM     22  C   UNL d   1      -3.343  -3.126  -1.148  0.00  0.00     0.105 A 
ATOM     23  C   UNL d   1      -1.951  -3.000  -1.037  0.00  0.00     0.057 A 
BRANCH  20  24
ATOM     24  O   UNL d   1      -3.946  -5.882   1.217  0.00  0.00    -0.353 OA
ATOM     25  C   UNL d   1      -3.389  -6.260   2.474  0.00  0.00     0.210 C 
ENDBRANCH  20  24
BRANCH  21  26
ATOM     26  O   UNL d   1      -5.397  -4.093  -0.509  0.00  0.00    -0.351 OA
ATOM     27  C   UNL d   1      -6.225  -4.758   0.433  0.00  0.00     0.210 C 
ENDBRANCH  21  26
BRANCH  22  28
ATOM     28  O   UNL d   1      -3.832  -2.275  -2.109  0.00  0.00    -0.353 OA
ATOM     29  C   UNL d   1      -5.229  -2.049  -2.217  0.00  0.00     0.210 C 
ENDBRANCH  22  28
ENDBRANCH   1  18
TORSDOF 7
