REMARK  3 active torsions:
REMARK  status: ('A' for Active; 'I' for Inactive)
REMARK    1  A    between atoms: S_18  and  C_9 
REMARK    2  A    between atoms: C_20  and  S_18 
REMARK    3  A    between atoms: C_22  and  C_20 
ROOT
ATOM      1  S   UNL d   1       0.417   2.379   0.066  0.00  0.00     0.268 S 
ATOM      2  C   UNL d   1       1.287   0.881   0.015  0.00  0.00     0.123 A 
ATOM      3  N   UNL d   1      -1.231   1.984  -0.044  0.00  0.00    -0.275 N 
ATOM      4  C   UNL d   1      -1.663   0.643  -0.023  0.00  0.00     0.064 A 
ATOM      5  C   UNL d   1       0.663  -0.336  -0.016  0.00  0.00     0.078 A 
ATOM      6  C   UNL d   1      -0.794  -0.432  -0.012  0.00  0.00     0.060 A 
ATOM      7  N   UNL d   1       1.354  -1.499  -0.053  0.00  0.00    -0.334 N 
ATOM      8  HN  UNL d   1       0.877  -2.400  -0.080  1.00  0.00     0.168 HD
ATOM      9  C   UNL d   1       2.694  -1.414  -0.052  0.00  0.00     0.144 A 
ATOM     10  S   UNL d   1      -1.623  -1.927   0.005  0.00  0.00    -0.097 SA
ATOM     11  C   UNL d   1       2.656   0.880   0.005  0.00  0.00     0.118 A 
ATOM     12  O   UNL d   1       0.645   2.948   1.379  0.00  0.00    -0.200 OA
ATOM     13  O   UNL d   1       0.770   3.107  -1.135  0.00  0.00    -0.200 OA
ATOM     14  C   UNL d   1      -3.026   0.216  -0.020  0.00  0.00     0.039 A 
ATOM     15  N   UNL d   1       3.380  -0.258  -0.025  0.00  0.00    -0.345 N 
ATOM     16  HN  UNL d   1       4.400  -0.243  -0.027  1.00  0.00     0.167 HD
ATOM     17  C   UNL d   1      -3.146  -1.156  -0.002  0.00  0.00     0.053 A 
ATOM     18  C   UNL d   1      -2.166   3.120  -0.010  0.00  0.00     0.170 C 
ENDROOT
BRANCH   9  19
ATOM     19  S   UNL d   1       3.646  -2.908  -0.037  0.00  0.00    -0.089 SA
BRANCH  19  20
ATOM     20  C   UNL d   1       2.482  -4.017  -0.880  0.00  0.00     0.121 C 
BRANCH  20  21
ATOM     21  C   UNL d   1       3.045  -5.414  -1.013  0.00  0.00    -0.048 A 
ATOM     22  C   UNL d   1       2.784  -6.380  -0.029  0.00  0.00     0.009 A 
ATOM     23  C   UNL d   1       3.304  -7.671  -0.146  0.00  0.00     0.024 A 
ATOM     24  C   UNL d   1       4.095  -8.002  -1.244  0.00  0.00     0.034 A 
ATOM     25  C   UNL d   1       4.374  -7.051  -2.223  0.00  0.00     0.024 A 
ATOM     26 CL   UNL d   1       4.733  -9.593  -1.390  0.00  0.00    -0.084 Cl
ATOM     27  C   UNL d   1       3.853  -5.760  -2.107  0.00  0.00     0.009 A 
ENDBRANCH  20  21
ENDBRANCH  19  20
ENDBRANCH   9  19
TORSDOF 3
