REMARK  4 active torsions:
REMARK  status: ('A' for Active; 'I' for Inactive)
REMARK    1  A    between atoms: C_2  and  S_1 
REMARK    2  A    between atoms: N_4  and  S_1 
REMARK    3  A    between atoms: C_14  and  N_4 
REMARK    4  A    between atoms: C_11  and  C_14 
ROOT
ATOM      1  C   UNL d   1       0.285  -0.377   1.692  0.00  0.00     0.081 A 
ATOM      2  C   UNL d   1       0.464  -1.730   2.046  0.00  0.00     0.033 A 
ATOM      3  C   UNL d   1      -0.450   0.473   2.533  0.00  0.00    -0.037 A 
ATOM      4  C   UNL d   1      -0.646  -1.362   4.146  0.00  0.00     0.040 A 
ATOM      5  C   UNL d   1      -0.007  -2.237   3.266  0.00  0.00    -0.039 A 
ATOM      6  C   UNL d   1      -0.870  -0.028   3.781  0.00  0.00     0.032 A 
ATOM      7 CL   UNL d   1      -1.216  -1.884   5.689  0.00  0.00    -0.084 Cl
ATOM      8  C   UNL d   1      -0.837   1.887   2.197  0.00  0.00     0.050 C 
ATOM      9  C   UNL d   1       0.158  -3.700   3.568  0.00  0.00     0.050 C 
ENDROOT
BRANCH   1  10
ATOM     10  S   UNL d   1       0.996   0.129   0.134  0.00  0.00     0.242 S 
ATOM     11  O   UNL d   1       0.895   1.565  -0.007  0.00  0.00    -0.206 OA
ATOM     12  O   UNL d   1       0.510  -0.774  -0.885  0.00  0.00    -0.206 OA
BRANCH  10  13
ATOM     13  N   UNL d   1       2.646  -0.137   0.367  0.00  0.00    -0.215 NA
ATOM     14  H   UNL d   1       3.149   0.732   0.185  0.00  0.00     0.139 HD
BRANCH  13  15
ATOM     15  C   UNL d   1       3.240  -1.333  -0.232  0.00  0.00     0.109 C 
BRANCH  15  16
ATOM     16  C   UNL d   1       4.727  -1.258  -0.053  0.00  0.00    -0.001 A 
ATOM     17  C   UNL d   1       5.540  -0.260  -0.840  0.00  0.00     0.006 A 
ATOM     18  C   UNL d   1       5.657  -1.727  -1.143  0.00  0.00     0.006 A 
ENDBRANCH  15  16
ENDBRANCH  13  15
ENDBRANCH  10  13
ENDBRANCH   1  10
TORSDOF 4
