REMARK  2 active torsions:
REMARK  status: ('A' for Active; 'I' for Inactive)
REMARK    1  A    between atoms: C_2  and  C_1 
REMARK    2  A    between atoms: N_3  and  C_6 
ROOT
ATOM      1  N   UNL d   1      -1.275  -0.707   1.799  0.00  0.00    -0.358 N 
ATOM      2  HN  UNL d   1      -2.042  -0.090   2.066  1.00  0.00     0.166 HD
ATOM      3  C   UNL d   1      -1.593  -1.943   1.585  0.00  0.00     0.020 C 
ATOM      4  C   UNL d   1      -0.747  -3.115   1.278  0.00  0.00    -0.007 A 
ATOM      5  C   UNL d   1      -1.202  -3.975   0.258  0.00  0.00    -0.046 A 
ATOM      6  C   UNL d   1      -3.074  -2.249   1.490  0.00  0.00     0.058 C 
ATOM      7  C   UNL d   1      -3.319  -2.526   0.013  0.00  0.00     0.011 C 
ATOM      8  C   UNL d   1       0.395  -3.422   2.018  0.00  0.00     0.014 A 
ATOM      9  C   UNL d   1      -2.500  -3.728  -0.481  0.00  0.00     0.040 C 
ATOM     10  C   UNL d   1      -0.449  -5.116  -0.043  0.00  0.00     0.008 A 
ATOM     11  C   UNL d   1       1.118  -4.578   1.720  0.00  0.00     0.001 A 
ATOM     12  C   UNL d   1       0.703  -5.418   0.682  0.00  0.00     0.001 A 
ENDROOT
BRANCH   1  13
ATOM     13  C   UNL d   1      -0.013  -0.108   1.709  0.00  0.00     0.047 A 
ATOM     14  C   UNL d   1       0.248   1.008   2.525  0.00  0.00     0.074 A 
ATOM     15  C   UNL d   1       1.428   1.754   2.337  0.00  0.00     0.018 A 
ATOM     16  C   UNL d   1       2.349   1.397   1.356  0.00  0.00     0.001 A 
ATOM     17  C   UNL d   1       2.095   0.297   0.546  0.00  0.00     0.002 A 
ATOM     18  C   UNL d   1       0.915  -0.433   0.709  0.00  0.00     0.030 A 
BRANCH  14  19
ATOM     19  C   UNL d   1      -0.765   1.462   3.544  0.00  0.00     0.419 C 
ATOM     20  F   UNL d   1      -1.240   0.470   4.350  0.00  0.00    -0.166 F 
ATOM     21  F   UNL d   1      -1.854   2.070   2.991  0.00  0.00    -0.166 F 
ATOM     22  F   UNL d   1      -0.250   2.392   4.410  0.00  0.00    -0.166 F 
ENDBRANCH  14  19
ENDBRANCH   1  13
TORSDOF 2
