REMARK  3 active torsions:
REMARK  status: ('A' for Active; 'I' for Inactive)
REMARK    1  A    between atoms: C_11  and  C_1 
REMARK    2  A    between atoms: C_9  and  C_2 
REMARK    3  A    between atoms: C_17  and  C_10 
ROOT
ATOM      1  N   UNL d   1      -1.357   3.031  -0.976  0.00  0.00    -0.339 N 
ATOM      2  HN  UNL d   1      -0.748   2.766  -1.750  1.00  0.00     0.167 HD
ATOM      3  C   UNL d   1      -1.966   4.229  -0.940  0.00  0.00     0.116 A 
ATOM      4  C   UNL d   1      -1.586   2.194   0.060  0.00  0.00     0.071 A 
ATOM      5  N   UNL d   1      -2.785   4.629   0.052  0.00  0.00    -0.352 N 
ATOM      6  HN  UNL d   1      -3.232   5.546   0.039  1.00  0.00     0.166 HD
ATOM      7  C   UNL d   1      -2.405   2.518   1.119  0.00  0.00     0.049 A 
ATOM      8  C   UNL d   1      -2.985   3.762   1.061  0.00  0.00     0.092 A 
ENDROOT
BRANCH   4   9
ATOM      9  C   UNL d   1      -0.894   0.923  -0.049  0.00  0.00     0.127 A 
ATOM     10  C   UNL d   1      -0.094   0.358  -1.012  0.00  0.00     0.074 A 
ATOM     11  C   UNL d   1       0.285  -0.906  -0.493  0.00  0.00     0.069 A 
ATOM     12  N   UNL d   1      -0.292  -1.101   0.706  0.00  0.00    -0.260 N 
ATOM     13  O   UNL d   1      -1.016   0.045   0.982  0.00  0.00    -0.235 OA
ATOM     14  HN  UNL d   1      -0.212  -1.930   1.295  1.00  0.00     0.195 HD
BRANCH  11  15
ATOM     15  C   UNL d   1       1.117  -1.935  -1.122  0.00  0.00     0.014 A 
ATOM     16  C   UNL d   1       2.269  -1.650  -1.877  0.00  0.00     0.048 A 
ATOM     17  C   UNL d   1       2.978  -2.678  -2.513  0.00  0.00     0.048 A 
ATOM     18 CL   UNL d   1       2.928  -0.057  -2.044  0.00  0.00    -0.083 Cl
ATOM     19  C   UNL d   1       2.558  -3.998  -2.383  0.00  0.00     0.035 A 
ATOM     20  C   UNL d   1       1.442  -4.307  -1.613  0.00  0.00     0.025 A 
ATOM     21 CL   UNL d   1       3.427  -5.252  -3.175  0.00  0.00    -0.084 Cl
ATOM     22  C   UNL d   1       0.726  -3.282  -0.987  0.00  0.00     0.017 A 
ENDBRANCH  11  15
ENDBRANCH   4   9
BRANCH   3  23
ATOM     23  C   UNL d   1      -1.724   5.163  -2.060  0.00  0.00     0.008 A 
ATOM     24  C   UNL d   1      -0.846   4.841  -3.115  0.00  0.00     0.017 A 
ATOM     25  C   UNL d   1      -0.619   5.726  -4.177  0.00  0.00     0.025 A 
ATOM     26  C   UNL d   1      -1.268   6.955  -4.203  0.00  0.00     0.034 A 
ATOM     27  C   UNL d   1      -2.139   7.307  -3.178  0.00  0.00     0.025 A 
ATOM     28 CL   UNL d   1      -0.994   8.044  -5.506  0.00  0.00    -0.084 Cl
ATOM     29  C   UNL d   1      -2.362   6.418  -2.119  0.00  0.00     0.017 A 
ENDBRANCH   3  23
TORSDOF 3
