REMARK  7 active torsions:
REMARK  status: ('A' for Active; 'I' for Inactive)
REMARK    1  A    between atoms: C_10  and  C_1 
REMARK    2  A    between atoms: N_7  and  N_2 
REMARK       I    between atoms: N_15  and  C_10 
REMARK    3  A    between atoms: N_14  and  C_11 
REMARK    4  A    between atoms: C_20  and  N_15 
REMARK    5  A    between atoms: C_17  and  C_20 
REMARK    6  A    between atoms: C_21  and  C_17 
REMARK    7  A    between atoms: O_19  and  C_21 
ROOT
ATOM      1  C   UNL d   1       2.429  -0.705  -0.019  0.00  0.00     0.199 A 
ATOM      2  N   UNL d   1       2.429   0.688  -0.111  0.00  0.00    -0.197 N 
ATOM      3  N   UNL d   1       1.354  -1.439   0.047  0.00  0.00    -0.336 N 
ATOM      4  HN  UNL d   1       1.415  -2.456   0.104  1.00  0.00     0.168 HD
ATOM      5  C   UNL d   1       1.223   1.402  -0.120  0.00  0.00     0.281 A 
ATOM      6  C   UNL d   1      -0.005   0.598   0.002  0.00  0.00     0.060 A 
ATOM      7  C   UNL d   1       0.115  -0.789   0.038  0.00  0.00     0.049 A 
ATOM      8  O   UNL d   1       1.093   2.618  -0.270  0.00  0.00    -0.265 OA
ATOM      9  C   UNL d   1      -1.263   1.217   0.013  0.00  0.00     0.019 A 
ATOM     10  C   UNL d   1      -1.051  -1.559   0.056  0.00  0.00     0.030 A 
ATOM     11  C   UNL d   1      -2.417   0.438   0.038  0.00  0.00     0.001 A 
ATOM     12  C   UNL d   1      -2.310  -0.952   0.051  0.00  0.00     0.002 A 
ENDROOT
BRANCH   1  13
ATOM     13  C   UNL d   1       3.775  -1.448   0.025  0.00  0.00     0.287 C 
ATOM     14  O   UNL d   1       4.736  -1.020   0.644  0.00  0.00    -0.264 OA
ATOM     15  N   UNL d   1       3.727  -2.684  -0.599  0.00  0.00    -0.354 N 
ATOM     16  H   UNL d   1       2.815  -3.002  -0.910  0.00  0.00     0.162 HD
BRANCH  15  17
ATOM     17  C   UNL d   1       4.858  -3.588  -0.640  0.00  0.00     0.125 C 
BRANCH  17  18
ATOM     18  C   UNL d   1       5.059  -4.385   0.649  0.00  0.00     0.046 C 
BRANCH  18  19
ATOM     19  C   UNL d   1       4.021  -5.482   0.862  0.00  0.00     0.168 C 
BRANCH  19  20
ATOM     20  O   UNL d   1       4.104  -6.430  -0.203  0.00  0.00    -0.396 OA
ATOM     21  C   UNL d   1       3.254  -7.548   0.019  0.00  0.00     0.201 C 
ENDBRANCH  19  20
ENDBRANCH  18  19
ENDBRANCH  17  18
ENDBRANCH  15  17
ENDBRANCH   1  13
BRANCH   2  22
ATOM     22  N   UNL d   1       3.606   1.319  -0.501  0.00  0.00    -0.285 N 
ATOM     23  C   UNL d   1       3.802   2.523  -0.058  0.00  0.00     0.195 C 
ATOM     24  HN  UNL d   1       4.283   0.857  -1.108  1.00  0.00     0.188 HD
BRANCH  23  25
ATOM     25  N   UNL d   1       4.809   3.393  -0.421  0.00  0.00    -0.385 N 
ATOM     26  C   UNL d   1       5.668   3.084  -1.556  0.00  0.00     0.149 C 
ATOM     27  C   UNL d   1       4.688   4.811  -0.109  0.00  0.00     0.149 C 
ENDBRANCH  23  25
ENDBRANCH   2  22
TORSDOF 7
