REMARK  7 active torsions:
REMARK  status: ('A' for Active; 'I' for Inactive)
REMARK    1  A    between atoms: N_2  and  S_1 
REMARK    2  A    between atoms: C_4  and  S_1 
REMARK    3  A    between atoms: C_3  and  N_7 
REMARK    4  A    between atoms: N_9  and  C_3 
REMARK    5  A    between atoms: N_7  and  C_15 
REMARK    6  A    between atoms: C_16  and  N_9 
REMARK    7  A    between atoms: C_14  and  C_16 
ROOT
ATOM      1  C   UNL d   1       0.607  -0.081   1.733  0.00  0.00     0.079 A 
ATOM      2  C   UNL d   1       0.809  -1.333   2.319  0.00  0.00     0.027 A 
ATOM      3  C   UNL d   1       0.075   0.971   2.483  0.00  0.00     0.027 A 
ATOM      4  C   UNL d   1      -0.220  -0.543   4.364  0.00  0.00     0.034 A 
ATOM      5  C   UNL d   1       0.375  -1.567   3.623  0.00  0.00     0.031 A 
ATOM      6  C   UNL d   1      -0.322   0.739   3.808  0.00  0.00     0.031 A 
ENDROOT
BRANCH   4   7
ATOM      7  N   UNL d   1      -0.643  -0.755   5.691  0.00  0.00    -0.333 N 
ATOM      8  H   UNL d   1      -0.812   0.075   6.248  0.00  0.00     0.168 HD
BRANCH   7   9
ATOM      9  C   UNL d   1      -1.187  -1.901   6.219  0.00  0.00     0.172 C 
ATOM     10  S   UNL d   1      -2.099  -3.053   5.420  0.00  0.00    -0.041 SA
BRANCH   9  11
ATOM     11  N   UNL d   1      -0.992  -2.074   7.562  0.00  0.00    -0.363 N 
ATOM     12  H   UNL d   1      -1.394  -2.937   7.910  0.00  0.00     0.162 HD
BRANCH  11  13
ATOM     13  C   UNL d   1       0.148  -1.560   8.304  0.00  0.00     0.162 C 
BRANCH  13  14
ATOM     14  C   UNL d   1      -0.043  -0.162   8.812  0.00  0.00    -0.025 A 
ATOM     15  C   UNL d   1       1.044   0.705   8.890  0.00  0.00     0.096 A 
ATOM     16  N   UNL d   1       0.975   1.969   9.363  0.00  0.00    -0.375 N 
ATOM     17  C   UNL d   1      -0.231   2.391   9.799  0.00  0.00     0.087 A 
ATOM     18  HN  UNL d   1       1.795   2.575   9.390  1.00  0.00     0.164 HD
ATOM     19  C   UNL d   1      -1.370   1.607   9.780  0.00  0.00     0.018 A 
ATOM     20  C   UNL d   1      -1.272   0.309   9.284  0.00  0.00     0.011 A 
ENDBRANCH  13  14
ENDBRANCH  11  13
ENDBRANCH   9  11
ENDBRANCH   7   9
ENDBRANCH   4   7
BRANCH   1  21
ATOM     21  S   UNL d   1       1.096   0.152   0.030  0.00  0.00     0.260 S 
ATOM     22  O   UNL d   1       1.222   1.577  -0.198  0.00  0.00    -0.200 OA
ATOM     23  O   UNL d   1       2.206  -0.743  -0.212  0.00  0.00    -0.200 OA
BRANCH  21  24
ATOM     24  N   UNL d   1      -0.258  -0.425  -0.859  0.00  0.00    -0.307 N 
ATOM     25  C   UNL d   1      -1.414   0.503  -0.928  0.00  0.00     0.135 C 
ATOM     26  C   UNL d   1      -2.478  -0.015  -1.894  0.00  0.00     0.021 C 
ATOM     27  C   UNL d   1      -2.898  -1.437  -1.548  0.00  0.00     0.003 C 
ATOM     28  C   UNL d   1      -1.676  -2.343  -1.573  0.00  0.00     0.021 C 
ATOM     29  C   UNL d   1      -0.621  -1.844  -0.595  0.00  0.00     0.135 C 
ENDBRANCH  21  24
ENDBRANCH   1  21
TORSDOF 7
