REMARK  3 active torsions:
REMARK  status: ('A' for Active; 'I' for Inactive)
REMARK    1  A    between atoms: C_9  and  C_3 
REMARK    2  A    between atoms: O_8  and  C_4 
REMARK    3  A    between atoms: C_10  and  O_8 
ROOT
ATOM      1  N   UNL d   1       1.444  -0.508  -0.078  0.00  0.00    -0.315 N 
ATOM      2  HN  UNL d   1       2.390  -0.861  -0.224  1.00  0.00     0.170 HD
ATOM      3  C   UNL d   1       1.095   0.836   0.086  0.00  0.00     0.124 A 
ATOM      4  C   UNL d   1       0.356  -1.241  -0.013  0.00  0.00     0.210 A 
ATOM      5  N   UNL d   1      -0.196   1.134   0.289  0.00  0.00    -0.308 N 
ATOM      6  HN  UNL d   1      -0.591   2.067   0.413  1.00  0.00     0.176 HD
ATOM      7  S   UNL d   1      -1.038  -0.307   0.303  0.00  0.00     0.032 SA
ENDROOT
BRANCH   4   8
ATOM      8  O   UNL d   1       0.318  -2.565  -0.171  0.00  0.00    -0.287 OA
BRANCH   8   9
ATOM      9  C   UNL d   1       1.261  -3.206  -0.941  0.00  0.00     0.078 A 
ATOM     10  C   UNL d   1       1.630  -4.495  -0.552  0.00  0.00     0.039 A 
ATOM     11  C   UNL d   1       2.554  -5.216  -1.315  0.00  0.00     0.026 A 
ATOM     12  C   UNL d   1       3.095  -4.649  -2.469  0.00  0.00     0.034 A 
ATOM     13  C   UNL d   1       2.715  -3.371  -2.872  0.00  0.00     0.026 A 
ATOM     14 CL   UNL d   1       4.234  -5.533  -3.406  0.00  0.00    -0.084 Cl
ATOM     15  C   UNL d   1       1.789  -2.653  -2.114  0.00  0.00     0.039 A 
ENDBRANCH   8   9
ENDBRANCH   4   8
BRANCH   3  16
ATOM     16  C   UNL d   1       2.137   1.867   0.012  0.00  0.00     0.009 A 
ATOM     17  C   UNL d   1       3.481   1.503  -0.179  0.00  0.00     0.015 A 
ATOM     18  C   UNL d   1       4.481   2.475  -0.258  0.00  0.00     0.001 A 
ATOM     19  C   UNL d   1       4.151   3.824  -0.147  0.00  0.00     0.000 A 
ATOM     20  C   UNL d   1       2.823   4.201   0.042  0.00  0.00     0.001 A 
ATOM     21  C   UNL d   1       1.823   3.230   0.122  0.00  0.00     0.015 A 
ENDBRANCH   3  16
TORSDOF 3
