REMARK  4 active torsions:
REMARK  status: ('A' for Active; 'I' for Inactive)
REMARK    1  A    between atoms: C_6  and  C_1 
REMARK    2  A    between atoms: C_10  and  C_4 
REMARK    3  A    between atoms: O_8  and  C_6 
REMARK    4  A    between atoms: C_12  and  O_8 
ROOT
ATOM      1  C   UNL d   1       1.145   0.259  -0.001  0.00  0.00     0.115 A 
ATOM      2  N   UNL d   1       0.748  -1.062   0.044  0.00  0.00    -0.354 N 
ATOM      3  C   UNL d   1      -0.015   1.026   0.028  0.00  0.00    -0.021 A 
ATOM      4  C   UNL d   1      -1.132   0.120   0.056  0.00  0.00    -0.028 A 
ATOM      5  C   UNL d   1      -0.615  -1.163   0.050  0.00  0.00     0.012 A 
ATOM      6  C   UNL d   1      -0.117   2.514  -0.001  0.00  0.00     0.051 C 
ATOM      7  C   UNL d   1      -1.293  -2.487   0.040  0.00  0.00     0.068 C 
ATOM      8  H   UNL d   1       1.398  -1.836   0.029  0.00  0.00     0.166 HD
ENDROOT
BRANCH   1   9
ATOM      9  C   UNL d   1       2.530   0.659  -0.111  0.00  0.00     0.310 C 
ATOM     10  O   UNL d   1       2.951   1.804  -0.202  0.00  0.00    -0.258 OA
BRANCH   9  11
ATOM     11  O   UNL d   1       3.309  -0.462  -0.190  0.00  0.00    -0.317 OA
BRANCH  11  12
ATOM     12  C   UNL d   1       4.642  -0.244  -0.671  0.00  0.00     0.175 C 
ATOM     13  C   UNL d   1       4.619  -0.328  -2.187  0.00  0.00     0.034 C 
ENDBRANCH  11  12
ENDBRANCH   9  11
ENDBRANCH   1   9
BRANCH   4  14
ATOM     14  C   UNL d   1      -2.582   0.499   0.067  0.00  0.00     0.036 C 
ATOM     15  C   UNL d   1      -3.146   0.686  -1.334  0.00  0.00     0.010 C 
ENDBRANCH   4  14
TORSDOF 4
