REMARK  7 active torsions:
REMARK  status: ('A' for Active; 'I' for Inactive)
REMARK    1  A    between atoms: N_4  and  S_1 
REMARK    2  A    between atoms: C_10  and  S_1 
REMARK    3  A    between atoms: C_7  and  C_2 
REMARK    4  A    between atoms: C_3  and  N_4 
REMARK    5  A    between atoms: O_21  and  C_7 
REMARK    6  A    between atoms: C_9  and  O_13 
REMARK    7  A    between atoms: O_13  and  C_20 
ROOT
ATOM      1  S   UNL d   1       1.021  -0.019   0.012  0.00  0.00     0.245 S 
ATOM      2  O   UNL d   1      -0.221  -0.211  -0.712  0.00  0.00    -0.206 OA
ATOM      3  O   UNL d   1       2.191  -0.821  -0.263  0.00  0.00    -0.206 OA
ENDROOT
BRANCH   1   4
ATOM      4  N   UNL d   1       0.612  -0.109   1.672  0.00  0.00    -0.179 NA
ATOM      5  H   UNL d   1      -0.381   0.121   1.709  0.00  0.00     0.146 HD
BRANCH   4   6
ATOM      6  C   UNL d   1       0.916  -1.313   2.356  0.00  0.00     0.052 A 
ATOM      7  C   UNL d   1       2.116  -1.591   3.000  0.00  0.00     0.102 A 
ATOM      8  S   UNL d   1       2.061  -3.128   3.766  0.00  0.00    -0.093 SA
ATOM      9  C   UNL d   1       0.468  -3.414   3.250  0.00  0.00     0.059 A 
ATOM     10  C   UNL d   1      -0.047  -2.379   2.494  0.00  0.00    -0.032 A 
ATOM     11  C   UNL d   1      -1.422  -2.428   1.907  0.00  0.00     0.050 C 
BRANCH   7  12
ATOM     12  C   UNL d   1       3.297  -0.749   3.103  0.00  0.00     0.301 C 
ATOM     13  O   UNL d   1       3.404   0.391   2.652  0.00  0.00    -0.259 OA
BRANCH  12  14
ATOM     14  O   UNL d   1       4.302  -1.369   3.793  0.00  0.00    -0.322 OA
ATOM     15  C   UNL d   1       5.494  -0.596   3.931  0.00  0.00     0.213 C 
ENDBRANCH  12  14
ENDBRANCH   7  12
ENDBRANCH   4   6
ENDBRANCH   1   4
BRANCH   1  16
ATOM     16  C   UNL d   1       1.461   1.695  -0.130  0.00  0.00     0.075 A 
ATOM     17  C   UNL d   1       2.797   2.082  -0.012  0.00  0.00     0.027 A 
ATOM     18  C   UNL d   1       3.138   3.437  -0.084  0.00  0.00     0.038 A 
ATOM     19  C   UNL d   1       2.156   4.397  -0.326  0.00  0.00     0.078 A 
ATOM     20  C   UNL d   1       0.820   3.994  -0.450  0.00  0.00     0.038 A 
ATOM     21  C   UNL d   1       0.467   2.646  -0.365  0.00  0.00     0.027 A 
BRANCH  19  22
ATOM     22  O   UNL d   1       2.341   5.742  -0.417  0.00  0.00    -0.255 OA
BRANCH  22  23
ATOM     23  C   UNL d   1       3.594   6.266  -0.830  0.00  0.00     0.530 C 
ATOM     24  F   UNL d   1       4.433   5.352  -1.358  0.00  0.00    -0.144 F 
ATOM     25  F   UNL d   1       3.367   7.207  -1.775  0.00  0.00    -0.144 F 
ATOM     26  F   UNL d   1       4.199   6.864   0.219  0.00  0.00    -0.144 F 
ENDBRANCH  22  23
ENDBRANCH  19  22
ENDBRANCH   1  16
TORSDOF 7
