REMARK  4 active torsions:
REMARK  status: ('A' for Active; 'I' for Inactive)
REMARK    1  A    between atoms: S_2  and  C_1 
REMARK    2  A    between atoms: N_8  and  S_2 
REMARK    3  A    between atoms: S_4  and  C_3 
REMARK    4  A    between atoms: N_9  and  S_4 
ROOT
ATOM      1  C   UNL d   1      -0.305   1.461   0.051  0.00  0.00     0.105 A 
ATOM      2  C   UNL d   1      -2.181   0.049   0.037  0.00  0.00     0.118 A 
ATOM      3  C   UNL d   1      -1.736   1.359   0.061  0.00  0.00     0.059 A 
ATOM      4  C   UNL d   1       0.272   0.218  -0.001  0.00  0.00     0.098 A 
ATOM      5  S   UNL d   1      -0.867  -1.044  -0.015  0.00  0.00    -0.063 SA
ATOM      6 CL   UNL d   1       1.933  -0.232  -0.018  0.00  0.00    -0.075 Cl
ENDROOT
BRANCH   1   7
ATOM      7  S   UNL d   1       0.514   2.983   0.141  0.00  0.00     0.245 S 
ATOM      8  O   UNL d   1       1.794   2.796  -0.501  0.00  0.00    -0.206 OA
ATOM      9  O   UNL d   1      -0.455   3.920  -0.387  0.00  0.00    -0.206 OA
BRANCH   7  10
ATOM     10  N   UNL d   1       0.770   3.358   1.787  0.00  0.00    -0.215 NA
ATOM     11  C   UNL d   1       1.754   2.502   2.483  0.00  0.00     0.129 C 
ATOM     12  C   UNL d   1       1.036   4.795   2.026  0.00  0.00     0.129 C 
ENDBRANCH   7  10
ENDBRANCH   1   7
BRANCH   2  13
ATOM     13  S   UNL d   1      -3.827  -0.640   0.086  0.00  0.00     0.249 S 
ATOM     14  O   UNL d   1      -3.723  -1.942   0.707  0.00  0.00    -0.205 OA
ATOM     15  O   UNL d   1      -4.616   0.414   0.689  0.00  0.00    -0.205 OA
BRANCH  13  16
ATOM     16  N   UNL d   1      -4.375  -0.850  -1.520  0.00  0.00    -0.214 NA
ATOM     17  C   UNL d   1      -3.686  -1.913  -2.284  0.00  0.00     0.129 C 
ATOM     18  C   UNL d   1      -5.847  -0.997  -1.609  0.00  0.00     0.129 C 
ENDBRANCH  13  16
ENDBRANCH   2  13
TORSDOF 4
