REMARK  6 active torsions:
REMARK  status: ('A' for Active; 'I' for Inactive)
REMARK    1  A    between atoms: N_6  and  C_1 
REMARK    2  A    between atoms: C_8  and  C_2 
REMARK    3  A    between atoms: C_11  and  C_3 
REMARK       I    between atoms: C_7  and  N_6 
REMARK    4  A    between atoms: C_9  and  C_7 
REMARK    5  A    between atoms: O_17  and  C_8 
REMARK    6  A    between atoms: C_21  and  O_17 
ROOT
ATOM      1  C   UNL d   1      -1.628  -0.162  -0.383  0.00  0.00     0.094 C 
ATOM      2  C   UNL d   1      -1.218  -1.484  -0.443  0.00  0.00     0.085 C 
ATOM      3  C   UNL d   1       0.223  -1.568  -0.178  0.00  0.00     0.006 C 
ATOM      4  S   UNL d   1      -0.344   0.938  -0.325  0.00  0.00    -0.075 SA
ATOM      5  C   UNL d   1       0.800  -0.304  -0.059  0.00  0.00    -0.007 C 
ATOM      6  C   UNL d   1       2.212   0.099   0.233  0.00  0.00     0.057 C 
ENDROOT
BRANCH   1   7
ATOM      7  N   UNL d   1      -2.846   0.475  -0.471  0.00  0.00    -0.315 N 
ATOM      8  C   UNL d   1      -3.865   0.222   0.438  0.00  0.00     0.280 C 
ATOM      9  O   UNL d   1      -3.805  -0.585   1.361  0.00  0.00    -0.265 OA
ATOM     10  H   UNL d   1      -2.829   1.438  -0.789  0.00  0.00     0.170 HD
BRANCH   8  11
ATOM     11  C   UNL d   1      -5.009   1.095   0.234  0.00  0.00     0.142 A 
ATOM     12  O   UNL d   1      -4.996   1.986  -0.810  0.00  0.00    -0.317 OA
ATOM     13  C   UNL d   1      -6.178   2.651  -0.788  0.00  0.00     0.143 A 
ATOM     14  C   UNL d   1      -6.952   2.222   0.264  0.00  0.00     0.027 A 
ATOM     15  C   UNL d   1      -6.198   1.223   0.927  0.00  0.00     0.045 A 
ENDBRANCH   8  11
ENDBRANCH   1   7
BRANCH   2  16
ATOM     16  C   UNL d   1      -2.063  -2.621  -0.821  0.00  0.00     0.297 C 
ATOM     17  O   UNL d   1      -1.627  -3.611  -1.402  0.00  0.00    -0.259 OA
BRANCH  16  18
ATOM     18  O   UNL d   1      -3.374  -2.475  -0.494  0.00  0.00    -0.318 OA
BRANCH  18  19
ATOM     19  C   UNL d   1      -4.253  -3.566  -0.799  0.00  0.00     0.174 C 
ATOM     20  C   UNL d   1      -4.052  -4.733   0.153  0.00  0.00     0.034 C 
ENDBRANCH  18  19
ENDBRANCH  16  18
ENDBRANCH   2  16
BRANCH   3  21
ATOM     21  C   UNL d   1       1.012  -2.799   0.008  0.00  0.00    -0.024 A 
ATOM     22  C   UNL d   1       2.268  -2.970  -0.592  0.00  0.00     0.012 A 
ATOM     23  C   UNL d   1       3.033  -4.113  -0.342  0.00  0.00     0.001 A 
ATOM     24  C   UNL d   1       2.533  -5.123   0.475  0.00  0.00     0.000 A 
ATOM     25  C   UNL d   1       1.269  -4.990   1.043  0.00  0.00     0.001 A 
ATOM     26  C   UNL d   1       0.520  -3.829   0.824  0.00  0.00     0.012 A 
ENDBRANCH   3  21
TORSDOF 6
