REMARK  4 active torsions:
REMARK  status: ('A' for Active; 'I' for Inactive)
REMARK    1  A    between atoms: C_11  and  C_1 
REMARK    2  A    between atoms: C_2  and  C_8 
REMARK    3  A    between atoms: C_18  and  C_5 
REMARK       I    between atoms: C_8  and  N_14 
REMARK       I    between atoms: N_15  and  C_11 
REMARK    4  A    between atoms: N_14  and  N_15 
ROOT
ATOM      1  C   UNL d   1       0.238  -2.735   0.118  0.00  0.00     0.275 C 
ATOM      2  N   UNL d   1       1.536  -3.087   0.448  0.00  0.00    -0.263 N 
ATOM      3  O   UNL d   1      -0.602  -3.606  -0.112  0.00  0.00    -0.266 OA
ATOM      4  H   UNL d   1       2.287  -2.433   0.629  0.00  0.00     0.190 HD
ENDROOT
BRANCH   1   5
ATOM      5  C   UNL d   1      -0.074  -1.311   0.083  0.00  0.00     0.094 A 
ATOM      6  C   UNL d   1      -1.371  -0.669   0.122  0.00  0.00     0.083 A 
ATOM      7  N   UNL d   1      -1.228   0.662   0.002  0.00  0.00    -0.259 N 
ATOM      8  O   UNL d   1       0.109   0.917  -0.063  0.00  0.00    -0.241 OA
ATOM      9  HN  UNL d   1      -1.979   1.352  -0.033  1.00  0.00     0.195 HD
ATOM     10  C   UNL d   1       0.807  -0.242  -0.002  0.00  0.00     0.090 A 
ATOM     11  C   UNL d   1       2.271  -0.056  -0.053  0.00  0.00     0.080 C 
BRANCH   6  12
ATOM     12  C   UNL d   1      -2.727  -1.200   0.324  0.00  0.00    -0.006 A 
ATOM     13  C   UNL d   1      -3.833  -0.536  -0.241  0.00  0.00     0.014 A 
ATOM     14  C   UNL d   1      -5.141  -0.945   0.036  0.00  0.00     0.001 A 
ATOM     15  C   UNL d   1      -5.366  -2.030   0.877  0.00  0.00     0.000 A 
ATOM     16  C   UNL d   1      -4.284  -2.706   1.436  0.00  0.00     0.001 A 
ATOM     17  C   UNL d   1      -2.975  -2.289   1.169  0.00  0.00     0.014 A 
ENDBRANCH   6  12
ENDBRANCH   1   5
BRANCH   2  18
ATOM     18  N   UNL d   1       1.868  -4.446   0.598  0.00  0.00    -0.262 N 
ATOM     19  C   UNL d   1       3.195  -4.835   0.597  0.00  0.00     0.288 C 
ATOM     20  O   UNL d   1       4.121  -4.022   0.525  0.00  0.00    -0.264 OA
ATOM     21  H   UNL d   1       1.115  -5.135   0.582  0.00  0.00     0.190 HD
BRANCH  19  22
ATOM     22  C   UNL d   1       3.406  -6.283   0.670  0.00  0.00     0.126 A 
ATOM     23  N   UNL d   1       2.379  -7.132   0.854  0.00  0.00    -0.256 N 
ATOM     24  O   UNL d   1       2.922  -8.402   0.816  0.00  0.00    -0.242 OA
ATOM     25  HN  UNL d   1       1.399  -6.888   0.993  1.00  0.00     0.195 HD
ATOM     26  C   UNL d   1       4.263  -8.320   0.607  0.00  0.00     0.075 A 
ATOM     27  C   UNL d   1       4.628  -6.998   0.548  0.00  0.00     0.071 A 
ATOM     28  C   UNL d   1       4.975  -9.604   0.462  0.00  0.00     0.079 C 
ENDBRANCH  19  22
ENDBRANCH   2  18
TORSDOF 4
