REMARK  6 active torsions:
REMARK  status: ('A' for Active; 'I' for Inactive)
REMARK    1  A    between atoms: C_6  and  C_1 
REMARK    2  A    between atoms: N_15  and  C_4 
REMARK       I    between atoms: N_10  and  C_6 
REMARK    3  A    between atoms: C_12  and  C_9 
REMARK    4  A    between atoms: C_16  and  N_10 
REMARK    5  A    between atoms: O_17  and  C_12 
REMARK    6  A    between atoms: O_18  and  C_12 
ROOT
ATOM      1  C   UNL d   1      -2.130  -0.059  -0.244  0.00  0.00     0.102 A 
ATOM      2  C   UNL d   1       0.292  -0.514  -0.243  0.00  0.00     0.087 A 
ATOM      3  S   UNL d   1      -1.126  -1.439  -0.401  0.00  0.00    -0.064 SA
ATOM      4  C   UNL d   1      -1.367   1.090  -0.095  0.00  0.00     0.061 A 
ATOM      5  C   UNL d   1       0.043   0.843  -0.089  0.00  0.00     0.026 A 
ATOM      6  N   UNL d   1       1.495  -1.117  -0.260  0.00  0.00    -0.349 N 
ATOM      7  HN  UNL d   1       1.601  -2.124  -0.380  1.00  0.00     0.166 HD
ATOM      8  C   UNL d   1       2.557  -0.287  -0.106  0.00  0.00     0.065 A 
ATOM      9  C   UNL d   1       1.169   1.678   0.057  0.00  0.00     0.018 A 
ATOM     10  C   UNL d   1       2.437   1.094   0.057  0.00  0.00     0.031 A 
ENDROOT
BRANCH   1  11
ATOM     11  C   UNL d   1      -3.589  -0.153  -0.263  0.00  0.00     0.265 C 
ATOM     12  N   UNL d   1      -4.106  -1.434  -0.389  0.00  0.00    -0.322 N 
ATOM     13  H   UNL d   1      -3.427  -2.184  -0.407  0.00  0.00     0.169 HD
ATOM     14  O   UNL d   1      -4.286   0.856  -0.145  0.00  0.00    -0.267 OA
BRANCH  12  15
ATOM     15  C   UNL d   1      -5.466  -1.811  -0.401  0.00  0.00     0.035 A 
ATOM     16  C   UNL d   1      -6.525  -0.901  -0.463  0.00  0.00     0.029 A 
ATOM     17  C   UNL d   1      -7.850  -1.342  -0.426  0.00  0.00     0.002 A 
ATOM     18  C   UNL d   1      -8.132  -2.701  -0.330  0.00  0.00     0.000 A 
ATOM     19  C   UNL d   1      -7.087  -3.621  -0.291  0.00  0.00     0.002 A 
ATOM     20  C   UNL d   1      -5.761  -3.179  -0.335  0.00  0.00     0.029 A 
ENDBRANCH  12  15
ENDBRANCH   1  11
BRANCH   4  21
ATOM     21  N   UNL d   1      -1.907   2.321   0.049  0.00  0.00    -0.397 N 
ATOM     22  H   UNL d   1      -2.923   2.446   0.062  0.00  0.00     0.156 HD
ATOM     23  H   UNL d   1      -1.373   3.176   0.147  0.00  0.00     0.156 HD
ENDBRANCH   4  21
BRANCH   8  24
ATOM     24  C   UNL d   1       3.952  -0.923  -0.003  0.00  0.00     0.309 C 
BRANCH  24  25
ATOM     25  O   UNL d   1       4.371  -1.043   1.364  0.00  0.00    -0.360 OA
ATOM     26  C   UNL d   1       3.606  -1.988   2.105  0.00  0.00     0.205 C 
ENDBRANCH  24  25
BRANCH  24  27
ATOM     27  O   UNL d   1       4.017  -2.160  -0.720  0.00  0.00    -0.360 OA
ATOM     28  C   UNL d   1       5.340  -2.655  -0.832  0.00  0.00     0.205 C 
ENDBRANCH  24  27
ENDBRANCH   8  24
TORSDOF 6
