REMARK  6 active torsions:
REMARK  status: ('A' for Active; 'I' for Inactive)
REMARK    1  A    between atoms: N_7  and  C_1 
REMARK    2  A    between atoms: C_10  and  C_4 
REMARK    3  A    between atoms: C_6  and  C_5 
REMARK    4  A    between atoms: C_12  and  N_7 
REMARK    5  A    between atoms: O_18  and  C_10 
REMARK    6  A    between atoms: C_22  and  O_18 
ROOT
ATOM      1  C   UNL d   1       1.125  -0.917   0.067  0.00  0.00     0.125 A 
ATOM      2  N   UNL d   1       1.286   0.426   0.039  0.00  0.00    -0.324 N 
ATOM      3  HN  UNL d   1       2.220   0.835   0.076  1.00  0.00     0.169 HD
ATOM      4  C   UNL d   1      -0.141  -1.476   0.016  0.00  0.00     0.099 A 
ATOM      5  C   UNL d   1       0.191   1.225  -0.040  0.00  0.00     0.192 A 
ATOM      6  N   UNL d   1      -1.071   0.738  -0.096  0.00  0.00    -0.347 N 
ATOM      7  HN  UNL d   1      -1.880   1.355  -0.170  1.00  0.00     0.166 HD
ATOM      8  C   UNL d   1      -1.206  -0.602  -0.050  0.00  0.00     0.111 A 
ENDROOT
BRANCH   1   9
ATOM      9  N   UNL d   1       2.261  -1.737   0.222  0.00  0.00    -0.340 N 
ATOM     10  H   UNL d   1       2.280  -2.494  -0.462  0.00  0.00     0.167 HD
BRANCH   9  11
ATOM     11  C   UNL d   1       3.548  -1.437   0.726  0.00  0.00     0.055 A 
ATOM     12  C   UNL d   1       4.635  -2.294   0.454  0.00  0.00     0.060 A 
ATOM     13 CL   UNL d   1       4.441  -3.644  -0.615  0.00  0.00    -0.082 Cl
ATOM     14  C   UNL d   1       5.892  -2.088   1.034  0.00  0.00     0.026 A 
ATOM     15  C   UNL d   1       6.086  -1.023   1.909  0.00  0.00     0.002 A 
ATOM     16  C   UNL d   1       5.029  -0.163   2.193  0.00  0.00     0.002 A 
ATOM     17  C   UNL d   1       3.773  -0.372   1.611  0.00  0.00     0.031 A 
ENDBRANCH   9  11
ENDBRANCH   1   9
BRANCH   4  18
ATOM     18  C   UNL d   1      -0.436  -2.900   0.183  0.00  0.00     0.298 C 
ATOM     19  O   UNL d   1      -1.321  -3.299   0.925  0.00  0.00    -0.259 OA
BRANCH  18  20
ATOM     20  O   UNL d   1       0.344  -3.661  -0.624  0.00  0.00    -0.318 OA
BRANCH  20  21
ATOM     21  C   UNL d   1       0.200  -5.082  -0.441  0.00  0.00     0.174 C 
ATOM     22  C   UNL d   1      -1.044  -5.634  -1.121  0.00  0.00     0.034 C 
ENDBRANCH  20  21
ENDBRANCH  18  20
ENDBRANCH   4  18
BRANCH   5  23
ATOM     23  C   UNL d   1       0.380   2.750  -0.013  0.00  0.00     0.449 C 
ATOM     24  F   UNL d   1       1.689   3.146   0.016  0.00  0.00    -0.163 F 
ATOM     25  F   UNL d   1      -0.163   3.377  -1.101  0.00  0.00    -0.163 F 
ATOM     26  F   UNL d   1      -0.197   3.338   1.077  0.00  0.00    -0.163 F 
ENDBRANCH   5  23
TORSDOF 6
