REMARK  7 active torsions:
REMARK  status: ('A' for Active; 'I' for Inactive)
REMARK    1  A    between atoms: C_3  and  C_1 
REMARK    2  A    between atoms: C_2  and  C_5 
REMARK    3  A    between atoms: O_11  and  C_3 
REMARK    4  A    between atoms: C_20  and  C_9 
REMARK    5  A    between atoms: C_22  and  O_11 
REMARK    6  A    between atoms: C_12  and  S_15 
REMARK    7  A    between atoms: S_15  and  C_20 
ROOT
ATOM      1  C   UNL d   1      -0.073   1.170  -0.135  0.00  0.00     0.151 A 
ATOM      2  O   UNL d   1      -0.907   0.076  -0.164  0.00  0.00    -0.308 OA
ATOM      3  C   UNL d   1       1.239   0.736  -0.050  0.00  0.00     0.046 A 
ATOM      4  C   UNL d   1      -0.114  -1.043  -0.069  0.00  0.00     0.063 A 
ATOM      5  C   UNL d   1       1.215  -0.673  -0.025  0.00  0.00     0.036 A 
ENDROOT
BRANCH   4   6
ATOM      6  C   UNL d   1      -0.780  -2.381  -0.023  0.00  0.00     0.145 C 
BRANCH   6   7
ATOM      7  S   UNL d   1      -0.395  -3.215   1.565  0.00  0.00    -0.106 SA
BRANCH   7   8
ATOM      8  C   UNL d   1      -1.235  -4.772   1.356  0.00  0.00     0.069 A 
ATOM      9  N   UNL d   1      -1.902  -4.997   0.204  0.00  0.00    -0.360 N 
ATOM     10  C   UNL d   1      -2.550  -6.179   0.076  0.00  0.00     0.105 A 
ATOM     11  HN  UNL d   1      -1.917  -4.301  -0.542  1.00  0.00     0.166 HD
ATOM     12  C   UNL d   1      -2.570  -7.171   1.046  0.00  0.00     0.063 A 
ATOM     13  C   UNL d   1      -1.866  -6.922   2.228  0.00  0.00     0.020 A 
ATOM     14  C   UNL d   1      -1.191  -5.710   2.384  0.00  0.00     0.038 A 
BRANCH  12  15
ATOM     15  C   UNL d   1      -3.324  -8.446   0.821  0.00  0.00     0.418 C 
ATOM     16  F   UNL d   1      -3.950  -8.501  -0.388  0.00  0.00    -0.166 F 
ATOM     17  F   UNL d   1      -2.520  -9.543   0.873  0.00  0.00    -0.166 F 
ATOM     18  F   UNL d   1      -4.296  -8.649   1.752  0.00  0.00    -0.166 F 
ENDBRANCH  12  15
ENDBRANCH   7   8
ENDBRANCH   6   7
ENDBRANCH   4   6
BRANCH   1  19
ATOM     19  C   UNL d   1      -0.566   2.536  -0.148  0.00  0.00     0.322 C 
ATOM     20  O   UNL d   1       0.167   3.511  -0.006  0.00  0.00    -0.257 OA
BRANCH  19  21
ATOM     21  O   UNL d   1      -1.952   2.590  -0.322  0.00  0.00    -0.273 OA
BRANCH  21  22
ATOM     22  C   UNL d   1      -2.651   3.826  -0.290  0.00  0.00     0.079 A 
ATOM     23  C   UNL d   1      -2.123   5.039  -0.737  0.00  0.00     0.037 A 
ATOM     24  C   UNL d   1      -2.884   6.208  -0.643  0.00  0.00     0.003 A 
ATOM     25  C   UNL d   1      -4.183   6.161  -0.135  0.00  0.00     0.000 A 
ATOM     26  C   UNL d   1      -4.723   4.942   0.274  0.00  0.00     0.003 A 
ATOM     27  C   UNL d   1      -3.960   3.773   0.195  0.00  0.00     0.037 A 
ENDBRANCH  21  22
ENDBRANCH  19  21
ENDBRANCH   1  19
TORSDOF 7
