REMARK  1 active torsions:
REMARK  status: ('A' for Active; 'I' for Inactive)
REMARK    1  A    between atoms: C_7  and  C_2 
ROOT
ATOM      1  C   UNL d   1      -0.010  -0.677  -0.058  0.00  0.00     0.024 C 
ATOM      2  C   UNL d   1      -1.284  -1.495   0.069  0.00  0.00     0.103 C 
ATOM      3  C   UNL d   1      -2.557  -0.649  -0.044  0.00  0.00     0.057 C 
ATOM      4  C   UNL d   1      -0.036   0.672  -0.070  0.00  0.00     0.020 C 
ATOM      5  N   UNL d   1      -1.248   1.337  -0.020  0.00  0.00    -0.362 N 
ATOM      6  C   UNL d   1      -2.482   0.703  -0.058  0.00  0.00     0.023 C 
ATOM      7  C   UNL d   1      -3.808  -1.331  -0.120  0.00  0.00     0.098 C 
ATOM      8  C   UNL d   1       1.281  -1.407  -0.217  0.00  0.00     0.158 C 
ATOM      9  N   UNL d   1      -4.832  -1.876  -0.199  0.00  0.00    -0.192 NA
ATOM     10  O   UNL d   1       1.306  -2.635  -0.282  0.00  0.00    -0.293 OA
ATOM     11  C   UNL d   1       1.217   1.512  -0.113  0.00  0.00     0.058 C 
ATOM     12  C   UNL d   1      -3.710   1.579  -0.098  0.00  0.00     0.069 C 
ATOM     13  C   UNL d   1       2.540  -0.597  -0.417  0.00  0.00     0.084 C 
ATOM     14  C   UNL d   1       2.455   0.729   0.318  0.00  0.00     0.014 C 
ATOM     15  H   UNL d   1      -1.235   2.352  -0.089  0.00  0.00     0.165 HD
ENDROOT
BRANCH   2  16
ATOM     16  C   UNL d   1      -1.300  -2.286   1.378  0.00  0.00    -0.044 A 
ATOM     17  C   UNL d   1      -1.384  -3.688   1.335  0.00  0.00     0.018 A 
ATOM     18  C   UNL d   1      -1.417  -4.381   2.528  0.00  0.00    -0.022 A 
ATOM     19  C   UNL d   1      -1.446  -5.840   2.764  0.00  0.00     0.068 C 
ATOM     20  C   UNL d   1      -1.351  -3.721   3.744  0.00  0.00     0.075 A 
ATOM     21  C   UNL d   1      -1.784  -5.828   4.255  0.00  0.00     0.180 C 
ATOM     22  O   UNL d   1      -1.374  -4.562   4.826  0.00  0.00    -0.350 OA
ATOM     23  C   UNL d   1      -1.250  -2.349   3.826  0.00  0.00     0.038 A 
ATOM     24  C   UNL d   1      -1.235  -1.627   2.631  0.00  0.00     0.011 A 
ENDBRANCH   2  16
TORSDOF 1
