REMARK  7 active torsions:
REMARK  status: ('A' for Active; 'I' for Inactive)
REMARK    1  A    between atoms: N_4  and  C_1 
REMARK    2  A    between atoms: C_2  and  N_3 
REMARK       I    between atoms: N_3  and  C_12 
REMARK       I    between atoms: C_11  and  N_4 
REMARK    3  A    between atoms: C_19  and  C_11 
REMARK    4  A    between atoms: C_12  and  C_20 
REMARK    5  A    between atoms: C_22  and  C_19 
REMARK    6  A    between atoms: C_20  and  C_21 
REMARK    7  A    between atoms: C_21  and  C_22 
ROOT
ATOM      1  C   UNL d   1       2.276  -7.064  -0.153  0.00  0.00     0.010 C 
ENDROOT
BRANCH   1   2
ATOM      2  C   UNL d   1       3.475  -8.021  -0.102  0.00  0.00     0.103 C 
BRANCH   2   3
ATOM      3  C   UNL d   1       3.028  -9.471  -0.214  0.00  0.00     0.223 C 
ATOM      4  N   UNL d   1       3.930 -10.486  -0.155  0.00  0.00    -0.307 N 
ATOM      5  H   UNL d   1       3.540 -11.416  -0.211  0.00  0.00     0.171 HD
ATOM      6  O   UNL d   1       1.839  -9.773  -0.361  0.00  0.00    -0.273 OA
BRANCH   4   7
ATOM      7  C   UNL d   1       5.284 -10.386  -0.069  0.00  0.00     0.150 A 
ATOM      8  N   UNL d   1       6.045  -9.323  -0.041  0.00  0.00    -0.346 N 
ATOM      9  C   UNL d   1       7.369  -9.717   0.024  0.00  0.00     0.097 A 
ATOM     10  HN  UNL d   1       5.715  -8.358  -0.063  1.00  0.00     0.167 HD
ATOM     11  C   UNL d   1       7.587 -11.080   0.055  0.00  0.00     0.070 A 
ATOM     12  S   UNL d   1       6.081 -11.898  -0.008  0.00  0.00    -0.064 SA
ENDBRANCH   4   7
ENDBRANCH   2   3
ENDBRANCH   1   2
BRANCH   1  13
ATOM     13  C   UNL d   1       2.647  -5.585  -0.020  0.00  0.00     0.010 C 
BRANCH  13  14
ATOM     14  C   UNL d   1       3.463  -5.065  -1.199  0.00  0.00     0.103 C 
BRANCH  14  15
ATOM     15  C   UNL d   1       3.818  -3.603  -1.015  0.00  0.00     0.223 C 
ATOM     16  N   UNL d   1       2.838  -2.752  -1.471  0.00  0.00    -0.307 N 
ATOM     17  H   UNL d   1       1.960  -3.105  -1.817  0.00  0.00     0.171 HD
ATOM     18  O   UNL d   1       4.877  -3.293  -0.476  0.00  0.00    -0.273 OA
BRANCH  16  19
ATOM     19  C   UNL d   1       2.996  -1.393  -1.458  0.00  0.00     0.150 A 
ATOM     20  N   UNL d   1       4.040  -0.682  -1.120  0.00  0.00    -0.346 N 
ATOM     21  C   UNL d   1       3.747   0.659  -1.253  0.00  0.00     0.097 A 
ATOM     22  HN  UNL d   1       4.934  -1.061  -0.807  1.00  0.00     0.167 HD
ATOM     23  C   UNL d   1       2.472   0.945  -1.694  0.00  0.00     0.070 A 
ATOM     24  S   UNL d   1       1.621  -0.520  -1.975  0.00  0.00    -0.064 SA
ENDBRANCH  16  19
ENDBRANCH  14  15
ENDBRANCH  13  14
ENDBRANCH   1  13
TORSDOF 7
