REMARK  5 active torsions:
REMARK  status: ('A' for Active; 'I' for Inactive)
REMARK    1  A    between atoms: C_3  and  C_9 
REMARK       I    between atoms: N_5  and  C_3 
REMARK    2  A    between atoms: C_10  and  C_6 
REMARK    3  A    between atoms: C_9  and  C_11 
REMARK    4  A    between atoms: C_12  and  C_10 
REMARK    5  A    between atoms: C_11  and  C_12 
ROOT
ATOM      1  C   UNL d   1      -1.340   2.665  -3.896  0.00  0.00     0.009 C 
ENDROOT
BRANCH   1   2
ATOM      2  C   UNL d   1      -1.589   4.098  -4.358  0.00  0.00     0.102 C 
BRANCH   2   3
ATOM      3  C   UNL d   1      -1.481   4.233  -5.860  0.00  0.00     0.215 C 
ATOM      4  O   UNL d   1      -1.227   3.316  -6.628  0.00  0.00    -0.274 OA
ATOM      5  N   UNL d   1      -1.692   5.494  -6.327  0.00  0.00    -0.370 N 
ATOM      6  H   UNL d   1      -1.914   6.279  -5.731  0.00  0.00     0.159 HD
ATOM      7  H   UNL d   1      -1.635   5.639  -7.327  0.00  0.00     0.159 HD
ENDBRANCH   2   3
ENDBRANCH   1   2
BRANCH   1   8
ATOM      8  C   UNL d   1      -1.447   2.540  -2.376  0.00  0.00     0.002 C 
BRANCH   8   9
ATOM      9  C   UNL d   1      -1.194   1.098  -1.928  0.00  0.00     0.016 C 
BRANCH   9  10
ATOM     10  C   UNL d   1      -1.290   0.920  -0.404  0.00  0.00     0.059 C 
ATOM     11  S   UNL d   1      -0.974  -0.823   0.027  0.00  0.00    -0.093 SA
ATOM     12  S   UNL d   1       1.063  -0.660   0.225  0.00  0.00    -0.097 SA
ATOM     13  C   UNL d   1       1.157   1.150   0.160  0.00  0.00     0.087 C 
ATOM     14  C   UNL d   1      -0.246   1.695   0.411  0.00  0.00     0.027 C 
ENDBRANCH   9  10
ENDBRANCH   8   9
ENDBRANCH   1   8
TORSDOF 5
