REMARK  9 active torsions:
REMARK  status: ('A' for Active; 'I' for Inactive)
REMARK    1  A    between atoms: C_3  and  C_1 
REMARK    2  A    between atoms: C_2  and  C_10 
REMARK    3  A    between atoms: C_4  and  O_14 
REMARK       I    between atoms: N_11  and  C_4 
REMARK    4  A    between atoms: C_5  and  C_26 
REMARK    5  A    between atoms: N_27  and  C_5 
REMARK    6  A    between atoms: O_14  and  N_6 
REMARK    7  A    between atoms: C_18  and  N_11 
REMARK    8  A    between atoms: S_16  and  C_12 
REMARK    9  A    between atoms: C_26  and  S_16 
ROOT
ATOM      1  C   UNL d   1      -0.688  -4.769   6.527  0.00  0.00     0.105 C 
ATOM      2  N   UNL d   1      -1.298  -4.045   7.431  0.00  0.00    -0.244 N 
ATOM      3  HN  UNL d   1      -1.783  -4.395   8.257  1.00  0.00     0.196 HD
ENDROOT
BRANCH   1   4
ATOM      4  C   UNL d   1      -0.711  -6.294   6.675  0.00  0.00     0.158 C 
BRANCH   4   5
ATOM      5  S   UNL d   1       0.695  -7.081   5.815  0.00  0.00    -0.105 SA
BRANCH   5   6
ATOM      6  C   UNL d   1       2.038  -6.572   6.871  0.00  0.00     0.069 A 
ATOM      7  C   UNL d   1       3.317  -6.454   6.340  0.00  0.00     0.038 A 
ATOM      8  C   UNL d   1       4.377  -6.163   7.200  0.00  0.00     0.020 A 
ATOM      9  C   UNL d   1       4.135  -6.006   8.567  0.00  0.00     0.063 A 
ATOM     10  C   UNL d   1       2.822  -6.117   8.997  0.00  0.00     0.105 A 
ATOM     11  N   UNL d   1       1.777  -6.398   8.184  0.00  0.00    -0.360 N 
ATOM     12  HN  UNL d   1       0.828  -6.476   8.549  1.00  0.00     0.166 HD
BRANCH   9  13
ATOM     13  C   UNL d   1       5.245  -5.759   9.542  0.00  0.00     0.418 C 
ATOM     14  F   UNL d   1       4.830  -5.695  10.837  0.00  0.00    -0.166 F 
ATOM     15  F   UNL d   1       5.906  -4.595   9.301  0.00  0.00    -0.166 F 
ATOM     16  F   UNL d   1       6.191  -6.739   9.505  0.00  0.00    -0.166 F 
ENDBRANCH   9  13
ENDBRANCH   5   6
ENDBRANCH   4   5
ENDBRANCH   1   4
BRANCH   1  17
ATOM     17  N   UNL d   1      -0.094  -4.217   5.409  0.00  0.00    -0.387 N 
ATOM     18  H   UNL d   1       0.041  -4.821   4.607  0.00  0.00     0.157 HD
ATOM     19  H   UNL d   1      -0.355  -3.258   5.203  0.00  0.00     0.157 HD
ENDBRANCH   1  17
BRANCH   2  20
ATOM     20  O   UNL d   1      -1.163  -2.688   7.051  0.00  0.00    -0.179 OA
BRANCH  20  21
ATOM     21  C   UNL d   1      -1.753  -1.777   7.896  0.00  0.00     0.387 C 
ATOM     22  N   UNL d   1      -2.413  -2.321   8.977  0.00  0.00    -0.301 N 
ATOM     23  H   UNL d   1      -2.320  -3.329   9.027  0.00  0.00     0.171 HD
ATOM     24  O   UNL d   1      -1.647  -0.585   7.633  0.00  0.00    -0.236 OA
BRANCH  22  25
ATOM     25  C   UNL d   1      -3.089  -1.613   9.992  0.00  0.00     0.037 A 
ATOM     26  C   UNL d   1      -3.289  -0.228   9.952  0.00  0.00     0.045 A 
ATOM     27  C   UNL d   1      -3.916   0.460  11.006  0.00  0.00     0.050 A 
ATOM     28  C   UNL d   1      -4.365  -0.268  12.113  0.00  0.00     0.016 A 
ATOM     29  C   UNL d   1      -4.199  -1.652  12.152  0.00  0.00     0.003 A 
ATOM     30  C   UNL d   1      -3.568  -2.323  11.097  0.00  0.00     0.029 A 
BRANCH  27  31
ATOM     31  C   UNL d   1      -4.080   1.959  10.952  0.00  0.00     0.417 C 
ATOM     32  F   UNL d   1      -3.646   2.524   9.791  0.00  0.00    -0.166 F 
ATOM     33  F   UNL d   1      -5.380   2.346  11.086  0.00  0.00    -0.166 F 
ATOM     34  F   UNL d   1      -3.400   2.591  11.949  0.00  0.00    -0.166 F 
ENDBRANCH  27  31
ENDBRANCH  22  25
ENDBRANCH  20  21
ENDBRANCH   2  20
TORSDOF 9
