REMARK  4 active torsions:
REMARK  status: ('A' for Active; 'I' for Inactive)
REMARK    1  A    between atoms: S_8  and  C_1 
REMARK    2  A    between atoms: C_9  and  S_8 
REMARK    3  A    between atoms: C_10  and  C_9 
REMARK    4  A    between atoms: C_11  and  C_10 
ROOT
ATOM      1  C   UNL d   1      -0.428   1.157  -0.002  0.00  0.00     0.160 A 
ATOM      2  N   UNL d   1       0.869   0.741  -0.001  0.00  0.00    -0.331 N 
ATOM      3  N   UNL d   1      -1.229   0.121  -0.002  0.00  0.00    -0.279 N 
ATOM      4  HN  UNL d   1      -2.249   0.146  -0.002  1.00  0.00     0.189 HD
ATOM      5  N   UNL d   1      -0.437  -1.011   0.001  0.00  0.00    -0.294 N 
ATOM      6  HN  UNL d   1      -0.767  -1.976   0.002  1.00  0.00     0.187 HD
ATOM      7  C   UNL d   1       0.819  -0.620   0.001  0.00  0.00     0.199 A 
ATOM      8  H   UNL d   1       1.685   1.331  -0.001  0.00  0.00     0.168 HD
ENDROOT
BRANCH   1   9
ATOM      9  S   UNL d   1      -0.806   2.833  -0.005  0.00  0.00    -0.092 SA
BRANCH   9  10
ATOM     10  C   UNL d   1      -2.629   2.798  -0.006  0.00  0.00     0.082 C 
BRANCH  10  11
ATOM     11  C   UNL d   1      -3.152   4.237  -0.009  0.00  0.00     0.010 C 
BRANCH  11  12
ATOM     12  C   UNL d   1      -4.681   4.299  -0.009  0.00  0.00    -0.004 C 
ATOM     13  C   UNL d   1      -5.174   5.740  -0.012  0.00  0.00     0.005 C 
ENDBRANCH  11  12
ENDBRANCH  10  11
ENDBRANCH   9  10
ENDBRANCH   1   9
TORSDOF 4
