REMARK  3 active torsions:
REMARK  status: ('A' for Active; 'I' for Inactive)
REMARK    1  A    between atoms: C_9  and  C_4 
REMARK    2  A    between atoms: S_15  and  C_6 
REMARK       I    between atoms: N_11  and  C_9 
REMARK    3  A    between atoms: C_14  and  N_11 
ROOT
ATOM      1  S   UNL d   1      -1.092  -2.242   0.571  0.00  0.00     0.267 S 
ATOM      2  C   UNL d   1      -1.776  -0.696   0.240  0.00  0.00     0.116 A 
ATOM      3  C   UNL d   1      -0.873   0.416  -0.001  0.00  0.00     0.024 A 
ATOM      4  C   UNL d   1      -1.597   1.579  -0.277  0.00  0.00     0.086 A 
ATOM      5  N   UNL d   1       0.419  -2.258  -0.173  0.00  0.00    -0.275 N 
ATOM      6  C   UNL d   1      -3.114  -0.381   0.148  0.00  0.00     0.066 A 
ATOM      7  S   UNL d   1      -3.294   1.294  -0.111  0.00  0.00    -0.075 SA
ATOM      8  C   UNL d   1       0.609   0.254  -0.036  0.00  0.00     0.005 C 
ATOM      9  C   UNL d   1       1.191  -1.038  -0.167  0.00  0.00     0.056 C 
ATOM     10  O   UNL d   1      -1.946  -3.200  -0.090  0.00  0.00    -0.200 OA
ATOM     11  O   UNL d   1      -0.925  -2.213   2.007  0.00  0.00    -0.200 OA
ATOM     12  C   UNL d   1       0.677  -3.268  -1.215  0.00  0.00     0.170 C 
ATOM     13  C   UNL d   1       1.482   1.348   0.037  0.00  0.00     0.014 C 
ATOM     14  C   UNL d   1       2.580  -1.167  -0.351  0.00  0.00     0.031 C 
ATOM     15  C   UNL d   1       2.858   1.205  -0.180  0.00  0.00     0.001 C 
ATOM     16  C   UNL d   1       3.406  -0.049  -0.401  0.00  0.00     0.002 C 
ENDROOT
BRANCH   4  17
ATOM     17  C   UNL d   1      -1.238   2.923  -0.762  0.00  0.00     0.264 C 
ATOM     18  N   UNL d   1      -2.017   3.940  -0.232  0.00  0.00    -0.321 N 
ATOM     19  H   UNL d   1      -2.526   3.684   0.608  0.00  0.00     0.169 HD
ATOM     20  O   UNL d   1      -0.279   3.134  -1.504  0.00  0.00    -0.267 OA
BRANCH  18  21
ATOM     21  C   UNL d   1      -2.329   5.223  -0.738  0.00  0.00     0.056 A 
ATOM     22  C   UNL d   1      -2.372   5.615  -2.091  0.00  0.00     0.060 A 
ATOM     23 CL   UNL d   1      -1.912   4.610  -3.417  0.00  0.00    -0.082 Cl
ATOM     24  C   UNL d   1      -2.951   6.849  -2.443  0.00  0.00     0.026 A 
ATOM     25  C   UNL d   1      -3.460   7.708  -1.473  0.00  0.00     0.002 A 
ATOM     26  C   UNL d   1      -3.363   7.362  -0.133  0.00  0.00     0.002 A 
ATOM     27  C   UNL d   1      -2.808   6.132   0.226  0.00  0.00     0.031 A 
ENDBRANCH  18  21
ENDBRANCH   4  17
BRANCH   6  28
ATOM     28  S   UNL d   1      -4.589  -1.348   0.150  0.00  0.00    -0.126 SA
ATOM     29  C   UNL d   1      -4.448  -2.470   1.550  0.00  0.00     0.096 C 
ENDBRANCH   6  28
TORSDOF 3
