REMARK  4 active torsions:
REMARK  status: ('A' for Active; 'I' for Inactive)
REMARK    1  A    between atoms: N_2  and  S_1 
REMARK    2  A    between atoms: C_5  and  S_1 
REMARK       I    between atoms: C_3  and  N_6 
REMARK    3  A    between atoms: C_4  and  C_3 
REMARK    4  A    between atoms: N_6  and  C_15 
ROOT
ATOM      1  C   UNL d   1       0.866  -0.621  -1.689  0.00  0.00     0.079 A 
ATOM      2  C   UNL d   1       0.810  -1.996  -1.940  0.00  0.00     0.027 A 
ATOM      3  C   UNL d   1       0.489   0.282  -2.683  0.00  0.00     0.027 A 
ATOM      4  C   UNL d   1      -0.061  -1.564  -4.177  0.00  0.00     0.035 A 
ATOM      5  C   UNL d   1       0.365  -2.460  -3.188  0.00  0.00     0.031 A 
ATOM      6  C   UNL d   1       0.040  -0.192  -3.922  0.00  0.00     0.031 A 
ENDROOT
BRANCH   4   7
ATOM      7  N   UNL d   1      -0.609  -2.100  -5.370  0.00  0.00    -0.323 N 
ATOM      8  C   UNL d   1      -1.325  -1.390  -6.324  0.00  0.00     0.257 C 
ATOM      9  O   UNL d   1      -1.603  -0.195  -6.276  0.00  0.00    -0.267 OA
ATOM     10  H   UNL d   1      -0.608  -3.107  -5.444  0.00  0.00     0.169 HD
BRANCH   8  11
ATOM     11  C   UNL d   1      -1.839  -2.155  -7.487  0.00  0.00     0.047 A 
ATOM     12  C   UNL d   1      -2.986  -1.690  -8.125  0.00  0.00     0.104 A 
ATOM     13  N   UNL d   1      -3.530  -2.262  -9.228  0.00  0.00    -0.374 N 
ATOM     14  C   UNL d   1      -2.888  -3.336  -9.731  0.00  0.00     0.087 A 
ATOM     15  HN  UNL d   1      -4.382  -1.898  -9.654  1.00  0.00     0.164 HD
ATOM     16  C   UNL d   1      -1.738  -3.874  -9.171  0.00  0.00     0.018 A 
ATOM     17  C   UNL d   1      -1.205  -3.275  -8.027  0.00  0.00     0.020 A 
ENDBRANCH   8  11
ENDBRANCH   4   7
BRANCH   1  18
ATOM     18  S   UNL d   1       1.185  -0.024  -0.038  0.00  0.00     0.261 S 
ATOM     19  O   UNL d   1       0.558   1.276   0.072  0.00  0.00    -0.200 OA
ATOM     20  O   UNL d   1       0.833  -1.096   0.869  0.00  0.00    -0.200 OA
BRANCH  18  21
ATOM     21  N   UNL d   1       2.848   0.199   0.045  0.00  0.00    -0.303 N 
ATOM     22  C   UNL d   1       3.490   1.341  -0.648  0.00  0.00     0.161 C 
ATOM     23  C   UNL d   1       4.168   0.884  -1.943  0.00  0.00     0.188 C 
ATOM     24  O   UNL d   1       5.088  -0.192  -1.704  0.00  0.00    -0.388 OA
ATOM     25  C   UNL d   1       4.417  -1.322  -1.130  0.00  0.00     0.188 C 
ATOM     26  C   UNL d   1       3.753  -0.962   0.201  0.00  0.00     0.161 C 
ENDBRANCH  18  21
ENDBRANCH   1  18
TORSDOF 4
