REMARK  4 active torsions:
REMARK  status: ('A' for Active; 'I' for Inactive)
REMARK    1  A    between atoms: C_7  and  N_12 
REMARK    2  A    between atoms: N_9  and  C_13 
REMARK    3  A    between atoms: C_11  and  N_22 
REMARK    4  A    between atoms: C_13  and  C_14 
ROOT
ATOM      1  C   UNL d   1      -0.092   0.649   0.077  0.00  0.00     0.004 A 
ATOM      2  C   UNL d   1      -0.066  -0.749   0.103  0.00  0.00     0.046 A 
ATOM      3  C   UNL d   1       1.183   1.399   0.012  0.00  0.00     0.094 A 
ATOM      4  C   UNL d   1      -1.348   1.286   0.067  0.00  0.00     0.016 A 
ATOM      5  C   UNL d   1       1.236  -1.448   0.095  0.00  0.00     0.260 A 
ATOM      6  C   UNL d   1      -1.251  -1.507   0.108  0.00  0.00     0.054 A 
ATOM      7  C   UNL d   1       2.365   0.737  -0.107  0.00  0.00     0.105 A 
ATOM      8  C   UNL d   1      -2.536   0.545   0.062  0.00  0.00     0.037 A 
ATOM      9  N   UNL d   1       2.386  -0.665  -0.053  0.00  0.00    -0.299 N 
ATOM     10  O   UNL d   1       1.240  -2.671   0.197  0.00  0.00    -0.267 OA
ATOM     11  C   UNL d   1      -2.484  -0.852   0.077  0.00  0.00     0.103 A 
ATOM     12  C   UNL d   1       1.158   2.833   0.030  0.00  0.00     0.103 C 
ATOM     13  N   UNL d   1       1.146   3.994   0.031  0.00  0.00    -0.191 NA
ENDROOT
BRANCH   7  14
ATOM     14  N   UNL d   1       3.568   1.413  -0.277  0.00  0.00    -0.287 NA
ATOM     15  H   UNL d   1       4.120   0.983  -1.018  0.00  0.00     0.125 HD
ATOM     16  H   UNL d   1       3.486   2.411  -0.466  0.00  0.00     0.125 HD
ENDBRANCH   7  14
BRANCH   9  17
ATOM     17  C   UNL d   1       3.668  -1.398  -0.089  0.00  0.00     0.172 C 
BRANCH  17  18
ATOM     18  C   UNL d   1       4.176  -1.640  -1.499  0.00  0.00    -0.040 A 
ATOM     19  C   UNL d   1       5.442  -1.183  -1.895  0.00  0.00     0.009 A 
ATOM     20  C   UNL d   1       5.883  -1.359  -3.210  0.00  0.00     0.001 A 
ATOM     21  C   UNL d   1       5.072  -2.010  -4.138  0.00  0.00     0.000 A 
ATOM     22  C   UNL d   1       3.834  -2.513  -3.745  0.00  0.00     0.001 A 
ATOM     23  C   UNL d   1       3.394  -2.338  -2.432  0.00  0.00     0.009 A 
ENDBRANCH  17  18
ENDBRANCH   9  17
BRANCH  11  24
ATOM     24  N   UNL d   1      -3.731  -1.629   0.039  0.00  0.00    -0.116 N 
ATOM     25  O   UNL d   1      -3.642  -2.864   0.055  0.00  0.00    -0.532 OA
ATOM     26  O   UNL d   1      -4.796  -0.999  -0.013  0.00  0.00    -0.532 OA
ENDBRANCH  11  24
TORSDOF 4
