REMARK  2 active torsions:
REMARK  status: ('A' for Active; 'I' for Inactive)
REMARK    1  A    between atoms: S_12  and  C_4 
REMARK    2  A    between atoms: N_13  and  C_7 
ROOT
ATOM      1  C   UNL d   1       0.368   0.732   0.054  0.00  0.00     0.045 A 
ATOM      2  C   UNL d   1      -0.930   1.404   0.146  0.00  0.00     0.192 C 
ATOM      3  C   UNL d   1      -2.137   0.487   0.050  0.00  0.00     0.008 C 
ATOM      4  C   UNL d   1       1.605   1.365  -0.017  0.00  0.00     0.055 A 
ATOM      5  C   UNL d   1       0.533  -0.698   0.040  0.00  0.00    -0.035 A 
ATOM      6  S   UNL d   1       2.907   0.248  -0.090  0.00  0.00    -0.093 SA
ATOM      7  C   UNL d   1      -3.336   1.109   0.025  0.00  0.00     0.095 C 
ATOM      8  C   UNL d   1       1.855  -1.081  -0.023  0.00  0.00     0.059 A 
ATOM      9  C   UNL d   1      -1.978  -1.004  -0.042  0.00  0.00     0.049 C 
ATOM     10  O   UNL d   1      -1.058   2.611   0.304  0.00  0.00    -0.287 OA
ATOM     11  C   UNL d   1      -0.604  -1.647   0.121  0.00  0.00     0.045 C 
ENDROOT
BRANCH   7  12
ATOM     12  N   UNL d   1      -4.665   0.694  -0.086  0.00  0.00    -0.398 N 
ATOM     13  C   UNL d   1      -5.159  -0.681  -0.095  0.00  0.00     0.148 C 
ATOM     14  C   UNL d   1      -5.759   1.675   0.007  0.00  0.00     0.148 C 
ENDBRANCH   7  12
BRANCH   4  15
ATOM     15  S   UNL d   1       1.978   3.088  -0.067  0.00  0.00    -0.126 SA
ATOM     16  C   UNL d   1       2.209   3.399   1.699  0.00  0.00     0.096 C 
ENDBRANCH   4  15
TORSDOF 2
