REMARK  5 active torsions:
REMARK  status: ('A' for Active; 'I' for Inactive)
REMARK    1  A    between atoms: S_10  and  C_1 
REMARK    2  A    between atoms: C_4  and  N_2 
REMARK       I    between atoms: N_3  and  C_7 
REMARK    3  A    between atoms: C_5  and  N_3 
REMARK    4  A    between atoms: C_7  and  C_12 
REMARK    5  A    between atoms: C_12  and  S_10 
ROOT
ATOM      1  S   UNL d   1       2.189  -1.438   0.081  0.00  0.00    -0.079 SA
ENDROOT
BRANCH   1   2
ATOM      2  C   UNL d   1       3.373  -0.764  -1.005  0.00  0.00     0.151 A 
ATOM      3  N   UNL d   1       3.124   0.233  -1.953  0.00  0.00    -0.300 N 
ATOM      4  C   UNL d   1       4.323   0.379  -2.627  0.00  0.00     0.116 A 
ATOM      5  C   UNL d   1       5.192  -0.538  -2.091  0.00  0.00     0.108 A 
ATOM      6  N   UNL d   1       4.608  -1.212  -1.060  0.00  0.00    -0.345 N 
ATOM      7  HN  UNL d   1       5.038  -1.915  -0.459  1.00  0.00     0.167 HD
BRANCH   3   8
ATOM      8  C   UNL d   1       1.951   1.030  -2.158  0.00  0.00     0.064 A 
ATOM      9  C   UNL d   1       1.516   1.447  -3.438  0.00  0.00     0.083 A 
ATOM     10  C   UNL d   1       0.367   2.260  -3.542  0.00  0.00     0.058 A 
ATOM     11 CL   UNL d   1       2.261   0.892  -4.908  0.00  0.00    -0.080 Cl
ATOM     12 CL   UNL d   1      -0.240   2.841  -5.060  0.00  0.00    -0.082 Cl
ATOM     13  C   UNL d   1      -0.352   2.636  -2.404  0.00  0.00     0.026 A 
ATOM     14  C   UNL d   1       0.075   2.228  -1.148  0.00  0.00     0.004 A 
ATOM     15  C   UNL d   1       1.226   1.449  -1.025  0.00  0.00     0.032 A 
ENDBRANCH   3   8
ENDBRANCH   1   2
BRANCH   1  16
ATOM     16  C   UNL d   1       2.248  -3.229  -0.287  0.00  0.00     0.143 C 
ATOM     17  C   UNL d   1       3.583  -3.894   0.013  0.00  0.00     0.031 C 
BRANCH  16  18
ATOM     18  C   UNL d   1       1.806  -3.491  -1.726  0.00  0.00     0.236 C 
ATOM     19  N   UNL d   1       0.804  -4.457  -1.835  0.00  0.00    -0.321 N 
ATOM     20  H   UNL d   1       0.211  -4.589  -1.025  0.00  0.00     0.169 HD
ATOM     21  O   UNL d   1       2.251  -2.864  -2.686  0.00  0.00    -0.272 OA
BRANCH  19  22
ATOM     22  C   UNL d   1       0.199  -4.749  -3.083  0.00  0.00     0.112 A 
ATOM     23  C   UNL d   1       0.903  -4.845  -4.286  0.00  0.00     0.146 A 
ATOM     24  F   UNL d   1       2.244  -4.863  -4.303  0.00  0.00    -0.204 F 
ATOM     25  C   UNL d   1       0.234  -4.996  -5.500  0.00  0.00     0.045 A 
ATOM     26  C   UNL d   1      -1.158  -5.078  -5.522  0.00  0.00     0.006 A 
ATOM     27  C   UNL d   1      -1.870  -5.057  -4.322  0.00  0.00     0.045 A 
ATOM     28  C   UNL d   1      -1.187  -4.913  -3.117  0.00  0.00     0.146 A 
ATOM     29  F   UNL d   1      -1.888  -4.867  -1.971  0.00  0.00    -0.204 F 
ENDBRANCH  19  22
ENDBRANCH  16  18
ENDBRANCH   1  16
TORSDOF 5
