REMARK  4 active torsions:
REMARK  status: ('A' for Active; 'I' for Inactive)
REMARK    1  A    between atoms: S_9  and  C_1 
REMARK    2  A    between atoms: N_8  and  C_2 
REMARK    3  A    between atoms: C_19  and  N_6 
REMARK    4  A    between atoms: C_7  and  S_9 
ROOT
ATOM      1  C   UNL d   1       2.384   0.082   0.248  0.00  0.00     0.154 A 
ATOM      2  N   UNL d   1       1.704  -1.044   0.235  0.00  0.00    -0.334 N 
ATOM      3  HN  UNL d   1       2.076  -1.991   0.309  1.00  0.00     0.168 HD
ATOM      4  N   UNL d   1       1.577   1.175   0.033  0.00  0.00    -0.321 N 
ATOM      5  C   UNL d   1       0.393  -0.679   0.101  0.00  0.00     0.062 A 
ATOM      6  C   UNL d   1       0.268   0.705   0.010  0.00  0.00     0.063 A 
ATOM      7  C   UNL d   1      -0.752  -1.489   0.072  0.00  0.00     0.055 A 
ATOM      8  C   UNL d   1      -0.981   1.338  -0.074  0.00  0.00     0.034 A 
ATOM      9  C   UNL d   1      -2.000  -0.869  -0.015  0.00  0.00     0.036 A 
ATOM     10  C   UNL d   1      -2.117   0.519  -0.078  0.00  0.00     0.026 A 
ATOM     11 CL   UNL d   1      -3.425  -1.838  -0.034  0.00  0.00    -0.084 Cl
ENDROOT
BRANCH   1  12
ATOM     12  S   UNL d   1       4.097   0.159   0.498  0.00  0.00    -0.028 SA
BRANCH  12  13
ATOM     13  C   UNL d   1       4.243  -0.785   1.969  0.00  0.00     0.121 A 
ATOM     14  S   UNL d   1       3.131  -0.751   3.287  0.00  0.00    -0.039 SA
ATOM     15  C   UNL d   1       4.132  -1.834   4.129  0.00  0.00     0.161 A 
ATOM     16  C   UNL d   1       5.269  -2.114   3.412  0.00  0.00     0.133 A 
ATOM     17  N   UNL d   1       5.338  -1.494   2.176  0.00  0.00    -0.352 N 
ATOM     18  HN  UNL d   1       6.117  -1.572   1.524  1.00  0.00     0.166 HD
BRANCH  15  19
ATOM     19  N   UNL d   1       3.789  -2.332   5.421  0.00  0.00    -0.107 N 
ATOM     20  O   UNL d   1       4.574  -3.146   5.921  0.00  0.00    -0.531 OA
ATOM     21  O   UNL d   1       2.751  -1.915   5.952  0.00  0.00    -0.531 OA
ENDBRANCH  15  19
ENDBRANCH  12  13
ENDBRANCH   1  12
BRANCH   4  22
ATOM     22  C   UNL d   1       1.916   2.593  -0.092  0.00  0.00     0.084 C 
ATOM     23  C   UNL d   1       1.994   3.272   1.275  0.00  0.00     0.032 C 
ATOM     24  C   UNL d   1       3.140   2.926  -0.950  0.00  0.00     0.032 C 
ENDBRANCH   4  22
TORSDOF 4
