REMARK  5 active torsions:
REMARK  status: ('A' for Active; 'I' for Inactive)
REMARK    1  A    between atoms: C_8  and  C_1 
REMARK    2  A    between atoms: N_6  and  C_2 
REMARK    3  A    between atoms: C_9  and  C_4 
REMARK       I    between atoms: C_7  and  N_6 
REMARK    4  A    between atoms: C_10  and  C_7 
REMARK    5  A    between atoms: O_17  and  C_8 
ROOT
ATOM      1  C   UNL d   1      -0.076   1.317  -0.192  0.00  0.00     0.107 A 
ATOM      2  C   UNL d   1       1.234   0.828  -0.167  0.00  0.00     0.059 A 
ATOM      3  S   UNL d   1      -1.209  -0.027  -0.221  0.00  0.00    -0.081 SA
ATOM      4  C   UNL d   1      -0.012  -1.218  -0.161  0.00  0.00     0.018 A 
ATOM      5  C   UNL d   1       1.226  -0.623  -0.181  0.00  0.00     0.051 A 
ENDROOT
BRANCH   2   6
ATOM      6  N   UNL d   1       2.526   1.365  -0.120  0.00  0.00    -0.323 N 
ATOM      7  C   UNL d   1       3.056   2.639  -0.076  0.00  0.00     0.255 C 
ATOM      8  O   UNL d   1       2.449   3.700  -0.141  0.00  0.00    -0.270 OA
ATOM      9  H   UNL d   1       3.246   0.648  -0.088  0.00  0.00     0.169 HD
BRANCH   7  10
ATOM     10  C   UNL d   1       4.589   2.658   0.019  0.00  0.00     0.270 C 
ATOM     11 CL   UNL d   1       5.146   1.542   1.292  0.00  0.00    -0.098 Cl
ATOM     12 CL   UNL d   1       5.267   2.166  -1.549  0.00  0.00    -0.098 Cl
ENDBRANCH   7  10
ENDBRANCH   2   6
BRANCH   1  13
ATOM     13  C   UNL d   1      -0.789   2.601  -0.195  0.00  0.00     0.302 C 
ATOM     14  O   UNL d   1      -2.007   2.729  -0.275  0.00  0.00    -0.259 OA
BRANCH  13  15
ATOM     15  O   UNL d   1       0.033   3.664  -0.081  0.00  0.00    -0.322 OA
ATOM     16  C   UNL d   1      -0.610   4.944  -0.072  0.00  0.00     0.213 C 
ENDBRANCH  13  15
ENDBRANCH   1  13
BRANCH   4  17
ATOM     17  C   UNL d   1      -0.327  -2.656  -0.104  0.00  0.00    -0.019 A 
ATOM     18  C   UNL d   1       0.544  -3.585  -0.703  0.00  0.00     0.016 A 
ATOM     19  C   UNL d   1       0.314  -4.960  -0.599  0.00  0.00     0.043 A 
ATOM     20  C   UNL d   1      -0.794  -5.415   0.100  0.00  0.00     0.116 A 
ATOM     21  C   UNL d   1      -1.677  -4.522   0.693  0.00  0.00     0.043 A 
ATOM     22  F   UNL d   1      -1.009  -6.732   0.210  0.00  0.00    -0.206 F 
ATOM     23  C   UNL d   1      -1.445  -3.147   0.592  0.00  0.00     0.016 A 
ENDBRANCH   4  17
TORSDOF 5
