REMARK  2 active torsions:
REMARK  status: ('A' for Active; 'I' for Inactive)
REMARK    1  A    between atoms: C_7  and  C_1 
REMARK    2  A    between atoms: C_9  and  N_2 
ROOT
ATOM      1  N   UNL d   1       6.349  -4.865  -0.023  0.00  0.00    -0.191 NA
ATOM      2  C   UNL d   1       2.122  -1.506   0.017  0.00  0.00     0.056 A 
ATOM      3  C   UNL d   1       5.427  -4.159   0.001  0.00  0.00     0.099 C 
ATOM      4  C   UNL d   1       3.263  -1.215   0.774  0.00  0.00     0.033 A 
ATOM      5  C   UNL d   1       2.047  -2.722  -0.680  0.00  0.00     0.033 A 
ATOM      6  C   UNL d   1       4.297  -3.278   0.028  0.00  0.00     0.044 A 
ATOM      7  C   UNL d   1       3.140  -3.595  -0.689  0.00  0.00     0.025 A 
ATOM      8  C   UNL d   1       4.349  -2.096   0.773  0.00  0.00     0.025 A 
ENDROOT
BRANCH   2   9
ATOM      9  N   UNL d   1       1.029  -0.595  -0.060  0.00  0.00    -0.260 N 
ATOM     10  C   UNL d   1       1.022   0.792   0.010  0.00  0.00     0.046 C 
ATOM     11  C   UNL d   1      -0.314   1.186   0.004  0.00  0.00     0.050 C 
ATOM     12  C   UNL d   1       2.232   1.665  -0.023  0.00  0.00     0.071 C 
ATOM     13  C   UNL d   1      -1.020  -0.021  -0.152  0.00  0.00     0.124 C 
ATOM     14  N   UNL d   1      -0.223  -1.080  -0.264  0.00  0.00    -0.304 N 
ATOM     15  HN  UNL d   1      -0.493  -2.044  -0.459  1.00  0.00     0.186 HD
BRANCH  11  16
ATOM     16  C   UNL d   1      -0.810   2.558   0.087  0.00  0.00     0.159 C 
ATOM     17  O   UNL d   1      -0.038   3.511   0.206  0.00  0.00    -0.293 OA
ATOM     18  C   UNL d   1      -2.291   2.832   0.011  0.00  0.00     0.097 C 
ENDBRANCH  11  16
ENDBRANCH   2   9
TORSDOF 2
