REMARK  1 active torsions:
REMARK  status: ('A' for Active; 'I' for Inactive)
REMARK    1  A    between atoms: O_10  and  C_4 
ROOT
ATOM      1  N   UNL d   1       1.173   0.096   0.327  0.00  0.00    -0.191 NA
ATOM      2  C   UNL d   1       2.329   0.036   0.226  0.00  0.00     0.099 C 
ATOM      3  C   UNL d   1       5.782  -1.387  -0.130  0.00  0.00     0.045 A 
ATOM      4  C   UNL d   1       6.559  -0.223  -0.195  0.00  0.00     0.085 A 
ATOM      5  C   UNL d   1       4.384  -1.289   0.015  0.00  0.00     0.044 A 
ATOM      6  C   UNL d   1       3.754  -0.044   0.092  0.00  0.00     0.046 A 
ATOM      7  C   UNL d   1       5.910   1.020  -0.097  0.00  0.00     0.039 A 
ATOM      8 BR   UNL d   1       6.452  -3.164  -0.140  0.00  0.00    -0.048 Br
ATOM      9  C   UNL d   1       4.522   1.116   0.039  0.00  0.00     0.025 A 
ENDROOT
BRANCH   4  10
ATOM     10  O   UNL d   1       7.918  -0.085  -0.252  0.00  0.00    -0.355 OA
ATOM     11  C   UNL d   1       8.682  -1.010  -1.008  0.00  0.00     0.210 C 
ENDBRANCH   4  10
TORSDOF 1
