REMARK  3 active torsions:
REMARK  status: ('A' for Active; 'I' for Inactive)
REMARK    1  A    between atoms: S_17  and  C_3 
REMARK    2  A    between atoms: C_7  and  C_4 
REMARK    3  A    between atoms: S_18  and  C_10 
ROOT
ATOM      1  C   UNL d   1       0.090  -0.741   0.021  0.00  0.00     0.041 A 
ATOM      2  C   UNL d   1       0.423   0.679  -0.067  0.00  0.00    -0.022 A 
ATOM      3  C   UNL d   1       1.219  -1.540   0.051  0.00  0.00     0.056 A 
ATOM      4  C   UNL d   1       1.794   0.895  -0.164  0.00  0.00     0.040 A 
ATOM      5  S   UNL d   1       2.643  -0.593  -0.078  0.00  0.00    -0.080 SA
ATOM      6  C   UNL d   1      -1.309  -1.159   0.107  0.00  0.00     0.162 C 
ATOM      7  C   UNL d   1      -0.652   1.751  -0.071  0.00  0.00     0.050 C 
ATOM      8  C   UNL d   1      -2.056   1.222   0.336  0.00  0.00    -0.037 C 
ATOM      9  C   UNL d   1      -2.321  -0.133  -0.345  0.00  0.00     0.093 C 
ATOM     10  O   UNL d   1      -1.679  -2.257   0.516  0.00  0.00    -0.292 OA
ATOM     11  C   UNL d   1      -3.137   2.220  -0.118  0.00  0.00     0.015 C 
ATOM     12  C   UNL d   1      -2.161   1.074   1.870  0.00  0.00     0.015 C 
ENDROOT
BRANCH   4  13
ATOM     13  C   UNL d   1       2.559   2.154  -0.284  0.00  0.00     0.053 A 
ATOM     14  N   UNL d   1       2.046   3.199   0.396  0.00  0.00    -0.336 N 
ATOM     15  C   UNL d   1       2.728   4.354   0.326  0.00  0.00     0.141 A 
ATOM     16  HN  UNL d   1       1.185   3.116   0.936  1.00  0.00     0.168 HD
ATOM     17  N   UNL d   1       3.856   4.547  -0.369  0.00  0.00    -0.347 N 
ATOM     18  C   UNL d   1       4.329   3.487  -1.040  0.00  0.00     0.092 A 
ATOM     19  HN  UNL d   1       4.329   5.450  -0.387  1.00  0.00     0.167 HD
ATOM     20  C   UNL d   1       3.719   2.256  -1.033  0.00  0.00     0.048 A 
BRANCH  15  21
ATOM     21  S   UNL d   1       2.078   5.724   1.229  0.00  0.00    -0.107 SA
ATOM     22  H   UNL d   1       1.101   5.006   1.795  0.00  0.00     0.110 HD
ENDBRANCH  15  21
ENDBRANCH   4  13
BRANCH   3  23
ATOM     23  S   UNL d   1       1.427  -3.281   0.251  0.00  0.00    -0.126 SA
ATOM     24  C   UNL d   1       0.182  -4.031  -0.815  0.00  0.00     0.096 C 
ENDBRANCH   3  23
TORSDOF 3
