REMARK  8 active torsions:
REMARK  status: ('A' for Active; 'I' for Inactive)
REMARK    1  A    between atoms: S_8  and  C_2 
REMARK    2  A    between atoms: S_9  and  C_3 
REMARK    3  A    between atoms: C_14  and  S_8 
REMARK    4  A    between atoms: C_15  and  S_9 
REMARK    5  A    between atoms: C_10  and  C_14 
REMARK    6  A    between atoms: C_12  and  C_10 
REMARK    7  A    between atoms: C_11  and  C_15 
REMARK    8  A    between atoms: C_13  and  C_11 
ROOT
ATOM      1  N   UNL d   1       0.873   0.000   0.021  0.00  0.00    -0.310 N 
ATOM      2  C   UNL d   1       0.021   1.046  -0.232  0.00  0.00     0.163 A 
ATOM      3  C   UNL d   1       0.055  -1.089   0.194  0.00  0.00     0.163 A 
ATOM      4  N   UNL d   1      -1.202  -0.727   0.073  0.00  0.00    -0.278 N 
ATOM      5  HN  UNL d   1      -2.016  -1.336   0.160  1.00  0.00     0.189 HD
ATOM      6  N   UNL d   1      -1.223   0.624  -0.194  0.00  0.00    -0.278 N 
ATOM      7  HN  UNL d   1      -2.056   1.195  -0.336  1.00  0.00     0.189 HD
ATOM      8  C   UNL d   1       2.312   0.010   0.084  0.00  0.00     0.160 C 
ENDROOT
BRANCH   2   9
ATOM      9  S   UNL d   1       0.527   2.668  -0.573  0.00  0.00    -0.085 SA
BRANCH   9  10
ATOM     10  C   UNL d   1      -1.085   3.507  -0.679  0.00  0.00     0.166 C 
BRANCH  10  11
ATOM     11  C   UNL d   1      -0.970   4.983  -1.047  0.00  0.00     0.169 C 
ATOM     12  O   UNL d   1       0.089   5.546  -1.312  0.00  0.00    -0.291 OA
BRANCH  11  13
ATOM     13  C   UNL d   1      -2.238   5.793  -1.080  0.00  0.00     0.011 A 
ATOM     14  C   UNL d   1      -3.499   5.214  -0.880  0.00  0.00     0.017 A 
ATOM     15  C   UNL d   1      -4.652   6.009  -0.887  0.00  0.00     0.025 A 
ATOM     16  C   UNL d   1      -4.553   7.382  -1.097  0.00  0.00     0.034 A 
ATOM     17  C   UNL d   1      -3.310   7.969  -1.317  0.00  0.00     0.025 A 
ATOM     18 CL   UNL d   1      -5.973   8.353  -1.077  0.00  0.00    -0.084 Cl
ATOM     19  C   UNL d   1      -2.156   7.177  -1.311  0.00  0.00     0.017 A 
ENDBRANCH  11  13
ENDBRANCH  10  11
ENDBRANCH   9  10
ENDBRANCH   2   9
BRANCH   3  20
ATOM     20  S   UNL d   1       0.631  -2.691   0.519  0.00  0.00    -0.085 SA
BRANCH  20  21
ATOM     21  C   UNL d   1      -0.934  -3.615   0.543  0.00  0.00     0.166 C 
BRANCH  21  22
ATOM     22  C   UNL d   1      -0.750  -5.091   0.884  0.00  0.00     0.169 C 
ATOM     23  O   UNL d   1       0.328  -5.601   1.177  0.00  0.00    -0.291 OA
BRANCH  22  24
ATOM     24  C   UNL d   1      -1.970  -5.970   0.853  0.00  0.00     0.011 A 
ATOM     25  C   UNL d   1      -3.255  -5.453   0.634  0.00  0.00     0.017 A 
ATOM     26  C   UNL d   1      -4.364  -6.308   0.584  0.00  0.00     0.025 A 
ATOM     27  C   UNL d   1      -4.195  -7.680   0.754  0.00  0.00     0.034 A 
ATOM     28  C   UNL d   1      -2.928  -8.206   0.989  0.00  0.00     0.025 A 
ATOM     29 CL   UNL d   1      -5.559  -8.724   0.664  0.00  0.00    -0.084 Cl
ATOM     30  C   UNL d   1      -1.818  -7.353   1.041  0.00  0.00     0.017 A 
ENDBRANCH  22  24
ENDBRANCH  21  22
ENDBRANCH  20  21
ENDBRANCH   3  20
TORSDOF 8
