REMARK  4 active torsions:
REMARK  status: ('A' for Active; 'I' for Inactive)
REMARK    1  A    between atoms: O_10  and  C_1 
REMARK    2  A    between atoms: C_7  and  N_3 
REMARK    3  A    between atoms: C_17  and  O_10 
REMARK    4  A    between atoms: O_25  and  C_20 
ROOT
ATOM      1  C   UNL d   1      -0.720   1.265  -0.095  0.00  0.00     0.168 C 
ATOM      2  C   UNL d   1      -1.416  -0.035  -0.398  0.00  0.00     0.302 C 
ATOM      3  N   UNL d   1      -0.698  -1.204  -0.092  0.00  0.00    -0.219 N 
ATOM      4  N   UNL d   1       0.673  -1.207   0.078  0.00  0.00    -0.300 N 
ATOM      5  HN  UNL d   1       1.194  -2.079   0.177  1.00  0.00     0.186 HD
ATOM      6  C   UNL d   1       0.606   1.242   0.056  0.00  0.00     0.090 C 
ATOM      7  C   UNL d   1       1.268  -0.062   0.105  0.00  0.00     0.134 C 
ATOM      8  O   UNL d   1      -2.540  -0.017  -0.897  0.00  0.00    -0.263 OA
ATOM      9 CL   UNL d   1       1.585   2.635   0.264  0.00  0.00    -0.080 Cl
ENDROOT
BRANCH   1  10
ATOM     10  O   UNL d   1      -1.402   2.483  -0.087  0.00  0.00    -0.303 OA
BRANCH  10  11
ATOM     11  C   UNL d   1      -2.695   2.564   0.376  0.00  0.00     0.076 A 
ATOM     12  C   UNL d   1      -3.225   1.762   1.388  0.00  0.00     0.040 A 
ATOM     13  C   UNL d   1      -4.577   1.870   1.736  0.00  0.00     0.039 A 
ATOM     14  C   UNL d   1      -5.389   2.821   1.116  0.00  0.00     0.068 A 
ATOM     15  C   UNL d   1      -4.832   3.677   0.163  0.00  0.00     0.039 A 
ATOM     16  C   UNL d   1      -3.490   3.551  -0.206  0.00  0.00     0.040 A 
BRANCH  14  17
ATOM     17  O   UNL d   1      -6.722   3.015   1.352  0.00  0.00    -0.356 OA
ATOM     18  C   UNL d   1      -7.355   2.100   2.238  0.00  0.00     0.210 C 
ENDBRANCH  14  17
ENDBRANCH  10  11
ENDBRANCH   1  10
BRANCH   3  19
ATOM     19  C   UNL d   1      -1.302  -2.508  -0.038  0.00  0.00     0.062 A 
ATOM     20  C   UNL d   1      -2.692  -2.684   0.089  0.00  0.00     0.058 A 
ATOM     21  C   UNL d   1      -3.253  -3.962   0.168  0.00  0.00     0.074 A 
ATOM     22 CL   UNL d   1      -4.960  -4.128   0.341  0.00  0.00    -0.081 Cl
ATOM     23  C   UNL d   1      -2.437  -5.087   0.124  0.00  0.00     0.138 A 
ATOM     24  C   UNL d   1      -1.061  -4.945   0.011  0.00  0.00     0.046 A 
ATOM     25  F   UNL d   1      -2.956  -6.320   0.202  0.00  0.00    -0.204 F 
ATOM     26  C   UNL d   1      -0.499  -3.667  -0.060  0.00  0.00     0.035 A 
ENDBRANCH   3  19
TORSDOF 4
