REMARK  6 active torsions:
REMARK  status: ('A' for Active; 'I' for Inactive)
REMARK    1  A    between atoms: C_3  and  S_1 
REMARK    2  A    between atoms: N_5  and  S_1 
REMARK       I    between atoms: C_2  and  N_4 
REMARK    3  A    between atoms: O_7  and  C_2 
REMARK    4  A    between atoms: C_17  and  N_5 
REMARK    5  A    between atoms: C_15  and  O_7 
REMARK    6  A    between atoms: C_20  and  C_17 
ROOT
ATOM      1  C   UNL d   1      -0.176   7.114   3.315  0.00  0.00     0.363 C 
ATOM      2  N   UNL d   1       0.446   5.970   2.823  0.00  0.00    -0.328 N 
ATOM      3  O   UNL d   1      -0.130   8.209   2.769  0.00  0.00    -0.238 OA
ATOM      4  C   UNL d   1       0.185   4.650   3.365  0.00  0.00     0.128 C 
ATOM      5  C   UNL d   1       1.190   5.983   1.572  0.00  0.00     0.128 C 
ATOM      6  C   UNL d   1       0.540   5.085   0.503  0.00  0.00     0.026 C 
ATOM      7  C   UNL d   1      -0.683   3.887   2.373  0.00  0.00     0.026 C 
ATOM      8  C   UNL d   1       0.020   3.714   1.009  0.00  0.00     0.007 C 
ENDROOT
BRANCH   8   9
ATOM      9  C   UNL d   1       1.110   2.614   1.020  0.00  0.00     0.137 C 
BRANCH   9  10
ATOM     10  N   UNL d   1       0.491   1.321   1.378  0.00  0.00    -0.315 N 
ATOM     11  H   UNL d   1      -0.096   1.300   2.208  0.00  0.00     0.172 HD
BRANCH  10  12
ATOM     12  S   UNL d   1       1.414  -0.087   1.335  0.00  0.00     0.265 S 
ATOM     13  O   UNL d   1       0.552  -1.167   1.756  0.00  0.00    -0.200 OA
ATOM     14  O   UNL d   1       2.145  -0.119   0.085  0.00  0.00    -0.200 OA
BRANCH  12  15
ATOM     15  C   UNL d   1       2.667   0.023   2.594  0.00  0.00     0.119 A 
ATOM     16  S   UNL d   1       2.134   0.415   4.173  0.00  0.00    -0.088 SA
ATOM     17  C   UNL d   1       3.725   0.315   4.803  0.00  0.00     0.051 A 
ATOM     18  C   UNL d   1       4.647   0.005   3.828  0.00  0.00     0.009 A 
ATOM     19  C   UNL d   1       4.036  -0.165   2.553  0.00  0.00     0.033 A 
ENDBRANCH  12  15
ENDBRANCH  10  12
ENDBRANCH   9  10
ENDBRANCH   8   9
BRANCH   1  20
ATOM     20  O   UNL d   1      -0.843   6.864   4.472  0.00  0.00    -0.294 OA
BRANCH  20  21
ATOM     21  C   UNL d   1      -1.646   7.860   5.160  0.00  0.00     0.061 C 
ATOM     22  C   UNL d   1      -2.803   8.341   4.279  0.00  0.00     0.046 C 
ATOM     23  C   UNL d   1      -2.222   7.114   6.378  0.00  0.00     0.046 C 
ATOM     24  C   UNL d   1      -0.795   9.029   5.663  0.00  0.00     0.046 C 
ENDBRANCH  20  21
ENDBRANCH   1  20
TORSDOF 6
