REMARK  4 active torsions:
REMARK  status: ('A' for Active; 'I' for Inactive)
REMARK    1  A    between atoms: S_8  and  C_1 
REMARK       I    between atoms: N_2  and  C_6 
REMARK    2  A    between atoms: C_16  and  N_3 
REMARK    3  A    between atoms: C_6  and  C_14 
REMARK    4  A    between atoms: C_14  and  S_8 
ROOT
ATOM      1  N   UNL d   1       0.021  -5.853  -0.011  0.00  0.00    -0.348 N 
ATOM      2  N   UNL d   1      -2.755  -6.167   0.565  0.00  0.00    -0.378 N 
ATOM      3  C   UNL d   1       1.221  -5.181   0.173  0.00  0.00     0.229 C 
ATOM      4  C   UNL d   1      -0.985  -5.325  -0.949  0.00  0.00     0.145 C 
ATOM      5  C   UNL d   1      -0.449  -7.002   0.775  0.00  0.00     0.145 C 
ATOM      6  C   UNL d   1      -1.756  -6.665   1.524  0.00  0.00     0.143 C 
ATOM      7  C   UNL d   1      -2.318  -5.006  -0.238  0.00  0.00     0.143 C 
ATOM      8  O   UNL d   1       1.453  -4.138  -0.447  0.00  0.00    -0.273 OA
ENDROOT
BRANCH   3   9
ATOM      9  C   UNL d   1       2.216  -5.790   1.163  0.00  0.00     0.184 C 
BRANCH   9  10
ATOM     10  S   UNL d   1       3.793  -4.893   1.161  0.00  0.00    -0.096 SA
BRANCH  10  11
ATOM     11  C   UNL d   1       4.651  -5.671   2.469  0.00  0.00     0.112 A 
ATOM     12  N   UNL d   1       4.215  -6.759   3.063  0.00  0.00    -0.354 N 
ATOM     13  C   UNL d   1       5.115  -7.134   4.048  0.00  0.00     0.096 A 
ATOM     14  HN  UNL d   1       3.350  -7.250   2.835  1.00  0.00     0.166 HD
ATOM     15  C   UNL d   1       6.215  -6.316   4.196  0.00  0.00     0.069 A 
ATOM     16  S   UNL d   1       6.139  -5.043   3.055  0.00  0.00    -0.076 SA
ENDBRANCH  10  11
ENDBRANCH   9  10
ENDBRANCH   3   9
BRANCH   2  17
ATOM     17  C   UNL d   1      -4.053  -6.637   0.549  0.00  0.00     0.030 A 
ATOM     18  C   UNL d   1      -4.663  -7.182   1.691  0.00  0.00     0.029 A 
ATOM     19  C   UNL d   1      -5.956  -7.718   1.660  0.00  0.00     0.002 A 
ATOM     20  C   UNL d   1      -6.681  -7.718   0.476  0.00  0.00     0.000 A 
ATOM     21  C   UNL d   1      -6.113  -7.174  -0.670  0.00  0.00     0.002 A 
ATOM     22  C   UNL d   1      -4.819  -6.641  -0.628  0.00  0.00     0.029 A 
ENDBRANCH   2  17
TORSDOF 4
