REMARK  5 active torsions:
REMARK  status: ('A' for Active; 'I' for Inactive)
REMARK    1  A    between atoms: N_11  and  C_2 
REMARK    2  A    between atoms: C_14  and  C_3 
REMARK    3  A    between atoms: C_15  and  N_11 
REMARK    4  A    between atoms: C_16  and  N_12 
REMARK    5  A    between atoms: C_21  and  C_16 
ROOT
ATOM      1  C   UNL d   1      -0.331   2.787  -0.958  0.00  0.00     0.053 A 
ATOM      2  C   UNL d   1       1.065   2.717  -1.262  0.00  0.00     0.116 A 
ATOM      3  C   UNL d   1      -1.149   2.611   0.249  0.00  0.00    -0.003 A 
ATOM      4  C   UNL d   1      -2.498   2.798  -0.021  0.00  0.00     0.065 A 
ATOM      5  C   UNL d   1      -1.150   3.107  -2.033  0.00  0.00     0.089 A 
ATOM      6  S   UNL d   1      -2.808   3.142  -1.655  0.00  0.00    -0.082 SA
ATOM      7  N   UNL d   1       1.457   3.055  -2.515  0.00  0.00    -0.338 N 
ATOM      8  HN  UNL d   1       2.449   3.090  -2.747  1.00  0.00     0.168 HD
ATOM      9  N   UNL d   1      -0.776   3.378  -3.295  0.00  0.00    -0.346 N 
ATOM     10  HN  UNL d   1      -1.429   3.586  -4.050  1.00  0.00     0.167 HD
ATOM     11  C   UNL d   1       0.541   3.343  -3.445  0.00  0.00     0.182 A 
ENDROOT
BRANCH   2  12
ATOM     12  N   UNL d   1       2.054   2.252  -0.394  0.00  0.00    -0.371 N 
ATOM     13  H   UNL d   1       1.685   1.880   0.471  0.00  0.00     0.161 HD
BRANCH  12  14
ATOM     14  C   UNL d   1       3.296   3.043  -0.273  0.00  0.00     0.086 C 
ATOM     15  C   UNL d   1       4.335   2.671  -1.328  0.00  0.00     0.055 C 
ATOM     16  C   UNL d   1       4.848   1.248  -1.132  0.00  0.00     0.275 C 
ATOM     17  N   UNL d   1       5.405   0.990   0.213  0.00  0.00     0.092 N 
ATOM     18  C   UNL d   1       4.472   1.396   1.275  0.00  0.00     0.275 C 
ATOM     19  C   UNL d   1       3.951   2.823   1.097  0.00  0.00     0.055 C 
BRANCH  17  20
ATOM     20  C   UNL d   1       5.710  -0.458   0.304  0.00  0.00     0.311 C 
BRANCH  20  21
ATOM     21  C   UNL d   1       6.364  -0.901   1.596  0.00  0.00    -0.030 A 
ATOM     22  C   UNL d   1       5.707  -1.809   2.443  0.00  0.00     0.009 A 
ATOM     23  C   UNL d   1       6.319  -2.249   3.620  0.00  0.00     0.001 A 
ATOM     24  C   UNL d   1       7.587  -1.791   3.957  0.00  0.00     0.000 A 
ATOM     25  C   UNL d   1       8.251  -0.892   3.123  0.00  0.00     0.001 A 
ATOM     26  C   UNL d   1       7.640  -0.450   1.946  0.00  0.00     0.009 A 
ENDBRANCH  20  21
ENDBRANCH  17  20
ENDBRANCH  12  14
ENDBRANCH   2  12
BRANCH   3  27
ATOM     27  C   UNL d   1      -0.734   2.328   1.624  0.00  0.00    -0.024 A 
ATOM     28  C   UNL d   1       0.396   2.944   2.172  0.00  0.00     0.012 A 
ATOM     29  C   UNL d   1       0.866   2.588   3.435  0.00  0.00     0.001 A 
ATOM     30  C   UNL d   1       0.162   1.672   4.210  0.00  0.00     0.000 A 
ATOM     31  C   UNL d   1      -1.021   1.125   3.721  0.00  0.00     0.001 A 
ATOM     32  C   UNL d   1      -1.460   1.438   2.435  0.00  0.00     0.012 A 
ENDBRANCH   3  27
TORSDOF 5
