REMARK  3 active torsions:
REMARK  status: ('A' for Active; 'I' for Inactive)
REMARK    1  A    between atoms: C_2  and  C_1 
REMARK       I    between atoms: N_5  and  C_2 
REMARK    2  A    between atoms: N_8  and  N_5 
REMARK    3  A    between atoms: C_9  and  N_8 
ROOT
ATOM      1  C   UNL d   1       0.873   1.399  -0.984  0.00  0.00     0.291 C 
ATOM      2  N   UNL d   1       0.713   2.771  -1.114  0.00  0.00    -0.281 N 
ATOM      3  O   UNL d   1       1.074   0.868   0.108  0.00  0.00    -0.264 OA
ATOM      4  H   UNL d   1       0.350   3.181  -1.971  0.00  0.00     0.184 HD
ENDROOT
BRANCH   2   5
ATOM      5  N   UNL d   1       0.596   3.550   0.054  0.00  0.00    -0.203 NA
ATOM      6  H   UNL d   1       0.937   3.016   0.868  0.00  0.00     0.153 HD
BRANCH   5   7
ATOM      7  C   UNL d   1       1.298   4.786  -0.010  0.00  0.00     0.033 A 
ATOM      8  C   UNL d   1       0.924   5.839   0.849  0.00  0.00    -0.038 A 
ATOM      9  C   UNL d   1       1.628   7.058   0.804  0.00  0.00     0.032 A 
ATOM     10  C   UNL d   1      -0.249   5.747   1.789  0.00  0.00     0.050 C 
ATOM     11  C   UNL d   1       2.714   7.217  -0.053  0.00  0.00     0.034 A 
ATOM     12  C   UNL d   1       3.122   6.169  -0.867  0.00  0.00     0.026 A 
ATOM     13 CL   UNL d   1       3.557   8.716  -0.099  0.00  0.00    -0.084 Cl
ATOM     14  C   UNL d   1       2.425   4.958  -0.837  0.00  0.00     0.027 A 
ENDBRANCH   5   7
ENDBRANCH   2   5
BRANCH   1  15
ATOM     15  C   UNL d   1       0.789   0.670  -2.225  0.00  0.00     0.168 A 
ATOM     16  O   UNL d   1       0.672   1.360  -3.397  0.00  0.00    -0.233 OA
ATOM     17  N   UNL d   1       0.633   0.471  -4.458  0.00  0.00    -0.272 N 
ATOM     18  C   UNL d   1       0.722  -0.742  -3.907  0.00  0.00     0.117 A 
ATOM     19  HN  UNL d   1       0.553   0.695  -5.450  1.00  0.00     0.194 HD
ATOM     20  C   UNL d   1       0.819  -0.677  -2.507  0.00  0.00     0.064 A 
ENDBRANCH   1  15
TORSDOF 3
