REMARK  2 active torsions:
REMARK  status: ('A' for Active; 'I' for Inactive)
REMARK    1  A    between atoms: C_2  and  S_1 
REMARK    2  A    between atoms: C_5  and  S_1 
ROOT
ATOM      1  N   UNL d   1       3.190   0.361  -2.817  0.00  0.00    -0.196 NA
ATOM      2  C   UNL d   1       1.381  -0.919  -1.434  0.00  0.00     0.269 C 
ATOM      3  C   UNL d   1       2.397  -0.201  -2.183  0.00  0.00     0.074 C 
ENDROOT
BRANCH   2   4
ATOM      4  S   UNL d   1       0.984   0.048  -0.008  0.00  0.00     0.189 S 
ATOM      5  O   UNL d   1      -0.184  -0.538   0.626  0.00  0.00    -0.222 OA
ATOM      6  O   UNL d   1       2.201   0.195   0.771  0.00  0.00    -0.222 OA
BRANCH   4   7
ATOM      7  C   UNL d   1       0.503   1.675  -0.548  0.00  0.00     0.082 A 
ATOM      8  C   UNL d   1      -0.637   1.893  -1.329  0.00  0.00     0.057 A 
ATOM      9  C   UNL d   1      -1.007   3.202  -1.663  0.00  0.00     0.049 A 
ATOM     10 CL   UNL d   1      -1.651   0.634  -1.930  0.00  0.00    -0.083 Cl
ATOM     11  C   UNL d   1      -0.252   4.282  -1.210  0.00  0.00     0.035 A 
ATOM     12  C   UNL d   1       0.880   4.071  -0.429  0.00  0.00     0.025 A 
ATOM     13 CL   UNL d   1      -0.727   5.885  -1.612  0.00  0.00    -0.084 Cl
ATOM     14  C   UNL d   1       1.258   2.769  -0.095  0.00  0.00     0.027 A 
ENDBRANCH   4   7
ENDBRANCH   2   4
TORSDOF 2
