REMARK  1 active torsions:
REMARK  status: ('A' for Active; 'I' for Inactive)
REMARK       I    between atoms: C_6  and  N_2 
REMARK    1  A    between atoms: C_10  and  C_5 
ROOT
ATOM      1  C   UNL d   1      -0.674   0.048   0.095  0.00  0.00     0.184 A 
ATOM      2  N   UNL d   1      -0.199   1.383   0.061  0.00  0.00    -0.276 N 
ATOM      3  N   UNL d   1       0.395  -0.798   0.098  0.00  0.00    -0.301 N 
ATOM      4  C   UNL d   1       1.567  -0.119   0.075  0.00  0.00     0.252 A 
ATOM      5  C   UNL d   1       1.262   1.368  -0.062  0.00  0.00     0.220 A 
ATOM      6  C   UNL d   1      -0.961   2.543   0.193  0.00  0.00     0.223 C 
ATOM      7  S   UNL d   1      -2.217  -0.560   0.132  0.00  0.00    -0.040 SA
ATOM      8  O   UNL d   1       2.675  -0.635   0.133  0.00  0.00    -0.270 OA
ATOM      9  O   UNL d   1      -2.186   2.548   0.318  0.00  0.00    -0.273 OA
ATOM     10  C   UNL d   1      -0.253   3.880   0.163  0.00  0.00     0.117 C 
ATOM     11  H   UNL d   1       0.327  -1.802   0.156  0.00  0.00     0.171 HD
ENDROOT
BRANCH   5  12
ATOM     12  C   UNL d   1       1.782   1.908  -1.382  0.00  0.00    -0.026 A 
ATOM     13  C   UNL d   1       3.044   2.523  -1.425  0.00  0.00     0.010 A 
ATOM     14  C   UNL d   1       3.555   3.012  -2.628  0.00  0.00     0.001 A 
ATOM     15  C   UNL d   1       2.818   2.885  -3.803  0.00  0.00     0.000 A 
ATOM     16  C   UNL d   1       1.571   2.266  -3.779  0.00  0.00     0.001 A 
ATOM     17  C   UNL d   1       1.057   1.776  -2.578  0.00  0.00     0.010 A 
ENDBRANCH   5  12
TORSDOF 1
