REMARK  6 active torsions:
REMARK  status: ('A' for Active; 'I' for Inactive)
REMARK    1  A    between atoms: C_4  and  C_1 
REMARK    2  A    between atoms: N_5  and  C_1 
REMARK    3  A    between atoms: O_9  and  N_2 
REMARK    4  A    between atoms: O_6  and  C_4 
REMARK    5  A    between atoms: C_7  and  O_6 
REMARK    6  A    between atoms: O_14  and  C_8 
ROOT
ATOM      1  C   UNL d   1      -1.012   1.556   0.328  0.00  0.00     0.247 C 
ENDROOT
BRANCH   1   2
ATOM      2  C   UNL d   1       0.346   1.371   1.008  0.00  0.00     0.099 C 
ATOM      3  N   UNL d   1       0.812   2.366   1.704  0.00  0.00    -0.260 N 
ATOM      4  HN  UNL d   1       0.331   3.256   1.834  1.00  0.00     0.195 HD
BRANCH   3   5
ATOM      5  O   UNL d   1       2.066   2.051   2.252  0.00  0.00    -0.289 OA
ATOM      6  H   UNL d   1       2.264   2.847   2.779  0.00  0.00     0.244 HD
ENDBRANCH   3   5
BRANCH   2   7
ATOM      7  N   UNL d   1       0.995   0.167   0.864  0.00  0.00    -0.289 NA
ATOM      8  H   UNL d   1       1.977   0.249   1.111  0.00  0.00     0.125 HD
ATOM      9  H   UNL d   1       0.824  -0.297  -0.023  0.00  0.00     0.125 HD
ENDBRANCH   2   7
ENDBRANCH   1   2
BRANCH   1  10
ATOM     10  O   UNL d   1      -1.032   0.880  -0.929  0.00  0.00    -0.344 OA
BRANCH  10  11
ATOM     11  C   UNL d   1      -2.033   1.275  -1.778  0.00  0.00     0.069 A 
ATOM     12  C   UNL d   1      -1.821   1.007  -3.132  0.00  0.00     0.039 A 
ATOM     13  C   UNL d   1      -2.748   1.421  -4.097  0.00  0.00     0.039 A 
ATOM     14  C   UNL d   1      -3.902   2.101  -3.709  0.00  0.00     0.068 A 
ATOM     15  C   UNL d   1      -4.134   2.325  -2.352  0.00  0.00     0.039 A 
ATOM     16  C   UNL d   1      -3.212   1.909  -1.388  0.00  0.00     0.039 A 
BRANCH  14  17
ATOM     17  O   UNL d   1      -4.871   2.594  -4.538  0.00  0.00    -0.356 OA
ATOM     18  C   UNL d   1      -4.668   2.435  -5.935  0.00  0.00     0.210 C 
ENDBRANCH  14  17
ENDBRANCH  10  11
ENDBRANCH   1  10
TORSDOF 6
