REMARK  6 active torsions:
REMARK  status: ('A' for Active; 'I' for Inactive)
REMARK    1  A    between atoms: N_2  and  S_1 
REMARK    2  A    between atoms: C_3  and  N_2 
REMARK    3  A    between atoms: C_6  and  N_2 
REMARK    4  A    between atoms: C_7  and  C_4 
REMARK    5  A    between atoms: C_5  and  C_6 
REMARK    6  A    between atoms: O_18  and  C_7 
ROOT
ATOM      1  N   UNL d   1       0.455  -1.482  -0.982  0.00  0.00    -0.271 N 
ENDROOT
BRANCH   1   2
ATOM      2  S   UNL d   1       1.026  -0.029  -0.345  0.00  0.00     0.229 S 
ATOM      3  O   UNL d   1       0.370   1.048  -1.053  0.00  0.00    -0.206 OA
ATOM      4  O   UNL d   1       2.469  -0.117  -0.289  0.00  0.00    -0.206 OA
ATOM      5  C   UNL d   1       0.447   0.017   1.347  0.00  0.00     0.186 C 
ENDBRANCH   1   2
BRANCH   1   6
ATOM      6  C   UNL d   1      -0.093  -2.479  -0.117  0.00  0.00     0.063 A 
ATOM      7  C   UNL d   1      -1.467  -2.541   0.192  0.00  0.00     0.067 A 
ATOM      8  C   UNL d   1      -1.891  -3.365   1.252  0.00  0.00     0.022 A 
ATOM      9  C   UNL d   1      -0.973  -4.143   1.960  0.00  0.00     0.025 A 
ATOM     10  C   UNL d   1       0.371  -4.125   1.600  0.00  0.00     0.036 A 
ATOM     11  C   UNL d   1       0.815  -3.296   0.573  0.00  0.00     0.055 A 
ATOM     12 CL   UNL d   1       1.496  -5.100   2.460  0.00  0.00    -0.084 Cl
BRANCH   7  13
ATOM     13  C   UNL d   1      -2.488  -1.772  -0.580  0.00  0.00     0.295 C 
ATOM     14  O   UNL d   1      -2.381  -1.458  -1.750  0.00  0.00    -0.259 OA
BRANCH  13  15
ATOM     15  O   UNL d   1      -3.564  -1.530   0.212  0.00  0.00    -0.322 OA
ATOM     16  C   UNL d   1      -4.680  -0.935  -0.457  0.00  0.00     0.213 C 
ENDBRANCH  13  15
ENDBRANCH   7  13
ENDBRANCH   1   6
BRANCH   1  17
ATOM     17  C   UNL d   1       0.615  -1.724  -2.436  0.00  0.00     0.185 C 
BRANCH  17  18
ATOM     18  C   UNL d   1       1.890  -2.424  -2.852  0.00  0.00     0.021 A 
ATOM     19  C   UNL d   1       3.009  -1.658  -3.201  0.00  0.00     0.126 A 
ATOM     20  F   UNL d   1       2.927  -0.319  -3.197  0.00  0.00    -0.205 F 
ATOM     21  C   UNL d   1       4.215  -2.235  -3.600  0.00  0.00     0.043 A 
ATOM     22  C   UNL d   1       4.327  -3.619  -3.668  0.00  0.00     0.005 A 
ATOM     23  C   UNL d   1       3.224  -4.409  -3.346  0.00  0.00     0.024 A 
ATOM     24  C   UNL d   1       2.016  -3.819  -2.945  0.00  0.00     0.045 A 
ATOM     25 CL   UNL d   1       0.695  -4.886  -2.616  0.00  0.00    -0.084 Cl
ENDBRANCH  17  18
ENDBRANCH   1  17
TORSDOF 6
