REMARK  3 active torsions:
REMARK  status: ('A' for Active; 'I' for Inactive)
REMARK    1  A    between atoms: C_10  and  C_11 
REMARK       I    between atoms: C_11  and  N_13 
REMARK    2  A    between atoms: N_15  and  C_12 
REMARK    3  A    between atoms: N_13  and  N_15 
ROOT
ATOM      1  C   UNL d   1       0.089  -0.554  -0.045  0.00  0.00     0.136 A 
ATOM      2  C   UNL d   1       0.191   0.836  -0.021  0.00  0.00     0.039 A 
ATOM      3  N   UNL d   1       1.369  -1.027   0.022  0.00  0.00    -0.280 N 
ATOM      4  N   UNL d   1       2.306  -0.061   0.079  0.00  0.00    -0.301 N 
ATOM      5  HN  UNL d   1       3.318  -0.171   0.135  1.00  0.00     0.187 HD
ATOM      6  C   UNL d   1       1.599   1.079   0.044  0.00  0.00     0.036 A 
ATOM      7  N   UNL d   1      -1.032  -1.303  -0.131  0.00  0.00    -0.330 N 
ATOM      8  HN  UNL d   1      -1.015  -2.323  -0.133  1.00  0.00     0.168 HD
ATOM      9  C   UNL d   1      -1.013   1.569  -0.080  0.00  0.00    -0.043 A 
ATOM     10  C   UNL d   1      -2.171  -0.596  -0.215  0.00  0.00     0.100 A 
ATOM     11  C   UNL d   1      -2.190   0.803  -0.202  0.00  0.00     0.051 A 
ATOM     12  C   UNL d   1       1.790  -2.405   0.013  0.00  0.00     0.179 C 
ATOM     13  C   UNL d   1       2.364   2.351   0.051  0.00  0.00     0.070 C 
ATOM     14  C   UNL d   1      -1.174   3.060  -0.026  0.00  0.00     0.049 C 
ENDROOT
BRANCH  10  15
ATOM     15  N   UNL d   1      -3.365  -1.330  -0.412  0.00  0.00    -0.187 NA
ATOM     16  H   UNL d   1      -3.181  -2.316  -0.191  0.00  0.00     0.154 HD
BRANCH  15  17
ATOM     17  N   UNL d   1      -4.498  -0.809   0.234  0.00  0.00    -0.281 N 
ATOM     18  C   UNL d   1      -5.412  -1.692   0.775  0.00  0.00     0.267 C 
ATOM     19  O   UNL d   1      -5.194  -2.897   0.869  0.00  0.00    -0.266 OA
ATOM     20  H   UNL d   1      -4.818   0.093  -0.102  0.00  0.00     0.184 HD
BRANCH  18  21
ATOM     21  C   UNL d   1      -6.683  -1.100   1.312  0.00  0.00     0.054 A 
ATOM     22  C   UNL d   1      -7.200   0.172   1.008  0.00  0.00     0.049 A 
ATOM     23 CL   UNL d   1      -6.521   1.249  -0.165  0.00  0.00    -0.083 Cl
ATOM     24  C   UNL d   1      -8.359   0.636   1.650  0.00  0.00     0.025 A 
ATOM     25  C   UNL d   1      -9.023  -0.160   2.581  0.00  0.00     0.002 A 
ATOM     26  C   UNL d   1      -8.542  -1.433   2.865  0.00  0.00     0.001 A 
ATOM     27  C   UNL d   1      -7.385  -1.900   2.236  0.00  0.00     0.019 A 
ENDBRANCH  18  21
ENDBRANCH  15  17
ENDBRANCH  10  15
TORSDOF 3
