REMARK  2 active torsions:
REMARK  status: ('A' for Active; 'I' for Inactive)
REMARK       I    between atoms: N_2  and  C_1 
REMARK    1  A    between atoms: C_6  and  C_1 
REMARK    2  A    between atoms: C_3  and  N_2 
ROOT
ATOM      1  C   UNL d   1       0.939  -0.064   0.017  0.00  0.00     0.227 C 
ATOM      2  N   UNL d   1       0.133  -0.824   0.876  0.00  0.00    -0.350 N 
ATOM      3  O   UNL d   1       2.161  -0.019   0.234  0.00  0.00    -0.273 OA
ATOM      4  C   UNL d   1       0.878  -1.611   1.865  0.00  0.00     0.153 C 
ENDROOT
BRANCH   2   5
ATOM      5  C   UNL d   1      -1.290  -1.191   0.693  0.00  0.00     0.095 C 
ATOM      6  C   UNL d   1      -1.905  -2.302   1.625  0.00  0.00     0.031 C 
ATOM      7  C   UNL d   1      -2.061  -1.830   3.062  0.00  0.00    -0.024 C 
ATOM      8  C   UNL d   1      -3.381  -2.189   1.214  0.00  0.00     0.019 C 
ATOM      9  C   UNL d   1      -3.011  -0.883   3.082  0.00  0.00    -0.026 C 
ATOM     10  C   UNL d   1      -3.489  -0.731   1.663  0.00  0.00     0.010 C 
ATOM     11  C   UNL d   1      -2.343  -0.051   0.877  0.00  0.00     0.034 C 
ENDBRANCH   2   5
BRANCH   1  12
ATOM     12  C   UNL d   1       0.411   0.806  -1.166  0.00  0.00     0.030 C 
ATOM     13  C   UNL d   1      -0.177   2.124  -0.647  0.00  0.00     0.025 C 
ATOM     14  C   UNL d   1       1.650   1.202  -2.027  0.00  0.00     0.025 C 
ATOM     15  C   UNL d   1      -0.538   0.100  -2.137  0.00  0.00     0.025 C 
ENDBRANCH   1  12
TORSDOF 2
