REMARK  3 active torsions:
REMARK  status: ('A' for Active; 'I' for Inactive)
REMARK    1  A    between atoms: C_3  and  C_1 
REMARK       I    between atoms: C_5  and  N_6 
REMARK    2  A    between atoms: C_7  and  C_5 
REMARK    3  A    between atoms: N_6  and  C_9 
ROOT
ATOM      1  N   UNL d   1      -1.732   1.093   7.684  0.00  0.00    -0.197 NA
ATOM      2  C   UNL d   1      -1.278   0.202   7.098  0.00  0.00     0.068 C 
ATOM      3  C   UNL d   1      -0.660  -0.848   6.289  0.00  0.00     0.226 C 
ENDROOT
BRANCH   3   4
ATOM      4  C   UNL d   1      -0.028  -0.353   4.994  0.00  0.00     0.235 C 
ATOM      5  N   UNL d   1      -0.045   1.012   4.772  0.00  0.00    -0.326 N 
ATOM      6  H   UNL d   1      -0.396   1.614   5.511  0.00  0.00     0.169 HD
ATOM      7  O   UNL d   1       0.466  -1.182   4.229  0.00  0.00    -0.272 OA
BRANCH   5   8
ATOM      8  C   UNL d   1       0.397   1.716   3.631  0.00  0.00     0.035 A 
ATOM      9  C   UNL d   1       0.874   1.121   2.461  0.00  0.00     0.045 A 
ATOM     10  C   UNL d   1       1.286   1.911   1.370  0.00  0.00     0.050 A 
ATOM     11  C   UNL d   1       1.207   3.309   1.467  0.00  0.00     0.016 A 
ATOM     12  C   UNL d   1       0.728   3.908   2.628  0.00  0.00     0.003 A 
ATOM     13  C   UNL d   1       0.326   3.115   3.702  0.00  0.00     0.029 A 
BRANCH  10  14
ATOM     14  C   UNL d   1       1.819   1.289   0.102  0.00  0.00     0.417 C 
ATOM     15  F   UNL d   1       1.821  -0.072   0.108  0.00  0.00    -0.166 F 
ATOM     16  F   UNL d   1       3.104   1.664  -0.154  0.00  0.00    -0.166 F 
ATOM     17  F   UNL d   1       1.101   1.657  -0.997  0.00  0.00    -0.166 F 
ENDBRANCH  10  14
ENDBRANCH   5   8
ENDBRANCH   3   4
TORSDOF 3
