REMARK  6 active torsions:
REMARK  status: ('A' for Active; 'I' for Inactive)
REMARK    1  A    between atoms: O_11  and  C_1 
REMARK    2  A    between atoms: C_5  and  C_2 
REMARK    3  A    between atoms: C_7  and  C_3 
REMARK    4  A    between atoms: O_8  and  C_4 
REMARK    5  A    between atoms: C_12  and  O_8 
REMARK    6  A    between atoms: C_13  and  C_12 
ROOT
ATOM      1  C   UNL d   1      -1.232   1.276   0.014  0.00  0.00     0.089 A 
ATOM      2  C   UNL d   1       0.196   1.221   0.020  0.00  0.00     0.076 A 
ATOM      3  C   UNL d   1      -2.046   0.120  -0.033  0.00  0.00    -0.016 A 
ATOM      4  C   UNL d   1       0.834  -0.033   0.003  0.00  0.00     0.085 A 
ATOM      5  C   UNL d   1      -1.374  -1.097  -0.131  0.00  0.00     0.013 A 
ATOM      6  C   UNL d   1       0.015  -1.167  -0.135  0.00  0.00     0.038 A 
ENDROOT
BRANCH   4   7
ATOM      7  O   UNL d   1       2.210  -0.146   0.119  0.00  0.00    -0.346 OA
BRANCH   7   8
ATOM      8  C   UNL d   1       2.657  -1.506   0.290  0.00  0.00     0.214 C 
BRANCH   8   9
ATOM      9  C   UNL d   1       4.043  -1.771   0.823  0.00  0.00    -0.034 A 
ATOM     10  C   UNL d   1       4.907  -0.784   1.296  0.00  0.00     0.009 A 
ATOM     11  C   UNL d   1       6.121  -1.153   1.884  0.00  0.00     0.001 A 
ATOM     12  C   UNL d   1       6.479  -2.498   2.009  0.00  0.00     0.000 A 
ATOM     13  C   UNL d   1       5.631  -3.490   1.528  0.00  0.00     0.001 A 
ATOM     14  C   UNL d   1       4.425  -3.126   0.936  0.00  0.00     0.009 A 
ENDBRANCH   8   9
ENDBRANCH   7   8
ENDBRANCH   4   7
BRANCH   2  15
ATOM     15  C   UNL d   1       0.916   2.533  -0.035  0.00  0.00     0.161 C 
ATOM     16  O   UNL d   1       0.350   3.483  -0.581  0.00  0.00    -0.293 OA
ATOM     17  C   UNL d   1       2.264   2.728   0.592  0.00  0.00     0.097 C 
ENDBRANCH   2  15
BRANCH   1  18
ATOM     18  O   UNL d   1      -1.882   2.488   0.060  0.00  0.00    -0.359 OA
ATOM     19  H   UNL d   1      -1.258   3.188  -0.236  0.00  0.00     0.217 HD
ENDBRANCH   1  18
BRANCH   3  20
ATOM     20  C   UNL d   1      -3.588   0.157  -0.058  0.00  0.00    -0.021 C 
ATOM     21  C   UNL d   1      -4.061   0.883  -1.333  0.00  0.00     0.019 C 
ATOM     22  C   UNL d   1      -4.237  -1.255  -0.095  0.00  0.00     0.019 C 
ATOM     23  C   UNL d   1      -4.155   0.846   1.201  0.00  0.00     0.019 C 
ENDBRANCH   3  20
TORSDOF 6
