REMARK  3 active torsions:
REMARK  status: ('A' for Active; 'I' for Inactive)
REMARK    1  A    between atoms: C_2  and  C_1 
REMARK       I    between atoms: N_4  and  C_2 
REMARK    2  A    between atoms: C_17  and  N_4 
REMARK    3  A    between atoms: C_16  and  C_17 
ROOT
ATOM      1  C   UNL d   1       4.124  -0.463  -0.014  0.00  0.00     0.161 C 
ENDROOT
BRANCH   1   2
ATOM      2  C   UNL d   1       5.589  -0.802   0.049  0.00  0.00    -0.038 A 
ATOM      3  C   UNL d   1       6.332  -0.980  -1.131  0.00  0.00     0.048 A 
ATOM      4  C   UNL d   1       7.664  -1.326  -1.017  0.00  0.00     0.105 A 
ATOM      5  O   UNL d   1       8.519  -1.546  -2.051  0.00  0.00    -0.323 OA
ATOM      6  C   UNL d   1       8.268  -1.492   0.206  0.00  0.00     0.105 A 
ATOM      7  C   UNL d   1       9.740  -1.833  -1.337  0.00  0.00     0.352 A 
ATOM      8  O   UNL d   1       9.578  -1.838   0.096  0.00  0.00    -0.323 OA
ATOM      9  C   UNL d   1       7.577  -1.319   1.385  0.00  0.00     0.040 A 
ATOM     10  C   UNL d   1       6.227  -0.963   1.302  0.00  0.00     0.012 A 
ENDBRANCH   1   2
BRANCH   1  11
ATOM     11  N   UNL d   1       3.876   0.959   0.011  0.00  0.00    -0.353 N 
ATOM     12  C   UNL d   1       2.572   1.412   0.018  0.00  0.00     0.252 C 
ATOM     13  O   UNL d   1       1.620   0.638   0.021  0.00  0.00    -0.268 OA
ATOM     14  H   UNL d   1       4.654   1.599  -0.033  0.00  0.00     0.163 HD
BRANCH  12  15
ATOM     15  C   UNL d   1       2.381   2.866   0.018  0.00  0.00     0.038 A 
ATOM     16  C   UNL d   1       1.105   3.413   0.028  0.00  0.00     0.066 A 
ATOM     17  S   UNL d   1       1.094   5.120   0.031  0.00  0.00    -0.113 SA
ATOM     18  C   UNL d   1       2.799   5.178   0.019  0.00  0.00     0.050 A 
ATOM     19  C   UNL d   1       3.361   3.919   0.013  0.00  0.00     0.024 A 
ENDBRANCH  12  15
ENDBRANCH   1  11
TORSDOF 3
