REMARK  4 active torsions:
REMARK  status: ('A' for Active; 'I' for Inactive)
REMARK    1  A    between atoms: C_2  and  N_1 
REMARK    2  A    between atoms: S_5  and  C_3 
REMARK    3  A    between atoms: C_4  and  C_6 
REMARK    4  A    between atoms: C_6  and  S_5 
ROOT
ATOM      1  C   UNL d   1       1.014  -2.066   1.335  0.00  0.00     0.121 A 
ATOM      2  C   UNL d   1       0.647  -1.198   2.383  0.00  0.00     0.055 A 
ATOM      3  C   UNL d   1      -0.707  -1.236   2.773  0.00  0.00     0.053 A 
ATOM      4  C   UNL d   1       0.102  -2.926   0.696  0.00  0.00     0.037 A 
ATOM      5 CL   UNL d   1      -1.366  -0.201   3.996  0.00  0.00    -0.083 Cl
ATOM      6  C   UNL d   1      -1.224  -2.937   1.105  0.00  0.00     0.004 A 
ATOM      7  C   UNL d   1      -1.624  -2.101   2.145  0.00  0.00     0.025 A 
ENDROOT
BRANCH   2   8
ATOM      8  S   UNL d   1       1.802   0.030   3.025  0.00  0.00    -0.121 SA
BRANCH   8   9
ATOM      9  C   UNL d   1       2.055  -0.543   4.748  0.00  0.00     0.123 C 
BRANCH   9  10
ATOM     10  C   UNL d   1       3.122   0.271   5.440  0.00  0.00     0.012 A 
ATOM     11  C   UNL d   1       4.430  -0.225   5.499  0.00  0.00     0.125 A 
ATOM     12  F   UNL d   1       4.711  -1.425   4.972  0.00  0.00    -0.205 F 
ATOM     13  C   UNL d   1       5.467   0.487   6.103  0.00  0.00     0.043 A 
ATOM     14  C   UNL d   1       5.212   1.732   6.668  0.00  0.00     0.005 A 
ATOM     15  C   UNL d   1       3.920   2.252   6.625  0.00  0.00     0.024 A 
ATOM     16  C   UNL d   1       2.882   1.529   6.016  0.00  0.00     0.044 A 
ATOM     17 CL   UNL d   1       1.311   2.249   6.018  0.00  0.00    -0.084 Cl
ENDBRANCH   9  10
ENDBRANCH   8   9
ENDBRANCH   2   8
BRANCH   1  18
ATOM     18  N   UNL d   1       2.379  -2.117   0.851  0.00  0.00    -0.114 N 
ATOM     19  O   UNL d   1       3.226  -2.601   1.614  0.00  0.00    -0.532 OA
ATOM     20  O   UNL d   1       2.575  -1.750  -0.315  0.00  0.00    -0.532 OA
ENDBRANCH   1  18
TORSDOF 4
