REMARK  7 active torsions:
REMARK  status: ('A' for Active; 'I' for Inactive)
REMARK    1  A    between atoms: O_17  and  C_1 
REMARK    2  A    between atoms: C_3  and  C_8 
REMARK    3  A    between atoms: C_20  and  C_4 
REMARK    4  A    between atoms: O_21  and  C_7 
REMARK    5  A    between atoms: C_8  and  C_22 
REMARK    6  A    between atoms: S_15  and  C_20 
REMARK    7  A    between atoms: C_22  and  S_15 
ROOT
ATOM      1  S   UNL d   1      -2.025  -2.675   1.167  0.00  0.00    -0.157 SA
ENDROOT
BRANCH   1   2
ATOM      2  C   UNL d   1      -0.580  -2.514   0.073  0.00  0.00     0.114 C 
BRANCH   2   3
ATOM      3  C   UNL d   1       0.090  -1.160   0.143  0.00  0.00    -0.024 A 
ATOM      4  C   UNL d   1       0.180  -0.267  -0.948  0.00  0.00     0.077 A 
ATOM      5  C   UNL d   1       0.877   0.966  -0.833  0.00  0.00     0.123 A 
ATOM      6 CL   UNL d   1      -0.670  -0.663  -2.415  0.00  0.00    -0.081 Cl
ATOM      7  C   UNL d   1       1.429   1.327   0.409  0.00  0.00     0.103 A 
ATOM      8  C   UNL d   1       1.313   0.448   1.492  0.00  0.00     0.040 A 
ATOM      9  C   UNL d   1       0.670  -0.779   1.363  0.00  0.00     0.012 A 
BRANCH   5  10
ATOM     10  O   UNL d   1       0.908   1.887  -1.852  0.00  0.00    -0.351 OA
ATOM     11  C   UNL d   1       1.504   1.437  -3.070  0.00  0.00     0.210 C 
ENDBRANCH   5  10
BRANCH   7  12
ATOM     12  O   UNL d   1       2.087   2.473   0.770  0.00  0.00    -0.353 OA
ATOM     13  C   UNL d   1       2.431   3.427  -0.221  0.00  0.00     0.210 C 
ENDBRANCH   7  12
ENDBRANCH   2   3
ENDBRANCH   1   2
BRANCH   1  14
ATOM     14  C   UNL d   1      -3.228  -1.654   0.254  0.00  0.00     0.158 C 
BRANCH  14  15
ATOM     15  C   UNL d   1      -4.614  -1.804   0.869  0.00  0.00     0.168 C 
ATOM     16  O   UNL d   1      -5.077  -2.878   1.249  0.00  0.00    -0.292 OA
BRANCH  15  17
ATOM     17  C   UNL d   1      -5.480  -0.597   0.992  0.00  0.00     0.012 A 
ATOM     18  C   UNL d   1      -5.409   0.461   0.081  0.00  0.00     0.040 A 
ATOM     19  C   UNL d   1      -6.269   1.560   0.224  0.00  0.00     0.056 A 
ATOM     20 CL   UNL d   1      -6.139   2.829  -0.944  0.00  0.00    -0.083 Cl
ATOM     21  C   UNL d   1      -7.194   1.605   1.272  0.00  0.00     0.055 A 
ATOM     22  C   UNL d   1      -7.266   0.543   2.180  0.00  0.00     0.026 A 
ATOM     23 CL   UNL d   1      -8.281   2.926   1.501  0.00  0.00    -0.083 Cl
ATOM     24  C   UNL d   1      -6.413  -0.556   2.037  0.00  0.00     0.017 A 
ENDBRANCH  15  17
ENDBRANCH  14  15
ENDBRANCH   1  14
TORSDOF 7
