REMARK  5 active torsions:
REMARK  status: ('A' for Active; 'I' for Inactive)
REMARK    1  A    between atoms: C_6  and  S_1 
REMARK    2  A    between atoms: C_10  and  S_1 
REMARK    3  A    between atoms: C_4  and  C_6 
REMARK    4  A    between atoms: C_14  and  C_5 
REMARK    5  A    between atoms: C_7  and  C_11 
ROOT
ATOM      1  C   UNL d   1       0.504   1.562   0.609  0.00  0.00     0.210 C 
ENDROOT
BRANCH   1   2
ATOM      2  C   UNL d   1       0.999   1.912   1.964  0.00  0.00     0.065 A 
ATOM      3  N   UNL d   1       0.389   1.589   3.087  0.00  0.00    -0.352 N 
ATOM      4  C   UNL d   1       1.093   2.085   4.176  0.00  0.00     0.049 A 
ATOM      5  HN  UNL d   1      -0.476   1.052   3.147  1.00  0.00     0.166 HD
ATOM      6  C   UNL d   1       2.240   2.782   3.850  0.00  0.00     0.081 A 
ATOM      7  S   UNL d   1       2.423   2.859   2.151  0.00  0.00    -0.085 SA
BRANCH   4   8
ATOM      8  C   UNL d   1       0.663   1.830   5.547  0.00  0.00    -0.009 A 
ATOM      9  C   UNL d   1      -0.054   0.662   5.846  0.00  0.00     0.015 A 
ATOM     10  C   UNL d   1      -0.418   0.367   7.165  0.00  0.00     0.024 A 
ATOM     11  C   UNL d   1      -0.081   1.247   8.190  0.00  0.00     0.034 A 
ATOM     12  C   UNL d   1       0.600   2.428   7.907  0.00  0.00     0.024 A 
ATOM     13 CL   UNL d   1      -0.504   0.875   9.815  0.00  0.00    -0.084 Cl
ATOM     14  C   UNL d   1       0.969   2.720   6.590  0.00  0.00     0.015 A 
ENDBRANCH   4   8
ENDBRANCH   1   2
BRANCH   1  15
ATOM     15  S   UNL d   1       1.165  -0.015   0.125  0.00  0.00     0.181 S 
ATOM     16  O   UNL d   1       2.603  -0.031   0.315  0.00  0.00    -0.222 OA
ATOM     17  O   UNL d   1       0.618  -0.325  -1.188  0.00  0.00    -0.222 OA
BRANCH  15  18
ATOM     18  C   UNL d   1       0.455  -1.194   1.254  0.00  0.00     0.059 A 
ATOM     19  C   UNL d   1      -0.772  -1.786   0.945  0.00  0.00     0.024 A 
ATOM     20  C   UNL d   1      -1.320  -2.730   1.816  0.00  0.00     0.017 A 
ATOM     21  C   UNL d   1      -0.644  -3.093   2.992  0.00  0.00     0.048 A 
ATOM     22  C   UNL d   1       0.602  -2.506   3.273  0.00  0.00     0.017 A 
ATOM     23  C   UNL d   1       1.157  -1.566   2.402  0.00  0.00     0.024 A 
BRANCH  21  24
ATOM     24  C   UNL d   1      -1.233  -4.102   3.950  0.00  0.00     0.417 C 
ATOM     25  F   UNL d   1      -2.444  -4.585   3.557  0.00  0.00    -0.166 F 
ATOM     26  F   UNL d   1      -0.433  -5.190   4.120  0.00  0.00    -0.166 F 
ATOM     27  F   UNL d   1      -1.426  -3.580   5.194  0.00  0.00    -0.166 F 
ENDBRANCH  21  24
ENDBRANCH  15  18
ENDBRANCH   1  15
TORSDOF 5
