REMARK  5 active torsions:
REMARK  status: ('A' for Active; 'I' for Inactive)
REMARK    1  A    between atoms: C_2  and  C_1 
REMARK    2  A    between atoms: C_7  and  C_5 
REMARK    3  A    between atoms: C_8  and  C_6 
REMARK    4  A    between atoms: O_16  and  C_7 
REMARK    5  A    between atoms: O_15  and  C_8 
ROOT
ATOM      1  C   UNL d   1       1.166  -1.462   0.357  0.00  0.00    -0.013 C 
ATOM      2  C   UNL d   1       2.122  -0.613   1.089  0.00  0.00     0.002 C 
ATOM      3  C   UNL d   1       3.453  -0.894   1.604  0.00  0.00     0.051 C 
ATOM      4  C   UNL d   1       1.662   0.706   1.421  0.00  0.00    -0.024 C 
ATOM      5  C   UNL d   1      -0.120  -0.940   0.084  0.00  0.00     0.013 C 
ATOM      6  C   UNL d   1       4.120  -0.031   2.503  0.00  0.00     0.018 C 
ATOM      7  C   UNL d   1      -0.451   0.387   0.296  0.00  0.00     0.002 C 
ATOM      8  C   UNL d   1       3.573   1.185   2.856  0.00  0.00     0.002 C 
ATOM      9  C   UNL d   1       2.377   1.564   2.274  0.00  0.00     0.012 C 
ATOM     10  C   UNL d   1       0.442   1.202   0.958  0.00  0.00     0.012 C 
ENDROOT
BRANCH   1  11
ATOM     11  C   UNL d   1       1.368  -2.914   0.017  0.00  0.00    -0.013 C 
ATOM     12  C   UNL d   1       0.920  -3.574  -1.225  0.00  0.00     0.002 C 
ATOM     13  C   UNL d   1       0.251  -3.048  -2.400  0.00  0.00     0.051 C 
ATOM     14  C   UNL d   1       1.113  -4.996  -1.278  0.00  0.00    -0.024 C 
ATOM     15  C   UNL d   1      -0.330  -3.883  -3.385  0.00  0.00     0.018 C 
ATOM     16  C   UNL d   1      -0.183  -5.254  -3.325  0.00  0.00     0.002 C 
ATOM     17  C   UNL d   1       0.579  -5.793  -2.305  0.00  0.00     0.012 C 
ATOM     18  C   UNL d   1       1.801  -5.688  -0.281  0.00  0.00     0.012 C 
ATOM     19  C   UNL d   1       2.184  -5.061   0.885  0.00  0.00     0.002 C 
ATOM     20  C   UNL d   1       1.890  -3.719   1.054  0.00  0.00     0.013 C 
BRANCH  13  21
ATOM     21  C   UNL d   1       0.017  -1.617  -2.723  0.00  0.00     0.293 C 
ATOM     22  O   UNL d   1      -1.085  -1.183  -3.014  0.00  0.00    -0.259 OA
BRANCH  21  23
ATOM     23  O   UNL d   1       1.196  -0.956  -2.785  0.00  0.00    -0.322 OA
ATOM     24  C   UNL d   1       1.110   0.406  -3.223  0.00  0.00     0.213 C 
ENDBRANCH  21  23
ENDBRANCH  13  21
ENDBRANCH   1  11
BRANCH   3  25
ATOM     25  C   UNL d   1       4.268  -2.101   1.323  0.00  0.00     0.293 C 
ATOM     26  O   UNL d   1       4.766  -2.774   2.209  0.00  0.00    -0.259 OA
BRANCH  25  27
ATOM     27  O   UNL d   1       4.474  -2.224  -0.009  0.00  0.00    -0.322 OA
ATOM     28  C   UNL d   1       5.357  -3.285  -0.394  0.00  0.00     0.213 C 
ENDBRANCH  25  27
ENDBRANCH   3  25
TORSDOF 5
