REMARK  3 active torsions:
REMARK  status: ('A' for Active; 'I' for Inactive)
REMARK    1  A    between atoms: C_2  and  C_6 
REMARK    2  A    between atoms: C_12  and  CA_5 
REMARK       I    between atoms: C_6  and  N_10 
REMARK    3  A    between atoms: OXT_25  and  C_12 
ROOT
ATOM      1  C   UNL d   1      -3.216   0.298   0.118  0.00  0.00     0.147 A 
ATOM      2  N   UNL d   1      -2.519   0.877  -0.837  0.00  0.00    -0.336 N 
ATOM      3  HN  UNL d   1      -2.933   1.388  -1.617  1.00  0.00     0.168 HD
ATOM      4  C   UNL d   1      -8.341   1.637   0.424  0.00  0.00     0.273 C 
ATOM      5  S   UNL d   1      -2.227  -0.459   1.323  0.00  0.00    -0.052 SA
ATOM      6  N   UNL d   1      -4.581   0.301   0.142  0.00  0.00    -0.360 N 
ATOM      7  C   UNL d   1      -0.799  -0.003   0.485  0.00  0.00     0.036 A 
ATOM      8  N   UNL d   1      -6.995   1.980   0.629  0.00  0.00    -0.345 N 
ATOM      9  C   UNL d   1      -1.161   0.708  -0.655  0.00  0.00     0.051 A 
ATOM     10  C   UNL d   1       0.544  -0.254   0.813  0.00  0.00     0.045 A 
ATOM     11  O   UNL d   1      -9.040   1.159   1.318  0.00  0.00    -0.266 OA
ATOM     12  C   UNL d   1      -5.318   0.968  -0.941  0.00  0.00     0.145 C 
ATOM     13  C   UNL d   1      -6.011   2.247  -0.436  0.00  0.00     0.146 C 
ATOM     14  C   UNL d   1      -0.147   1.189  -1.509  0.00  0.00     0.032 A 
ATOM     15  C   UNL d   1       1.529   0.239  -0.047  0.00  0.00     0.035 A 
ATOM     16  C   UNL d   1      -5.781   0.509   2.309  0.00  0.00     0.040 C 
ATOM     17  C   UNL d   1      -5.392  -0.389   1.140  0.00  0.00     0.126 C 
ATOM     18  C   UNL d   1      -6.436   1.852   1.973  0.00  0.00     0.128 C 
ATOM     19  C   UNL d   1       1.198   0.950  -1.196  0.00  0.00     0.026 A 
ATOM     20 CL   UNL d   1       3.188  -0.037   0.326  0.00  0.00    -0.084 Cl
ENDROOT
BRANCH   4  21
ATOM     21  C   UNL d   1      -8.966   1.793  -0.924  0.00  0.00     0.134 A 
ATOM     22  CA  UNL d   1     -10.274   2.222  -1.102  0.00  0.00     0.139 A 
ATOM     23  N   UNL d   1     -10.897   2.216  -2.334  0.00  0.00    -0.357 N 
ATOM     24  C   UNL d   1     -10.129   1.819  -3.374  0.00  0.00     0.105 A 
ATOM     25  HN  UNL d   1     -11.871   2.492  -2.453  1.00  0.00     0.165 HD
ATOM     26  C   UNL d   1      -8.822   1.399  -3.205  0.00  0.00     0.105 A 
ATOM     27  N   UNL d   1      -8.227   1.353  -1.992  0.00  0.00    -0.358 N 
ATOM     28  HN  UNL d   1      -7.274   1.006  -1.877  1.00  0.00     0.165 HD
BRANCH  22  29
ATOM     29  C   UNL d   1     -11.117   2.804  -0.025  0.00  0.00     0.196 C 
ATOM     30  O   UNL d   1     -10.715   3.380   0.968  0.00  0.00    -0.645 OA
BRANCH  29  31
ATOM     31  OXT UNL d   1     -12.431   2.703  -0.359  0.00  0.00    -0.772 OA
ATOM     32  HXT UNL d   1     -12.519   2.336  -1.270  0.00  0.00     0.167 HD
ENDBRANCH  29  31
ENDBRANCH  22  29
ENDBRANCH   4  21
TORSDOF 3
