REMARK  3 active torsions:
REMARK  status: ('A' for Active; 'I' for Inactive)
REMARK    1  A    between atoms: C_7  and  N_1 
REMARK    2  A    between atoms: S_8  and  C_2 
REMARK    3  A    between atoms: C_9  and  S_8 
ROOT
ATOM      1  N   UNL d   1       0.025  -1.244   0.141  0.00  0.00    -0.218 N 
ATOM      2  C   UNL d   1       1.317  -0.713   0.185  0.00  0.00     0.178 A 
ATOM      3  N   UNL d   1       1.249   0.600   0.209  0.00  0.00    -0.264 N 
ATOM      4  HN  UNL d   1       2.030   1.254   0.255  1.00  0.00     0.186 HD
ATOM      5  N   UNL d   1      -0.826  -0.185   0.099  0.00  0.00     0.001 NA
ATOM      6  N   UNL d   1      -0.081   0.908   0.159  0.00  0.00    -0.006 NA
ENDROOT
BRANCH   2   7
ATOM      7  S   UNL d   1       2.785  -1.600  -0.060  0.00  0.00    -0.078 SA
BRANCH   7   8
ATOM      8  C   UNL d   1       4.046  -0.677   0.839  0.00  0.00     0.134 C 
ATOM      9  C   UNL d   1       3.684  -0.132   2.208  0.00  0.00     0.174 C 
ATOM     10  C   UNL d   1       4.436   1.112   2.405  0.00  0.00     0.017 A 
ATOM     11  O   UNL d   1       3.009  -0.661   3.070  0.00  0.00    -0.291 OA
ATOM     12  C   UNL d   1       4.652   1.831   3.567  0.00  0.00     0.016 A 
ATOM     13  C   UNL d   1       5.017   1.464   1.189  0.00  0.00    -0.043 A 
ATOM     14  C   UNL d   1       5.476   2.959   3.486  0.00  0.00     0.001 A 
ATOM     15  C   UNL d   1       6.050   3.338   2.259  0.00  0.00     0.001 A 
ATOM     16  C   UNL d   1       5.819   2.592   1.099  0.00  0.00     0.008 A 
ATOM     17  C   UNL d   1       4.638   0.525   0.083  0.00  0.00     0.063 C 
ENDBRANCH   7   8
ENDBRANCH   2   7
BRANCH   1  18
ATOM     18  C   UNL d   1      -0.466  -2.589   0.156  0.00  0.00     0.068 A 
ATOM     19  C   UNL d   1       0.105  -3.555   1.026  0.00  0.00    -0.033 A 
ATOM     20  C   UNL d   1      -0.315  -4.900   0.951  0.00  0.00     0.015 A 
ATOM     21  C   UNL d   1       1.071  -3.258   2.145  0.00  0.00     0.050 C 
ATOM     22  C   UNL d   1      -1.347  -5.298   0.108  0.00  0.00    -0.061 A 
ATOM     23  C   UNL d   1      -1.984  -4.328  -0.662  0.00  0.00     0.015 A 
ATOM     24  C   UNL d   1      -1.810  -6.725   0.103  0.00  0.00     0.048 C 
ATOM     25  C   UNL d   1      -1.562  -2.976  -0.664  0.00  0.00    -0.033 A 
ATOM     26  C   UNL d   1      -2.346  -2.100  -1.613  0.00  0.00     0.050 C 
ENDBRANCH   1  18
TORSDOF 3
