REMARK  2 active torsions:
REMARK  status: ('A' for Active; 'I' for Inactive)
REMARK    1  A    between atoms: C_6  and  C_1 
REMARK    2  A    between atoms: C_8  and  C_6 
ROOT
ATOM      1  C   UNL d   1      -1.284   0.832  -0.131  0.00  0.00     0.028 C 
ATOM      2  C   UNL d   1      -0.109   1.598   0.112  0.00  0.00    -0.041 C 
ATOM      3  C   UNL d   1      -1.192  -0.582  -0.253  0.00  0.00    -0.041 C 
ATOM      4  C   UNL d   1       0.050  -1.227  -0.009  0.00  0.00    -0.049 C 
ATOM      5  C   UNL d   1       1.157   0.958   0.108  0.00  0.00    -0.049 C 
ATOM      6  C   UNL d   1       1.234  -0.458   0.080  0.00  0.00    -0.049 C 
ATOM      7  C   UNL d   1      -0.179   3.099   0.309  0.00  0.00     0.050 C 
ATOM      8  C   UNL d   1      -2.364  -1.437  -0.683  0.00  0.00     0.050 C 
ATOM      9  C   UNL d   1       0.123  -2.737   0.077  0.00  0.00     0.049 C 
ATOM     10  C   UNL d   1       2.446   1.757   0.102  0.00  0.00     0.049 C 
ATOM     11  C   UNL d   1       2.599  -1.119   0.090  0.00  0.00     0.049 C 
ENDROOT
BRANCH   1  12
ATOM     12  C   UNL d   1      -2.575   1.564  -0.421  0.00  0.00     0.200 C 
ATOM     13  O   UNL d   1      -2.495   2.528  -1.184  0.00  0.00    -0.286 OA
BRANCH  12  14
ATOM     14  C   UNL d   1      -3.846   1.099   0.129  0.00  0.00     0.055 A 
ATOM     15  S   UNL d   1      -5.281   1.448  -0.761  0.00  0.00    -0.098 SA
ATOM     16  C   UNL d   1      -6.238   0.466   0.254  0.00  0.00     0.050 A 
ATOM     17  C   UNL d   1      -5.516  -0.042   1.305  0.00  0.00     0.009 A 
ATOM     18  C   UNL d   1      -4.141   0.360   1.262  0.00  0.00     0.023 A 
ENDBRANCH  12  14
ENDBRANCH   1  12
TORSDOF 2
