REMARK  4 active torsions:
REMARK  status: ('A' for Active; 'I' for Inactive)
REMARK    1  A    between atoms: C_7  and  C_1 
REMARK    2  A    between atoms: O_10  and  C_3 
REMARK    3  A    between atoms: O_12  and  C_7 
REMARK    4  A    between atoms: C_15  and  O_12 
ROOT
ATOM      1  C   UNL d   1      -1.540  -1.383   0.030  0.00  0.00     0.141 A 
ATOM      2  C   UNL d   1      -2.022   0.031  -0.026  0.00  0.00     0.267 A 
ATOM      3  C   UNL d   1      -0.220  -1.648   0.042  0.00  0.00     0.100 A 
ATOM      4  N   UNL d   1      -1.073   1.046   0.044  0.00  0.00    -0.317 N 
ATOM      5  C   UNL d   1       0.766  -0.558   0.047  0.00  0.00     0.025 A 
ATOM      6  C   UNL d   1       0.326   0.774   0.057  0.00  0.00     0.050 A 
ATOM      7  O   UNL d   1      -3.219   0.282  -0.161  0.00  0.00    -0.267 OA
ATOM      8  C   UNL d   1      -1.544   2.424   0.020  0.00  0.00     0.159 C 
ATOM      9  C   UNL d   1       2.147  -0.824   0.027  0.00  0.00     0.016 A 
ATOM     10  C   UNL d   1       1.276   1.810   0.051  0.00  0.00     0.031 A 
ATOM     11  C   UNL d   1       3.079   0.212   0.015  0.00  0.00     0.001 A 
ATOM     12  C   UNL d   1       2.642   1.530   0.029  0.00  0.00     0.002 A 
ENDROOT
BRANCH   1  13
ATOM     13  C   UNL d   1      -2.483  -2.523  -0.014  0.00  0.00     0.301 C 
ATOM     14  O   UNL d   1      -2.152  -3.642  -0.390  0.00  0.00    -0.259 OA
BRANCH  13  15
ATOM     15  O   UNL d   1      -3.723  -2.169   0.387  0.00  0.00    -0.318 OA
BRANCH  15  16
ATOM     16  C   UNL d   1      -4.803  -2.969  -0.107  0.00  0.00     0.174 C 
ATOM     17  C   UNL d   1      -5.181  -2.463  -1.490  0.00  0.00     0.034 C 
ENDBRANCH  15  16
ENDBRANCH  13  15
ENDBRANCH   1  13
BRANCH   3  18
ATOM     18  O   UNL d   1       0.324  -2.924   0.038  0.00  0.00    -0.358 OA
ATOM     19  H   UNL d   1      -0.388  -3.584  -0.110  0.00  0.00     0.217 HD
ENDBRANCH   3  18
TORSDOF 4
