REMARK  2 active torsions:
REMARK  status: ('A' for Active; 'I' for Inactive)
REMARK    1  A    between atoms: C_6  and  C_1 
REMARK       I    between atoms: N_9  and  C_6 
REMARK    2  A    between atoms: C_15  and  N_9 
ROOT
ATOM      1  C   UNL d   1      -0.317  -1.227  -0.093  0.00  0.00     0.125 A 
ATOM      2  C   UNL d   1      -0.911   0.922  -0.134  0.00  0.00     0.118 A 
ATOM      3  C   UNL d   1      -1.429  -0.353  -0.086  0.00  0.00     0.077 A 
ATOM      4  N   UNL d   1       0.832  -0.532  -0.113  0.00  0.00    -0.255 N 
ATOM      5  HN  UNL d   1       1.780  -0.907  -0.104  1.00  0.00     0.195 HD
ATOM      6  O   UNL d   1       0.457   0.804  -0.149  0.00  0.00    -0.236 OA
ATOM      7  C   UNL d   1      -1.596   2.186  -0.176  0.00  0.00     0.040 A 
ATOM      8  S   UNL d   1      -3.302   2.302  -0.011  0.00  0.00    -0.099 SA
ATOM      9  C   UNL d   1      -1.030   3.435  -0.350  0.00  0.00     0.022 A 
ATOM     10  C   UNL d   1      -3.277   4.001  -0.174  0.00  0.00     0.050 A 
ATOM     11  C   UNL d   1      -2.000   4.482  -0.352  0.00  0.00     0.008 A 
ENDROOT
BRANCH   1  12
ATOM     12  C   UNL d   1      -0.376  -2.691  -0.101  0.00  0.00     0.274 C 
ATOM     13  N   UNL d   1       0.861  -3.310  -0.045  0.00  0.00    -0.322 N 
ATOM     14  H   UNL d   1       1.651  -2.686   0.090  0.00  0.00     0.169 HD
ATOM     15  O   UNL d   1      -1.461  -3.260  -0.142  0.00  0.00    -0.266 OA
BRANCH  13  16
ATOM     16  C   UNL d   1       1.118  -4.694  -0.127  0.00  0.00     0.035 A 
ATOM     17  C   UNL d   1       0.145  -5.640  -0.468  0.00  0.00     0.031 A 
ATOM     18  C   UNL d   1       0.465  -6.999  -0.549  0.00  0.00     0.026 A 
ATOM     19  C   UNL d   1       1.763  -7.421  -0.283  0.00  0.00     0.034 A 
ATOM     20  C   UNL d   1       2.744  -6.494   0.058  0.00  0.00     0.026 A 
ATOM     21 CL   UNL d   1       2.154  -9.093  -0.380  0.00  0.00    -0.084 Cl
ATOM     22  C   UNL d   1       2.423  -5.132   0.129  0.00  0.00     0.031 A 
ENDBRANCH  13  16
ENDBRANCH   1  12
TORSDOF 2
