REMARK  1 active torsions:
REMARK  status: ('A' for Active; 'I' for Inactive)
REMARK    1  A    between atoms: C_8  and  C_7 
ROOT
ATOM      1  C   UNL d   1       1.585  -0.117   0.104  0.00  0.00     0.102 A 
ATOM      2  N   UNL d   1      -0.466   1.161  -0.031  0.00  0.00    -0.299 N 
ATOM      3  N   UNL d   1      -0.594  -1.155   0.018  0.00  0.00    -0.299 N 
ATOM      4  C   UNL d   1       0.901   1.204   0.038  0.00  0.00     0.263 A 
ATOM      5  C   UNL d   1       0.764  -1.357   0.028  0.00  0.00     0.263 A 
ATOM      6  C   UNL d   1      -1.236   0.042  -0.035  0.00  0.00     0.181 A 
ATOM      7  C   UNL d   1       2.926  -0.074   0.221  0.00  0.00     0.052 C 
ATOM      8  S   UNL d   1      -2.893   0.133  -0.110  0.00  0.00    -0.040 SA
ATOM      9  O   UNL d   1       1.492   2.279   0.031  0.00  0.00    -0.267 OA
ATOM     10  O   UNL d   1       1.206  -2.495  -0.058  0.00  0.00    -0.267 OA
ATOM     11  H   UNL d   1      -0.932   2.058  -0.081  0.00  0.00     0.171 HD
ATOM     12  H   UNL d   1      -1.154  -1.997  -0.023  0.00  0.00     0.171 HD
ENDROOT
BRANCH   7  13
ATOM     13  C   UNL d   1       3.762  -1.208   0.295  0.00  0.00     0.033 A 
ATOM     14  N   UNL d   1       4.349  -1.663  -0.862  0.00  0.00    -0.366 N 
ATOM     15  C   UNL d   1       5.152  -2.738  -0.580  0.00  0.00     0.088 A 
ATOM     16  H   UNL d   1       4.206  -1.274  -1.784  0.00  0.00     0.165 HD
ATOM     17  C   UNL d   1       5.075  -2.979   0.774  0.00  0.00     0.019 A 
ATOM     18  C   UNL d   1       4.202  -2.011   1.328  0.00  0.00     0.031 A 
ENDBRANCH   7  13
TORSDOF 1
