REMARK  6 active torsions:
REMARK  status: ('A' for Active; 'I' for Inactive)
REMARK    1  A    between atoms: S_2  and  C_1 
REMARK    2  A    between atoms: N_8  and  S_2 
REMARK    3  A    between atoms: C_7  and  C_4 
REMARK    4  A    between atoms: O_17  and  C_7 
REMARK    5  A    between atoms: C_13  and  N_8 
REMARK    6  A    between atoms: C_15  and  C_13 
ROOT
ATOM      1  S   UNL d   1       0.469   2.842   0.027  0.00  0.00     0.257 S 
ATOM      2  O   UNL d   1       1.411   2.901  -1.067  0.00  0.00    -0.204 OA
ATOM      3  O   UNL d   1      -0.730   3.646   0.053  0.00  0.00    -0.204 OA
ENDROOT
BRANCH   1   4
ATOM      4  C   UNL d   1      -0.105   1.150   0.047  0.00  0.00     0.146 A 
ATOM      5  N   UNL d   1       0.715   0.030   0.037  0.00  0.00    -0.336 N 
ATOM      6  C   UNL d   1      -0.052  -1.135   0.036  0.00  0.00     0.111 A 
ATOM      7  C   UNL d   1       2.166   0.028  -0.004  0.00  0.00     0.157 C 
ATOM      8  C   UNL d   1      -1.377  -0.729   0.029  0.00  0.00     0.039 A 
ATOM      9  C   UNL d   1      -1.409   0.676   0.036  0.00  0.00     0.046 A 
BRANCH   6  10
ATOM     10  C   UNL d   1       0.462  -2.496   0.029  0.00  0.00     0.309 C 
ATOM     11  O   UNL d   1       1.642  -2.819   0.033  0.00  0.00    -0.258 OA
BRANCH  10  12
ATOM     12  O   UNL d   1      -0.579  -3.379   0.027  0.00  0.00    -0.321 OA
ATOM     13  C   UNL d   1      -0.202  -4.756   0.030  0.00  0.00     0.213 C 
ENDBRANCH  10  12
ENDBRANCH   6  10
ENDBRANCH   1   4
BRANCH   1  14
ATOM     14  N   UNL d   1       1.317   3.096   1.447  0.00  0.00    -0.209 NA
ATOM     15  H   UNL d   1       2.106   3.735   1.316  0.00  0.00     0.140 HD
BRANCH  14  16
ATOM     16  C   UNL d   1       0.507   3.497   2.616  0.00  0.00     0.161 C 
BRANCH  16  17
ATOM     17  C   UNL d   1       1.346   3.758   3.856  0.00  0.00     0.022 A 
ATOM     18  N   UNL d   1       2.624   4.196   3.684  0.00  0.00    -0.368 N 
ATOM     19  C   UNL d   1       3.334   4.487   4.797  0.00  0.00     0.088 A 
ATOM     20  HN  UNL d   1       3.029   4.300   2.753  1.00  0.00     0.165 HD
ATOM     21  C   UNL d   1       2.833   4.383   6.084  0.00  0.00     0.017 A 
ATOM     22  C   UNL d   1       1.522   3.951   6.244  0.00  0.00     0.003 A 
ATOM     23  C   UNL d   1       0.765   3.638   5.118  0.00  0.00     0.026 A 
ENDBRANCH  16  17
ENDBRANCH  14  16
ENDBRANCH   1  14
TORSDOF 6
