REMARK  2 active torsions:
REMARK  status: ('A' for Active; 'I' for Inactive)
REMARK    1  A    between atoms: C_9  and  N_2 
REMARK    2  A    between atoms: C_10  and  C_9 
ROOT
ATOM      1  N   UNL d   1       3.796  -5.253   1.036  0.00  0.00    -0.197 NA
ATOM      2  C   UNL d   1       3.453  -4.146   1.111  0.00  0.00     0.060 C 
ATOM      3  C   UNL d   1       3.002  -2.753   1.196  0.00  0.00     0.144 C 
ENDROOT
BRANCH   3   4
ATOM      4  C   UNL d   1       2.130  -2.404  -0.011  0.00  0.00     0.149 C 
BRANCH   4   5
ATOM      5  N   UNL d   1       1.602  -1.058   0.039  0.00  0.00    -0.290 N 
ATOM      6  C   UNL d   1       2.347   0.106   0.004  0.00  0.00     0.372 A 
ATOM      7  O   UNL d   1       1.521   1.238   0.003  0.00  0.00    -0.259 OA
ATOM      8  O   UNL d   1       3.569   0.169  -0.013  0.00  0.00    -0.237 OA
ATOM      9  C   UNL d   1       0.253   0.681   0.009  0.00  0.00     0.107 A 
ATOM     10  C   UNL d   1      -0.930   1.391  -0.000  0.00  0.00     0.040 A 
ATOM     11  C   UNL d   1       0.274  -0.700   0.022  0.00  0.00     0.073 A 
ATOM     12  C   UNL d   1      -2.119   0.657  -0.001  0.00  0.00     0.003 A 
ATOM     13  C   UNL d   1      -2.096  -0.751   0.002  0.00  0.00     0.002 A 
ATOM     14  C   UNL d   1      -0.883  -1.449   0.012  0.00  0.00     0.033 A 
ENDBRANCH   4   5
ENDBRANCH   3   4
TORSDOF 2
