REMARK  6 active torsions:
REMARK  status: ('A' for Active; 'I' for Inactive)
REMARK    1  A    between atoms: N_3  and  C_8 
REMARK    2  A    between atoms: N_12  and  C_4 
REMARK    3  A    between atoms: C_10  and  C_5 
REMARK    4  A    between atoms: O_17  and  C_18 
REMARK    5  A    between atoms: C_20  and  O_17 
REMARK    6  A    between atoms: C_19  and  C_20 
ROOT
ATOM      1  C   UNL d   1      -1.976  -2.414  -0.023  0.00  0.00    -0.009 A 
ATOM      2  C   UNL d   1      -1.899  -3.367   1.001  0.00  0.00     0.016 A 
ATOM      3  C   UNL d   1      -2.917  -2.598  -1.044  0.00  0.00     0.016 A 
ATOM      4  C   UNL d   1      -3.784  -4.569   0.060  0.00  0.00     0.069 A 
ATOM      5  C   UNL d   1      -2.799  -4.439   1.040  0.00  0.00     0.037 A 
ATOM      6  C   UNL d   1      -3.809  -3.672  -1.008  0.00  0.00     0.037 A 
ENDROOT
BRANCH   4   7
ATOM      7  O   UNL d   1      -4.671  -5.597   0.235  0.00  0.00    -0.347 OA
BRANCH   7   8
ATOM      8  C   UNL d   1      -5.927  -5.428  -0.429  0.00  0.00     0.214 C 
BRANCH   8   9
ATOM      9  C   UNL d   1      -6.973  -6.300   0.224  0.00  0.00    -0.034 A 
ATOM     10  C   UNL d   1      -7.216  -6.195   1.603  0.00  0.00     0.012 A 
ATOM     11  C   UNL d   1      -8.216  -6.959   2.208  0.00  0.00     0.037 A 
ATOM     12  C   UNL d   1      -8.982  -7.832   1.427  0.00  0.00     0.102 A 
ATOM     13  C   UNL d   1      -8.757  -7.941   0.049  0.00  0.00     0.037 A 
ATOM     14  C   UNL d   1      -7.755  -7.173  -0.548  0.00  0.00     0.012 A 
BRANCH  12  15
ATOM     15  N   UNL d   1     -10.035  -8.637   2.057  0.00  0.00    -0.116 N 
ATOM     16  O   UNL d   1     -10.203  -8.514   3.279  0.00  0.00    -0.532 OA
ATOM     17  O   UNL d   1     -10.698  -9.390   1.329  0.00  0.00    -0.532 OA
ENDBRANCH  12  15
ENDBRANCH   8   9
ENDBRANCH   7   8
ENDBRANCH   4   7
BRANCH   1  18
ATOM     18  C   UNL d   1      -1.108  -1.243  -0.005  0.00  0.00     0.051 A 
ATOM     19  N   UNL d   1       0.158  -1.278   0.555  0.00  0.00    -0.336 N 
ATOM     20  C   UNL d   1       0.721  -0.098   0.467  0.00  0.00     0.142 A 
ATOM     21  HN  UNL d   1       0.589  -2.101   0.975  1.00  0.00     0.168 HD
ATOM     22  S   UNL d   1      -0.225   1.123  -0.283  0.00  0.00    -0.064 SA
ATOM     23  C   UNL d   1      -1.490  -0.009  -0.495  0.00  0.00     0.083 A 
BRANCH  20  24
ATOM     24  N   UNL d   1       1.961   0.164   0.907  0.00  0.00    -0.380 N 
ATOM     25  H   UNL d   1       2.548  -0.647   1.062  0.00  0.00     0.158 HD
ATOM     26  H   UNL d   1       2.444   0.960   0.509  0.00  0.00     0.158 HD
ENDBRANCH  20  24
ENDBRANCH   1  18
TORSDOF 6
