REMARK  11 active torsions:
REMARK  status: ('A' for Active; 'I' for Inactive)
REMARK    1  A    between atoms: N_2  and  S_1 
REMARK    2  A    between atoms: C_3  and  S_1 
REMARK    3  A    between atoms: C_8  and  N_2 
REMARK    4  A    between atoms: C_4  and  C_9 
REMARK    5  A    between atoms: C_5  and  C_10 
REMARK    6  A    between atoms: C_6  and  C_8 
REMARK       I    between atoms: N_12  and  C_6 
REMARK       I    between atoms: C_7  and  N_13 
REMARK    7  A    between atoms: C_11  and  C_7 
REMARK    8  A    between atoms: C_31  and  C_8 
REMARK    9  A    between atoms: N_13  and  N_12 
REMARK   10  A    between atoms: C_33  and  C_31 
REMARK   11  A    between atoms: S_32  and  C_33 
ROOT
ATOM      1  N   UNL d   1       0.733   1.522  -0.539  0.00  0.00    -0.202 NA
ATOM      2  H   UNL d   1      -0.259   1.428  -0.737  0.00  0.00     0.141 HD
ENDROOT
BRANCH   1   3
ATOM      3  S   UNL d   1       1.376   0.036  -0.053  0.00  0.00     0.242 S 
ATOM      4  O   UNL d   1       2.576   0.265   0.716  0.00  0.00    -0.206 OA
ATOM      5  O   UNL d   1       1.321  -0.853  -1.186  0.00  0.00    -0.206 OA
BRANCH   3   6
ATOM      6  C   UNL d   1       0.131  -0.567   1.083  0.00  0.00     0.076 A 
ATOM      7  C   UNL d   1      -1.150  -0.863   0.599  0.00  0.00     0.041 A 
ATOM      8  C   UNL d   1      -2.115  -1.417   1.454  0.00  0.00     0.050 A 
ATOM      9  C   UNL d   1      -1.762  -1.693   2.788  0.00  0.00     0.032 A 
ATOM     10  C   UNL d   1      -0.468  -1.426   3.272  0.00  0.00     0.050 A 
ATOM     11  C   UNL d   1       0.474  -0.844   2.410  0.00  0.00     0.041 A 
BRANCH   8  12
ATOM     12  C   UNL d   1      -3.507  -1.744   0.960  0.00  0.00     0.417 C 
ATOM     13  F   UNL d   1      -3.697  -1.442  -0.354  0.00  0.00    -0.166 F 
ATOM     14  F   UNL d   1      -3.815  -3.061   1.096  0.00  0.00    -0.166 F 
ATOM     15  F   UNL d   1      -4.467  -1.058   1.640  0.00  0.00    -0.166 F 
ENDBRANCH   8  12
BRANCH  10  16
ATOM     16  C   UNL d   1      -0.103  -1.806   4.690  0.00  0.00     0.417 C 
ATOM     17  F   UNL d   1       1.194  -1.543   5.008  0.00  0.00    -0.166 F 
ATOM     18  F   UNL d   1      -0.859  -1.151   5.612  0.00  0.00    -0.166 F 
ATOM     19  F   UNL d   1      -0.287  -3.134   4.928  0.00  0.00    -0.166 F 
ENDBRANCH  10  16
ENDBRANCH   3   6
ENDBRANCH   1   3
BRANCH   1  20
ATOM     20  C   UNL d   1       1.094   2.724   0.261  0.00  0.00     0.165 C 
BRANCH  20  21
ATOM     21  C   UNL d   1       2.587   3.079   0.079  0.00  0.00     0.254 C 
ATOM     22  N   UNL d   1       3.148   3.754   1.149  0.00  0.00    -0.266 N 
ATOM     23  H   UNL d   1       2.625   4.125   1.940  0.00  0.00     0.190 HD
ATOM     24  O   UNL d   1       3.236   2.805  -0.931  0.00  0.00    -0.270 OA
BRANCH  22  25
ATOM     25  N   UNL d   1       4.530   4.007   1.142  0.00  0.00    -0.263 N 
ATOM     26  C   UNL d   1       5.057   4.918   2.041  0.00  0.00     0.277 C 
ATOM     27  O   UNL d   1       4.308   5.556   2.785  0.00  0.00    -0.265 OA
ATOM     28  H   UNL d   1       5.106   3.457   0.506  0.00  0.00     0.190 HD
BRANCH  26  29
ATOM     29  C   UNL d   1       6.507   5.070   2.058  0.00  0.00     0.074 A 
ATOM     30  S   UNL d   1       7.556   4.029   1.188  0.00  0.00    -0.097 SA
ATOM     31  C   UNL d   1       8.953   4.835   1.761  0.00  0.00     0.050 A 
ATOM     32  C   UNL d   1       8.637   5.885   2.594  0.00  0.00     0.009 A 
ATOM     33  C   UNL d   1       7.229   6.016   2.767  0.00  0.00     0.025 A 
ENDBRANCH  26  29
ENDBRANCH  22  25
ENDBRANCH  20  21
BRANCH  20  34
ATOM     34  C   UNL d   1       0.235   3.925  -0.187  0.00  0.00     0.040 C 
BRANCH  34  35
ATOM     35  C   UNL d   1      -1.287   3.718  -0.166  0.00  0.00     0.075 C 
BRANCH  35  36
ATOM     36  S   UNL d   1      -1.874   3.072   1.434  0.00  0.00    -0.173 SA
ATOM     37  C   UNL d   1      -3.614   2.790   1.022  0.00  0.00     0.089 C 
ENDBRANCH  35  36
ENDBRANCH  34  35
ENDBRANCH  20  34
ENDBRANCH   1  20
TORSDOF 11
