REMARK  7 active torsions:
REMARK  status: ('A' for Active; 'I' for Inactive)
REMARK    1  A    between atoms: O_4  and  C_1 
REMARK    2  A    between atoms: C_3  and  C_2 
REMARK       I    between atoms: N_5  and  C_3 
REMARK    3  A    between atoms: C_12  and  O_4 
REMARK    4  A    between atoms: C_11  and  N_5 
REMARK    5  A    between atoms: C_8  and  C_11 
REMARK    6  A    between atoms: O_14  and  C_8 
REMARK    7  A    between atoms: C_22  and  O_14 
ROOT
ATOM      1  C   UNL d   1      -0.080   0.507  -0.288  0.00  0.00     0.163 A 
ATOM      2  C   UNL d   1       1.220   0.816   0.109  0.00  0.00     0.083 A 
ATOM      3  N   UNL d   1      -0.518  -0.775  -0.416  0.00  0.00    -0.346 N 
ATOM      4  HN  UNL d   1      -1.469  -0.979  -0.721  1.00  0.00     0.167 HD
ATOM      5  C   UNL d   1       2.092  -0.234   0.411  0.00  0.00     0.023 A 
ATOM      6  C   UNL d   1       0.350  -1.766  -0.126  0.00  0.00     0.090 A 
ATOM      7  C   UNL d   1       1.654  -1.549   0.284  0.00  0.00     0.018 A 
ENDROOT
BRANCH   2   8
ATOM      8  C   UNL d   1       1.656   2.204   0.335  0.00  0.00     0.256 C 
ATOM      9  N   UNL d   1       2.806   2.670  -0.253  0.00  0.00    -0.347 N 
ATOM     10  H   UNL d   1       3.043   3.610   0.046  0.00  0.00     0.163 HD
ATOM     11  O   UNL d   1       1.024   2.926   1.099  0.00  0.00    -0.268 OA
BRANCH   9  12
ATOM     12  C   UNL d   1       3.508   2.149  -1.423  0.00  0.00     0.233 C 
BRANCH  12  13
ATOM     13  C   UNL d   1       4.901   1.553  -1.207  0.00  0.00     0.276 C 
ATOM     14  O   UNL d   1       5.618   1.204  -2.139  0.00  0.00    -0.263 OA
BRANCH  13  15
ATOM     15  O   UNL d   1       5.218   1.419   0.108  0.00  0.00    -0.321 OA
BRANCH  15  16
ATOM     16  C   UNL d   1       6.484   0.800   0.397  0.00  0.00     0.174 C 
ATOM     17  C   UNL d   1       7.512   1.862   0.737  0.00  0.00     0.034 C 
ENDBRANCH  15  16
ENDBRANCH  13  15
ENDBRANCH  12  13
ENDBRANCH   9  12
ENDBRANCH   2   8
BRANCH   1  18
ATOM     18  O   UNL d   1      -0.950   1.553  -0.582  0.00  0.00    -0.293 OA
BRANCH  18  19
ATOM     19  C   UNL d   1      -2.203   1.218  -1.044  0.00  0.00     0.077 A 
ATOM     20  C   UNL d   1      -3.308   1.559  -0.261  0.00  0.00     0.039 A 
ATOM     21  C   UNL d   1      -4.596   1.257  -0.711  0.00  0.00     0.026 A 
ATOM     22  C   UNL d   1      -4.769   0.629  -1.945  0.00  0.00     0.034 A 
ATOM     23  C   UNL d   1      -3.669   0.316  -2.742  0.00  0.00     0.026 A 
ATOM     24 CL   UNL d   1      -6.356   0.242  -2.492  0.00  0.00    -0.084 Cl
ATOM     25  C   UNL d   1      -2.382   0.623  -2.296  0.00  0.00     0.039 A 
ENDBRANCH  18  19
ENDBRANCH   1  18
TORSDOF 7
