REMARK  3 active torsions:
REMARK  status: ('A' for Active; 'I' for Inactive)
REMARK    1  A    between atoms: N_6  and  S_1 
REMARK    2  A    between atoms: C_10  and  S_1 
REMARK    3  A    between atoms: C_2  and  N_7 
ROOT
ATOM      1  C   UNL d   1       2.811   0.085   0.230  0.00  0.00     0.074 A 
ATOM      2  N   UNL d   1       8.152  -0.176   0.933  0.00  0.00    -0.191 NA
ATOM      3  C   UNL d   1       7.002  -0.111   0.782  0.00  0.00     0.099 C 
ATOM      4  C   UNL d   1       3.330  -0.386   1.440  0.00  0.00     0.026 A 
ATOM      5  C   UNL d   1       3.663   0.493  -0.802  0.00  0.00     0.026 A 
ATOM      6  C   UNL d   1       5.579  -0.034   0.598  0.00  0.00     0.044 A 
ATOM      7  C   UNL d   1       5.049   0.434  -0.613  0.00  0.00     0.024 A 
ATOM      8  C   UNL d   1       4.715  -0.442   1.623  0.00  0.00     0.024 A 
ENDROOT
BRANCH   1   9
ATOM      9  S   UNL d   1       1.049   0.040  -0.018  0.00  0.00     0.243 S 
ATOM     10  O   UNL d   1       0.759   0.567  -1.333  0.00  0.00    -0.206 OA
ATOM     11  O   UNL d   1       0.625  -1.288   0.375  0.00  0.00    -0.206 OA
BRANCH   9  12
ATOM     12  N   UNL d   1       0.454   1.173   1.141  0.00  0.00    -0.205 NA
ATOM     13  C   UNL d   1       0.755   2.608   0.760  0.00  0.00     0.127 C 
ATOM     14  C   UNL d   1       0.618   3.576   1.946  0.00  0.00     0.140 C 
ATOM     15  N   UNL d   1      -0.740   3.588   2.503  0.00  0.00    -0.360 N 
ATOM     16  C   UNL d   1      -1.028   2.564   3.494  0.00  0.00     0.126 C 
ATOM     17  C   UNL d   1      -1.340   1.198   2.887  0.00  0.00     0.035 C 
ATOM     18  C   UNL d   1      -1.010   0.992   1.413  0.00  0.00     0.109 C 
BRANCH  15  19
ATOM     19  C   UNL d   1      -1.620   4.563   2.126  0.00  0.00     0.147 A 
ATOM     20  N   UNL d   1      -1.312   5.531   1.286  0.00  0.00    -0.336 N 
ATOM     21  C   UNL d   1      -2.355   6.432   1.142  0.00  0.00     0.051 A 
ATOM     22  HN  UNL d   1      -0.418   5.607   0.803  1.00  0.00     0.168 HD
ATOM     23  C   UNL d   1      -2.343   7.608   0.360  0.00  0.00     0.032 A 
ATOM     24  C   UNL d   1      -3.509   6.122   1.858  0.00  0.00     0.036 A 
ATOM     25  C   UNL d   1      -3.474   8.434   0.322  0.00  0.00     0.026 A 
ATOM     26  C   UNL d   1      -4.609   8.098   1.053  0.00  0.00     0.035 A 
ATOM     27  C   UNL d   1      -4.652   6.940   1.832  0.00  0.00     0.045 A 
ATOM     28 CL   UNL d   1      -5.989   9.128   1.002  0.00  0.00    -0.084 Cl
ATOM     29  S   UNL d   1      -3.253   4.653   2.703  0.00  0.00    -0.052 SA
ENDBRANCH  15  19
ENDBRANCH   9  12
ENDBRANCH   1   9
TORSDOF 3
