REMARK  2 active torsions:
REMARK  status: ('A' for Active; 'I' for Inactive)
REMARK    1  A    between atoms: C_6  and  C_3 
REMARK    2  A    between atoms: O_10  and  N_7 
ROOT
ATOM      1  C   UNL d   1       0.069  -1.329  -0.004  0.00  0.00     0.044 A 
ATOM      2  S   UNL d   1       1.991   0.369  -0.003  0.00  0.00    -0.099 SA
ATOM      3  C   UNL d   1       1.448  -1.253   0.003  0.00  0.00     0.023 A 
ATOM      4  C   UNL d   1      -0.540  -0.044  -0.010  0.00  0.00     0.042 A 
ATOM      5  C   UNL d   1       0.388   0.972  -0.012  0.00  0.00     0.074 A 
ATOM      6 CL   UNL d   1      -2.233   0.178  -0.014  0.00  0.00    -0.084 Cl
ENDROOT
BRANCH   3   7
ATOM      7  C   UNL d   1       2.414  -2.323   0.015  0.00  0.00     0.132 C 
ATOM      8  N   UNL d   1       2.032  -3.563   0.021  0.00  0.00    -0.279 N 
ATOM      9  HN  UNL d   1       1.064  -3.884   0.016  1.00  0.00     0.193 HD
BRANCH   8  10
ATOM     10  O   UNL d   1       3.163  -4.391   0.033  0.00  0.00    -0.290 OA
ATOM     11  H   UNL d   1       2.770  -5.285   0.035  0.00  0.00     0.244 HD
ENDBRANCH   8  10
ENDBRANCH   3   7
TORSDOF 2
