REMARK  4 active torsions:
REMARK  status: ('A' for Active; 'I' for Inactive)
REMARK    1  A    between atoms: C_6  and  C_1 
REMARK    2  A    between atoms: O_8  and  C_11 
REMARK    3  A    between atoms: C_12  and  O_8 
REMARK    4  A    between atoms: O_20  and  C_13 
ROOT
ATOM      1  C   UNL d   1       2.184  -1.508   0.019  0.00  0.00    -0.008 A 
ATOM      2  C   UNL d   1       3.075  -1.375   1.093  0.00  0.00     0.016 A 
ATOM      3  C   UNL d   1       2.450  -2.485  -0.951  0.00  0.00     0.016 A 
ATOM      4  C   UNL d   1       4.494  -3.112   0.185  0.00  0.00     0.076 A 
ATOM      5  C   UNL d   1       3.596  -3.284  -0.867  0.00  0.00     0.038 A 
ATOM      6  C   UNL d   1       4.208  -2.186   1.192  0.00  0.00     0.038 A 
ENDROOT
BRANCH   4   7
ATOM      7  O   UNL d   1       5.608  -3.923   0.185  0.00  0.00    -0.311 OA
BRANCH   7   8
ATOM      8  C   UNL d   1       6.805  -3.409   0.633  0.00  0.00     0.076 A 
ATOM      9  C   UNL d   1       7.663  -4.299   1.280  0.00  0.00     0.040 A 
ATOM     10  C   UNL d   1       8.886  -3.853   1.795  0.00  0.00     0.039 A 
ATOM     11  C   UNL d   1       9.253  -2.513   1.660  0.00  0.00     0.068 A 
ATOM     12  C   UNL d   1       8.423  -1.641   0.954  0.00  0.00     0.039 A 
ATOM     13  C   UNL d   1       7.210  -2.088   0.426  0.00  0.00     0.040 A 
BRANCH  11  14
ATOM     14  O   UNL d   1      10.410  -1.958   2.131  0.00  0.00    -0.356 OA
ATOM     15  C   UNL d   1      10.952  -2.570   3.296  0.00  0.00     0.210 C 
ENDBRANCH  11  14
ENDBRANCH   7   8
ENDBRANCH   4   7
BRANCH   1  16
ATOM     16  C   UNL d   1       1.004  -0.648  -0.061  0.00  0.00     0.059 A 
ATOM     17  N   UNL d   1       0.401  -0.274  -1.238  0.00  0.00    -0.300 N 
ATOM     18  N   UNL d   1      -0.669   0.525  -1.080  0.00  0.00    -0.311 N 
ATOM     19  H   UNL d   1       0.676  -0.519  -2.182  0.00  0.00     0.187 HD
ATOM     20  C   UNL d   1      -0.746   0.686   0.241  0.00  0.00     0.109 A 
ATOM     21  HN  UNL d   1      -1.278   0.915  -1.800  1.00  0.00     0.186 HD
ATOM     22  C   UNL d   1       0.269  -0.009   0.921  0.00  0.00     0.050 A 
ENDBRANCH   1  16
TORSDOF 4
