REMARK  5 active torsions:
REMARK  status: ('A' for Active; 'I' for Inactive)
REMARK    1  A    between atoms: S_13  and  C_2 
REMARK    2  A    between atoms: C_6  and  C_4 
REMARK       I    between atoms: N_12  and  C_6 
REMARK    3  A    between atoms: N_8  and  N_12 
REMARK    4  A    between atoms: O_18  and  N_10 
REMARK    5  A    between atoms: C_16  and  C_15 
ROOT
ATOM      1  C   UNL d   1       0.438   0.715  -0.084  0.00  0.00     0.020 A 
ATOM      2  C   UNL d   1       1.805   0.943  -0.114  0.00  0.00     0.054 A 
ATOM      3  C   UNL d   1       0.158  -0.712  -0.024  0.00  0.00    -0.021 A 
ATOM      4  C   UNL d   1       1.303  -1.498   0.032  0.00  0.00     0.082 A 
ATOM      5  S   UNL d   1       2.702  -0.529  -0.065  0.00  0.00    -0.076 SA
ATOM      6  C   UNL d   1      -0.674   1.687  -0.074  0.00  0.00     0.044 C 
ATOM      7  N   UNL d   1      -0.462   2.937  -0.359  0.00  0.00    -0.271 N 
ATOM      8  HN  UNL d   1       0.445   3.329  -0.612  1.00  0.00     0.194 HD
ATOM      9  C   UNL d   1      -1.254  -1.242   0.028  0.00  0.00     0.041 C 
ATOM     10  C   UNL d   1      -2.050   1.124   0.295  0.00  0.00     0.060 C 
ATOM     11  C   UNL d   1      -2.277  -0.203  -0.416  0.00  0.00     0.011 C 
ENDROOT
BRANCH   4  12
ATOM     12  C   UNL d   1       1.344  -2.961   0.168  0.00  0.00     0.277 C 
ATOM     13  N   UNL d   1       2.599  -3.575   0.190  0.00  0.00    -0.266 N 
ATOM     14  H   UNL d   1       3.449  -3.029   0.130  0.00  0.00     0.190 HD
ATOM     15  O   UNL d   1       0.312  -3.625   0.267  0.00  0.00    -0.265 OA
BRANCH  13  16
ATOM     16  N   UNL d   1       2.642  -4.939   0.292  0.00  0.00    -0.312 N 
ATOM     17  C   UNL d   1       3.798  -5.515   0.328  0.00  0.00     0.088 C 
ATOM     18  HN  UNL d   1       1.783  -5.488   0.338  1.00  0.00     0.185 HD
BRANCH  17  19
ATOM     19  C   UNL d   1       3.888  -7.040   0.428  0.00  0.00    -0.018 C 
ATOM     20  C   UNL d   1       3.197  -7.671  -0.789  0.00  0.00     0.020 C 
ATOM     21  C   UNL d   1       5.361  -7.464   0.453  0.00  0.00     0.020 C 
ATOM     22  C   UNL d   1       3.200  -7.512   1.717  0.00  0.00     0.020 C 
ENDBRANCH  17  19
ENDBRANCH  13  16
ENDBRANCH   4  12
BRANCH   2  23
ATOM     23  S   UNL d   1       2.678   2.476  -0.088  0.00  0.00    -0.126 SA
ATOM     24  C   UNL d   1       2.844   2.807  -1.856  0.00  0.00     0.096 C 
ENDBRANCH   2  23
BRANCH   7  25
ATOM     25  O   UNL d   1      -1.656   3.675  -0.272  0.00  0.00    -0.285 OA
ATOM     26  C   UNL d   1      -1.412   5.031  -0.612  0.00  0.00     0.237 C 
ENDBRANCH   7  25
TORSDOF 5
