REMARK  6 active torsions:
REMARK  status: ('A' for Active; 'I' for Inactive)
REMARK    1  A    between atoms: C_9  and  N_1 
REMARK    2  A    between atoms: C_4  and  C_11 
REMARK    3  A    between atoms: C_22  and  C_5 
REMARK    4  A    between atoms: C_8  and  C_15 
REMARK    5  A    between atoms: O_23  and  C_22 
REMARK    6  A    between atoms: C_24  and  O_23 
ROOT
ATOM      1  N   UNL d   1      -2.356   4.186   4.853  0.00  0.00    -0.351 N 
ATOM      2  HN  UNL d   1      -1.715   4.852   5.285  1.00  0.00     0.166 HD
ATOM      3  C   UNL d   1      -2.049   2.866   4.557  0.00  0.00     0.049 A 
ATOM      4  C   UNL d   1      -3.597   4.456   4.496  0.00  0.00     0.075 A 
ATOM      5  S   UNL d   1      -4.480   3.123   3.853  0.00  0.00    -0.084 SA
ATOM      6  C   UNL d   1      -3.100   2.131   4.043  0.00  0.00     0.082 A 
ENDROOT
BRANCH   4   7
ATOM      7  C   UNL d   1      -4.272   5.792   4.632  0.00  0.00     0.240 C 
BRANCH   7   8
ATOM      8  O   UNL d   1      -4.011   6.514   3.427  0.00  0.00    -0.345 OA
BRANCH   8   9
ATOM      9  C   UNL d   1      -4.545   7.770   3.343  0.00  0.00     0.069 A 
ATOM     10  C   UNL d   1      -3.880   8.634   2.474  0.00  0.00     0.037 A 
ATOM     11  C   UNL d   1      -4.363   9.925   2.243  0.00  0.00     0.012 A 
ATOM     12  C   UNL d   1      -5.539  10.374   2.864  0.00  0.00    -0.035 A 
ATOM     13  C   UNL d   1      -6.191   9.501   3.751  0.00  0.00     0.012 A 
ATOM     14  C   UNL d   1      -5.700   8.209   3.988  0.00  0.00     0.037 A 
BRANCH  12  15
ATOM     15  C   UNL d   1      -6.106  11.729   2.495  0.00  0.00     0.141 C 
ATOM     16  S   UNL d   1      -6.389  12.829   3.914  0.00  0.00    -0.148 SA
ATOM     17  C   UNL d   1      -7.809  13.685   3.187  0.00  0.00     0.085 C 
ATOM     18  C   UNL d   1      -8.691  12.613   2.580  0.00  0.00     0.085 C 
ATOM     19  S   UNL d   1      -7.653  11.565   1.527  0.00  0.00    -0.148 SA
ENDBRANCH  12  15
ENDBRANCH   8   9
ENDBRANCH   7   8
ENDBRANCH   4   7
BRANCH   3  20
ATOM     20  C   UNL d   1      -0.719   2.317   4.802  0.00  0.00    -0.009 A 
ATOM     21  C   UNL d   1       0.080   2.852   5.825  0.00  0.00     0.016 A 
ATOM     22  C   UNL d   1       1.359   2.341   6.081  0.00  0.00     0.037 A 
ATOM     23  C   UNL d   1       1.848   1.286   5.298  0.00  0.00     0.102 A 
ATOM     24  C   UNL d   1       1.071   0.749   4.266  0.00  0.00     0.037 A 
ATOM     25  C   UNL d   1      -0.206   1.268   4.022  0.00  0.00     0.016 A 
BRANCH  23  26
ATOM     26  N   UNL d   1       3.185   0.741   5.556  0.00  0.00    -0.116 N 
ATOM     27  O   UNL d   1       3.581  -0.182   4.830  0.00  0.00    -0.532 OA
ATOM     28  O   UNL d   1       3.840   1.231   6.486  0.00  0.00    -0.532 OA
ENDBRANCH  23  26
ENDBRANCH   3  20
TORSDOF 6
