REMARK  5 active torsions:
REMARK  status: ('A' for Active; 'I' for Inactive)
REMARK    1  A    between atoms: N_8  and  C_1 
REMARK    2  A    between atoms: C_3  and  N_8 
REMARK    3  A    between atoms: N_4  and  C_3 
REMARK       I    between atoms: C_9  and  N_4 
REMARK    4  A    between atoms: C_11  and  C_7 
REMARK    5  A    between atoms: C_14  and  C_9 
ROOT
ATOM      1  N   UNL d   1       2.108  -1.265   0.075  0.00  0.00    -0.318 N 
ATOM      2  H   UNL d   1       2.912  -0.641   0.199  0.00  0.00     0.170 HD
ENDROOT
BRANCH   1   3
ATOM      3  C   UNL d   1       2.309  -2.639   0.387  0.00  0.00     0.180 C 
ATOM      4  S   UNL d   1       1.290  -3.917   0.072  0.00  0.00    -0.040 SA
BRANCH   3   5
ATOM      5  N   UNL d   1       3.516  -2.870   1.006  0.00  0.00    -0.299 N 
ATOM      6  C   UNL d   1       4.382  -1.894   1.492  0.00  0.00     0.257 C 
ATOM      7  O   UNL d   1       4.122  -0.698   1.373  0.00  0.00    -0.267 OA
ATOM      8  H   UNL d   1       3.696  -3.840   1.244  0.00  0.00     0.171 HD
BRANCH   6   9
ATOM      9  C   UNL d   1       5.646  -2.313   2.147  0.00  0.00     0.032 A 
ATOM     10  C   UNL d   1       6.200  -3.590   2.005  0.00  0.00     0.017 A 
ATOM     11  C   UNL d   1       7.464  -3.862   2.539  0.00  0.00     0.001 A 
ATOM     12  C   UNL d   1       8.174  -2.868   3.215  0.00  0.00     0.000 A 
ATOM     13  C   UNL d   1       7.614  -1.604   3.384  0.00  0.00     0.001 A 
ATOM     14  C   UNL d   1       6.354  -1.330   2.856  0.00  0.00     0.017 A 
ENDBRANCH   6   9
ENDBRANCH   3   5
ENDBRANCH   1   3
BRANCH   1  15
ATOM     15  C   UNL d   1       0.895  -0.630  -0.115  0.00  0.00     0.123 C 
ATOM     16  C   UNL d   1       0.770   0.716  -0.357  0.00  0.00     0.077 C 
ATOM     17  C   UNL d   1      -0.611   1.000  -0.176  0.00  0.00     0.037 C 
ATOM     18  N   UNL d   1      -1.308  -0.130   0.020  0.00  0.00    -0.302 N 
ATOM     19  N   UNL d   1      -0.381  -1.101   0.021  0.00  0.00    -0.285 N 
ATOM     20  HN  UNL d   1      -2.316  -0.229   0.142  1.00  0.00     0.186 HD
ATOM     21  H   UNL d   1      -0.679  -2.053   0.204  0.00  0.00     0.188 HD
BRANCH  17  22
ATOM     22  C   UNL d   1      -1.275   2.369  -0.122  0.00  0.00    -0.007 C 
ATOM     23  C   UNL d   1      -1.252   3.031  -1.511  0.00  0.00     0.021 C 
ATOM     24  C   UNL d   1      -2.742   2.284   0.353  0.00  0.00     0.021 C 
ATOM     25  C   UNL d   1      -0.518   3.276   0.875  0.00  0.00     0.021 C 
ENDBRANCH  17  22
ENDBRANCH   1  15
TORSDOF 5
