REMARK  5 active torsions:
REMARK  status: ('A' for Active; 'I' for Inactive)
REMARK    1  A    between atoms: C_9  and  C_1 
REMARK    2  A    between atoms: S_14  and  C_4 
REMARK    3  A    between atoms: C_12  and  C_5 
REMARK    4  A    between atoms: O_18  and  C_13 
REMARK    5  A    between atoms: C_16  and  S_14 
ROOT
ATOM      1  C   UNL d   1       1.790  -2.499   3.002  0.00  0.00    -0.107 C 
ATOM      2  C   UNL d   1       1.088  -2.616   3.973  0.00  0.00     0.013 C 
ATOM      3  C   UNL d   1       2.676  -2.345   1.838  0.00  0.00     0.173 C 
ENDROOT
BRANCH   3   4
ATOM      4  S   UNL d   1       1.816  -2.630   0.249  0.00  0.00    -0.099 SA
BRANCH   4   5
ATOM      5  C   UNL d   1       0.743  -1.203   0.235  0.00  0.00     0.088 A 
ATOM      6  N   UNL d   1       1.481  -0.071   0.333  0.00  0.00    -0.335 N 
ATOM      7  C   UNL d   1       0.862   1.118   0.285  0.00  0.00     0.119 A 
ATOM      8  HN  UNL d   1       2.494  -0.122   0.440  1.00  0.00     0.168 HD
ATOM      9  N   UNL d   1      -0.462   1.224   0.192  0.00  0.00    -0.344 N 
ATOM     10  C   UNL d   1      -1.206   0.085   0.109  0.00  0.00     0.023 A 
ATOM     11  HN  UNL d   1      -0.910   2.140   0.183  1.00  0.00     0.167 HD
ATOM     12  C   UNL d   1      -0.641  -1.198   0.062  0.00  0.00     0.065 A 
ATOM     13  C   UNL d   1      -2.673   0.401   0.035  0.00  0.00     0.069 C 
BRANCH   7  14
ATOM     14  C   UNL d   1       1.716   2.321   0.170  0.00  0.00     0.041 A 
ATOM     15  C   UNL d   1       1.319   3.632   0.524  0.00  0.00     0.082 A 
ATOM     16  C   UNL d   1       2.208   4.710   0.350  0.00  0.00     0.038 A 
ATOM     17  C   UNL d   1       3.482   4.518  -0.187  0.00  0.00     0.003 A 
ATOM     18  C   UNL d   1       3.887   3.246  -0.551  0.00  0.00     0.001 A 
ATOM     19  C   UNL d   1       3.019   2.169  -0.374  0.00  0.00     0.018 A 
BRANCH  15  20
ATOM     20  O   UNL d   1       0.085   3.800   1.107  0.00  0.00    -0.355 OA
ATOM     21  C   UNL d   1      -0.519   5.083   0.964  0.00  0.00     0.210 C 
ENDBRANCH  15  20
ENDBRANCH   7  14
BRANCH  12  22
ATOM     22  C   UNL d   1      -1.500  -2.396  -0.244  0.00  0.00     0.160 C 
ATOM     23  O   UNL d   1      -2.603  -2.225  -0.770  0.00  0.00    -0.293 OA
ATOM     24  C   UNL d   1      -1.065  -3.821  -0.016  0.00  0.00     0.097 C 
ENDBRANCH  12  22
ENDBRANCH   4   5
ENDBRANCH   3   4
TORSDOF 5
