REMARK  6 active torsions:
REMARK  status: ('A' for Active; 'I' for Inactive)
REMARK    1  A    between atoms: N_6  and  S_1 
REMARK    2  A    between atoms: C_9  and  S_1 
REMARK    3  A    between atoms: N_3  and  C_2 
REMARK    4  A    between atoms: N_4  and  C_7 
REMARK    5  A    between atoms: O_10  and  N_6 
REMARK    6  A    between atoms: C_8  and  O_10 
ROOT
ATOM      1  O   UNL d   1       0.842  -0.587   2.550  0.00  0.00    -0.247 OA
ENDROOT
BRANCH   1   2
ATOM      2  C   UNL d   1       0.485  -0.144   3.803  0.00  0.00     0.126 A 
ATOM      3  C   UNL d   1       0.032  -1.047   4.785  0.00  0.00     0.140 A 
ATOM      4  C   UNL d   1      -0.280  -0.594   6.082  0.00  0.00     0.075 A 
ATOM      5  C   UNL d   1      -0.125   0.762   6.394  0.00  0.00     0.105 A 
ATOM      6  C   UNL d   1       0.346   1.663   5.433  0.00  0.00     0.039 A 
ATOM      7  C   UNL d   1       0.657   1.206   4.150  0.00  0.00     0.044 A 
BRANCH   3   8
ATOM      8  N   UNL d   1      -0.149  -2.478   4.500  0.00  0.00    -0.113 N 
ATOM      9  O   UNL d   1      -0.425  -3.220   5.452  0.00  0.00    -0.532 OA
ATOM     10  O   UNL d   1      -0.042  -2.868   3.329  0.00  0.00    -0.532 OA
ENDBRANCH   3   8
BRANCH   5  11
ATOM     11  N   UNL d   1      -0.456   1.245   7.742  0.00  0.00    -0.116 N 
ATOM     12  O   UNL d   1      -0.867   0.416   8.564  0.00  0.00    -0.532 OA
ATOM     13  O   UNL d   1      -0.311   2.454   7.970  0.00  0.00    -0.532 OA
ENDBRANCH   5  11
ENDBRANCH   1   2
BRANCH   1  14
ATOM     14  N   UNL d   1       0.480   0.381   1.536  0.00  0.00    -0.084 NA
ATOM     15  H   UNL d   1      -0.377   0.054   1.080  0.00  0.00     0.173 HD
BRANCH  14  16
ATOM     16  S   UNL d   1       1.760   0.305   0.401  0.00  0.00     0.263 S 
ATOM     17  O   UNL d   1       1.614  -0.930  -0.337  0.00  0.00    -0.204 OA
ATOM     18  O   UNL d   1       2.991   0.671   1.068  0.00  0.00    -0.204 OA
BRANCH  16  19
ATOM     19  C   UNL d   1       1.317   1.636  -0.697  0.00  0.00     0.076 A 
ATOM     20  C   UNL d   1       1.888   2.904  -0.529  0.00  0.00     0.028 A 
ATOM     21  C   UNL d   1       1.551   3.930  -1.414  0.00  0.00     0.044 A 
ATOM     22  C   UNL d   1       0.661   3.679  -2.455  0.00  0.00     0.116 A 
ATOM     23  C   UNL d   1       0.108   2.415  -2.639  0.00  0.00     0.044 A 
ATOM     24  F   UNL d   1       0.338   4.667  -3.299  0.00  0.00    -0.206 F 
ATOM     25  C   UNL d   1       0.441   1.382  -1.761  0.00  0.00     0.028 A 
ENDBRANCH  16  19
ENDBRANCH  14  16
ENDBRANCH   1  14
TORSDOF 6
