REMARK  5 active torsions:
REMARK  status: ('A' for Active; 'I' for Inactive)
REMARK    1  A    between atoms: S_7  and  C_1 
REMARK    2  A    between atoms: C_8  and  C_4 
REMARK    3  A    between atoms: C_11  and  S_7 
REMARK    4  A    between atoms: C_9  and  C_11 
REMARK    5  A    between atoms: C_10  and  C_9 
ROOT
ATOM      1  C   UNL d   1      -0.114   1.057   0.233  0.00  0.00     0.187 A 
ATOM      2  N   UNL d   1       0.854   0.189   0.444  0.00  0.00    -0.338 N 
ATOM      3  HN  UNL d   1       1.770   0.360   0.857  1.00  0.00     0.168 HD
ATOM      4  C   UNL d   1      -0.927  -0.812  -0.517  0.00  0.00     0.104 A 
ATOM      5  O   UNL d   1      -1.226   0.516  -0.354  0.00  0.00    -0.286 OA
ATOM      6  C   UNL d   1       0.345  -0.997  -0.022  0.00  0.00     0.129 A 
ENDROOT
BRANCH   1   7
ATOM      7  S   UNL d   1       0.025   2.744   0.641  0.00  0.00    -0.078 SA
BRANCH   7   8
ATOM      8  C   UNL d   1      -1.561   3.350   0.022  0.00  0.00     0.166 C 
BRANCH   8   9
ATOM      9  C   UNL d   1      -1.712   4.830   0.288  0.00  0.00     0.169 C 
ATOM     10  O   UNL d   1      -2.207   5.249   1.335  0.00  0.00    -0.291 OA
BRANCH   9  11
ATOM     11  C   UNL d   1      -1.306   5.815  -0.756  0.00  0.00     0.011 A 
ATOM     12  C   UNL d   1      -1.974   7.049  -0.792  0.00  0.00     0.017 A 
ATOM     13  C   UNL d   1      -1.604   8.030  -1.716  0.00  0.00     0.025 A 
ATOM     14  C   UNL d   1      -0.555   7.785  -2.598  0.00  0.00     0.034 A 
ATOM     15  C   UNL d   1       0.110   6.559  -2.579  0.00  0.00     0.025 A 
ATOM     16 CL   UNL d   1      -0.066   9.007  -3.706  0.00  0.00    -0.084 Cl
ATOM     17  C   UNL d   1      -0.268   5.569  -1.664  0.00  0.00     0.017 A 
ENDBRANCH   9  11
ENDBRANCH   8   9
ENDBRANCH   7   8
ENDBRANCH   1   7
BRANCH   4  18
ATOM     18  C   UNL d   1      -1.938  -1.651  -1.148  0.00  0.00    -0.001 A 
ATOM     19  C   UNL d   1      -3.180  -1.123  -1.535  0.00  0.00     0.016 A 
ATOM     20  C   UNL d   1      -4.133  -1.923  -2.178  0.00  0.00     0.024 A 
ATOM     21  C   UNL d   1      -3.853  -3.260  -2.437  0.00  0.00     0.034 A 
ATOM     22  C   UNL d   1      -2.633  -3.809  -2.046  0.00  0.00     0.024 A 
ATOM     23 CL   UNL d   1      -5.011  -4.237  -3.251  0.00  0.00    -0.084 Cl
ATOM     24  C   UNL d   1      -1.683  -3.008  -1.403  0.00  0.00     0.016 A 
ENDBRANCH   4  18
TORSDOF 5
