REMARK  2 active torsions:
REMARK  status: ('A' for Active; 'I' for Inactive)
REMARK    1  A    between atoms: C_3  and  C_2 
REMARK    2  A    between atoms: O_9  and  C_3 
ROOT
ATOM      1  C   UNL d   1      -0.233  -0.786  -0.002  0.00  0.00     0.009 A 
ATOM      2  C   UNL d   1       1.010  -1.462  -0.006  0.00  0.00     0.050 A 
ATOM      3  N   UNL d   1      -1.546   1.027   0.002  0.00  0.00    -0.365 N 
ATOM      4  C   UNL d   1      -0.231   0.613   0.005  0.00  0.00     0.043 A 
ATOM      5  C   UNL d   1      -2.381  -0.054   0.000  0.00  0.00     0.089 A 
ATOM      6  C   UNL d   1      -1.602  -1.189   0.002  0.00  0.00     0.032 A 
ATOM      7  C   UNL d   1       2.200  -0.708  -0.038  0.00  0.00     0.019 A 
ATOM      8  C   UNL d   1       2.162   0.685  -0.024  0.00  0.00     0.003 A 
ATOM      9  C   UNL d   1       0.945   1.371   0.002  0.00  0.00     0.030 A 
ATOM     10  H   UNL d   1      -1.843   1.993  -0.007  0.00  0.00     0.165 HD
ENDROOT
BRANCH   2  11
ATOM     11  C   UNL d   1       1.040  -2.946  -0.035  0.00  0.00     0.177 C 
ATOM     12  O   UNL d   1       0.199  -3.634  -0.587  0.00  0.00    -0.646 OA
BRANCH  11  13
ATOM     13  O   UNL d   1       2.093  -3.476   0.627  0.00  0.00    -0.773 OA
ATOM     14  H   UNL d   1       2.584  -2.846   1.186  0.00  0.00     0.167 HD
ENDBRANCH  11  13
ENDBRANCH   2  11
TORSDOF 2
