REMARK  4 active torsions:
REMARK  status: ('A' for Active; 'I' for Inactive)
REMARK    1  A    between atoms: N_2  and  S_1 
REMARK    2  A    between atoms: C_6  and  S_1 
REMARK    3  A    between atoms: C_13  and  N_2 
REMARK    4  A    between atoms: C_14  and  C_13 
ROOT
ATOM      1  N   UNL d   1       0.616  -0.724  -1.462  0.00  0.00    -0.311 N 
ATOM      2  H   UNL d   1      -0.339  -1.079  -1.433  0.00  0.00     0.172 HD
ENDROOT
BRANCH   1   3
ATOM      3  S   UNL d   1       1.098  -0.038  -0.007  0.00  0.00     0.259 S 
ATOM      4  O   UNL d   1       2.464   0.417  -0.148  0.00  0.00    -0.201 OA
ATOM      5  O   UNL d   1       0.702  -0.957   1.036  0.00  0.00    -0.201 OA
BRANCH   3   6
ATOM      6  C   UNL d   1       0.047   1.392   0.114  0.00  0.00     0.079 A 
ATOM      7  C   UNL d   1      -1.193   1.279   0.751  0.00  0.00     0.025 A 
ATOM      8  C   UNL d   1      -1.995   2.410   0.897  0.00  0.00     0.002 A 
ATOM      9  C   UNL d   1      -1.557   3.644   0.412  0.00  0.00     0.000 A 
ATOM     10  C   UNL d   1      -0.317   3.753  -0.218  0.00  0.00     0.002 A 
ATOM     11  C   UNL d   1       0.495   2.628  -0.362  0.00  0.00     0.025 A 
ENDBRANCH   3   6
ENDBRANCH   1   3
BRANCH   1  12
ATOM     12  C   UNL d   1       1.000  -0.036  -2.696  0.00  0.00     0.170 C 
BRANCH  12  13
ATOM     13  C   UNL d   1       0.522  -0.795  -3.913  0.00  0.00    -0.037 A 
ATOM     14  C   UNL d   1      -0.349  -0.187  -4.831  0.00  0.00     0.048 A 
ATOM     15  C   UNL d   1      -0.772  -0.929  -5.914  0.00  0.00     0.105 A 
ATOM     16  O   UNL d   1      -1.619  -0.497  -6.886  0.00  0.00    -0.323 OA
ATOM     17  C   UNL d   1      -0.363  -2.226  -6.112  0.00  0.00     0.105 A 
ATOM     18  C   UNL d   1      -1.686  -1.669  -7.726  0.00  0.00     0.352 A 
ATOM     19  O   UNL d   1      -0.906  -2.776  -7.230  0.00  0.00    -0.323 OA
ATOM     20  C   UNL d   1       0.501  -2.853  -5.242  0.00  0.00     0.040 A 
ATOM     21  C   UNL d   1       0.950  -2.127  -4.134  0.00  0.00     0.012 A 
ENDBRANCH  12  13
ENDBRANCH   1  12
TORSDOF 4
