REMARK  6 active torsions:
REMARK  status: ('A' for Active; 'I' for Inactive)
REMARK    1  A    between atoms: N_5  and  C_1 
REMARK    2  A    between atoms: C_8  and  C_3 
REMARK    3  A    between atoms: C_14  and  N_4 
REMARK    4  A    between atoms: C_9  and  C_8 
REMARK    5  A    between atoms: O_17  and  C_9 
REMARK    6  A    between atoms: C_22  and  O_17 
ROOT
ATOM      1  C   UNL d   1       1.446  -2.801  -0.036  0.00  0.00     0.228 C 
ATOM      2  C   UNL d   1       2.214  -3.412   1.058  0.00  0.00     0.079 C 
ATOM      3  N   UNL d   1       2.768  -3.912   1.951  0.00  0.00    -0.196 NA
ENDROOT
BRANCH   1   4
ATOM      4  C   UNL d   1       1.378  -1.263   0.066  0.00  0.00     0.020 C 
ATOM      5  C   UNL d   1       2.429  -0.412   0.024  0.00  0.00     0.180 C 
ATOM      6  C   UNL d   1       2.371   1.055   0.107  0.00  0.00     0.286 C 
ATOM      7  N   UNL d   1       1.102   1.615  -0.025  0.00  0.00    -0.276 N 
ATOM      8  O   UNL d   1       3.396   1.706   0.304  0.00  0.00    -0.265 OA
ATOM      9  C   UNL d   1      -0.083   0.815  -0.006  0.00  0.00     0.054 C 
ATOM     10  C   UNL d   1       0.028  -0.593   0.154  0.00  0.00     0.002 C 
ATOM     11  C   UNL d   1      -1.360   1.393  -0.166  0.00  0.00     0.031 C 
ATOM     12  C   UNL d   1      -1.168  -1.320   0.336  0.00  0.00     0.014 C 
ATOM     13  C   UNL d   1      -2.423  -0.718   0.221  0.00  0.00     0.001 C 
ATOM     14  C   UNL d   1      -2.521   0.631  -0.066  0.00  0.00     0.002 C 
BRANCH   5  15
ATOM     15  N   UNL d   1       3.776  -0.895  -0.111  0.00  0.00    -0.109 N 
ATOM     16  O   UNL d   1       4.345  -1.265   0.920  0.00  0.00    -0.532 OA
ATOM     17  O   UNL d   1       4.251  -0.921  -1.251  0.00  0.00    -0.532 OA
ENDBRANCH   5  15
BRANCH   7  18
ATOM     18  C   UNL d   1       1.026   3.039   0.018  0.00  0.00     0.043 A 
ATOM     19  C   UNL d   1       1.766   3.787  -0.911  0.00  0.00     0.030 A 
ATOM     20  C   UNL d   1       1.857   5.173  -0.797  0.00  0.00     0.002 A 
ATOM     21  C   UNL d   1       1.216   5.825   0.254  0.00  0.00     0.000 A 
ATOM     22  C   UNL d   1       0.474   5.093   1.181  0.00  0.00     0.002 A 
ATOM     23  C   UNL d   1       0.376   3.704   1.066  0.00  0.00     0.030 A 
ENDBRANCH   7  18
ENDBRANCH   1   4
BRANCH   1  24
ATOM     24  C   UNL d   1       1.886  -3.345  -1.394  0.00  0.00     0.281 C 
ATOM     25  O   UNL d   1       2.193  -2.655  -2.355  0.00  0.00    -0.263 OA
BRANCH  24  26
ATOM     26  O   UNL d   1       1.778  -4.708  -1.422  0.00  0.00    -0.321 OA
BRANCH  26  27
ATOM     27  C   UNL d   1       2.210  -5.373  -2.623  0.00  0.00     0.174 C 
ATOM     28  C   UNL d   1       1.146  -5.328  -3.706  0.00  0.00     0.034 C 
ENDBRANCH  26  27
ENDBRANCH  24  26
ENDBRANCH   1  24
TORSDOF 6
