REMARK  4 active torsions:
REMARK  status: ('A' for Active; 'I' for Inactive)
REMARK    1  A    between atoms: C_2  and  C_1 
REMARK    2  A    between atoms: C_7  and  C_2 
REMARK    3  A    between atoms: C_8  and  C_2 
REMARK    4  A    between atoms: O_10  and  C_2 
ROOT
ATOM      1  C   UNL d   1       1.533  -2.356  -0.001  0.00  0.00     0.141 C 
ENDROOT
BRANCH   1   2
ATOM      2  C   UNL d   1       1.175  -0.838   0.046  0.00  0.00    -0.004 A 
ATOM      3  C   UNL d   1      -0.168  -0.340   0.176  0.00  0.00    -0.015 A 
ATOM      4  C   UNL d   1      -0.400   1.066   0.207  0.00  0.00    -0.019 A 
ATOM      5  C   UNL d   1      -1.312  -1.180   0.230  0.00  0.00     0.013 A 
ATOM      6  C   UNL d   1      -1.724   1.541   0.350  0.00  0.00     0.013 A 
ATOM      7  C   UNL d   1       0.687   1.967   0.073  0.00  0.00    -0.051 A 
ATOM      8  C   UNL d   1      -2.817   0.682   0.423  0.00  0.00     0.001 A 
ATOM      9  C   UNL d   1      -2.611  -0.682   0.346  0.00  0.00     0.001 A 
ATOM     10  C   UNL d   1       1.984   1.471  -0.070  0.00  0.00     0.008 A 
ATOM     11  C   UNL d   1       0.498   3.464   0.052  0.00  0.00     0.049 C 
ATOM     12  C   UNL d   1       2.223   0.102  -0.081  0.00  0.00     0.012 A 
ENDBRANCH   1   2
BRANCH   1  13
ATOM     13  C   UNL d   1       1.131  -3.074   1.330  0.00  0.00    -0.015 A 
ATOM     14  C   UNL d   1       0.217  -4.146   1.381  0.00  0.00     0.011 A 
ATOM     15  C   UNL d   1      -0.021  -4.856   2.562  0.00  0.00     0.001 A 
ATOM     16  C   UNL d   1       0.625  -4.488   3.734  0.00  0.00     0.000 A 
ATOM     17  C   UNL d   1       1.479  -3.388   3.734  0.00  0.00     0.001 A 
ATOM     18  C   UNL d   1       1.720  -2.682   2.551  0.00  0.00     0.011 A 
ENDBRANCH   1  13
BRANCH   1  19
ATOM     19  C   UNL d   1       1.094  -3.067  -1.309  0.00  0.00    -0.015 C 
ATOM     20  C   UNL d   1       0.479  -2.391  -2.380  0.00  0.00     0.011 C 
ATOM     21  C   UNL d   1      -0.008  -3.081  -3.494  0.00  0.00     0.001 C 
ATOM     22  C   UNL d   1       0.134  -4.462  -3.580  0.00  0.00     0.000 C 
ATOM     23  C   UNL d   1       0.820  -5.145  -2.583  0.00  0.00     0.001 C 
ATOM     24  C   UNL d   1       1.325  -4.450  -1.481  0.00  0.00     0.011 C 
ENDBRANCH   1  19
BRANCH   1  25
ATOM     25  O   UNL d   1       2.977  -2.463  -0.097  0.00  0.00    -0.376 OA
ATOM     26  H   UNL d   1       3.310  -2.835   0.733  0.00  0.00     0.211 HD
ENDBRANCH   1  25
TORSDOF 4
