REMARK  6 active torsions:
REMARK  status: ('A' for Active; 'I' for Inactive)
REMARK    1  A    between atoms: C_3  and  C_1 
REMARK       I    between atoms: N_9  and  C_1 
REMARK    2  A    between atoms: C_2  and  C_6 
REMARK    3  A    between atoms: N_15  and  N_9 
REMARK    4  A    between atoms: O_12  and  C_16 
REMARK    5  A    between atoms: C_13  and  O_12 
REMARK    6  A    between atoms: C_16  and  C_14 
ROOT
ATOM      1  C   UNL d   1      -2.013  -1.932  -0.740  0.00  0.00     0.033 A 
ATOM      2  C   UNL d   1      -1.502  -3.236  -0.711  0.00  0.00     0.026 A 
ATOM      3  C   UNL d   1      -0.146  -3.489  -0.983  0.00  0.00    -0.033 A 
ATOM      4  C   UNL d   1      -1.181  -0.878  -1.134  0.00  0.00     0.017 A 
ATOM      5  C   UNL d   1       0.159  -1.127  -1.454  0.00  0.00     0.002 A 
ATOM      6  C   UNL d   1       0.678  -2.420  -1.363  0.00  0.00     0.009 A 
ENDROOT
BRANCH   3   7
ATOM      7  C   UNL d   1       0.420  -4.886  -0.851  0.00  0.00     0.214 C 
BRANCH   7   8
ATOM      8  O   UNL d   1       1.474  -4.851   0.115  0.00  0.00    -0.347 OA
BRANCH   8   9
ATOM      9  C   UNL d   1       2.123  -6.032   0.343  0.00  0.00     0.069 A 
ATOM     10  C   UNL d   1       3.443  -5.909   0.772  0.00  0.00     0.037 A 
ATOM     11  C   UNL d   1       4.214  -7.043   1.038  0.00  0.00     0.012 A 
ATOM     12  C   UNL d   1       3.667  -8.329   0.902  0.00  0.00    -0.035 A 
ATOM     13  C   UNL d   1       2.332  -8.439   0.477  0.00  0.00     0.012 A 
ATOM     14  C   UNL d   1       1.567  -7.301   0.198  0.00  0.00     0.037 A 
BRANCH  12  15
ATOM     15  C   UNL d   1       4.508  -9.538   1.244  0.00  0.00     0.141 C 
ATOM     16  S   UNL d   1       4.700 -10.702  -0.138  0.00  0.00    -0.148 SA
ATOM     17  C   UNL d   1       4.946 -12.156   0.905  0.00  0.00     0.085 C 
ATOM     18  C   UNL d   1       3.905 -12.097   2.006  0.00  0.00     0.085 C 
ATOM     19  S   UNL d   1       3.870 -10.425   2.708  0.00  0.00    -0.148 SA
ENDBRANCH  12  15
ENDBRANCH   8   9
ENDBRANCH   7   8
ENDBRANCH   3   7
BRANCH   1  20
ATOM     20  C   UNL d   1      -3.445  -1.692  -0.389  0.00  0.00     0.265 C 
ATOM     21  O   UNL d   1      -4.288  -2.564  -0.616  0.00  0.00    -0.266 OA
ATOM     22  N   UNL d   1      -3.762  -0.476   0.203  0.00  0.00    -0.290 N 
ATOM     23  H   UNL d   1      -3.004   0.013   0.686  0.00  0.00     0.183 HD
BRANCH  22  24
ATOM     24  N   UNL d   1      -5.087  -0.154   0.609  0.00  0.00    -0.247 NA
ATOM     25  H   UNL d   1      -5.708  -0.947   0.400  0.00  0.00     0.143 HD
ATOM     26  H   UNL d   1      -5.426   0.610   0.021  0.00  0.00     0.143 HD
ENDBRANCH  22  24
ENDBRANCH   1  20
TORSDOF 6
