REMARK  2 active torsions:
REMARK  status: ('A' for Active; 'I' for Inactive)
REMARK    1  A    between atoms: O_7  and  C_1 
REMARK    2  A    between atoms: C_12  and  O_7 
ROOT
ATOM      1  C   UNL d   1      -0.096  -1.086  -0.126  0.00  0.00     0.233 A 
ATOM      2  N   UNL d   1       1.117  -0.583  -0.220  0.00  0.00    -0.310 N 
ATOM      3  HN  UNL d   1       1.995  -1.096  -0.300  1.00  0.00     0.170 HD
ATOM      4  C   UNL d   1      -0.386   1.108  -0.120  0.00  0.00     0.156 A 
ATOM      5  N   UNL d   1      -1.049  -0.097  -0.123  0.00  0.00    -0.306 N 
ATOM      6  C   UNL d   1       0.948   0.778  -0.188  0.00  0.00     0.155 A 
ATOM      7  C   UNL d   1      -0.966   2.396  -0.027  0.00  0.00     0.121 C 
ATOM      8  C   UNL d   1       2.078   1.651  -0.159  0.00  0.00     0.121 C 
ATOM      9  N   UNL d   1      -1.470   3.437   0.060  0.00  0.00    -0.190 NA
ATOM     10  N   UNL d   1       2.987   2.376  -0.110  0.00  0.00    -0.190 NA
ATOM     11  C   UNL d   1      -2.474  -0.312  -0.034  0.00  0.00     0.161 C 
ENDROOT
BRANCH   1  12
ATOM     12  O   UNL d   1      -0.385  -2.380   0.017  0.00  0.00    -0.277 OA
BRANCH  12  13
ATOM     13  C   UNL d   1       0.544  -3.227   0.591  0.00  0.00     0.101 A 
ATOM     14  C   UNL d   1       0.641  -4.550   0.143  0.00  0.00     0.069 A 
ATOM     15  C   UNL d   1       1.554  -5.430   0.735  0.00  0.00     0.050 A 
ATOM     16 CL   UNL d   1      -0.348  -5.136  -1.145  0.00  0.00    -0.081 Cl
ATOM     17  C   UNL d   1       2.369  -4.985   1.774  0.00  0.00     0.035 A 
ATOM     18  C   UNL d   1       2.274  -3.676   2.237  0.00  0.00     0.026 A 
ATOM     19 CL   UNL d   1       3.494  -6.060   2.506  0.00  0.00    -0.084 Cl
ATOM     20  C   UNL d   1       1.351  -2.807   1.659  0.00  0.00     0.041 A 
ENDBRANCH  12  13
ENDBRANCH   1  12
TORSDOF 2
