REMARK  4 active torsions:
REMARK  status: ('A' for Active; 'I' for Inactive)
REMARK    1  A    between atoms: S_11  and  C_2 
REMARK    2  A    between atoms: C_6  and  C_3 
REMARK       I    between atoms: N_7  and  C_6 
REMARK    3  A    between atoms: N_8  and  N_7 
REMARK    4  A    between atoms: O_15  and  C_10 
ROOT
ATOM      1  C   UNL d   1       0.090  -0.818  -0.021  0.00  0.00     0.002 A 
ATOM      2  C   UNL d   1       1.224  -1.613   0.055  0.00  0.00     0.051 A 
ATOM      3  C   UNL d   1       1.807   0.816   0.049  0.00  0.00     0.082 A 
ATOM      4  C   UNL d   1       0.433   0.597   0.058  0.00  0.00    -0.025 A 
ATOM      5  S   UNL d   1       2.653  -0.667   0.093  0.00  0.00    -0.076 SA
ATOM      6  C   UNL d   1      -1.349  -1.268  -0.136  0.00  0.00     0.153 C 
ATOM      7  C   UNL d   1      -0.630   1.671   0.079  0.00  0.00     0.041 C 
ATOM      8  C   UNL d   1      -2.017   1.113   0.413  0.00  0.00     0.007 C 
ATOM      9  C   UNL d   1      -2.322  -0.118  -0.432  0.00  0.00     0.037 C 
ENDROOT
BRANCH   3  10
ATOM     10  C   UNL d   1       2.529   2.100   0.008  0.00  0.00     0.277 C 
ATOM     11  N   UNL d   1       3.927   2.012  -0.026  0.00  0.00    -0.266 N 
ATOM     12  H   UNL d   1       4.354   1.095  -0.018  0.00  0.00     0.190 HD
ATOM     13  O   UNL d   1       1.937   3.180  -0.011  0.00  0.00    -0.265 OA
BRANCH  11  14
ATOM     14  N   UNL d   1       4.688   3.143  -0.038  0.00  0.00    -0.307 N 
ATOM     15  C   UNL d   1       5.987   3.086  -0.105  0.00  0.00    -0.004 C 
ATOM     16  C   UNL d   1       6.848   1.847  -0.194  0.00  0.00     0.064 C 
ATOM     17  C   UNL d   1       6.736   4.403  -0.089  0.00  0.00     0.064 C 
ATOM     18  HN  UNL d   1       4.230   4.053   0.005  1.00  0.00     0.186 HD
ENDBRANCH  11  14
ENDBRANCH   3  10
BRANCH   2  19
ATOM     19  S   UNL d   1       1.411  -3.367   0.028  0.00  0.00    -0.126 SA
ATOM     20  C   UNL d   1       0.033  -3.998   1.003  0.00  0.00     0.096 C 
ENDBRANCH   2  19
BRANCH   6  21
ATOM     21  O   UNL d   1      -1.528  -2.237  -1.167  0.00  0.00    -0.391 OA
ATOM     22  H   UNL d   1      -1.001  -1.940  -1.929  0.00  0.00     0.210 HD
ENDBRANCH   6  21
TORSDOF 4
