REMARK  5 active torsions:
REMARK  status: ('A' for Active; 'I' for Inactive)
REMARK    1  A    between atoms: C_4  and  N_1 
REMARK    2  A    between atoms: C_10  and  C_2 
REMARK    3  A    between atoms: C_14  and  C_3 
REMARK    4  A    between atoms: O_18  and  C_10 
REMARK    5  A    between atoms: C_22  and  O_18 
ROOT
ATOM      1  N   UNL d   1       0.975  -0.575   0.171  0.00  0.00    -0.252 N 
ATOM      2  C   UNL d   1      -0.292   1.244  -0.003  0.00  0.00     0.086 A 
ATOM      3  C   UNL d   1       1.036   0.815   0.021  0.00  0.00     0.085 A 
ATOM      4  N   UNL d   1      -0.303  -1.020   0.278  0.00  0.00    -0.303 N 
ATOM      5  HN  UNL d   1      -0.620  -1.982   0.401  1.00  0.00     0.186 HD
ATOM      6  C   UNL d   1      -1.052   0.078   0.184  0.00  0.00     0.127 A 
ENDROOT
BRANCH   1   7
ATOM      7  C   UNL d   1       2.032  -1.522   0.199  0.00  0.00     0.100 A 
ATOM      8  C   UNL d   1       3.107  -1.386   1.093  0.00  0.00     0.066 A 
ATOM      9  C   UNL d   1       4.216  -2.236   0.995  0.00  0.00     0.050 A 
ATOM     10 CL   UNL d   1       3.099  -0.300   2.441  0.00  0.00    -0.082 Cl
ATOM     11  C   UNL d   1       4.229  -3.254   0.049  0.00  0.00     0.037 A 
ATOM     12  C   UNL d   1       3.138  -3.452  -0.787  0.00  0.00     0.050 A 
ATOM     13 CL   UNL d   1       5.604  -4.279  -0.085  0.00  0.00    -0.084 Cl
ATOM     14  C   UNL d   1       2.038  -2.588  -0.721  0.00  0.00     0.066 A 
ATOM     15 CL   UNL d   1       0.801  -2.859  -1.903  0.00  0.00    -0.082 Cl
ENDBRANCH   1   7
BRANCH   3  16
ATOM     16  C   UNL d   1       2.272   1.613  -0.082  0.00  0.00    -0.006 A 
ATOM     17  C   UNL d   1       2.426   2.756   0.719  0.00  0.00     0.014 A 
ATOM     18  C   UNL d   1       3.599   3.508   0.684  0.00  0.00     0.001 A 
ATOM     19  C   UNL d   1       4.652   3.114  -0.136  0.00  0.00     0.000 A 
ATOM     20  C   UNL d   1       4.515   1.985  -0.942  0.00  0.00     0.001 A 
ATOM     21  C   UNL d   1       3.325   1.251  -0.933  0.00  0.00     0.014 A 
ENDBRANCH   3  16
BRANCH   2  22
ATOM     22  C   UNL d   1      -0.793   2.595  -0.180  0.00  0.00     0.297 C 
ATOM     23  O   UNL d   1      -0.147   3.509  -0.679  0.00  0.00    -0.259 OA
BRANCH  22  24
ATOM     24  O   UNL d   1      -2.059   2.740   0.309  0.00  0.00    -0.318 OA
BRANCH  24  25
ATOM     25  C   UNL d   1      -2.549   4.089   0.352  0.00  0.00     0.174 C 
ATOM     26  C   UNL d   1      -3.200   4.468  -0.964  0.00  0.00     0.034 C 
ENDBRANCH  24  25
ENDBRANCH  22  24
ENDBRANCH   2  22
TORSDOF 5
