REMARK  2 active torsions:
REMARK  status: ('A' for Active; 'I' for Inactive)
REMARK    1  A    between atoms: C_11  and  C_10 
REMARK    2  A    between atoms: O_17  and  C_11 
ROOT
ATOM      1  S   UNL d   1      -2.563   0.740  -0.506  0.00  0.00     0.239 S 
ATOM      2  N   UNL d   1      -1.204   1.452   0.210  0.00  0.00    -0.279 N 
ATOM      3  C   UNL d   1       0.042   0.742   0.046  0.00  0.00     0.059 A 
ATOM      4  C   UNL d   1      -2.493  -0.801   0.332  0.00  0.00     0.247 C 
ATOM      5  C   UNL d   1       0.058  -0.663  -0.031  0.00  0.00     0.038 A 
ATOM      6  C   UNL d   1      -1.198  -1.468   0.009  0.00  0.00     0.177 C 
ATOM      7  C   UNL d   1       1.268   1.422   0.080  0.00  0.00     0.049 A 
ATOM      8  O   UNL d   1      -2.302   0.537  -1.916  0.00  0.00    -0.205 OA
ATOM      9  O   UNL d   1      -3.749   1.432  -0.054  0.00  0.00    -0.205 OA
ATOM     10  C   UNL d   1       2.490   0.728   0.016  0.00  0.00     0.041 A 
ATOM     11  C   UNL d   1       1.276  -1.357  -0.103  0.00  0.00     0.018 A 
ATOM     12  O   UNL d   1      -1.137  -2.690  -0.125  0.00  0.00    -0.291 OA
ATOM     13  C   UNL d   1       2.488  -0.666  -0.075  0.00  0.00     0.018 A 
ATOM     14  C   UNL d   1      -1.255   2.896   0.487  0.00  0.00     0.169 C 
ENDROOT
BRANCH  10  15
ATOM     15  C   UNL d   1       3.746   1.526   0.063  0.00  0.00     0.293 C 
ATOM     16  O   UNL d   1       3.756   2.742   0.143  0.00  0.00    -0.259 OA
BRANCH  15  17
ATOM     17  O   UNL d   1       4.837   0.721   0.024  0.00  0.00    -0.323 OA
ATOM     18  C   UNL d   1       6.076   1.431   0.079  0.00  0.00     0.213 C 
ENDBRANCH  15  17
ENDBRANCH  10  15
TORSDOF 2
