REMARK  7 active torsions:
REMARK  status: ('A' for Active; 'I' for Inactive)
REMARK    1  A    between atoms: C_4  and  N_1 
REMARK    2  A    between atoms: C_2  and  C_3 
REMARK    3  A    between atoms: C_6  and  C_5 
REMARK    4  A    between atoms: S_10  and  C_7 
REMARK    5  A    between atoms: C_14  and  S_10 
REMARK    6  A    between atoms: C_11  and  C_13 
REMARK       I    between atoms: N_16  and  C_11 
REMARK    7  A    between atoms: C_23  and  N_16 
ROOT
ATOM      1  C   UNL d   1       0.108   1.116  -0.648  0.00  0.00     0.103 A 
ATOM      2  C   UNL d   1      -0.193   2.272  -2.780  0.00  0.00    -0.017 A 
ATOM      3  C   UNL d   1      -1.287   2.990  -2.217  0.00  0.00     0.017 A 
ATOM      4  C   UNL d   1       0.499   1.343  -1.975  0.00  0.00     0.048 A 
ATOM      5  C   UNL d   1      -0.969   1.810  -0.097  0.00  0.00     0.037 A 
ATOM      6  C   UNL d   1      -1.667   2.725  -0.889  0.00  0.00     0.022 A 
ENDROOT
BRANCH   3   7
ATOM      7  S   UNL d   1      -2.312   4.071  -3.220  0.00  0.00    -0.072 SA
BRANCH   7   8
ATOM      8  C   UNL d   1      -2.597   5.586  -2.308  0.00  0.00     0.074 A 
ATOM      9  N   UNL d   1      -2.290   5.683  -0.996  0.00  0.00    -0.359 N 
ATOM     10  C   UNL d   1      -2.560   6.860  -0.367  0.00  0.00     0.105 A 
ATOM     11  HN  UNL d   1      -1.870   4.901  -0.493  1.00  0.00     0.166 HD
ATOM     12  C   UNL d   1      -3.124   7.966  -0.987  0.00  0.00     0.063 A 
ATOM     13  C   UNL d   1      -3.442   7.840  -2.341  0.00  0.00     0.020 A 
ATOM     14  C   UNL d   1      -3.182   6.642  -3.003  0.00  0.00     0.038 A 
BRANCH  12  15
ATOM     15  C   UNL d   1      -3.351   9.248  -0.245  0.00  0.00     0.418 C 
ATOM     16  F   UNL d   1      -3.056   9.174   1.082  0.00  0.00    -0.166 F 
ATOM     17  F   UNL d   1      -2.598  10.271  -0.737  0.00  0.00    -0.166 F 
ATOM     18  F   UNL d   1      -4.643   9.673  -0.315  0.00  0.00    -0.166 F 
ENDBRANCH  12  15
ENDBRANCH   7   8
ENDBRANCH   3   7
BRANCH   2  19
ATOM     19  C   UNL d   1       0.322   2.540  -4.146  0.00  0.00     0.018 C 
ATOM     20  C   UNL d   1       0.852   1.640  -4.995  0.00  0.00     0.075 C 
BRANCH  20  21
ATOM     21  C   UNL d   1       1.457   2.128  -6.273  0.00  0.00     0.241 C 
ATOM     22  N   UNL d   1       1.833   1.122  -7.135  0.00  0.00    -0.350 N 
ATOM     23  H   UNL d   1       1.732   0.168  -6.816  0.00  0.00     0.163 HD
ATOM     24  O   UNL d   1       1.626   3.325  -6.477  0.00  0.00    -0.269 OA
BRANCH  22  25
ATOM     25  C   UNL d   1       2.684   1.329  -8.327  0.00  0.00     0.022 C 
ATOM     26  C   UNL d   1       4.121   1.654  -7.888  0.00  0.00     0.037 C 
ATOM     27  C   UNL d   1       2.707   0.024  -9.147  0.00  0.00     0.037 C 
ATOM     28  C   UNL d   1       2.158   2.443  -9.250  0.00  0.00     0.037 C 
ENDBRANCH  22  25
ENDBRANCH  20  21
ENDBRANCH   2  19
BRANCH   1  29
ATOM     29  N   UNL d   1       0.834   0.133   0.167  0.00  0.00    -0.116 N 
ATOM     30  O   UNL d   1       1.738  -0.515  -0.380  0.00  0.00    -0.532 OA
ATOM     31  O   UNL d   1       0.497   0.004   1.354  0.00  0.00    -0.532 OA
ENDBRANCH   1  29
TORSDOF 7
