REMARK  2 active torsions:
REMARK  status: ('A' for Active; 'I' for Inactive)
REMARK    1  A    between atoms: C_3  and  S_1 
REMARK    2  A    between atoms: C_4  and  S_1 
ROOT
ATOM      1  N   UNL d   1       0.795  -0.391  -3.616  0.00  0.00    -0.196 NA
ATOM      2  C   UNL d   1       2.152  -0.532  -1.387  0.00  0.00     0.269 C 
ATOM      3  C   UNL d   1       1.380  -0.466  -2.616  0.00  0.00     0.074 C 
ENDROOT
BRANCH   2   4
ATOM      4  S   UNL d   1       1.077  -0.104  -0.047  0.00  0.00     0.187 S 
ATOM      5  O   UNL d   1       1.897  -0.000   1.147  0.00  0.00    -0.222 OA
ATOM      6  O   UNL d   1      -0.077  -0.984  -0.055  0.00  0.00    -0.222 OA
BRANCH   4   7
ATOM      7  C   UNL d   1       0.510   1.543  -0.418  0.00  0.00     0.060 A 
ATOM      8  C   UNL d   1      -0.691   1.724  -1.110  0.00  0.00     0.025 A 
ATOM      9  C   UNL d   1      -1.113   3.018  -1.425  0.00  0.00     0.025 A 
ATOM     10  C   UNL d   1      -0.347   4.115  -1.028  0.00  0.00     0.034 A 
ATOM     11  C   UNL d   1       0.834   3.932  -0.306  0.00  0.00     0.025 A 
ATOM     12 CL   UNL d   1      -0.860   5.705  -1.433  0.00  0.00    -0.084 Cl
ATOM     13  C   UNL d   1       1.266   2.642   0.008  0.00  0.00     0.025 A 
ENDBRANCH   4   7
ENDBRANCH   2   4
TORSDOF 2
