REMARK  5 active torsions:
REMARK  status: ('A' for Active; 'I' for Inactive)
REMARK    1  A    between atoms: C_9  and  C_3 
REMARK    2  A    between atoms: C_15  and  C_4 
REMARK    3  A    between atoms: C_5  and  C_8 
REMARK    4  A    between atoms: C_8  and  O_12 
REMARK    5  A    between atoms: O_12  and  N_10 
ROOT
ATOM      1  C   UNL d   1       2.459   1.719   0.035  0.00  0.00     0.056 C 
ATOM      2  N   UNL d   1       2.389   3.018   0.095  0.00  0.00    -0.260 N 
ATOM      3  HN  UNL d   1       3.207   3.626   0.125  1.00  0.00     0.194 HD
ATOM      4  C   UNL d   1       1.248   0.821  -0.014  0.00  0.00     0.072 C 
ENDROOT
BRANCH   1   5
ATOM      5  C   UNL d   1       3.806   1.135   0.018  0.00  0.00     0.064 A 
ATOM      6  N   UNL d   1       4.016  -0.246  -0.035  0.00  0.00    -0.348 N 
ATOM      7  C   UNL d   1       5.307  -0.531   0.002  0.00  0.00     0.084 A 
ATOM      8  HN  UNL d   1       3.272  -0.942  -0.095  1.00  0.00     0.166 HD
ATOM      9  S   UNL d   1       6.340   0.850   0.044  0.00  0.00    -0.081 SA
ATOM     10  C   UNL d   1       4.974   1.875   0.055  0.00  0.00     0.083 A 
BRANCH   7  11
ATOM     11  C   UNL d   1       5.873  -1.894  -0.042  0.00  0.00    -0.002 A 
ATOM     12  C   UNL d   1       5.178  -2.910  -0.720  0.00  0.00     0.014 A 
ATOM     13  C   UNL d   1       5.694  -4.208  -0.798  0.00  0.00     0.001 A 
ATOM     14  C   UNL d   1       6.908  -4.516  -0.187  0.00  0.00     0.000 A 
ATOM     15  C   UNL d   1       7.603  -3.529   0.504  0.00  0.00     0.001 A 
ATOM     16  C   UNL d   1       7.089  -2.229   0.578  0.00  0.00     0.014 A 
ENDBRANCH   7  11
ENDBRANCH   1   5
BRANCH   2  17
ATOM     17  O   UNL d   1       1.061   3.495   0.112  0.00  0.00    -0.195 OA
BRANCH  17  18
ATOM     18  C   UNL d   1       1.071   4.864   0.036  0.00  0.00     0.319 C 
ATOM     19  O   UNL d   1       2.048   5.595  -0.028  0.00  0.00    -0.257 OA
BRANCH  18  20
ATOM     20  C   UNL d   1      -0.313   5.386   0.037  0.00  0.00     0.101 A 
ATOM     21  C   UNL d   1      -1.284   4.760  -0.748  0.00  0.00     0.134 A 
ATOM     22  F   UNL d   1      -0.996   3.656  -1.453  0.00  0.00    -0.205 F 
ATOM     23  C   UNL d   1      -2.578   5.276  -0.850  0.00  0.00     0.043 A 
ATOM     24  C   UNL d   1      -2.918   6.441  -0.169  0.00  0.00     0.005 A 
ATOM     25  C   UNL d   1      -1.960   7.076   0.622  0.00  0.00     0.025 A 
ATOM     26  C   UNL d   1      -0.661   6.550   0.731  0.00  0.00     0.053 A 
ATOM     27 CL   UNL d   1       0.421   7.392   1.784  0.00  0.00    -0.083 Cl
ENDBRANCH  18  20
ENDBRANCH  17  18
ENDBRANCH   2  17
TORSDOF 5
