REMARK  3 active torsions:
REMARK  status: ('A' for Active; 'I' for Inactive)
REMARK    1  A    between atoms: C_2  and  C_1 
REMARK    2  A    between atoms: O_8  and  C_2 
REMARK    3  A    between atoms: S_7  and  C_3 
ROOT
ATOM      1  C   UNL d   1       0.832   1.228   0.055  0.00  0.00     0.071 A 
ATOM      2  C   UNL d   1      -0.565   1.205  -0.011  0.00  0.00     0.086 A 
ATOM      3  N   UNL d   1      -1.254   0.031  -0.067  0.00  0.00    -0.360 N 
ATOM      4  HN  UNL d   1      -2.272   0.030  -0.132  1.00  0.00     0.166 HD
ATOM      5  C   UNL d   1       1.516  -0.001   0.093  0.00  0.00     0.022 A 
ATOM      6  C   UNL d   1      -0.569  -1.129  -0.036  0.00  0.00     0.089 A 
ATOM      7  C   UNL d   1       0.806  -1.196   0.038  0.00  0.00     0.018 A 
ENDROOT
BRANCH   1   8
ATOM      8  C   UNL d   1       1.618   2.481   0.149  0.00  0.00     0.179 C 
ATOM      9  O   UNL d   1       1.299   3.447   0.822  0.00  0.00    -0.646 OA
BRANCH   8  10
ATOM     10  O   UNL d   1       2.779   2.444  -0.547  0.00  0.00    -0.773 OA
ATOM     11  H   UNL d   1       2.905   1.681  -1.141  0.00  0.00     0.167 HD
ENDBRANCH   8  10
ENDBRANCH   1   8
BRANCH   2  12
ATOM     12  S   UNL d   1      -1.585   2.672  -0.092  0.00  0.00    -0.116 SA
ATOM     13  C   UNL d   1      -3.248   1.944  -0.033  0.00  0.00     0.097 C 
ENDBRANCH   2  12
TORSDOF 3
