REMARK  2 active torsions:
REMARK  status: ('A' for Active; 'I' for Inactive)
REMARK    1  A    between atoms: C_6  and  C_1 
REMARK       I    between atoms: N_7  and  C_6 
REMARK    2  A    between atoms: N_13  and  C_10 
ROOT
ATOM      1  C   UNL d   1      -0.302  -1.220   0.025  0.00  0.00     0.080 A 
ATOM      2  S   UNL d   1       1.377  -0.853   0.017  0.00  0.00    -0.072 SA
ATOM      3  C   UNL d   1      -1.077  -0.065   0.121  0.00  0.00    -0.031 A 
ATOM      4  C   UNL d   1       1.105   0.821   0.068  0.00  0.00     0.092 A 
ATOM      5  C   UNL d   1      -0.245   1.135   0.100  0.00  0.00    -0.027 A 
ATOM      6  C   UNL d   1       2.180   1.765   0.055  0.00  0.00     0.107 C 
ATOM      7  N   UNL d   1       3.039   2.549   0.045  0.00  0.00    -0.191 NA
ATOM      8  C   UNL d   1      -2.575  -0.010   0.151  0.00  0.00     0.050 C 
ATOM      9  C   UNL d   1      -0.760   2.546   0.087  0.00  0.00     0.051 C 
ENDROOT
BRANCH   1  10
ATOM     10  C   UNL d   1      -0.639  -2.635  -0.119  0.00  0.00     0.264 C 
ATOM     11  N   UNL d   1      -1.700  -3.023   0.673  0.00  0.00    -0.319 N 
ATOM     12  C   UNL d   1      -1.857  -4.303   0.762  0.00  0.00     0.180 C 
ATOM     13  HN  UNL d   1      -2.309  -2.357   1.149  1.00  0.00     0.169 HD
ATOM     14  O   UNL d   1      -0.011  -3.391  -0.855  0.00  0.00    -0.267 OA
BRANCH  12  15
ATOM     15  N   UNL d   1      -2.833  -4.995   1.448  0.00  0.00    -0.386 N 
ATOM     16  C   UNL d   1      -3.774  -4.330   2.331  0.00  0.00     0.149 C 
ATOM     17  C   UNL d   1      -2.767  -6.445   1.577  0.00  0.00     0.149 C 
ENDBRANCH  12  15
ENDBRANCH   1  10
TORSDOF 2
