REMARK  4 active torsions:
REMARK  status: ('A' for Active; 'I' for Inactive)
REMARK    1  A    between atoms: C_2  and  C_1 
REMARK    2  A    between atoms: S_14  and  C_8 
REMARK    3  A    between atoms: C_16  and  S_14 
REMARK    4  A    between atoms: C_15  and  C_16 
ROOT
ATOM      1  C   UNL d   1      -0.615  -1.000   0.293  0.00  0.00     0.192 A 
ATOM      2  O   UNL d   1      -1.384   0.088  -0.050  0.00  0.00    -0.266 OA
ATOM      3  N   UNL d   1       0.673  -0.702   0.316  0.00  0.00    -0.275 N 
ATOM      4  HN  UNL d   1       1.438  -1.332   0.555  1.00  0.00     0.189 HD
ATOM      5  C   UNL d   1      -0.444   1.060  -0.255  0.00  0.00     0.204 A 
ATOM      6  N   UNL d   1       0.782   0.623  -0.046  0.00  0.00    -0.272 N 
ATOM      7  HN  UNL d   1       1.643   1.162  -0.134  1.00  0.00     0.189 HD
ENDROOT
BRANCH   5   8
ATOM      8  S   UNL d   1      -0.813   2.682  -0.757  0.00  0.00    -0.080 SA
BRANCH   8   9
ATOM      9  C   UNL d   1      -2.492   2.850  -0.095  0.00  0.00     0.123 C 
BRANCH   9  10
ATOM     10  C   UNL d   1      -3.068   4.225  -0.342  0.00  0.00    -0.027 A 
ATOM     11  C   UNL d   1      -3.899   4.521  -1.435  0.00  0.00     0.041 A 
ATOM     12 CL   UNL d   1      -4.304   3.336  -2.626  0.00  0.00    -0.084 Cl
ATOM     13  C   UNL d   1      -4.437   5.804  -1.597  0.00  0.00     0.024 A 
ATOM     14  C   UNL d   1      -4.139   6.812  -0.681  0.00  0.00     0.002 A 
ATOM     15  C   UNL d   1      -3.294   6.544   0.391  0.00  0.00     0.001 A 
ATOM     16  C   UNL d   1      -2.761   5.264   0.558  0.00  0.00     0.009 A 
ENDBRANCH   9  10
ENDBRANCH   8   9
ENDBRANCH   5   8
BRANCH   1  17
ATOM     17  C   UNL d   1      -1.166  -2.360   0.588  0.00  0.00     0.092 A 
ATOM     18  N   UNL d   1      -2.524  -2.636   0.520  0.00  0.00    -0.350 N 
ATOM     19  C   UNL d   1      -2.732  -3.909   0.786  0.00  0.00     0.047 A 
ATOM     20  HN  UNL d   1      -3.251  -1.957   0.297  1.00  0.00     0.166 HD
ATOM     21  C   UNL d   1      -4.067  -4.567   0.771  0.00  0.00     0.076 C 
ATOM     22  S   UNL d   1      -1.328  -4.827   1.168  0.00  0.00    -0.087 SA
ATOM     23  C   UNL d   1      -0.364  -3.430   0.930  0.00  0.00     0.085 A 
ENDBRANCH   1  17
TORSDOF 4
