REMARK  5 active torsions:
REMARK  status: ('A' for Active; 'I' for Inactive)
REMARK    1  A    between atoms: C_4  and  C_1 
REMARK    2  A    between atoms: S_5  and  C_2 
REMARK       I    between atoms: C_3  and  N_6 
REMARK       I    between atoms: N_7  and  C_3 
REMARK    3  A    between atoms: N_6  and  C_4 
REMARK    4  A    between atoms: C_10  and  S_5 
REMARK    5  A    between atoms: C_13  and  N_7 
ROOT
ATOM      1  C   UNL d   1       0.215  -1.149   0.062  0.00  0.00     0.015 A 
ATOM      2  C   UNL d   1      -1.181  -1.099  -0.153  0.00  0.00     0.016 A 
ATOM      3  C   UNL d   1       0.885   0.090   0.113  0.00  0.00     0.125 A 
ATOM      4  F   UNL d   1       2.222   0.136   0.212  0.00  0.00    -0.205 F 
ATOM      5  C   UNL d   1      -1.846   0.147  -0.195  0.00  0.00     0.019 A 
ATOM      6  C   UNL d   1      -1.154   1.349  -0.071  0.00  0.00     0.004 A 
ATOM      7  C   UNL d   1       0.222   1.317   0.064  0.00  0.00     0.043 A 
ENDROOT
BRANCH   1   8
ATOM      8  C   UNL d   1       0.995  -2.457   0.183  0.00  0.00     0.167 C 
BRANCH   8   9
ATOM      9  N   UNL d   1       2.285  -2.300   0.839  0.00  0.00    -0.338 N 
ATOM     10  C   UNL d   1       3.171  -3.159   1.396  0.00  0.00     0.320 C 
ATOM     11  N   UNL d   1       2.698  -4.339   1.893  0.00  0.00    -0.309 N 
ATOM     12  O   UNL d   1       4.339  -2.763   1.474  0.00  0.00    -0.247 OA
ATOM     13  H   UNL d   1       1.695  -4.392   1.990  0.00  0.00     0.170 HD
ATOM     14  H   UNL d   1       2.789  -1.455   0.592  0.00  0.00     0.164 HD
BRANCH  11  15
ATOM     15  C   UNL d   1       3.454  -5.143   2.791  0.00  0.00     0.036 A 
ATOM     16  C   UNL d   1       2.767  -5.811   3.811  0.00  0.00     0.029 A 
ATOM     17  C   UNL d   1       3.466  -6.445   4.846  0.00  0.00     0.002 A 
ATOM     18  C   UNL d   1       4.860  -6.459   4.843  0.00  0.00     0.000 A 
ATOM     19  C   UNL d   1       5.551  -5.878   3.786  0.00  0.00     0.002 A 
ATOM     20  C   UNL d   1       4.852  -5.227   2.761  0.00  0.00     0.029 A 
ENDBRANCH  11  15
ENDBRANCH   8   9
ENDBRANCH   1   8
BRANCH   2  21
ATOM     21  S   UNL d   1      -2.269  -2.506  -0.301  0.00  0.00    -0.090 SA
BRANCH  21  22
ATOM     22  C   UNL d   1      -1.831  -3.347  -1.810  0.00  0.00     0.005 A 
ATOM     23  C   UNL d   1      -0.922  -2.880  -2.765  0.00  0.00     0.020 A 
ATOM     24  C   UNL d   1      -0.484  -3.723  -3.794  0.00  0.00     0.025 A 
ATOM     25  C   UNL d   1      -0.987  -5.018  -3.896  0.00  0.00     0.034 A 
ATOM     26  C   UNL d   1      -1.979  -5.453  -3.025  0.00  0.00     0.025 A 
ATOM     27 CL   UNL d   1      -0.356  -6.097  -5.077  0.00  0.00    -0.084 Cl
ATOM     28  C   UNL d   1      -2.404  -4.615  -1.993  0.00  0.00     0.020 A 
ENDBRANCH  21  22
ENDBRANCH   2  21
TORSDOF 5
