REMARK  7 active torsions:
REMARK  status: ('A' for Active; 'I' for Inactive)
REMARK    1  A    between atoms: C_6  and  C_1 
REMARK    2  A    between atoms: C_16  and  C_4 
REMARK    3  A    between atoms: O_11  and  N_7 
REMARK    4  A    between atoms: C_10  and  O_11 
REMARK    5  A    between atoms: C_12  and  C_10 
REMARK    6  A    between atoms: O_17  and  C_16 
REMARK    7  A    between atoms: C_18  and  O_17 
ROOT
ATOM      1  C   UNL d   1       3.815   1.097  -0.003  0.00  0.00     0.063 A 
ATOM      2  N   UNL d   1       3.989  -0.289   0.012  0.00  0.00    -0.350 N 
ATOM      3  HN  UNL d   1       3.226  -0.966   0.046  1.00  0.00     0.166 HD
ATOM      4  C   UNL d   1       5.267  -0.608  -0.023  0.00  0.00     0.075 A 
ATOM      5  C   UNL d   1       5.008   1.799  -0.038  0.00  0.00     0.083 A 
ATOM      6  S   UNL d   1       6.347   0.732  -0.070  0.00  0.00    -0.084 SA
ENDROOT
BRANCH   1   7
ATOM      7  C   UNL d   1       2.479   1.716   0.042  0.00  0.00     0.056 C 
ATOM      8  N   UNL d   1       1.491   1.048  -0.476  0.00  0.00    -0.260 N 
ATOM      9  HN  UNL d   1       1.597   0.129  -0.906  1.00  0.00     0.194 HD
ATOM     10  C   UNL d   1       2.303   3.075   0.678  0.00  0.00     0.072 C 
BRANCH   8  11
ATOM     11  O   UNL d   1       0.251   1.731  -0.383  0.00  0.00    -0.195 OA
BRANCH  11  12
ATOM     12  C   UNL d   1      -0.716   0.994  -1.015  0.00  0.00     0.315 C 
ATOM     13  O   UNL d   1      -0.562  -0.057  -1.622  0.00  0.00    -0.257 OA
BRANCH  12  14
ATOM     14  C   UNL d   1      -2.073   1.615  -0.892  0.00  0.00     0.041 A 
ATOM     15  C   UNL d   1      -3.158   0.902  -1.438  0.00  0.00     0.019 A 
ATOM     16  C   UNL d   1      -4.463   1.398  -1.353  0.00  0.00     0.025 A 
ATOM     17  C   UNL d   1      -4.695   2.614  -0.721  0.00  0.00     0.034 A 
ATOM     18  C   UNL d   1      -3.632   3.342  -0.183  0.00  0.00     0.025 A 
ATOM     19 CL   UNL d   1      -6.301   3.219  -0.599  0.00  0.00    -0.084 Cl
ATOM     20  C   UNL d   1      -2.320   2.846  -0.270  0.00  0.00     0.019 A 
ENDBRANCH  12  14
ENDBRANCH  11  12
ENDBRANCH   8  11
ENDBRANCH   1   7
BRANCH   4  21
ATOM     21  C   UNL d   1       5.822  -2.003   0.051  0.00  0.00     0.240 C 
BRANCH  21  22
ATOM     22  O   UNL d   1       5.981  -2.486  -1.287  0.00  0.00    -0.345 OA
BRANCH  22  23
ATOM     23  C   UNL d   1       6.420  -3.780  -1.394  0.00  0.00     0.069 A 
ATOM     24  C   UNL d   1       6.013  -4.462  -2.545  0.00  0.00     0.038 A 
ATOM     25  C   UNL d   1       6.412  -5.783  -2.765  0.00  0.00     0.026 A 
ATOM     26  C   UNL d   1       7.235  -6.418  -1.839  0.00  0.00     0.034 A 
ATOM     27  C   UNL d   1       7.664  -5.741  -0.700  0.00  0.00     0.026 A 
ATOM     28 CL   UNL d   1       7.731  -8.044  -2.101  0.00  0.00    -0.084 Cl
ATOM     29  C   UNL d   1       7.258  -4.421  -0.478  0.00  0.00     0.038 A 
ENDBRANCH  22  23
ENDBRANCH  21  22
ENDBRANCH   4  21
TORSDOF 7
