REMARK  6 active torsions:
REMARK  status: ('A' for Active; 'I' for Inactive)
REMARK    1  A    between atoms: C_6  and  C_1 
REMARK       I    between atoms: N_13  and  C_6 
REMARK    2  A    between atoms: C_14  and  C_7 
REMARK    3  A    between atoms: C_8  and  C_11 
REMARK    4  A    between atoms: N_19  and  N_13 
REMARK    5  A    between atoms: O_17  and  C_14 
REMARK    6  A    between atoms: C_18  and  O_17 
ROOT
ATOM      1  C   UNL d   1       0.301  -1.505   0.464  0.00  0.00     0.098 A 
ATOM      2  C   UNL d   1      -0.640  -0.519   0.729  0.00  0.00     0.028 A 
ATOM      3  N   UNL d   1      -0.112   0.748   0.941  0.00  0.00    -0.354 N 
ATOM      4  HN  UNL d   1      -0.666   1.578   1.151  1.00  0.00     0.166 HD
ATOM      5  S   UNL d   1       1.875  -0.800   0.470  0.00  0.00    -0.067 SA
ATOM      6  C   UNL d   1       1.199   0.733   0.835  0.00  0.00     0.076 A 
ATOM      7  C   UNL d   1      -2.120  -0.643   0.834  0.00  0.00     0.070 C 
ENDROOT
BRANCH   6   8
ATOM      8  C   UNL d   1       2.067   1.929   1.098  0.00  0.00     0.240 C 
BRANCH   8   9
ATOM      9  O   UNL d   1       2.823   2.220  -0.081  0.00  0.00    -0.345 OA
BRANCH   9  10
ATOM     10  C   UNL d   1       3.711   3.255   0.054  0.00  0.00     0.069 A 
ATOM     11  C   UNL d   1       4.850   3.186  -0.748  0.00  0.00     0.037 A 
ATOM     12  C   UNL d   1       5.831   4.181  -0.676  0.00  0.00     0.012 A 
ATOM     13  C   UNL d   1       5.685   5.277   0.190  0.00  0.00    -0.035 A 
ATOM     14  C   UNL d   1       4.512   5.357   0.958  0.00  0.00     0.012 A 
ATOM     15  C   UNL d   1       3.534   4.358   0.890  0.00  0.00     0.037 A 
BRANCH  13  16
ATOM     16  C   UNL d   1       6.777   6.323   0.281  0.00  0.00     0.141 C 
ATOM     17  S   UNL d   1       7.476   6.452   1.959  0.00  0.00    -0.148 SA
ATOM     18  C   UNL d   1       7.910   8.201   1.839  0.00  0.00     0.085 C 
ATOM     19  C   UNL d   1       6.742   8.908   1.182  0.00  0.00     0.085 C 
ATOM     20  S   UNL d   1       6.231   7.970  -0.286  0.00  0.00    -0.148 SA
ENDBRANCH  13  16
ENDBRANCH   9  10
ENDBRANCH   8   9
ENDBRANCH   6   8
BRANCH   1  21
ATOM     21  C   UNL d   1       0.097  -2.927   0.234  0.00  0.00     0.274 C 
ATOM     22  O   UNL d   1      -0.993  -3.492   0.335  0.00  0.00    -0.266 OA
ATOM     23  N   UNL d   1       1.234  -3.659  -0.117  0.00  0.00    -0.289 N 
ATOM     24  H   UNL d   1       2.110  -3.171  -0.292  0.00  0.00     0.183 HD
BRANCH  23  25
ATOM     25  N   UNL d   1       1.133  -5.037  -0.426  0.00  0.00    -0.247 NA
ATOM     26  H   UNL d   1       0.136  -5.232  -0.594  0.00  0.00     0.143 HD
ATOM     27  H   UNL d   1       1.342  -5.564   0.426  0.00  0.00     0.143 HD
ENDBRANCH  23  25
ENDBRANCH   1  21
TORSDOF 6
