REMARK  5 active torsions:
REMARK  status: ('A' for Active; 'I' for Inactive)
REMARK    1  A    between atoms: N_2  and  C_1 
REMARK    2  A    between atoms: C_5  and  C_4 
REMARK       I    between atoms: N_13  and  C_5 
REMARK    3  A    between atoms: N_8  and  N_13 
REMARK    4  A    between atoms: C_12  and  C_16 
REMARK    5  A    between atoms: O_17  and  C_15 
ROOT
ATOM      1  C   UNL d   1      -0.986  -2.408  -0.232  0.00  0.00     0.293 C 
ATOM      2  N   UNL d   1      -2.348  -2.639  -0.060  0.00  0.00    -0.265 N 
ATOM      3  O   UNL d   1      -0.522  -1.286  -0.438  0.00  0.00    -0.264 OA
ATOM      4  H   UNL d   1      -2.695  -3.577   0.112  0.00  0.00     0.190 HD
ENDROOT
BRANCH   2   5
ATOM      5  N   UNL d   1      -3.195  -1.571  -0.112  0.00  0.00    -0.308 N 
ATOM      6  C   UNL d   1      -4.461  -1.789   0.044  0.00  0.00     0.121 C 
ATOM      7  HN  UNL d   1      -2.840  -0.628  -0.269  1.00  0.00     0.186 HD
BRANCH   6   8
ATOM      8  C   UNL d   1      -5.415  -0.655   0.008  0.00  0.00     0.014 A 
ATOM      9  C   UNL d   1      -4.995   0.664  -0.218  0.00  0.00     0.077 A 
ATOM     10  C   UNL d   1      -5.921   1.706  -0.236  0.00  0.00     0.037 A 
ATOM     11  C   UNL d   1      -7.272   1.440  -0.022  0.00  0.00     0.003 A 
ATOM     12  C   UNL d   1      -7.699   0.131   0.204  0.00  0.00     0.001 A 
ATOM     13  C   UNL d   1      -6.774  -0.919   0.216  0.00  0.00     0.015 A 
BRANCH   9  14
ATOM     14  O   UNL d   1      -3.690   1.018  -0.425  0.00  0.00    -0.360 OA
ATOM     15  H   UNL d   1      -3.134   0.207  -0.363  0.00  0.00     0.217 HD
ENDBRANCH   9  14
ENDBRANCH   6   8
ENDBRANCH   2   5
BRANCH   1  16
ATOM     16  C   UNL d   1      -0.135  -3.579  -0.151  0.00  0.00     0.147 A 
ATOM     17  O   UNL d   1      -0.657  -4.828   0.088  0.00  0.00    -0.283 OA
ATOM     18  C   UNL d   1       0.407  -5.684   0.102  0.00  0.00     0.215 A 
ATOM     19  C   UNL d   1       1.595  -5.030  -0.120  0.00  0.00     0.066 A 
ATOM     20  C   UNL d   1       1.244  -3.670  -0.282  0.00  0.00     0.048 A 
BRANCH  18  21
ATOM     21  N   UNL d   1       0.126  -7.066   0.336  0.00  0.00    -0.090 N 
ATOM     22  O   UNL d   1       1.097  -7.832   0.343  0.00  0.00    -0.530 OA
ATOM     23  O   UNL d   1      -1.057  -7.388   0.514  0.00  0.00    -0.530 OA
ENDBRANCH  18  21
ENDBRANCH   1  16
TORSDOF 5
