REMARK  7 active torsions:
REMARK  status: ('A' for Active; 'I' for Inactive)
REMARK    1  A    between atoms: C_6  and  C_1 
REMARK    2  A    between atoms: C_16  and  N_2 
REMARK    3  A    between atoms: C_23  and  C_3 
REMARK       I    between atoms: N_10  and  C_6 
REMARK    4  A    between atoms: C_8  and  N_10 
REMARK    5  A    between atoms: C_9  and  C_13 
REMARK    6  A    between atoms: N_12  and  C_11 
REMARK    7  A    between atoms: C_30  and  C_23 
ROOT
ATOM      1  C   UNL d   1      -0.537   2.513   1.075  0.00  0.00     0.259 C 
ATOM      2  N   UNL d   1       0.028   3.368   0.166  0.00  0.00    -0.321 N 
ATOM      3  O   UNL d   1      -1.464   2.835   1.820  0.00  0.00    -0.267 OA
ATOM      4  H   UNL d   1       0.524   2.979  -0.620  0.00  0.00     0.169 HD
ENDROOT
BRANCH   2   5
ATOM      5  C   UNL d   1      -0.221   4.761   0.099  0.00  0.00     0.062 A 
ATOM      6  C   UNL d   1      -0.094   5.411  -1.156  0.00  0.00     0.057 A 
ATOM      7  C   UNL d   1      -0.231   6.808  -1.158  0.00  0.00     0.032 A 
ATOM      8  C   UNL d   1      -0.422   7.536   0.024  0.00  0.00     0.018 A 
ATOM      9  C   UNL d   1      -0.491   6.887   1.261  0.00  0.00     0.050 A 
ATOM     10  C   UNL d   1      -0.429   5.490   1.276  0.00  0.00     0.048 A 
BRANCH   6  11
ATOM     11  N   UNL d   1       0.209   4.691  -2.307  0.00  0.00    -0.375 N 
ATOM     12  C   UNL d   1       0.856   5.340  -3.463  0.00  0.00     0.149 C 
ATOM     13  C   UNL d   1       1.706   4.277  -4.187  0.00  0.00     0.187 C 
ATOM     14  O   UNL d   1       0.938   3.116  -4.556  0.00  0.00    -0.388 OA
ATOM     15  C   UNL d   1       0.282   2.542  -3.411  0.00  0.00     0.187 C 
ATOM     16  C   UNL d   1      -0.650   3.571  -2.742  0.00  0.00     0.149 C 
ENDBRANCH   6  11
BRANCH   9  17
ATOM     17  C   UNL d   1      -0.565   7.677   2.543  0.00  0.00     0.417 C 
ATOM     18  F   UNL d   1      -0.507   6.912   3.668  0.00  0.00    -0.166 F 
ATOM     19  F   UNL d   1       0.460   8.569   2.654  0.00  0.00    -0.166 F 
ATOM     20  F   UNL d   1      -1.708   8.410   2.643  0.00  0.00    -0.166 F 
ENDBRANCH   9  17
ENDBRANCH   2   5
BRANCH   1  21
ATOM     21  C   UNL d   1      -0.072   1.133   1.057  0.00  0.00     0.073 C 
ATOM     22  C   UNL d   1       1.103   0.489   0.643  0.00  0.00     0.051 C 
ATOM     23  N   UNL d   1       0.862  -0.880   0.875  0.00  0.00    -0.260 N 
ATOM     24  N   UNL d   1      -0.243  -1.072   1.631  0.00  0.00    -0.304 N 
ATOM     25  C   UNL d   1      -0.851   0.103   1.630  0.00  0.00     0.126 C 
ATOM     26  HN  UNL d   1      -0.541  -1.929   2.097  1.00  0.00     0.186 HD
BRANCH  22  27
ATOM     27  C   UNL d   1       2.436   0.961   0.114  0.00  0.00     0.060 C 
BRANCH  27  28
ATOM     28  C   UNL d   1       2.991   2.267   0.689  0.00  0.00     0.002 C 
ATOM     29  C   UNL d   1       4.327   2.632   0.048  0.00  0.00     0.005 C 
ENDBRANCH  27  28
ENDBRANCH  22  27
BRANCH  23  30
ATOM     30  C   UNL d   1       1.515  -2.047   0.381  0.00  0.00     0.056 A 
ATOM     31  C   UNL d   1       1.421  -3.236   1.126  0.00  0.00     0.031 A 
ATOM     32  C   UNL d   1       1.918  -4.435   0.616  0.00  0.00     0.002 A 
ATOM     33  C   UNL d   1       2.490  -4.459  -0.655  0.00  0.00     0.000 A 
ATOM     34  C   UNL d   1       2.587  -3.283  -1.399  0.00  0.00     0.002 A 
ATOM     35  C   UNL d   1       2.114  -2.071  -0.883  0.00  0.00     0.031 A 
ENDBRANCH  23  30
ENDBRANCH   1  21
TORSDOF 7
