REMARK  3 active torsions:
REMARK  status: ('A' for Active; 'I' for Inactive)
REMARK    1  A    between atoms: C_8  and  N_1 
REMARK    2  A    between atoms: S_13  and  C_2 
REMARK    3  A    between atoms: C_21  and  S_13 
ROOT
ATOM      1  C   UNL d   1       6.472  -1.165   0.279  0.00  0.00    -0.107 C 
ATOM      2  C   UNL d   1       7.551  -1.684   0.205  0.00  0.00     0.013 C 
ATOM      3  C   UNL d   1       5.144  -0.533   0.357  0.00  0.00     0.175 C 
ENDROOT
BRANCH   3   4
ATOM      4  S   UNL d   1       3.983  -1.355  -0.774  0.00  0.00    -0.081 SA
BRANCH   4   5
ATOM      5  C   UNL d   1       2.452  -0.638  -0.213  0.00  0.00     0.156 C 
ATOM      6  N   UNL d   1       1.300  -1.425  -0.056  0.00  0.00    -0.277 N 
ATOM      7  C   UNL d   1       0.070  -0.683   0.041  0.00  0.00     0.130 A 
ATOM      8  C   UNL d   1       0.107   0.706   0.091  0.00  0.00     0.077 A 
ATOM      9  N   UNL d   1      -1.138  -1.313   0.070  0.00  0.00    -0.351 N 
ATOM     10  C   UNL d   1       1.415   1.369   0.170  0.00  0.00     0.261 C 
ATOM     11  C   UNL d   1      -1.078   1.454   0.084  0.00  0.00     0.022 A 
ATOM     12  O   UNL d   1       1.448   2.563   0.445  0.00  0.00    -0.267 OA
ATOM     13  N   UNL d   1       2.539   0.648  -0.097  0.00  0.00    -0.303 N 
ATOM     14  HN  UNL d   1       3.439   1.116  -0.205  1.00  0.00     0.171 HD
ATOM     15  C   UNL d   1      -2.297   0.795   0.047  0.00  0.00     0.018 A 
ATOM     16  C   UNL d   1      -2.277  -0.583   0.061  0.00  0.00     0.090 A 
ATOM     17  HN  UNL d   1      -1.183  -2.332   0.100  1.00  0.00     0.166 HD
BRANCH   6  18
ATOM     18  C   UNL d   1       1.310  -2.866  -0.112  0.00  0.00     0.043 A 
ATOM     19  C   UNL d   1       2.272  -3.635   0.566  0.00  0.00     0.030 A 
ATOM     20  C   UNL d   1       2.305  -5.034   0.457  0.00  0.00     0.009 A 
ATOM     21  C   UNL d   1       1.336  -5.713  -0.284  0.00  0.00    -0.062 A 
ATOM     22  C   UNL d   1       0.340  -4.973  -0.918  0.00  0.00     0.009 A 
ATOM     23  C   UNL d   1       1.379  -7.207  -0.408  0.00  0.00     0.048 C 
ATOM     24  C   UNL d   1       0.342  -3.575  -0.847  0.00  0.00     0.030 A 
ENDBRANCH   6  18
ENDBRANCH   4   5
ENDBRANCH   3   4
TORSDOF 3
