REMARK  5 active torsions:
REMARK  status: ('A' for Active; 'I' for Inactive)
REMARK    1  A    between atoms: N_2  and  S_1 
REMARK    2  A    between atoms: C_11  and  S_1 
REMARK       I    between atoms: C_4  and  N_2 
REMARK    3  A    between atoms: C_9  and  C_4 
REMARK    4  A    between atoms: C_5  and  C_8 
REMARK    5  A    between atoms: C_6  and  C_7 
ROOT
ATOM      1  C   UNL d   1      -0.841  -5.059  -1.835  0.00  0.00     0.049 A 
ATOM      2  C   UNL d   1      -0.138  -4.476  -4.107  0.00  0.00     0.049 A 
ATOM      3  C   UNL d   1       0.317  -2.950  -2.255  0.00  0.00     0.034 A 
ATOM      4  C   UNL d   1      -0.753  -5.360  -3.204  0.00  0.00     0.032 A 
ATOM      5  C   UNL d   1       0.399  -3.270  -3.617  0.00  0.00     0.033 A 
ATOM      6  C   UNL d   1      -0.318  -3.840  -1.374  0.00  0.00     0.033 A 
ENDROOT
BRANCH   3   7
ATOM      7  C   UNL d   1       0.945  -1.689  -1.724  0.00  0.00     0.262 C 
ATOM      8  N   UNL d   1       0.714  -1.293  -0.396  0.00  0.00    -0.279 N 
ATOM      9  HN  UNL d   1       0.333  -1.962   0.274  1.00  0.00     0.179 HD
ATOM     10  O   UNL d   1       1.728  -1.108  -2.469  0.00  0.00    -0.267 OA
BRANCH   8  11
ATOM     11  S   UNL d   1       1.031   0.146   0.056  0.00  0.00     0.055 S 
ATOM     12  O   UNL d   1       0.611   1.336  -0.661  0.00  0.00    -0.245 OA
ATOM     13  C   UNL d   1       2.784   0.276   0.346  0.00  0.00     0.142 C 
BRANCH  11  14
ATOM     14  C   UNL d   1       0.399   0.326   1.720  0.00  0.00     0.038 A 
ATOM     15  C   UNL d   1       0.351  -0.771   2.583  0.00  0.00     0.022 A 
ATOM     16  C   UNL d   1      -0.040  -0.580   3.911  0.00  0.00     0.008 A 
ATOM     17  C   UNL d   1      -0.378   0.699   4.379  0.00  0.00    -0.062 A 
ATOM     18  C   UNL d   1      -0.361   1.781   3.490  0.00  0.00     0.008 A 
ATOM     19  C   UNL d   1      -0.741   0.901   5.821  0.00  0.00     0.048 C 
ATOM     20  C   UNL d   1       0.023   1.597   2.162  0.00  0.00     0.022 A 
ENDBRANCH  11  14
ENDBRANCH   8  11
ENDBRANCH   3   7
BRANCH   2  21
ATOM     21  C   UNL d   1      -0.038  -4.809  -5.580  0.00  0.00     0.417 C 
ATOM     22  F   UNL d   1      -0.553  -6.031  -5.892  0.00  0.00    -0.166 F 
ATOM     23  F   UNL d   1      -0.698  -3.913  -6.362  0.00  0.00    -0.166 F 
ATOM     24  F   UNL d   1       1.249  -4.823  -6.020  0.00  0.00    -0.166 F 
ENDBRANCH   2  21
BRANCH   1  25
ATOM     25  C   UNL d   1      -1.463  -6.024  -0.853  0.00  0.00     0.417 C 
ATOM     26  F   UNL d   1      -1.781  -7.227  -1.405  0.00  0.00    -0.166 F 
ATOM     27  F   UNL d   1      -0.633  -6.301   0.191  0.00  0.00    -0.166 F 
ATOM     28  F   UNL d   1      -2.612  -5.544  -0.305  0.00  0.00    -0.166 F 
ENDBRANCH   1  25
TORSDOF 5
