REMARK  8 active torsions:
REMARK  status: ('A' for Active; 'I' for Inactive)
REMARK    1  A    between atoms: C_12  and  N_1 
REMARK    2  A    between atoms: N_3  and  C_11 
REMARK    3  A    between atoms: C_5  and  C_10 
REMARK    4  A    between atoms: C_6  and  C_9 
REMARK    5  A    between atoms: C_16  and  C_7 
REMARK    6  A    between atoms: C_17  and  C_8 
REMARK    7  A    between atoms: C_15  and  C_13 
REMARK    8  A    between atoms: C_14  and  C_15 
ROOT
ATOM      1  C   UNL d   1       6.759   0.097   0.284  0.00  0.00     0.077 C 
ENDROOT
BRANCH   1   2
ATOM      2  C   UNL d   1       7.441   1.444   0.324  0.00  0.00    -0.054 A 
ATOM      3  C   UNL d   1       7.660   2.103   1.540  0.00  0.00     0.010 A 
ATOM      4  C   UNL d   1       8.364   3.313   1.572  0.00  0.00     0.030 A 
ATOM      5  C   UNL d   1       8.856   3.896   0.402  0.00  0.00     0.031 A 
ATOM      6  C   UNL d   1       8.625   3.239  -0.812  0.00  0.00     0.030 A 
ATOM      7  C   UNL d   1       7.910   2.037  -0.855  0.00  0.00     0.010 A 
BRANCH   5   8
ATOM      8  N   UNL d   1       9.630   5.064   0.526  0.00  0.00    -0.366 N 
ATOM      9  C   UNL d   1       9.579   5.968  -0.394  0.00  0.00     0.088 C 
ATOM     10  HN  UNL d   1      10.229   5.195   1.341  1.00  0.00     0.165 HD
BRANCH   9  11
ATOM     11  C   UNL d   1      10.405   7.191  -0.297  0.00  0.00     0.018 C 
ATOM     12  C   UNL d   1      10.397   8.081  -1.300  0.00  0.00     0.013 C 
BRANCH  12  13
ATOM     13  C   UNL d   1      11.199   9.315  -1.318  0.00  0.00    -0.036 A 
ATOM     14  C   UNL d   1      12.443   9.412  -0.677  0.00  0.00     0.011 A 
ATOM     15  C   UNL d   1      13.195  10.589  -0.755  0.00  0.00     0.001 A 
ATOM     16  C   UNL d   1      12.719  11.677  -1.480  0.00  0.00     0.000 A 
ATOM     17  C   UNL d   1      11.491  11.590  -2.134  0.00  0.00     0.001 A 
ATOM     18  C   UNL d   1      10.739  10.414  -2.056  0.00  0.00     0.011 A 
ENDBRANCH  12  13
ENDBRANCH   9  11
ENDBRANCH   5   8
ENDBRANCH   1   2
BRANCH   1  19
ATOM     19  C   UNL d   1       5.253   0.146   0.188  0.00  0.00    -0.054 A 
ATOM     20  C   UNL d   1       4.613   0.191  -1.056  0.00  0.00     0.010 A 
ATOM     21  C   UNL d   1       3.216   0.186  -1.135  0.00  0.00     0.030 A 
ATOM     22  C   UNL d   1       2.430   0.144   0.019  0.00  0.00     0.031 A 
ATOM     23  C   UNL d   1       3.074   0.090   1.260  0.00  0.00     0.030 A 
ATOM     24  C   UNL d   1       4.469   0.108   1.347  0.00  0.00     0.010 A 
BRANCH  22  25
ATOM     25  N   UNL d   1       1.034   0.083  -0.133  0.00  0.00    -0.366 N 
ATOM     26  C   UNL d   1       0.284   0.705   0.715  0.00  0.00     0.088 C 
ATOM     27  HN  UNL d   1       0.620  -0.444  -0.902  1.00  0.00     0.165 HD
BRANCH  26  28
ATOM     28  C   UNL d   1      -1.187   0.642   0.611  0.00  0.00     0.018 C 
ATOM     29  C   UNL d   1      -1.942   1.211   1.561  0.00  0.00     0.013 C 
BRANCH  29  30
ATOM     30  C   UNL d   1      -3.412   1.167   1.572  0.00  0.00    -0.036 A 
ATOM     31  C   UNL d   1      -4.134   0.099   1.023  0.00  0.00     0.011 A 
ATOM     32  C   UNL d   1      -5.528   0.070   1.090  0.00  0.00     0.001 A 
ATOM     33  C   UNL d   1      -6.217   1.104   1.718  0.00  0.00     0.000 A 
ATOM     34  C   UNL d   1      -5.512   2.165   2.283  0.00  0.00     0.001 A 
ATOM     35  C   UNL d   1      -4.116   2.194   2.215  0.00  0.00     0.011 A 
ENDBRANCH  29  30
ENDBRANCH  26  28
ENDBRANCH  22  25
ENDBRANCH   1  19
TORSDOF 8
