REMARK  6 active torsions:
REMARK  status: ('A' for Active; 'I' for Inactive)
REMARK    1  A    between atoms: C_10  and  C_1 
REMARK    2  A    between atoms: C_4  and  C_9 
REMARK    3  A    between atoms: O_19  and  C_7 
REMARK    4  A    between atoms: C_21  and  C_11 
REMARK    5  A    between atoms: S_20  and  C_21 
REMARK    6  A    between atoms: C_22  and  S_20 
ROOT
ATOM      1  C   UNL d   1       0.991  -1.114   0.073  0.00  0.00     0.117 A 
ATOM      2  N   UNL d   1      -0.351  -1.149  -0.018  0.00  0.00    -0.323 N 
ATOM      3  HN  UNL d   1      -0.873  -2.025  -0.041  1.00  0.00     0.169 HD
ATOM      4  N   UNL d   1       1.720   0.023   0.121  0.00  0.00    -0.344 N 
ATOM      5  HN  UNL d   1       2.736  -0.003   0.203  1.00  0.00     0.167 HD
ATOM      6  C   UNL d   1      -0.952   0.038  -0.075  0.00  0.00     0.143 A 
ATOM      7  C   UNL d   1      -0.324   1.252  -0.054  0.00  0.00     0.081 A 
ATOM      8  C   UNL d   1       1.050   1.200   0.058  0.00  0.00     0.024 A 
ENDROOT
BRANCH   1   9
ATOM      9  C   UNL d   1       1.704  -2.408   0.128  0.00  0.00     0.008 A 
ATOM     10  C   UNL d   1       1.007  -3.630   0.047  0.00  0.00     0.016 A 
ATOM     11  C   UNL d   1       1.665  -4.863   0.117  0.00  0.00     0.017 A 
ATOM     12  C   UNL d   1       3.054  -4.918   0.271  0.00  0.00     0.048 A 
ATOM     13  C   UNL d   1       3.768  -3.715   0.338  0.00  0.00     0.017 A 
ATOM     14  C   UNL d   1       3.103  -2.482   0.267  0.00  0.00     0.016 A 
BRANCH  12  15
ATOM     15  C   UNL d   1       3.777  -6.239   0.372  0.00  0.00     0.417 C 
ATOM     16  F   UNL d   1       2.950  -7.320   0.295  0.00  0.00    -0.166 F 
ATOM     17  F   UNL d   1       4.701  -6.407  -0.613  0.00  0.00    -0.166 F 
ATOM     18  F   UNL d   1       4.453  -6.373   1.547  0.00  0.00    -0.166 F 
ENDBRANCH  12  15
ENDBRANCH   1   9
BRANCH   6  19
ATOM     19  O   UNL d   1      -2.305  -0.026  -0.158  0.00  0.00    -0.346 OA
ATOM     20  H   UNL d   1      -2.441  -0.991  -0.137  0.00  0.00     0.219 HD
ENDBRANCH   6  19
BRANCH   8  21
ATOM     21  C   UNL d   1       1.873   2.466   0.084  0.00  0.00     0.131 C 
BRANCH  21  22
ATOM     22  S   UNL d   1       1.430   3.628   1.418  0.00  0.00    -0.163 SA
BRANCH  22  23
ATOM     23  C   UNL d   1       1.875   2.613   2.862  0.00  0.00     0.069 C 
ATOM     24  C   UNL d   1       1.600   3.394   4.137  0.00  0.00     0.016 C 
ENDBRANCH  22  23
ENDBRANCH  21  22
ENDBRANCH   8  21
TORSDOF 6
