REMARK  4 active torsions:
REMARK  status: ('A' for Active; 'I' for Inactive)
REMARK    1  A    between atoms: C_4  and  S_1 
REMARK    2  A    between atoms: C_11  and  S_1 
REMARK    3  A    between atoms: N_9  and  C_5 
REMARK    4  A    between atoms: N_14  and  C_6 
ROOT
ATOM      1  N   UNL d   1      -0.512  -0.417  -3.893  0.00  0.00    -0.180 N 
ATOM      2  HN  UNL d   1      -0.884  -1.149  -4.498  1.00  0.00     0.185 HD
ATOM      3  C   UNL d   1       0.539   0.232  -1.868  0.00  0.00     0.114 A 
ATOM      4  C   UNL d   1      -0.535   0.866  -4.291  0.00  0.00     0.681 A 
ATOM      5  C   UNL d   1       0.004  -0.729  -2.693  0.00  0.00     0.117 A 
ATOM      6  N   UNL d   1      -0.021   1.850  -3.537  0.00  0.00    -0.200 N 
ATOM      7  HN  UNL d   1      -0.008   2.815  -3.866  1.00  0.00     0.183 HD
ATOM      8  C   UNL d   1       0.478   1.519  -2.332  0.00  0.00     0.133 A 
ENDROOT
BRANCH   3   9
ATOM      9  S   UNL d   1       1.078  -0.062  -0.231  0.00  0.00     0.187 S 
ATOM     10  O   UNL d   1       0.428  -1.276   0.232  0.00  0.00    -0.222 OA
ATOM     11  O   UNL d   1       0.841   1.174   0.499  0.00  0.00    -0.222 OA
BRANCH   9  12
ATOM     12  C   UNL d   1       2.879  -0.330  -0.279  0.00  0.00     0.058 C 
ATOM     13  C   UNL d   1       3.601   0.885  -0.880  0.00  0.00     0.031 C 
ATOM     14  C   UNL d   1       3.364  -0.509   1.174  0.00  0.00     0.031 C 
ATOM     15  C   UNL d   1       3.225  -1.584  -1.088  0.00  0.00     0.031 C 
ENDBRANCH   9  12
ENDBRANCH   3   9
BRANCH   5  16
ATOM     16  N   UNL d   1       0.001  -2.089  -2.408  0.00  0.00    -0.287 NA
ATOM     17  H   UNL d   1      -0.517  -2.560  -3.151  0.00  0.00     0.125 HD
ATOM     18  H   UNL d   1      -0.396  -2.285  -1.487  0.00  0.00     0.125 HD
ENDBRANCH   5  16
BRANCH   4  19
ATOM     19  N   UNL d   1      -1.138   1.187  -5.480  0.00  0.00    -0.218 N 
ATOM     20  C   UNL d   1      -1.839   0.181  -6.263  0.00  0.00     0.141 C 
ATOM     21  C   UNL d   1      -1.113  -0.036  -7.590  0.00  0.00     0.020 C 
ATOM     22  C   UNL d   1      -0.893   1.289  -8.321  0.00  0.00     0.003 C 
ATOM     23  C   UNL d   1      -0.179   2.298  -7.420  0.00  0.00     0.020 C 
ATOM     24  C   UNL d   1      -0.924   2.487  -6.097  0.00  0.00     0.141 C 
ENDBRANCH   4  19
TORSDOF 4
