REMARK  6 active torsions:
REMARK  status: ('A' for Active; 'I' for Inactive)
REMARK    1  A    between atoms: C_9  and  C_3 
REMARK    2  A    between atoms: C_11  and  C_6 
REMARK    3  A    between atoms: C_8  and  O_10 
REMARK    4  A    between atoms: O_10  and  C_18 
REMARK    5  A    between atoms: O_17  and  C_11 
REMARK    6  A    between atoms: C_19  and  O_17 
ROOT
ATOM      1  N   UNL d   1       1.307   0.173   0.081  0.00  0.00    -0.321 N 
ATOM      2  HN  UNL d   1       2.313   0.336   0.107  1.00  0.00     0.169 HD
ATOM      3  C   UNL d   1       0.282   1.094   0.051  0.00  0.00     0.137 A 
ATOM      4  N   UNL d   1      -0.944   0.548   0.066  0.00  0.00    -0.242 N 
ATOM      5  HN  UNL d   1      -1.846   1.025   0.070  1.00  0.00     0.196 HD
ATOM      6  C   UNL d   1       0.656  -0.971   0.065  0.00  0.00     0.172 A 
ATOM      7  O   UNL d   1      -0.697  -0.822   0.076  0.00  0.00    -0.220 OA
ENDROOT
BRANCH   3   8
ATOM      8  C   UNL d   1       0.523   2.530  -0.001  0.00  0.00     0.010 A 
ATOM      9  C   UNL d   1      -0.462   3.406  -0.471  0.00  0.00     0.018 A 
ATOM     10  C   UNL d   1      -0.227   4.786  -0.534  0.00  0.00     0.038 A 
ATOM     11  C   UNL d   1       1.010   5.301  -0.156  0.00  0.00     0.078 A 
ATOM     12  C   UNL d   1       1.983   4.435   0.354  0.00  0.00     0.038 A 
ATOM     13  C   UNL d   1       1.749   3.058   0.421  0.00  0.00     0.018 A 
BRANCH  11  14
ATOM     14  O   UNL d   1       1.363   6.615  -0.167  0.00  0.00    -0.255 OA
BRANCH  14  15
ATOM     15  C   UNL d   1       0.861   7.464  -1.191  0.00  0.00     0.530 C 
ATOM     16  F   UNL d   1       0.134   6.834  -2.136  0.00  0.00    -0.144 F 
ATOM     17  F   UNL d   1       0.099   8.429  -0.631  0.00  0.00    -0.144 F 
ATOM     18  F   UNL d   1       1.908   8.059  -1.805  0.00  0.00    -0.144 F 
ENDBRANCH  14  15
ENDBRANCH  11  14
ENDBRANCH   3   8
BRANCH   6  19
ATOM     19  C   UNL d   1       1.167  -2.362   0.054  0.00  0.00     0.262 C 
BRANCH  19  20
ATOM     20  O   UNL d   1       1.168  -2.792  -1.308  0.00  0.00    -0.343 OA
BRANCH  20  21
ATOM     21  C   UNL d   1       1.560  -4.078  -1.553  0.00  0.00     0.069 A 
ATOM     22  C   UNL d   1       2.008  -4.995  -0.599  0.00  0.00     0.038 A 
ATOM     23  C   UNL d   1       2.374  -6.288  -0.988  0.00  0.00     0.026 A 
ATOM     24  C   UNL d   1       2.295  -6.663  -2.329  0.00  0.00     0.034 A 
ATOM     25  C   UNL d   1       1.856  -5.754  -3.286  0.00  0.00     0.026 A 
ATOM     26 CL   UNL d   1       2.743  -8.255  -2.798  0.00  0.00    -0.084 Cl
ATOM     27  C   UNL d   1       1.491  -4.464  -2.895  0.00  0.00     0.038 A 
ENDBRANCH  20  21
ENDBRANCH  19  20
ENDBRANCH   6  19
TORSDOF 6
