REMARK  8 active torsions:
REMARK  status: ('A' for Active; 'I' for Inactive)
REMARK    1  A    between atoms: N_2  and  C_1 
REMARK    2  A    between atoms: C_3  and  C_1 
REMARK    3  A    between atoms: C_6  and  C_1 
REMARK    4  A    between atoms: N_7  and  C_1 
REMARK       I    between atoms: C_4  and  N_2 
REMARK    5  A    between atoms: C_5  and  C_4 
REMARK    6  A    between atoms: O_17  and  C_6 
REMARK    7  A    between atoms: C_10  and  N_7 
REMARK    8  A    between atoms: C_25  and  O_17 
ROOT
ATOM      1  C   UNL d   1       0.830  -0.030  -0.020  0.00  0.00     0.297 C 
ENDROOT
BRANCH   1   2
ATOM      2  N   UNL d   1       0.433   0.891   1.056  0.00  0.00    -0.314 N 
ATOM      3  C   UNL d   1       0.318   2.248   0.901  0.00  0.00     0.255 C 
ATOM      4  O   UNL d   1       0.599   2.833  -0.133  0.00  0.00    -0.268 OA
ATOM      5  H   UNL d   1       0.047   0.461   1.886  0.00  0.00     0.166 HD
BRANCH   3   6
ATOM      6  C   UNL d   1      -0.298   2.964   2.051  0.00  0.00     0.053 A 
ATOM      7  C   UNL d   1       0.098   2.773   3.383  0.00  0.00     0.049 A 
ATOM      8 CL   UNL d   1       1.450   1.805   3.839  0.00  0.00    -0.083 Cl
ATOM      9  C   UNL d   1      -0.600   3.403   4.418  0.00  0.00     0.025 A 
ATOM     10  C   UNL d   1      -1.678   4.240   4.133  0.00  0.00     0.002 A 
ATOM     11  C   UNL d   1      -2.051   4.465   2.810  0.00  0.00     0.001 A 
ATOM     12  C   UNL d   1      -1.362   3.834   1.770  0.00  0.00     0.019 A 
ENDBRANCH   3   6
ENDBRANCH   1   2
BRANCH   1  13
ATOM     13  C   UNL d   1       0.091   0.169  -1.392  0.00  0.00     0.442 C 
ATOM     14  F   UNL d   1      -1.122   0.758  -1.246  0.00  0.00    -0.166 F 
ATOM     15  F   UNL d   1       0.817   0.942  -2.242  0.00  0.00    -0.166 F 
ATOM     16  F   UNL d   1      -0.131  -0.998  -2.052  0.00  0.00    -0.166 F 
ENDBRANCH   1  13
BRANCH   1  17
ATOM     17  C   UNL d   1       0.355  -1.437   0.414  0.00  0.00     0.318 C 
ATOM     18  O   UNL d   1      -0.589  -1.618   1.182  0.00  0.00    -0.260 OA
BRANCH  17  19
ATOM     19  O   UNL d   1       1.122  -2.438  -0.106  0.00  0.00    -0.318 OA
BRANCH  19  20
ATOM     20  C   UNL d   1       0.815  -3.771   0.325  0.00  0.00     0.174 C 
ATOM     21  C   UNL d   1       1.428  -4.052   1.687  0.00  0.00     0.034 C 
ENDBRANCH  19  20
ENDBRANCH  17  19
ENDBRANCH   1  17
BRANCH   1  22
ATOM     22  N   UNL d   1       2.309   0.066  -0.145  0.00  0.00    -0.348 N 
ATOM     23  H   UNL d   1       2.574   0.848  -0.745  0.00  0.00     0.163 HD
BRANCH  22  24
ATOM     24  C   UNL d   1       3.268  -0.262   0.798  0.00  0.00     0.032 A 
ATOM     25  C   UNL d   1       2.997  -0.772   2.070  0.00  0.00     0.053 A 
ATOM     26  C   UNL d   1       4.027  -1.155   2.934  0.00  0.00     0.036 A 
ATOM     27 CL   UNL d   1       3.640  -1.745   4.506  0.00  0.00    -0.084 Cl
ATOM     28  C   UNL d   1       5.355  -1.076   2.536  0.00  0.00     0.024 A 
ATOM     29  C   UNL d   1       5.651  -0.604   1.262  0.00  0.00     0.004 A 
ATOM     30  C   UNL d   1       4.616  -0.203   0.409  0.00  0.00     0.029 A 
ENDBRANCH  22  24
ENDBRANCH   1  22
TORSDOF 8
