REMARK  6 active torsions:
REMARK  status: ('A' for Active; 'I' for Inactive)
REMARK    1  A    between atoms: C_4  and  S_1 
REMARK    2  A    between atoms: N_7  and  S_1 
REMARK    3  A    between atoms: C_2  and  C_5 
REMARK    4  A    between atoms: C_3  and  C_6 
REMARK    5  A    between atoms: C_23  and  N_7 
REMARK    6  A    between atoms: C_16  and  C_23 
ROOT
ATOM      1  C   UNL d   1       0.406  -1.439  -0.817  0.00  0.00     0.081 A 
ATOM      2  C   UNL d   1      -1.185  -2.658  -2.196  0.00  0.00     0.050 A 
ATOM      3  C   UNL d   1       0.918  -3.714  -1.501  0.00  0.00     0.050 A 
ATOM      4  C   UNL d   1      -0.813  -1.494  -1.504  0.00  0.00     0.041 A 
ATOM      5  C   UNL d   1       1.275  -2.536  -0.822  0.00  0.00     0.041 A 
ATOM      6  C   UNL d   1      -0.316  -3.764  -2.177  0.00  0.00     0.032 A 
ENDROOT
BRANCH   1   7
ATOM      7  S   UNL d   1       0.922   0.107  -0.084  0.00  0.00     0.259 S 
ATOM      8  O   UNL d   1       0.181   1.151  -0.757  0.00  0.00    -0.201 OA
ATOM      9  O   UNL d   1       2.365   0.106  -0.021  0.00  0.00    -0.201 OA
BRANCH   7  10
ATOM     10  N   UNL d   1       0.311   0.004   1.480  0.00  0.00    -0.311 N 
ATOM     11  H   UNL d   1      -0.677  -0.247   1.502  0.00  0.00     0.172 HD
BRANCH  10  12
ATOM     12  C   UNL d   1       1.145  -0.679   2.474  0.00  0.00     0.170 C 
BRANCH  12  13
ATOM     13  C   UNL d   1       0.455  -0.739   3.817  0.00  0.00    -0.037 A 
ATOM     14  C   UNL d   1       0.226  -1.969   4.449  0.00  0.00     0.032 A 
ATOM     15  C   UNL d   1      -0.416  -2.017   5.688  0.00  0.00     0.036 A 
ATOM     16 CL   UNL d   1      -0.695  -3.541   6.438  0.00  0.00    -0.084 Cl
ATOM     17  C   UNL d   1      -0.834  -0.850   6.319  0.00  0.00     0.047 A 
ATOM     18  C   UNL d   1      -0.599   0.376   5.703  0.00  0.00     0.036 A 
ATOM     19  C   UNL d   1       0.042   0.439   4.463  0.00  0.00     0.032 A 
ATOM     20 CL   UNL d   1      -1.108   1.827   6.475  0.00  0.00    -0.084 Cl
ENDBRANCH  12  13
ENDBRANCH  10  12
ENDBRANCH   7  10
ENDBRANCH   1   7
BRANCH   2  21
ATOM     21  C   UNL d   1      -2.475  -2.722  -2.985  0.00  0.00     0.417 C 
ATOM     22  F   UNL d   1      -3.188  -1.564  -2.953  0.00  0.00    -0.166 F 
ATOM     23  F   UNL d   1      -2.263  -2.999  -4.300  0.00  0.00    -0.166 F 
ATOM     24  F   UNL d   1      -3.311  -3.692  -2.525  0.00  0.00    -0.166 F 
ENDBRANCH   2  21
BRANCH   3  25
ATOM     25  C   UNL d   1       1.847  -4.908  -1.544  0.00  0.00     0.417 C 
ATOM     26  F   UNL d   1       3.019  -4.705  -0.884  0.00  0.00    -0.166 F 
ATOM     27  F   UNL d   1       1.287  -6.014  -0.983  0.00  0.00    -0.166 F 
ATOM     28  F   UNL d   1       2.182  -5.257  -2.815  0.00  0.00    -0.166 F 
ENDBRANCH   3  25
TORSDOF 6
