REMARK  6 active torsions:
REMARK  status: ('A' for Active; 'I' for Inactive)
REMARK    1  A    between atoms: C_2  and  C_1 
REMARK    2  A    between atoms: O_10  and  C_1 
REMARK    3  A    between atoms: C_5  and  S_8 
REMARK    4  A    between atoms: S_8  and  C_17 
REMARK    5  A    between atoms: C_18  and  O_10 
REMARK    6  A    between atoms: C_17  and  C_18 
ROOT
ATOM      1  O   UNL d   1       2.366  -0.192  -0.054  0.00  0.00    -0.317 OA
ENDROOT
BRANCH   1   2
ATOM      2  C   UNL d   1       2.193  -1.500  -0.360  0.00  0.00     0.293 C 
ATOM      3  O   UNL d   1       2.645  -2.064  -1.345  0.00  0.00    -0.259 OA
BRANCH   2   4
ATOM      4  C   UNL d   1       1.361  -2.199   0.656  0.00  0.00     0.041 A 
ATOM      5  C   UNL d   1       0.810  -1.550   1.768  0.00  0.00     0.041 A 
ATOM      6  C   UNL d   1       0.049  -2.279   2.684  0.00  0.00     0.035 A 
ATOM      7 CL   UNL d   1      -0.619  -1.488   4.061  0.00  0.00    -0.084 Cl
ATOM      8  C   UNL d   1      -0.176  -3.644   2.504  0.00  0.00     0.024 A 
ATOM      9  C   UNL d   1       0.359  -4.291   1.392  0.00  0.00     0.003 A 
ATOM     10  C   UNL d   1       1.125  -3.572   0.473  0.00  0.00     0.018 A 
ENDBRANCH   2   4
ENDBRANCH   1   2
BRANCH   1  11
ATOM     11  C   UNL d   1       3.073   0.583  -1.048  0.00  0.00     0.189 C 
BRANCH  11  12
ATOM     12  C   UNL d   1       4.585   0.525  -0.830  0.00  0.00     0.107 C 
BRANCH  12  13
ATOM     13  S   UNL d   1       5.410   1.619  -2.040  0.00  0.00    -0.110 SA
BRANCH  13  14
ATOM     14  C   UNL d   1       7.131   1.291  -1.699  0.00  0.00     0.069 A 
ATOM     15  N   UNL d   1       7.453   0.499  -0.653  0.00  0.00    -0.361 N 
ATOM     16  C   UNL d   1       8.768   0.268  -0.437  0.00  0.00     0.089 A 
ATOM     17  HN  UNL d   1       6.736   0.094  -0.051  1.00  0.00     0.165 HD
ATOM     18  C   UNL d   1       9.787   0.794  -1.216  0.00  0.00     0.017 A 
ATOM     19  C   UNL d   1       9.438   1.613  -2.281  0.00  0.00     0.004 A 
ATOM     20  C   UNL d   1       8.090   1.867  -2.527  0.00  0.00     0.037 A 
ENDBRANCH  13  14
ENDBRANCH  12  13
ENDBRANCH  11  12
ENDBRANCH   1  11
TORSDOF 6
