REMARK  2 active torsions:
REMARK  status: ('A' for Active; 'I' for Inactive)
REMARK    1  A    between atoms: S_7  and  C_1 
REMARK    2  A    between atoms: C_8  and  S_7 
ROOT
ATOM      1  C   UNL d   1      -0.181  -1.090  -0.001  0.00  0.00     0.153 A 
ATOM      2  N   UNL d   1       1.060  -0.654  -0.014  0.00  0.00    -0.325 N 
ATOM      3  HN  UNL d   1       1.913  -1.213  -0.021  1.00  0.00     0.169 HD
ATOM      4  C   UNL d   1      -0.360   1.116  -0.016  0.00  0.00     0.155 A 
ATOM      5  N   UNL d   1      -1.085  -0.056  -0.006  0.00  0.00    -0.321 N 
ATOM      6  C   UNL d   1       0.959   0.718  -0.018  0.00  0.00     0.154 A 
ATOM      7  C   UNL d   1      -0.880   2.435  -0.014  0.00  0.00     0.121 C 
ATOM      8  C   UNL d   1       2.125   1.548  -0.015  0.00  0.00     0.121 C 
ATOM      9  N   UNL d   1      -1.341   3.498  -0.014  0.00  0.00    -0.190 NA
ATOM     10  N   UNL d   1       3.052   2.248  -0.015  0.00  0.00    -0.190 NA
ATOM     11  C   UNL d   1      -2.526  -0.174   0.005  0.00  0.00     0.159 C 
ENDROOT
BRANCH   1  12
ATOM     12  S   UNL d   1      -0.640  -2.753   0.146  0.00  0.00    -0.046 SA
BRANCH  12  13
ATOM     13  C   UNL d   1      -0.683  -3.213  -1.553  0.00  0.00     0.048 A 
ATOM     14  S   UNL d   1      -1.804  -4.397  -2.090  0.00  0.00    -0.095 SA
ATOM     15  C   UNL d   1      -1.198  -4.351  -3.687  0.00  0.00     0.051 A 
ATOM     16  C   UNL d   1      -0.172  -3.444  -3.821  0.00  0.00     0.009 A 
ATOM     17  C   UNL d   1       0.127  -2.788  -2.587  0.00  0.00     0.027 A 
ENDBRANCH  12  13
ENDBRANCH   1  12
TORSDOF 2
