REMARK  3 active torsions:
REMARK  status: ('A' for Active; 'I' for Inactive)
REMARK    1  A    between atoms: N_11  and  C_2 
REMARK    2  A    between atoms: C_13  and  C_3 
REMARK    3  A    between atoms: C_14  and  N_11 
ROOT
ATOM      1  C   UNL d   1       0.236   0.984   0.001  0.00  0.00     0.053 A 
ATOM      2  C   UNL d   1       1.617   1.316  -0.042  0.00  0.00     0.116 A 
ATOM      3  C   UNL d   1      -1.012   1.746   0.004  0.00  0.00    -0.003 A 
ATOM      4  C   UNL d   1      -2.115   0.906   0.001  0.00  0.00     0.065 A 
ATOM      5  C   UNL d   1      -0.035  -0.381   0.016  0.00  0.00     0.089 A 
ATOM      6  S   UNL d   1      -1.696  -0.744   0.043  0.00  0.00    -0.082 SA
ATOM      7  N   UNL d   1       2.526   0.316  -0.106  0.00  0.00    -0.338 N 
ATOM      8  HN  UNL d   1       3.521   0.529  -0.186  1.00  0.00     0.168 HD
ATOM      9  N   UNL d   1       0.852  -1.387   0.001  0.00  0.00    -0.346 N 
ATOM     10  HN  UNL d   1       0.592  -2.373   0.035  1.00  0.00     0.167 HD
ATOM     11  C   UNL d   1       2.107  -0.955  -0.064  0.00  0.00     0.182 A 
ENDROOT
BRANCH   3  12
ATOM     12  C   UNL d   1      -1.218   3.201  -0.018  0.00  0.00    -0.024 A 
ATOM     13  C   UNL d   1      -0.446   4.027  -0.843  0.00  0.00     0.012 A 
ATOM     14  C   UNL d   1      -0.555   5.418  -0.771  0.00  0.00     0.001 A 
ATOM     15  C   UNL d   1      -1.498   6.001   0.069  0.00  0.00     0.000 A 
ATOM     16  C   UNL d   1      -2.336   5.192   0.832  0.00  0.00     0.001 A 
ATOM     17  C   UNL d   1      -2.189   3.802   0.799  0.00  0.00     0.012 A 
ENDBRANCH   3  12
BRANCH   2  18
ATOM     18  N   UNL d   1       2.079   2.617  -0.035  0.00  0.00    -0.372 N 
ATOM     19  H   UNL d   1       1.575   3.282   0.537  0.00  0.00     0.161 HD
BRANCH  18  20
ATOM     20  C   UNL d   1       3.380   2.977  -0.569  0.00  0.00     0.075 C 
ATOM     21  C   UNL d   1       3.256   4.345  -1.244  0.00  0.00     0.031 C 
ATOM     22  C   UNL d   1       4.425   3.022   0.535  0.00  0.00     0.031 C 
ENDBRANCH  18  20
ENDBRANCH   2  18
TORSDOF 3
