REMARK  5 active torsions:
REMARK  status: ('A' for Active; 'I' for Inactive)
REMARK       I    between atoms: N_3  and  C_1 
REMARK       I    between atoms: N_6  and  C_1 
REMARK       I    between atoms: C_2  and  N_4 
REMARK    1  A    between atoms: O_7  and  C_2 
REMARK    2  A    between atoms: C_5  and  O_14 
REMARK    3  A    between atoms: C_16  and  N_6 
REMARK    4  A    between atoms: C_15  and  O_7 
REMARK    5  A    between atoms: O_14  and  C_20 
ROOT
ATOM      1  C   UNL d   1       0.950  -0.215   0.125  0.00  0.00     0.323 C 
ATOM      2  C   UNL d   1      -0.756  -3.917  -3.599  0.00  0.00     0.363 C 
ATOM      3  N   UNL d   1       0.451  -1.234  -0.687  0.00  0.00    -0.331 N 
ATOM      4  N   UNL d   1      -0.089  -2.897  -2.952  0.00  0.00    -0.325 N 
ATOM      5  N   UNL d   1       1.982  -0.572   0.963  0.00  0.00    -0.309 N 
ATOM      6  O   UNL d   1       0.495   0.926   0.047  0.00  0.00    -0.247 OA
ATOM      7  O   UNL d   1      -0.501  -5.103  -3.408  0.00  0.00    -0.238 OA
ATOM      8  C   UNL d   1      -0.444  -1.480  -3.014  0.00  0.00     0.148 C 
ATOM      9  C   UNL d   1       0.786  -2.667  -0.653  0.00  0.00     0.147 C 
ATOM     10  C   UNL d   1      -0.662  -0.905  -1.601  0.00  0.00     0.147 C 
ATOM     11  C   UNL d   1       1.024  -3.219  -2.065  0.00  0.00     0.148 C 
ATOM     12  H   UNL d   1       2.225  -1.542   1.011  0.00  0.00     0.170 HD
ENDROOT
BRANCH   5  13
ATOM     13  C   UNL d   1       2.760   0.265   1.795  0.00  0.00     0.036 A 
ATOM     14  C   UNL d   1       2.574   1.641   1.939  0.00  0.00     0.032 A 
ATOM     15  C   UNL d   1       3.401   2.401   2.785  0.00  0.00     0.039 A 
ATOM     16  C   UNL d   1       4.413   1.784   3.518  0.00  0.00     0.078 A 
ATOM     17  C   UNL d   1       4.622   0.415   3.352  0.00  0.00     0.039 A 
ATOM     18  C   UNL d   1       3.800  -0.340   2.509  0.00  0.00     0.032 A 
BRANCH  16  19
ATOM     19  O   UNL d   1       5.257   2.374   4.408  0.00  0.00    -0.255 OA
BRANCH  19  20
ATOM     20  C   UNL d   1       4.945   3.668   4.896  0.00  0.00     0.530 C 
ATOM     21  F   UNL d   1       3.622   3.846   5.098  0.00  0.00    -0.144 F 
ATOM     22  F   UNL d   1       5.564   3.830   6.090  0.00  0.00    -0.144 F 
ATOM     23  F   UNL d   1       5.404   4.613   4.052  0.00  0.00    -0.144 F 
ENDBRANCH  19  20
ENDBRANCH  16  19
ENDBRANCH   5  13
BRANCH   2  24
ATOM     24  O   UNL d   1      -1.718  -3.467  -4.454  0.00  0.00    -0.294 OA
BRANCH  24  25
ATOM     25  C   UNL d   1      -2.558  -4.421  -5.161  0.00  0.00     0.061 C 
ATOM     26  C   UNL d   1      -3.397  -5.243  -4.175  0.00  0.00     0.046 C 
ATOM     27  C   UNL d   1      -3.508  -3.565  -6.019  0.00  0.00     0.046 C 
ATOM     28  C   UNL d   1      -1.746  -5.318  -6.106  0.00  0.00     0.046 C 
ENDBRANCH  24  25
ENDBRANCH   2  24
TORSDOF 5
