REMARK  0 active torsions:
REMARK  status: ('A' for Active; 'I' for Inactive)
ROOT
ATOM      1  C   UNL d   1      -1.174  -0.651  -0.083  0.00  0.00    -0.042 A 
ATOM      2  C   UNL d   1       1.180  -0.644  -0.085  0.00  0.00    -0.042 A 
ATOM      3  C   UNL d   1      -0.725   0.688  -0.065  0.00  0.00    -0.019 A 
ATOM      4  C   UNL d   1       0.723   0.693  -0.071  0.00  0.00    -0.019 A 
ATOM      5  C   UNL d   1       0.006  -1.602  -0.106  0.00  0.00     0.078 A 
ATOM      6  C   UNL d   1       1.624   1.745  -0.049  0.00  0.00     0.014 A 
ATOM      7  C   UNL d   1      -1.631   1.734  -0.026  0.00  0.00     0.014 A 
ATOM      8  C   UNL d   1      -2.524  -0.964  -0.063  0.00  0.00     0.027 A 
ATOM      9  C   UNL d   1       2.532  -0.948  -0.067  0.00  0.00     0.027 A 
ATOM     10  C   UNL d   1      -3.432   0.095  -0.018  0.00  0.00     0.011 A 
ATOM     11  C   UNL d   1       3.435   0.116  -0.034  0.00  0.00     0.011 A 
ATOM     12  C   UNL d   1      -2.997   1.431  -0.000  0.00  0.00     0.020 A 
ATOM     13  C   UNL d   1       2.992   1.450  -0.029  0.00  0.00     0.020 A 
ATOM     14 BR   UNL d   1      -5.288  -0.276   0.031  0.00  0.00    -0.051 Br
ATOM     15 BR   UNL d   1       5.292  -0.243   0.016  0.00  0.00    -0.051 Br
ENDROOT
TORSDOF 0
