REMARK  10 active torsions:
REMARK  status: ('A' for Active; 'I' for Inactive)
REMARK    1  A    between atoms: C_4  and  C_1 
REMARK    2  A    between atoms: N_2  and  C_6 
REMARK    3  A    between atoms: O_10  and  C_4 
REMARK    4  A    between atoms: O_12  and  C_5 
REMARK    5  A    between atoms: N_7  and  O_10 
REMARK    6  A    between atoms: C_14  and  C_9 
REMARK    7  A    between atoms: N_24  and  C_9 
REMARK    8  A    between atoms: C_25  and  O_12 
REMARK    9  A    between atoms: C_15  and  C_16 
REMARK   10  A    between atoms: O_31  and  C_26 
ROOT
ATOM      1  C   UNL d   1       1.219   1.154  -1.080  0.00  0.00     0.318 C 
ATOM      2  O   UNL d   1       0.063   1.539  -1.165  0.00  0.00    -0.257 OA
ENDROOT
BRANCH   1   3
ATOM      3  C   UNL d   1       1.589  -0.117  -0.409  0.00  0.00     0.077 C 
ATOM      4  C   UNL d   1       0.634  -1.147  -0.434  0.00  0.00     0.056 C 
ATOM      5  C   UNL d   1       0.992  -2.436  -0.016  0.00  0.00     0.104 C 
ATOM      6  C   UNL d   1       2.301  -2.714   0.393  0.00  0.00     0.039 C 
ATOM      7  C   UNL d   1       3.216  -1.665   0.505  0.00  0.00     0.041 C 
ATOM      8  C   UNL d   1       2.839  -0.355   0.175  0.00  0.00     0.092 C 
BRANCH   5   9
ATOM      9  N   UNL d   1      -0.014  -3.504  -0.004  0.00  0.00    -0.116 N 
ATOM     10  O   UNL d   1      -1.205  -3.172  -0.082  0.00  0.00    -0.532 OA
ATOM     11  O   UNL d   1       0.388  -4.671   0.107  0.00  0.00    -0.532 OA
ENDBRANCH   5   9
BRANCH   8  12
ATOM     12  O   UNL d   1       3.774   0.620   0.405  0.00  0.00    -0.310 OA
BRANCH  12  13
ATOM     13  C   UNL d   1       3.505   1.621   1.319  0.00  0.00     0.076 A 
ATOM     14  C   UNL d   1       2.397   1.701   2.185  0.00  0.00     0.040 A 
ATOM     15  C   UNL d   1       2.252   2.807   3.038  0.00  0.00     0.039 A 
ATOM     16  C   UNL d   1       3.215   3.813   3.049  0.00  0.00     0.068 A 
ATOM     17  C   UNL d   1       4.340   3.707   2.237  0.00  0.00     0.039 A 
ATOM     18  C   UNL d   1       4.476   2.623   1.369  0.00  0.00     0.040 A 
BRANCH  16  19
ATOM     19  O   UNL d   1       3.170   4.887   3.890  0.00  0.00    -0.356 OA
ATOM     20  C   UNL d   1       1.995   5.679   3.723  0.00  0.00     0.210 C 
ENDBRANCH  16  19
ENDBRANCH  12  13
ENDBRANCH   8  12
ENDBRANCH   1   3
BRANCH   1  21
ATOM     21  O   UNL d   1       2.309   1.724  -1.672  0.00  0.00    -0.193 OA
BRANCH  21  22
ATOM     22  N   UNL d   1       2.108   1.766  -3.073  0.00  0.00    -0.246 N 
ATOM     23  C   UNL d   1       2.565   2.875  -3.583  0.00  0.00     0.109 C 
ATOM     24  HN  UNL d   1       1.662   1.025  -3.614  1.00  0.00     0.196 HD
BRANCH  23  25
ATOM     25  C   UNL d   1       2.606   3.019  -5.078  0.00  0.00     0.004 A 
ATOM     26  C   UNL d   1       2.563   4.282  -5.672  0.00  0.00     0.015 A 
ATOM     27  C   UNL d   1       2.808   4.426  -7.044  0.00  0.00     0.009 A 
ATOM     28  C   UNL d   1       3.113   3.319  -7.860  0.00  0.00    -0.051 A 
ATOM     29  C   UNL d   1       3.066   2.049  -7.258  0.00  0.00     0.009 A 
ATOM     30  C   UNL d   1       2.814   1.899  -5.884  0.00  0.00     0.015 A 
BRANCH  28  31
ATOM     31  C   UNL d   1       3.551   3.532  -9.324  0.00  0.00    -0.024 C 
ATOM     32  C   UNL d   1       3.882   2.223 -10.077  0.00  0.00     0.019 C 
ATOM     33  C   UNL d   1       2.453   4.257 -10.130  0.00  0.00     0.019 C 
ATOM     34  C   UNL d   1       4.834   4.396  -9.341  0.00  0.00     0.019 C 
ENDBRANCH  28  31
ENDBRANCH  23  25
BRANCH  23  35
ATOM     35  N   UNL d   1       3.065   3.908  -2.825  0.00  0.00    -0.286 NA
ATOM     36  H   UNL d   1       3.256   3.641  -1.865  0.00  0.00     0.125 HD
ATOM     37  H   UNL d   1       3.811   4.452  -3.244  0.00  0.00     0.125 HD
ENDBRANCH  23  35
ENDBRANCH  21  22
ENDBRANCH   1  21
TORSDOF 10
