REMARK  9 active torsions:
REMARK  status: ('A' for Active; 'I' for Inactive)
REMARK    1  A    between atoms: C_6  and  C_1 
REMARK    2  A    between atoms: C_8  and  C_2 
REMARK    3  A    between atoms: N_7  and  C_3 
REMARK    4  A    between atoms: N_11  and  C_4 
REMARK    5  A    between atoms: C_10  and  C_6 
REMARK    6  A    between atoms: C_9  and  N_7 
REMARK    7  A    between atoms: O_17  and  C_8 
REMARK    8  A    between atoms: O_22  and  C_14 
REMARK    9  A    between atoms: C_25  and  O_17 
ROOT
ATOM      1  C   UNL d   1      -0.192   1.043  -0.251  0.00  0.00     0.085 C 
ATOM      2  C   UNL d   1      -0.624  -1.265  -0.159  0.00  0.00     0.101 C 
ATOM      3  C   UNL d   1       0.755  -1.269  -0.382  0.00  0.00     0.094 C 
ATOM      4  C   UNL d   1      -1.156   0.067  -0.134  0.00  0.00     0.066 C 
ATOM      5  S   UNL d   1       1.327   0.341  -0.603  0.00  0.00    -0.065 SA
ENDROOT
BRANCH   3   6
ATOM      6  N   UNL d   1       1.669  -2.289  -0.427  0.00  0.00    -0.347 N 
ATOM      7  H   UNL d   1       2.661  -2.072  -0.402  0.00  0.00     0.167 HD
BRANCH   6   8
ATOM      8  C   UNL d   1       1.424  -3.630  -0.809  0.00  0.00     0.066 A 
ATOM      9  C   UNL d   1       2.035  -4.729  -0.171  0.00  0.00     0.094 A 
ATOM     10  C   UNL d   1       1.644  -6.036  -0.507  0.00  0.00     0.039 A 
ATOM     11  C   UNL d   1       0.646  -6.269  -1.453  0.00  0.00     0.003 A 
ATOM     12  C   UNL d   1       0.068  -5.197  -2.118  0.00  0.00     0.002 A 
ATOM     13  C   UNL d   1       0.472  -3.898  -1.815  0.00  0.00     0.032 A 
BRANCH   9  14
ATOM     14  O   UNL d   1       3.052  -4.687   0.746  0.00  0.00    -0.354 OA
ATOM     15  C   UNL d   1       2.913  -3.771   1.822  0.00  0.00     0.210 C 
ENDBRANCH   9  14
ENDBRANCH   6   8
ENDBRANCH   3   6
BRANCH   2  16
ATOM     16  C   UNL d   1      -1.458  -2.432   0.122  0.00  0.00     0.298 C 
ATOM     17  O   UNL d   1      -2.637  -2.511  -0.187  0.00  0.00    -0.259 OA
BRANCH  16  18
ATOM     18  O   UNL d   1      -0.794  -3.349   0.879  0.00  0.00    -0.318 OA
BRANCH  18  19
ATOM     19  C   UNL d   1      -1.569  -4.405   1.437  0.00  0.00     0.174 C 
ATOM     20  C   UNL d   1      -1.943  -3.954   2.830  0.00  0.00     0.034 C 
ENDBRANCH  18  19
ENDBRANCH  16  18
ENDBRANCH   2  16
BRANCH   1  21
ATOM     21  C   UNL d   1      -0.401   2.486  -0.163  0.00  0.00     0.201 C 
ATOM     22  O   UNL d   1      -1.468   3.015  -0.487  0.00  0.00    -0.286 OA
BRANCH  21  23
ATOM     23  C   UNL d   1       0.651   3.393   0.391  0.00  0.00     0.015 A 
ATOM     24  C   UNL d   1       1.605   2.965   1.325  0.00  0.00     0.017 A 
ATOM     25  C   UNL d   1       2.591   3.843   1.783  0.00  0.00     0.020 A 
ATOM     26  C   UNL d   1       2.595   5.166   1.347  0.00  0.00     0.011 A 
ATOM     27  C   UNL d   1       1.615   5.623   0.469  0.00  0.00     0.020 A 
ATOM     28 BR   UNL d   1       3.933   6.349   1.963  0.00  0.00    -0.051 Br
ATOM     29  C   UNL d   1       0.645   4.738  -0.008  0.00  0.00     0.017 A 
ENDBRANCH  21  23
ENDBRANCH   1  21
BRANCH   4  30
ATOM     30  N   UNL d   1      -2.463   0.345   0.091  0.00  0.00    -0.397 N 
ATOM     31  H   UNL d   1      -3.173  -0.378  -0.048  0.00  0.00     0.156 HD
ATOM     32  H   UNL d   1      -2.822   1.286  -0.083  0.00  0.00     0.156 HD
ENDBRANCH   4  30
TORSDOF 9
