REMARK  7 active torsions:
REMARK  status: ('A' for Active; 'I' for Inactive)
REMARK    1  A    between atoms: C_9  and  C_3 
REMARK    2  A    between atoms: C_11  and  C_4 
REMARK    3  A    between atoms: C_10  and  C_7 
REMARK    4  A    between atoms: O_15  and  C_9 
REMARK    5  A    between atoms: O_16  and  C_10 
REMARK    6  A    between atoms: C_19  and  O_15 
REMARK    7  A    between atoms: C_20  and  O_16 
ROOT
ATOM      1  C   UNL d   1       0.069   0.292  -0.147  0.00  0.00     0.008 A 
ATOM      2  C   UNL d   1      -0.267  -0.991  -0.339  0.00  0.00     0.059 A 
ATOM      3  C   UNL d   1      -2.235   0.400  -0.188  0.00  0.00     0.093 A 
ATOM      4  C   UNL d   1      -1.058   1.172  -0.112  0.00  0.00     0.010 A 
ATOM      5  C   UNL d   1       1.480   0.492   0.015  0.00  0.00    -0.026 A 
ATOM      6  S   UNL d   1      -1.897  -1.281  -0.454  0.00  0.00    -0.075 SA
ATOM      7  C   UNL d   1       2.131  -0.759  -0.089  0.00  0.00     0.088 A 
ATOM      8  S   UNL d   1       1.008  -2.047  -0.410  0.00  0.00    -0.075 SA
ATOM      9  C   UNL d   1       2.181   1.783   0.289  0.00  0.00     0.050 C 
ENDROOT
BRANCH   4  10
ATOM     10  C   UNL d   1      -1.131   2.632   0.003  0.00  0.00    -0.024 A 
ATOM     11  C   UNL d   1      -1.915   3.244   0.994  0.00  0.00     0.012 A 
ATOM     12  C   UNL d   1      -2.085   4.632   1.016  0.00  0.00     0.001 A 
ATOM     13  C   UNL d   1      -1.433   5.428   0.079  0.00  0.00     0.000 A 
ATOM     14  C   UNL d   1      -0.619   4.838  -0.885  0.00  0.00     0.001 A 
ATOM     15  C   UNL d   1      -0.481   3.446  -0.934  0.00  0.00     0.012 A 
ENDBRANCH   4  10
BRANCH   3  16
ATOM     16  C   UNL d   1      -3.631   0.797  -0.099  0.00  0.00     0.301 C 
ATOM     17  O   UNL d   1      -4.127   1.826  -0.535  0.00  0.00    -0.259 OA
BRANCH  16  18
ATOM     18  O   UNL d   1      -4.306  -0.114   0.667  0.00  0.00    -0.317 OA
BRANCH  18  19
ATOM     19  C   UNL d   1      -5.629   0.236   1.092  0.00  0.00     0.174 C 
ATOM     20  C   UNL d   1      -5.551   0.797   2.501  0.00  0.00     0.034 C 
ENDBRANCH  18  19
ENDBRANCH  16  18
ENDBRANCH   3  16
BRANCH   7  21
ATOM     21  C   UNL d   1       3.521  -1.180   0.053  0.00  0.00     0.300 C 
ATOM     22  O   UNL d   1       3.933  -2.333  -0.053  0.00  0.00    -0.259 OA
BRANCH  21  23
ATOM     23  O   UNL d   1       4.330  -0.130   0.377  0.00  0.00    -0.317 OA
BRANCH  23  24
ATOM     24  C   UNL d   1       5.674  -0.479   0.746  0.00  0.00     0.174 C 
ATOM     25  C   UNL d   1       5.740  -0.697   2.247  0.00  0.00     0.034 C 
ENDBRANCH  23  24
ENDBRANCH  21  23
ENDBRANCH   7  21
TORSDOF 7
