REMARK  4 active torsions:
REMARK  status: ('A' for Active; 'I' for Inactive)
REMARK    1  A    between atoms: C_3  and  C_1 
REMARK    2  A    between atoms: C_4  and  C_2 
REMARK       I    between atoms: N_15  and  C_4 
REMARK    3  A    between atoms: C_17  and  N_15 
REMARK    4  A    between atoms: O_24  and  C_18 
ROOT
ATOM      1  C   UNL d   1       0.681  -0.252  -0.563  0.00  0.00     0.137 A 
ATOM      2  C   UNL d   1      -0.126  -1.265  -0.050  0.00  0.00     0.093 A 
ATOM      3  O   UNL d   1      -0.025   0.919  -0.478  0.00  0.00    -0.235 OA
ATOM      4  N   UNL d   1      -1.296   0.689  -0.021  0.00  0.00    -0.264 N 
ATOM      5  HN  UNL d   1      -2.037   1.379   0.106  1.00  0.00     0.194 HD
ATOM      6  C   UNL d   1      -1.368  -0.618   0.225  0.00  0.00     0.047 A 
ATOM      7  C   UNL d   1      -2.652  -1.168   0.724  0.00  0.00     0.071 C 
ENDROOT
BRANCH   2   8
ATOM      8  C   UNL d   1       0.253  -2.647   0.185  0.00  0.00     0.261 C 
ATOM      9  N   UNL d   1      -0.671  -3.574  -0.270  0.00  0.00    -0.323 N 
ATOM     10  H   UNL d   1      -1.337  -3.250  -0.959  0.00  0.00     0.169 HD
ATOM     11  O   UNL d   1       1.333  -2.921   0.694  0.00  0.00    -0.267 OA
BRANCH   9  12
ATOM     12  C   UNL d   1      -0.537  -4.967  -0.135  0.00  0.00     0.035 A 
ATOM     13  C   UNL d   1       0.076  -5.580   0.965  0.00  0.00     0.032 A 
ATOM     14  C   UNL d   1       0.219  -6.975   1.017  0.00  0.00     0.039 A 
ATOM     15  C   UNL d   1      -0.220  -7.768  -0.038  0.00  0.00     0.068 A 
ATOM     16  C   UNL d   1      -0.873  -7.161  -1.114  0.00  0.00     0.039 A 
ATOM     17  C   UNL d   1      -1.056  -5.777  -1.150  0.00  0.00     0.032 A 
BRANCH  15  18
ATOM     18  O   UNL d   1      -0.076  -9.120  -0.155  0.00  0.00    -0.356 OA
ATOM     19  C   UNL d   1       0.730  -9.776   0.818  0.00  0.00     0.210 C 
ENDBRANCH  15  18
ENDBRANCH   9  12
ENDBRANCH   2   8
BRANCH   1  20
ATOM     20  C   UNL d   1       1.972  -0.258  -1.186  0.00  0.00     0.083 A 
ATOM     21  C   UNL d   1       2.921   0.760  -1.251  0.00  0.00     0.043 A 
ATOM     22  N   UNL d   1       4.002   0.494  -2.089  0.00  0.00    -0.298 N 
ATOM     23  C   UNL d   1       2.896   2.078  -0.568  0.00  0.00     0.071 C 
ATOM     24  N   UNL d   1       3.908  -0.694  -2.657  0.00  0.00    -0.269 N 
ATOM     25  HN  UNL d   1       4.774   1.141  -2.245  1.00  0.00     0.187 HD
ATOM     26  S   UNL d   1       2.540  -1.530  -2.190  0.00  0.00     0.006 SA
ATOM     27  HN  UNL d   1       4.598  -1.062  -3.312  1.00  0.00     0.195 HD
ENDBRANCH   1  20
TORSDOF 4
