REMARK  5 active torsions:
REMARK  status: ('A' for Active; 'I' for Inactive)
REMARK    1  A    between atoms: C_6  and  N_1 
REMARK    2  A    between atoms: C_7  and  C_2 
REMARK    3  A    between atoms: C_20  and  C_18 
REMARK    4  A    between atoms: C_21  and  C_20 
REMARK    5  A    between atoms: C_22  and  C_21 
ROOT
ATOM      1  N   UNL d   1       0.897  -0.661   0.150  0.00  0.00    -0.255 N 
ATOM      2  C   UNL d   1       0.681   0.633  -0.214  0.00  0.00     0.077 A 
ATOM      3  C   UNL d   1      -0.202  -1.100   0.880  0.00  0.00     0.377 A 
ATOM      4  C   UNL d   1      -0.522   0.949   0.253  0.00  0.00     0.178 A 
ATOM      5  O   UNL d   1      -1.154  -0.080   0.949  0.00  0.00    -0.271 OA
ATOM      6  O   UNL d   1      -0.365  -2.193   1.409  0.00  0.00    -0.237 OA
ENDROOT
BRANCH   1   7
ATOM      7  C   UNL d   1       2.079  -1.405   0.027  0.00  0.00     0.045 A 
ATOM      8  C   UNL d   1       2.235  -2.299  -1.032  0.00  0.00     0.031 A 
ATOM      9  C   UNL d   1       3.407  -3.052  -1.138  0.00  0.00     0.009 A 
ATOM     10  C   UNL d   1       4.424  -2.925  -0.181  0.00  0.00    -0.058 A 
ATOM     11  C   UNL d   1       4.266  -2.000   0.861  0.00  0.00     0.009 A 
ATOM     12  C   UNL d   1       3.098  -1.245   0.967  0.00  0.00     0.031 A 
BRANCH  10  13
ATOM     13  C   UNL d   1       5.657  -3.793  -0.253  0.00  0.00     0.038 C 
BRANCH  13  14
ATOM     14  C   UNL d   1       5.855  -4.686   0.979  0.00  0.00     0.004 C 
BRANCH  14  15
ATOM     15  C   UNL d   1       4.714  -5.683   1.198  0.00  0.00    -0.004 C 
ATOM     16  C   UNL d   1       4.963  -6.534   2.433  0.00  0.00     0.005 C 
ENDBRANCH  14  15
ENDBRANCH  13  14
ENDBRANCH  10  13
ENDBRANCH   1   7
BRANCH   2  17
ATOM     17  C   UNL d   1       1.600   1.434  -1.005  0.00  0.00    -0.007 A 
ATOM     18  C   UNL d   1       2.537   2.274  -0.387  0.00  0.00     0.017 A 
ATOM     19  C   UNL d   1       3.461   2.979  -1.161  0.00  0.00     0.043 A 
ATOM     20  C   UNL d   1       3.441   2.848  -2.546  0.00  0.00     0.116 A 
ATOM     21  C   UNL d   1       2.504   2.038  -3.175  0.00  0.00     0.043 A 
ATOM     22  F   UNL d   1       4.343   3.507  -3.284  0.00  0.00    -0.206 F 
ATOM     23  C   UNL d   1       1.579   1.332  -2.404  0.00  0.00     0.017 A 
ENDBRANCH   2  17
TORSDOF 5
