REMARK  1 active torsions:
REMARK  status: ('A' for Active; 'I' for Inactive)
REMARK    1  A    between atoms: C_4  and  C_1 
REMARK       I    between atoms: N_8  and  C_4 
ROOT
ATOM      1  C   UNL d   1      -0.821  -1.050  -0.155  0.00  0.00     0.118 C 
ATOM      2  C   UNL d   1       0.706  -1.071   0.077  0.00  0.00     0.163 C 
ATOM      3  N   UNL d   1       1.141   0.347   0.066  0.00  0.00     0.102 N 
ATOM      4  C   UNL d   1      -0.013   1.211  -0.219  0.00  0.00     0.152 C 
ATOM      5  C   UNL d   1      -1.210   0.378   0.232  0.00  0.00     0.057 C 
ATOM      6  C   UNL d   1       1.118  -1.643   1.443  0.00  0.00     0.049 C 
ATOM      7  C   UNL d   1       1.441  -1.835  -1.036  0.00  0.00     0.049 C 
ATOM      8  C   UNL d   1       0.100   2.509   0.585  0.00  0.00     0.048 C 
ATOM      9  C   UNL d   1      -0.079   1.555  -1.716  0.00  0.00     0.048 C 
ATOM     10  H   UNL d   1       1.901   0.513  -0.592  0.00  0.00     0.318 HD
ENDROOT
BRANCH   1  11
ATOM     11  C   UNL d   1      -1.634  -2.088   0.601  0.00  0.00     0.222 C 
ATOM     12  O   UNL d   1      -2.521  -1.823   1.404  0.00  0.00    -0.273 OA
ATOM     13  N   UNL d   1      -1.369  -3.393   0.302  0.00  0.00    -0.370 N 
ATOM     14  H   UNL d   1      -0.617  -3.694  -0.299  0.00  0.00     0.159 HD
ATOM     15  H   UNL d   1      -1.867  -4.095   0.835  0.00  0.00     0.159 HD
ENDBRANCH   1  11
TORSDOF 1
