REMARK  1 active torsions:
REMARK  status: ('A' for Active; 'I' for Inactive)
REMARK    1  A    between atoms: C_2  and  C_1 
ROOT
ATOM      1  C   UNL d   1       0.696   1.151  -0.362  0.00  0.00     0.032 C 
ATOM      2  C   UNL d   1       0.697  -1.332   0.056  0.00  0.00     0.134 C 
ATOM      3  C   UNL d   1      -1.470  -0.077  -0.020  0.00  0.00     0.134 C 
ATOM      4  C   UNL d   1      -0.774  -1.352   0.367  0.00  0.00     0.156 C 
ATOM      5  C   UNL d   1       1.439  -0.031   0.278  0.00  0.00     0.088 C 
ATOM      6  C   UNL d   1      -0.724   1.214   0.225  0.00  0.00     0.088 C 
ATOM      7  O   UNL d   1      -2.646  -0.071  -0.378  0.00  0.00    -0.298 OA
ATOM      8  O   UNL d   1       1.303  -2.359  -0.246  0.00  0.00    -0.298 OA
ENDROOT
BRANCH   1   9
ATOM      9  C   UNL d   1       0.717   1.219  -1.891  0.00  0.00    -0.051 A 
ATOM     10  C   UNL d   1       1.386   0.283  -2.698  0.00  0.00     0.033 A 
ATOM     11  C   UNL d   1       1.403   0.402  -4.097  0.00  0.00     0.056 A 
ATOM     12 CL   UNL d   1       2.259  -0.802  -4.995  0.00  0.00    -0.083 Cl
ATOM     13  C   UNL d   1       0.752   1.470  -4.716  0.00  0.00     0.055 A 
ATOM     14  C   UNL d   1       0.097   2.418  -3.932  0.00  0.00     0.026 A 
ATOM     15 CL   UNL d   1       0.730   1.683  -6.429  0.00  0.00    -0.083 Cl
ATOM     16  C   UNL d   1       0.089   2.299  -2.538  0.00  0.00     0.009 A 
ENDBRANCH   1   9
TORSDOF 1
