REMARK  5 active torsions:
REMARK  status: ('A' for Active; 'I' for Inactive)
REMARK       I    between atoms: N_3  and  C_1 
REMARK    1  A    between atoms: C_6  and  C_1 
REMARK    2  A    between atoms: C_15  and  N_3 
REMARK    3  A    between atoms: C_14  and  C_15 
REMARK    4  A    between atoms: C_20  and  C_19 
REMARK    5  A    between atoms: C_21  and  C_20 
ROOT
ATOM      1  C   UNL d   1       1.067  -0.085   0.124  0.00  0.00     0.251 C 
ATOM      2  N   UNL d   1       0.374  -0.419   1.269  0.00  0.00    -0.353 N 
ATOM      3  O   UNL d   1       2.286  -0.163   0.020  0.00  0.00    -0.268 OA
ATOM      4  H   UNL d   1      -0.621  -0.581   1.210  0.00  0.00     0.163 HD
ENDROOT
BRANCH   2   5
ATOM      5  C   UNL d   1       1.060  -0.921   2.435  0.00  0.00     0.161 C 
BRANCH   5   6
ATOM      6  C   UNL d   1       0.300  -0.594   3.695  0.00  0.00    -0.038 A 
ATOM      7  C   UNL d   1      -0.666  -1.478   4.202  0.00  0.00     0.048 A 
ATOM      8  C   UNL d   1      -1.299  -1.141   5.381  0.00  0.00     0.105 A 
ATOM      9  O   UNL d   1      -2.230  -1.895   6.026  0.00  0.00    -0.323 OA
ATOM     10  C   UNL d   1      -1.022   0.029   6.047  0.00  0.00     0.105 A 
ATOM     11  C   UNL d   1      -2.464  -1.090   7.200  0.00  0.00     0.352 A 
ATOM     12  O   UNL d   1      -1.740   0.157   7.194  0.00  0.00    -0.323 OA
ATOM     13  C   UNL d   1      -0.103   0.936   5.566  0.00  0.00     0.040 A 
ATOM     14  C   UNL d   1       0.559   0.620   4.376  0.00  0.00     0.012 A 
ENDBRANCH   5   6
ENDBRANCH   2   5
BRANCH   1  15
ATOM     15  C   UNL d   1       0.237   0.360  -1.027  0.00  0.00     0.032 A 
ATOM     16  C   UNL d   1      -0.984   1.008  -0.826  0.00  0.00     0.017 A 
ATOM     17  C   UNL d   1      -1.762   1.396  -1.919  0.00  0.00     0.008 A 
ATOM     18  C   UNL d   1      -1.320   1.150  -3.225  0.00  0.00    -0.058 A 
ATOM     19  C   UNL d   1      -0.073   0.540  -3.421  0.00  0.00     0.008 A 
ATOM     20  C   UNL d   1       0.705   0.148  -2.327  0.00  0.00     0.017 A 
BRANCH  18  21
ATOM     21  C   UNL d   1      -2.186   1.534  -4.401  0.00  0.00     0.038 C 
BRANCH  21  22
ATOM     22  C   UNL d   1      -2.592   0.350  -5.286  0.00  0.00     0.000 C 
ATOM     23  C   UNL d   1      -3.417  -0.698  -4.550  0.00  0.00     0.005 C 
ENDBRANCH  21  22
ENDBRANCH  18  21
ENDBRANCH   1  15
TORSDOF 5
