REMARK  4 active torsions:
REMARK  status: ('A' for Active; 'I' for Inactive)
REMARK    1  A    between atoms: C_3  and  C_4 
REMARK       I    between atoms: C_4  and  N_14 
REMARK    2  A    between atoms: C_16  and  C_7 
REMARK    3  A    between atoms: C_8  and  C_10 
REMARK    4  A    between atoms: N_14  and  C_22 
ROOT
ATOM      1  C   UNL d   1       4.548  -6.669  -1.403  0.00  0.00     0.258 C 
ATOM      2  N   UNL d   1       4.570  -5.666  -0.442  0.00  0.00    -0.323 N 
ATOM      3  O   UNL d   1       3.651  -6.870  -2.210  0.00  0.00    -0.267 OA
ATOM      4  H   UNL d   1       5.358  -5.629   0.190  0.00  0.00     0.169 HD
ENDROOT
BRANCH   2   5
ATOM      5  C   UNL d   1       3.566  -4.697  -0.216  0.00  0.00     0.035 A 
ATOM      6  C   UNL d   1       2.491  -4.481  -1.076  0.00  0.00     0.030 A 
ATOM      7  C   UNL d   1       1.496  -3.545  -0.764  0.00  0.00     0.016 A 
ATOM      8  C   UNL d   1       1.548  -2.809   0.425  0.00  0.00    -0.009 A 
ATOM      9  C   UNL d   1       2.656  -2.995   1.263  0.00  0.00     0.016 A 
ATOM     10  C   UNL d   1       3.660  -3.921   0.943  0.00  0.00     0.030 A 
BRANCH   8  11
ATOM     11  C   UNL d   1       0.478  -1.895   0.830  0.00  0.00     0.049 A 
ATOM     12  N   UNL d   1       0.559  -1.188   2.025  0.00  0.00    -0.353 N 
ATOM     13  C   UNL d   1      -0.534  -0.481   2.213  0.00  0.00     0.047 A 
ATOM     14  HN  UNL d   1       1.353  -1.214   2.664  1.00  0.00     0.166 HD
ATOM     15  S   UNL d   1      -1.712  -0.595   0.971  0.00  0.00    -0.087 SA
ATOM     16  C   UNL d   1      -0.794   0.365   3.408  0.00  0.00     0.076 C 
ATOM     17  C   UNL d   1      -0.693  -1.684   0.126  0.00  0.00     0.081 A 
ENDBRANCH   8  11
ENDBRANCH   2   5
BRANCH   1  18
ATOM     18  C   UNL d   1       5.732  -7.571  -1.417  0.00  0.00     0.054 A 
ATOM     19  C   UNL d   1       6.250  -8.078  -2.614  0.00  0.00     0.021 A 
ATOM     20  N   UNL d   1       7.357  -8.874  -2.647  0.00  0.00    -0.355 N 
ATOM     21  C   UNL d   1       5.642  -7.791  -3.958  0.00  0.00     0.069 C 
ATOM     22  C   UNL d   1       7.968  -9.215  -1.478  0.00  0.00     0.117 A 
ATOM     23  HN  UNL d   1       7.724  -9.210  -3.537  1.00  0.00     0.166 HD
ATOM     24  C   UNL d   1       7.470  -8.787  -0.248  0.00  0.00     0.035 A 
ATOM     25  C   UNL d   1       6.345  -7.964  -0.220  0.00  0.00     0.021 A 
BRANCH  22  26
ATOM     26  C   UNL d   1       9.231 -10.068  -1.508  0.00  0.00     0.432 C 
ATOM     27  F   UNL d   1       9.648 -10.419  -2.757  0.00  0.00    -0.165 F 
ATOM     28  F   UNL d   1      10.292  -9.434  -0.927  0.00  0.00    -0.165 F 
ATOM     29  F   UNL d   1       9.087 -11.238  -0.819  0.00  0.00    -0.165 F 
ENDBRANCH  22  26
ENDBRANCH   1  18
TORSDOF 4
