REMARK  3 active torsions:
REMARK  status: ('A' for Active; 'I' for Inactive)
REMARK    1  A    between atoms: C_8  and  N_3 
REMARK    2  A    between atoms: C_10  and  C_6 
REMARK    3  A    between atoms: O_14  and  C_6 
ROOT
ATOM      1  C   UNL d   1      -0.732  -0.910  -0.251  0.00  0.00     0.092 C 
ATOM      2  C   UNL d   1       0.756  -0.981  -0.073  0.00  0.00     0.128 C 
ATOM      3  N   UNL d   1       1.177   0.332   0.169  0.00  0.00    -0.265 N 
ATOM      4  C   UNL d   1       0.142   1.244   0.269  0.00  0.00     0.304 C 
ATOM      5  C   UNL d   1      -1.156   0.473   0.062  0.00  0.00     0.256 C 
ATOM      6  C   UNL d   1      -1.560  -1.895  -0.651  0.00  0.00     0.093 C 
ATOM      7  S   UNL d   1       1.693  -2.377  -0.053  0.00  0.00    -0.059 SA
ATOM      8  O   UNL d   1       0.166   2.448   0.428  0.00  0.00    -0.263 OA
ATOM      9  O   UNL d   1      -2.265   0.935   0.176  0.00  0.00    -0.281 OA
ENDROOT
BRANCH   6  10
ATOM     10  C   UNL d   1      -2.995  -1.703  -0.899  0.00  0.00    -0.002 A 
ATOM     11  C   UNL d   1      -3.433  -1.299  -2.168  0.00  0.00     0.016 A 
ATOM     12  C   UNL d   1      -4.798  -1.144  -2.426  0.00  0.00     0.024 A 
ATOM     13  C   UNL d   1      -5.724  -1.397  -1.417  0.00  0.00     0.034 A 
ATOM     14  C   UNL d   1      -5.300  -1.804  -0.152  0.00  0.00     0.024 A 
ATOM     15 CL   UNL d   1      -7.405  -1.218  -1.738  0.00  0.00    -0.084 Cl
ATOM     16  C   UNL d   1      -3.936  -1.959   0.107  0.00  0.00     0.016 A 
ENDBRANCH   6  10
BRANCH   6  17
ATOM     17  O   UNL d   1      -1.173  -3.187  -0.943  0.00  0.00    -0.359 OA
ATOM     18  H   UNL d   1      -0.228  -3.319  -0.733  0.00  0.00     0.217 HD
ENDBRANCH   6  17
BRANCH   3  19
ATOM     19  C   UNL d   1       2.526   0.764   0.270  0.00  0.00     0.043 A 
ATOM     20  C   UNL d   1       2.924   1.598   1.324  0.00  0.00     0.030 A 
ATOM     21  C   UNL d   1       4.252   2.016   1.434  0.00  0.00     0.002 A 
ATOM     22  C   UNL d   1       5.185   1.642   0.470  0.00  0.00     0.000 A 
ATOM     23  C   UNL d   1       4.794   0.844  -0.603  0.00  0.00     0.002 A 
ATOM     24  C   UNL d   1       3.473   0.402  -0.699  0.00  0.00     0.030 A 
ENDBRANCH   3  19
TORSDOF 3
