REMARK  5 active torsions:
REMARK  status: ('A' for Active; 'I' for Inactive)
REMARK    1  A    between atoms: C_9  and  C_3 
REMARK    2  A    between atoms: C_10  and  C_4 
REMARK    3  A    between atoms: N_8  and  C_11 
REMARK    4  A    between atoms: O_18  and  C_9 
REMARK    5  A    between atoms: C_22  and  O_18 
ROOT
ATOM      1  N   UNL d   1       0.671   0.187  -0.923  0.00  0.00    -0.314 N 
ATOM      2  HN  UNL d   1       1.221   0.386  -1.758  1.00  0.00     0.170 HD
ATOM      3  C   UNL d   1       0.219  -0.973  -0.491  0.00  0.00     0.247 A 
ATOM      4  C   UNL d   1       0.214   1.064   0.036  0.00  0.00     0.138 A 
ATOM      5  N   UNL d   1      -0.508   0.478   1.008  0.00  0.00    -0.242 N 
ATOM      6  HN  UNL d   1      -0.954   0.920   1.812  1.00  0.00     0.196 HD
ATOM      7  O   UNL d   1      -0.506  -0.872   0.660  0.00  0.00    -0.211 OA
ENDROOT
BRANCH   4   8
ATOM      8  C   UNL d   1       0.505   2.494  -0.008  0.00  0.00     0.012 A 
ATOM      9  C   UNL d   1       1.225   3.040  -1.086  0.00  0.00     0.045 A 
ATOM     10  C   UNL d   1       1.502   4.417  -1.149  0.00  0.00     0.039 A 
ATOM     11  C   UNL d   1       1.062   5.242  -0.103  0.00  0.00     0.030 A 
ATOM     12  C   UNL d   1       0.354   4.705   0.974  0.00  0.00     0.003 A 
ATOM     13  C   UNL d   1       0.076   3.342   1.021  0.00  0.00     0.015 A 
BRANCH  10  14
ATOM     14  N   UNL d   1       2.206   4.972  -2.266  0.00  0.00    -0.333 N 
ATOM     15  C   UNL d   1       2.571   6.296  -2.438  0.00  0.00     0.096 A 
ATOM     16  C   UNL d   1       3.201   6.448  -3.653  0.00  0.00     0.019 A 
ATOM     17  C   UNL d   1       3.245   5.179  -4.258  0.00  0.00     0.019 A 
ATOM     18  C   UNL d   1       2.642   4.294  -3.392  0.00  0.00     0.096 A 
ENDBRANCH  10  14
ENDBRANCH   4   8
BRANCH   3  19
ATOM     19  C   UNL d   1       0.475  -2.289  -1.021  0.00  0.00     0.337 C 
ATOM     20  O   UNL d   1       0.092  -3.347  -0.532  0.00  0.00    -0.255 OA
BRANCH  19  21
ATOM     21  O   UNL d   1       1.297  -2.196  -2.109  0.00  0.00    -0.315 OA
BRANCH  21  22
ATOM     22  C   UNL d   1       1.979  -3.404  -2.471  0.00  0.00     0.175 C 
ATOM     23  C   UNL d   1       3.273  -3.467  -1.681  0.00  0.00     0.034 C 
ENDBRANCH  21  22
ENDBRANCH  19  21
ENDBRANCH   3  19
TORSDOF 5
