REMARK  4 active torsions:
REMARK  status: ('A' for Active; 'I' for Inactive)
REMARK    1  A    between atoms: S_3  and  C_1 
REMARK    2  A    between atoms: C_6  and  S_3 
REMARK    3  A    between atoms: C_15  and  C_6 
REMARK    4  A    between atoms: C_13  and  C_8 
ROOT
ATOM      1  C   UNL d   1       2.490  -0.584  -1.194  0.00  0.00     0.124 C 
ATOM      2  N   UNL d   1       3.847  -0.257  -3.368  0.00  0.00    -0.191 NA
ATOM      3  N   UNL d   1       1.205  -2.799  -0.842  0.00  0.00    -0.191 NA
ATOM      4  C   UNL d   1       3.240  -0.414  -2.388  0.00  0.00     0.110 C 
ATOM      5  C   UNL d   1       1.808  -1.818  -0.998  0.00  0.00     0.110 C 
ATOM      6  C   UNL d   1       2.341   0.403  -0.290  0.00  0.00     0.035 C 
ENDROOT
BRANCH   6   7
ATOM      7  C   UNL d   1       2.911   1.740  -0.360  0.00  0.00     0.022 C 
ATOM      8  C   UNL d   1       2.272   2.877  -0.001  0.00  0.00     0.018 C 
BRANCH   8   9
ATOM      9  S   UNL d   1       3.126   4.404  -0.041  0.00  0.00    -0.053 SA
BRANCH   9  10
ATOM     10  C   UNL d   1       3.965   4.293   1.485  0.00  0.00     0.150 A 
ATOM     11  N   UNL d   1       4.821   5.267   1.940  0.00  0.00    -0.341 N 
ATOM     12  C   UNL d   1       5.253   4.883   3.184  0.00  0.00     0.109 A 
ATOM     13  C   UNL d   1       5.223   6.490   1.290  0.00  0.00     0.158 C 
ATOM     14  C   UNL d   1       4.647   3.674   3.419  0.00  0.00     0.107 A 
ATOM     15  N   UNL d   1       3.850   3.318   2.362  0.00  0.00    -0.345 N 
ATOM     16  HN  UNL d   1       3.286   2.473   2.273  1.00  0.00     0.167 HD
ENDBRANCH   9  10
ENDBRANCH   8   9
BRANCH   8  17
ATOM     17  C   UNL d   1       0.826   2.933   0.353  0.00  0.00    -0.019 A 
ATOM     18  C   UNL d   1       0.365   3.619   1.487  0.00  0.00     0.014 A 
ATOM     19  C   UNL d   1      -0.987   3.586   1.850  0.00  0.00     0.024 A 
ATOM     20  C   UNL d   1      -1.892   2.848   1.092  0.00  0.00     0.034 A 
ATOM     21  C   UNL d   1      -1.469   2.187  -0.055  0.00  0.00     0.024 A 
ATOM     22 CL   UNL d   1      -3.537   2.742   1.581  0.00  0.00    -0.084 Cl
ATOM     23  C   UNL d   1      -0.126   2.257  -0.436  0.00  0.00     0.014 A 
ENDBRANCH   8  17
ENDBRANCH   6   7
TORSDOF 4
