REMARK  4 active torsions:
REMARK  status: ('A' for Active; 'I' for Inactive)
REMARK    1  A    between atoms: C_2  and  S_1 
REMARK    2  A    between atoms: N_9  and  S_1 
REMARK    3  A    between atoms: C_8  and  C_6 
REMARK    4  A    between atoms: C_14  and  N_9 
ROOT
ATOM      1  N   UNL d   1       0.479   0.115   1.422  0.00  0.00    -0.181 NA
ATOM      2  H   UNL d   1      -0.432  -0.194   1.079  0.00  0.00     0.146 HD
ENDROOT
BRANCH   1   3
ATOM      3  S   UNL d   1       0.564   1.800   1.266  0.00  0.00     0.248 S 
ATOM      4  O   UNL d   1       0.149   2.139  -0.075  0.00  0.00    -0.205 OA
ATOM      5  O   UNL d   1      -0.072   2.399   2.421  0.00  0.00    -0.205 OA
BRANCH   3   6
ATOM      6  C   UNL d   1       2.208   2.304   1.355  0.00  0.00     0.105 A 
ATOM      7  C   UNL d   1       3.206   1.859   0.523  0.00  0.00     0.099 A 
ATOM      8  S   UNL d   1       4.730   2.501   0.919  0.00  0.00    -0.064 SA
ATOM      9 CL   UNL d   1       3.113   0.747  -0.786  0.00  0.00    -0.075 Cl
ATOM     10  C   UNL d   1       4.064   3.389   2.197  0.00  0.00     0.077 A 
ATOM     11  C   UNL d   1       2.710   3.223   2.332  0.00  0.00     0.058 A 
ATOM     12 CL   UNL d   1       5.079   4.363   3.180  0.00  0.00    -0.076 Cl
ENDBRANCH   3   6
ENDBRANCH   1   3
BRANCH   1  13
ATOM     13  C   UNL d   1       0.855  -0.440   2.682  0.00  0.00     0.023 A 
ATOM     14  C   UNL d   1      -0.072  -0.571   3.717  0.00  0.00     0.042 A 
ATOM     15  C   UNL d   1       0.294  -1.137   4.964  0.00  0.00     0.067 A 
ATOM     16  C   UNL d   1       1.622  -1.551   5.137  0.00  0.00     0.026 A 
ATOM     17  C   UNL d   1       2.554  -1.385   4.102  0.00  0.00     0.022 A 
ATOM     18 BR   UNL d   1       2.287  -2.366   6.717  0.00  0.00    -0.050 Br
ATOM     19  C   UNL d   1       2.173  -0.827   2.882  0.00  0.00     0.026 A 
BRANCH  15  20
ATOM     20  C   UNL d   1      -0.794  -1.246   6.007  0.00  0.00     0.418 C 
ATOM     21  F   UNL d   1      -0.458  -1.834   7.182  0.00  0.00    -0.166 F 
ATOM     22  F   UNL d   1      -1.295  -0.023   6.342  0.00  0.00    -0.166 F 
ATOM     23  F   UNL d   1      -1.862  -1.958   5.541  0.00  0.00    -0.166 F 
ENDBRANCH  15  20
ENDBRANCH   1  13
TORSDOF 4
