REMARK  4 active torsions:
REMARK  status: ('A' for Active; 'I' for Inactive)
REMARK    1  A    between atoms: N_10  and  C_1 
REMARK    2  A    between atoms: S_16  and  C_5 
REMARK    3  A    between atoms: C_8  and  C_13 
REMARK    4  A    between atoms: C_14  and  N_10 
ROOT
ATOM      1  C   UNL d   1      -0.795   1.095  -0.090  0.00  0.00     0.131 A 
ATOM      2  C   UNL d   1      -1.484  -0.107  -0.147  0.00  0.00     0.122 A 
ATOM      3  N   UNL d   1       0.552   1.127  -0.005  0.00  0.00    -0.331 N 
ATOM      4  HN  UNL d   1       1.049   2.016   0.031  1.00  0.00     0.168 HD
ATOM      5  C   UNL d   1      -0.711  -1.258  -0.093  0.00  0.00     0.095 A 
ATOM      6  N   UNL d   1       0.636  -1.230  -0.002  0.00  0.00    -0.339 N 
ATOM      7  HN  UNL d   1       1.184  -2.089   0.041  1.00  0.00     0.167 HD
ATOM      8  C   UNL d   1       1.221  -0.029   0.029  0.00  0.00     0.079 A 
ATOM      9  C   UNL d   1      -2.902  -0.136  -0.284  0.00  0.00     0.106 C 
ATOM     10  N   UNL d   1      -4.061  -0.118  -0.379  0.00  0.00    -0.191 NA
ATOM     11  C   UNL d   1       2.714   0.041   0.079  0.00  0.00     0.089 C 
ENDROOT
BRANCH   1  12
ATOM     12  N   UNL d   1      -1.481   2.336  -0.157  0.00  0.00    -0.341 N 
ATOM     13  H   UNL d   1      -2.218   2.402   0.539  0.00  0.00     0.167 HD
BRANCH  12  14
ATOM     14  C   UNL d   1      -0.855   3.579  -0.409  0.00  0.00     0.034 A 
ATOM     15  C   UNL d   1       0.098   3.704  -1.430  0.00  0.00     0.045 A 
ATOM     16  C   UNL d   1       0.793   4.901  -1.646  0.00  0.00     0.050 A 
ATOM     17  C   UNL d   1       0.503   6.002  -0.831  0.00  0.00     0.016 A 
ATOM     18  C   UNL d   1      -0.463   5.902   0.172  0.00  0.00     0.003 A 
ATOM     19  C   UNL d   1      -1.142   4.698   0.379  0.00  0.00     0.029 A 
BRANCH  16  20
ATOM     20  C   UNL d   1       1.848   4.993  -2.718  0.00  0.00     0.417 C 
ATOM     21  F   UNL d   1       2.007   3.844  -3.434  0.00  0.00    -0.166 F 
ATOM     22  F   UNL d   1       1.579   5.965  -3.634  0.00  0.00    -0.166 F 
ATOM     23  F   UNL d   1       3.078   5.287  -2.213  0.00  0.00    -0.166 F 
ENDBRANCH  16  20
ENDBRANCH  12  14
ENDBRANCH   1  12
BRANCH   5  24
ATOM     24  S   UNL d   1      -1.448  -2.894  -0.162  0.00  0.00    -0.115 SA
ATOM     25  C   UNL d   1       0.015  -3.941   0.082  0.00  0.00     0.097 C 
ENDBRANCH   5  24
TORSDOF 4
