REMARK  5 active torsions:
REMARK  status: ('A' for Active; 'I' for Inactive)
REMARK    1  A    between atoms: C_8  and  C_3 
REMARK    2  A    between atoms: O_17  and  C_9 
REMARK    3  A    between atoms: O_18  and  C_10 
REMARK    4  A    between atoms: O_19  and  C_12 
REMARK    5  A    between atoms: O_20  and  C_14 
ROOT
ATOM      1  C   UNL d   1       0.360   0.892  -0.100  0.00  0.00    -0.033 A 
ATOM      2  C   UNL d   1      -0.139  -0.398  -0.103  0.00  0.00     0.019 A 
ATOM      3  C   UNL d   1      -0.727   1.935  -0.052  0.00  0.00     0.060 A 
ATOM      4  C   UNL d   1      -1.593  -0.332  -0.091  0.00  0.00     0.161 A 
ATOM      5  C   UNL d   1      -2.039   1.110  -0.104  0.00  0.00     0.098 A 
ATOM      6  C   UNL d   1       1.732   1.082  -0.083  0.00  0.00     0.048 A 
ATOM      7  C   UNL d   1       0.668  -1.522  -0.082  0.00  0.00     0.055 A 
ATOM      8  C   UNL d   1       2.594  -0.032  -0.053  0.00  0.00     0.102 A 
ATOM      9  C   UNL d   1       2.060  -1.347  -0.054  0.00  0.00     0.102 A 
ATOM     10  O   UNL d   1      -2.314  -1.312  -0.073  0.00  0.00    -0.292 OA
ENDROOT
BRANCH   3  11
ATOM     11  C   UNL d   1      -0.624   2.815   1.180  0.00  0.00    -0.046 A 
ATOM     12  C   UNL d   1      -0.685   2.260   2.472  0.00  0.00     0.047 A 
ATOM     13  C   UNL d   1      -0.514   3.039   3.627  0.00  0.00     0.102 A 
ATOM     14  C   UNL d   1      -0.298   4.419   3.483  0.00  0.00     0.101 A 
ATOM     15  C   UNL d   1      -0.250   4.976   2.195  0.00  0.00     0.040 A 
ATOM     16  C   UNL d   1      -0.406   4.187   1.054  0.00  0.00     0.011 A 
BRANCH  13  17
ATOM     17  O   UNL d   1      -0.537   2.502   4.887  0.00  0.00    -0.353 OA
ATOM     18  C   UNL d   1      -0.750   1.102   5.023  0.00  0.00     0.210 C 
ENDBRANCH  13  17
BRANCH  14  19
ATOM     19  O   UNL d   1      -0.114   5.364   4.458  0.00  0.00    -0.353 OA
ATOM     20  C   UNL d   1      -0.106   4.953   5.817  0.00  0.00     0.210 C 
ENDBRANCH  14  19
ENDBRANCH   3  11
BRANCH   8  21
ATOM     21  O   UNL d   1       3.910   0.353  -0.015  0.00  0.00    -0.353 OA
ATOM     22  C   UNL d   1       4.922  -0.639   0.043  0.00  0.00     0.210 C 
ENDBRANCH   8  21
BRANCH   9  23
ATOM     23  O   UNL d   1       2.935  -2.400  -0.021  0.00  0.00    -0.353 OA
ATOM     24  C   UNL d   1       2.410  -3.720   0.003  0.00  0.00     0.210 C 
ENDBRANCH   9  23
TORSDOF 5
