REMARK  4 active torsions:
REMARK  status: ('A' for Active; 'I' for Inactive)
REMARK    1  A    between atoms: S_7  and  C_2 
REMARK    2  A    between atoms: C_9  and  C_3 
REMARK    3  A    between atoms: C_16  and  S_7 
REMARK    4  A    between atoms: C_17  and  C_16 
ROOT
ATOM      1  C   UNL d   1      -0.690  -0.063  -0.513  0.00  0.00     0.079 C 
ATOM      2  C   UNL d   1       0.139   0.999  -0.193  0.00  0.00     0.063 C 
ATOM      3  C   UNL d   1      -0.086  -1.344  -0.213  0.00  0.00     0.003 C 
ATOM      4  S   UNL d   1       1.700   0.460   0.261  0.00  0.00    -0.092 SA
ATOM      5  C   UNL d   1       1.232  -1.175   0.177  0.00  0.00     0.065 C 
ATOM      6  C   UNL d   1      -2.008   0.114  -1.056  0.00  0.00     0.102 C 
ATOM      7  N   UNL d   1      -3.084   0.247  -1.469  0.00  0.00    -0.191 NA
ENDROOT
BRANCH   2   8
ATOM      8  S   UNL d   1      -0.176   2.732  -0.241  0.00  0.00    -0.117 SA
BRANCH   8   9
ATOM      9  C   UNL d   1      -1.559   2.951   0.945  0.00  0.00     0.048 C 
ATOM     10  C   UNL d   1      -1.908   4.442   0.972  0.00  0.00     0.021 C 
BRANCH   9  11
ATOM     11  C   UNL d   1      -1.308   2.402   2.363  0.00  0.00     0.010 C 
ATOM     12  C   UNL d   1      -0.168   3.042   3.146  0.00  0.00     0.006 C 
ENDBRANCH   9  11
ENDBRANCH   8   9
ENDBRANCH   2   8
BRANCH   3  13
ATOM     13  C   UNL d   1      -0.694  -2.683  -0.201  0.00  0.00    -0.024 A 
ATOM     14  C   UNL d   1       0.048  -3.829  -0.539  0.00  0.00     0.014 A 
ATOM     15  C   UNL d   1      -0.502  -5.108  -0.392  0.00  0.00     0.024 A 
ATOM     16  C   UNL d   1      -1.805  -5.254   0.075  0.00  0.00     0.034 A 
ATOM     17  C   UNL d   1      -2.566  -4.132   0.386  0.00  0.00     0.024 A 
ATOM     18 CL   UNL d   1      -2.469  -6.825   0.293  0.00  0.00    -0.084 Cl
ATOM     19  C   UNL d   1      -2.010  -2.855   0.255  0.00  0.00     0.014 A 
ENDBRANCH   3  13
TORSDOF 4
