REMARK  6 active torsions:
REMARK  status: ('A' for Active; 'I' for Inactive)
REMARK    1  A    between atoms: S_3  and  N_1 
REMARK    2  A    between atoms: S_4  and  N_1 
REMARK    3  A    between atoms: C_10  and  S_3 
REMARK    4  A    between atoms: C_6  and  S_4 
REMARK    5  A    between atoms: C_5  and  C_7 
REMARK    6  A    between atoms: O_26  and  C_23 
ROOT
ATOM      1  S   UNL d   1       2.756   0.007   0.009  0.00  0.00     0.077 S 
ATOM      2  O   UNL d   1       3.138  -0.480  -1.294  0.00  0.00    -0.243 OA
ATOM      3  C   UNL d   1       3.580   1.516   0.420  0.00  0.00     0.144 C 
ENDROOT
BRANCH   1   4
ATOM      4  N   UNL d   1       1.125   0.256   0.170  0.00  0.00    -0.235 N 
ATOM      5  HN  UNL d   1       0.661  -0.106   1.003  1.00  0.00     0.189 HD
BRANCH   4   6
ATOM      6  S   UNL d   1       0.197   1.075  -0.969  0.00  0.00     0.269 S 
ATOM      7  O   UNL d   1      -1.192   1.032  -0.547  0.00  0.00    -0.200 OA
ATOM      8  O   UNL d   1       0.833   2.349  -1.263  0.00  0.00    -0.200 OA
BRANCH   6   9
ATOM      9  C   UNL d   1       0.311   0.044  -2.410  0.00  0.00     0.080 A 
ATOM     10  C   UNL d   1      -0.117  -1.286  -2.334  0.00  0.00     0.028 A 
ATOM     11  C   UNL d   1       0.045  -2.130  -3.439  0.00  0.00     0.038 A 
ATOM     12  C   UNL d   1       0.630  -1.646  -4.612  0.00  0.00     0.068 A 
ATOM     13  C   UNL d   1       1.019  -0.304  -4.684  0.00  0.00     0.038 A 
ATOM     14  C   UNL d   1       0.854   0.548  -3.591  0.00  0.00     0.028 A 
BRANCH  12  15
ATOM     15  O   UNL d   1       0.879  -2.371  -5.745  0.00  0.00    -0.356 OA
ATOM     16  C   UNL d   1       0.524  -3.747  -5.721  0.00  0.00     0.210 C 
ENDBRANCH  12  15
ENDBRANCH   6   9
ENDBRANCH   4   6
ENDBRANCH   1   4
BRANCH   1  17
ATOM     17  C   UNL d   1       3.141  -1.169   1.242  0.00  0.00     0.107 A 
ATOM     18  N   UNL d   1       2.868  -0.742   2.495  0.00  0.00    -0.357 N 
ATOM     19  C   UNL d   1       3.111  -1.631   3.486  0.00  0.00     0.105 A 
ATOM     20  HN  UNL d   1       2.503   0.192   2.681  1.00  0.00     0.166 HD
ATOM     21  C   UNL d   1       3.611  -2.913   3.278  0.00  0.00     0.063 A 
ATOM     22  C   UNL d   1       3.881  -3.301   1.958  0.00  0.00     0.020 A 
ATOM     23  C   UNL d   1       3.642  -2.415   0.912  0.00  0.00     0.041 A 
BRANCH  21  24
ATOM     24  C   UNL d   1       3.844  -3.842   4.431  0.00  0.00     0.418 C 
ATOM     25  F   UNL d   1       3.531  -3.300   5.640  0.00  0.00    -0.166 F 
ATOM     26  F   UNL d   1       3.111  -4.985   4.334  0.00  0.00    -0.166 F 
ATOM     27  F   UNL d   1       5.143  -4.238   4.525  0.00  0.00    -0.166 F 
ENDBRANCH  21  24
ENDBRANCH   1  17
TORSDOF 6
