REMARK  6 active torsions:
REMARK  status: ('A' for Active; 'I' for Inactive)
REMARK    1  A    between atoms: N_3  and  C_1 
REMARK    2  A    between atoms: C_7  and  C_2 
REMARK       I    between atoms: C_5  and  N_3 
REMARK    3  A    between atoms: C_9  and  C_5 
REMARK    4  A    between atoms: O_14  and  C_7 
REMARK    5  A    between atoms: C_15  and  C_8 
REMARK    6  A    between atoms: C_16  and  O_14 
ROOT
ATOM      1  C   UNL d   1       0.514   1.231   0.318  0.00  0.00     0.073 A 
ATOM      2  C   UNL d   1       1.792   0.737   0.137  0.00  0.00     0.069 A 
ATOM      3  S   UNL d   1      -0.671   0.010   0.484  0.00  0.00    -0.081 SA
ATOM      4  C   UNL d   1       1.728  -0.714   0.079  0.00  0.00     0.034 A 
ATOM      5  C   UNL d   1       0.456  -1.228   0.182  0.00  0.00    -0.015 A 
ENDROOT
BRANCH   1   6
ATOM      6  N   UNL d   1      -0.064   2.478   0.463  0.00  0.00    -0.220 NA
ATOM      7  C   UNL d   1      -0.235   3.262  -0.684  0.00  0.00     0.235 C 
ATOM      8  O   UNL d   1       0.428   3.156  -1.716  0.00  0.00    -0.277 OA
ATOM      9  H   UNL d   1      -0.932   2.427   0.992  0.00  0.00     0.137 HD
BRANCH   7  10
ATOM     10  C   UNL d   1      -1.407   4.250  -0.581  0.00  0.00     0.264 C 
ATOM     11 CL   UNL d   1      -2.908   3.343  -0.234  0.00  0.00    -0.098 Cl
ATOM     12 CL   UNL d   1      -1.099   5.418   0.720  0.00  0.00    -0.098 Cl
ENDBRANCH   7  10
ENDBRANCH   1   6
BRANCH   2  13
ATOM     13  C   UNL d   1       3.084   1.420   0.082  0.00  0.00     0.295 C 
ATOM     14  O   UNL d   1       4.138   0.780   0.088  0.00  0.00    -0.259 OA
BRANCH  13  15
ATOM     15  O   UNL d   1       3.047   2.784   0.054  0.00  0.00    -0.318 OA
BRANCH  15  16
ATOM     16  C   UNL d   1       4.345   3.412   0.066  0.00  0.00     0.174 C 
ATOM     17  C   UNL d   1       4.996   3.402  -1.311  0.00  0.00     0.034 C 
ENDBRANCH  15  16
ENDBRANCH  13  15
ENDBRANCH   2  13
BRANCH   5  18
ATOM     18  C   UNL d   1       0.015  -2.654   0.066  0.00  0.00     0.041 C 
ATOM     19  C   UNL d   1      -0.098  -3.340   1.417  0.00  0.00     0.010 C 
ENDBRANCH   5  18
TORSDOF 6
