REMARK  3 active torsions:
REMARK  status: ('A' for Active; 'I' for Inactive)
REMARK    1  A    between atoms: C_3  and  C_1 
REMARK    2  A    between atoms: O_6  and  C_1 
REMARK    3  A    between atoms: C_7  and  C_3 
ROOT
ATOM      1  C   UNL d   1      -1.040   0.048  -0.523  0.00  0.00     0.065 C 
ATOM      2  N   UNL d   1       1.817  -0.125   0.223  0.00  0.00     0.083 N 
ATOM      3  C   UNL d   1      -0.108   1.274  -0.472  0.00  0.00     0.068 C 
ATOM      4  C   UNL d   1      -0.205  -1.241  -0.659  0.00  0.00     0.068 C 
ATOM      5  C   UNL d   1       1.053   1.088   0.506  0.00  0.00     0.272 C 
ATOM      6  C   UNL d   1       0.948  -1.298   0.342  0.00  0.00     0.272 C 
ATOM      7  H   UNL d   1       2.198  -0.079  -0.721  0.00  0.00     0.315 HD
ENDROOT
BRANCH   1   8
ATOM      8  C   UNL d   1      -2.047   0.112  -1.704  0.00  0.00     0.076 C 
BRANCH   8   9
ATOM      9  C   UNL d   1      -2.985   1.301  -1.702  0.00  0.00    -0.055 A 
ATOM     10  C   UNL d   1      -2.625   2.501  -2.330  0.00  0.00     0.007 A 
ATOM     11  C   UNL d   1      -3.486   3.599  -2.308  0.00  0.00     0.001 A 
ATOM     12  C   UNL d   1      -4.719   3.507  -1.667  0.00  0.00     0.000 A 
ATOM     13  C   UNL d   1      -5.096   2.314  -1.052  0.00  0.00     0.001 A 
ATOM     14  C   UNL d   1      -4.234   1.217  -1.069  0.00  0.00     0.007 A 
ENDBRANCH   8   9
ENDBRANCH   1   8
BRANCH   1  15
ATOM     15  O   UNL d   1      -1.766  -0.049   0.711  0.00  0.00    -0.389 OA
ATOM     16  H   UNL d   1      -2.302   0.760   0.799  0.00  0.00     0.210 HD
ENDBRANCH   1  15
TORSDOF 3
