REMARK  5 active torsions:
REMARK  status: ('A' for Active; 'I' for Inactive)
REMARK    1  A    between atoms: S_13  and  C_2 
REMARK    2  A    between atoms: C_6  and  C_3 
REMARK       I    between atoms: N_9  and  C_6 
REMARK    3  A    between atoms: N_7  and  N_9 
REMARK    4  A    between atoms: O_16  and  C_10 
REMARK    5  A    between atoms: C_17  and  N_11 
ROOT
ATOM      1  C   UNL d   1       0.132  -0.819  -0.087  0.00  0.00     0.002 A 
ATOM      2  C   UNL d   1       1.276  -1.598  -0.012  0.00  0.00     0.051 A 
ATOM      3  C   UNL d   1       1.828   0.837  -0.042  0.00  0.00     0.082 A 
ATOM      4  C   UNL d   1       0.457   0.599  -0.029  0.00  0.00    -0.025 A 
ATOM      5  S   UNL d   1       2.695  -0.634  -0.008  0.00  0.00    -0.076 SA
ATOM      6  C   UNL d   1      -1.304  -1.289  -0.172  0.00  0.00     0.153 C 
ATOM      7  C   UNL d   1      -0.617   1.660  -0.014  0.00  0.00     0.041 C 
ATOM      8  C   UNL d   1      -1.991   1.091   0.353  0.00  0.00     0.007 C 
ATOM      9  C   UNL d   1      -2.295  -0.156  -0.470  0.00  0.00     0.037 C 
ENDROOT
BRANCH   3  10
ATOM     10  C   UNL d   1       2.522   2.137  -0.075  0.00  0.00     0.278 C 
ATOM     11  N   UNL d   1       3.906   2.089  -0.119  0.00  0.00    -0.251 N 
ATOM     12  H   UNL d   1       4.424   1.223  -0.122  0.00  0.00     0.192 HD
ATOM     13  O   UNL d   1       1.911   3.204  -0.069  0.00  0.00    -0.265 OA
BRANCH  11  14
ATOM     14  N   UNL d   1       4.624   3.229  -0.065  0.00  0.00    -0.244 N 
ATOM     15  N   UNL d   1       5.843   2.961  -0.065  0.00  0.00    -0.318 N 
ATOM     16  HN  UNL d   1       6.225   2.022  -0.176  1.00  0.00     0.182 HD
ATOM     17  HN  UNL d   1       4.229   4.169  -0.028  1.00  0.00     0.208 HD
BRANCH  15  18
ATOM     18  C   UNL d   1       6.667   4.178   0.116  0.00  0.00     0.092 C 
ATOM     19  C   UNL d   1       6.935   4.372   1.606  0.00  0.00     0.033 C 
ATOM     20  C   UNL d   1       7.981   4.012  -0.641  0.00  0.00     0.033 C 
ENDBRANCH  15  18
ENDBRANCH  11  14
ENDBRANCH   3  10
BRANCH   2  21
ATOM     21  S   UNL d   1       1.472  -3.352  -0.004  0.00  0.00    -0.126 SA
ATOM     22  C   UNL d   1       0.133  -3.951   1.046  0.00  0.00     0.096 C 
ENDBRANCH   2  21
BRANCH   6  23
ATOM     23  O   UNL d   1      -1.490  -2.280  -1.180  0.00  0.00    -0.391 OA
ATOM     24  H   UNL d   1      -0.996  -1.983  -1.964  0.00  0.00     0.210 HD
ENDBRANCH   6  23
TORSDOF 5
