REMARK  2 active torsions:
REMARK  status: ('A' for Active; 'I' for Inactive)
REMARK    1  A    between atoms: C_10  and  C_5 
REMARK    2  A    between atoms: C_12  and  C_6 
ROOT
ATOM      1  C   UNL d   1       1.155   0.857  -0.178  0.00  0.00     0.034 A 
ATOM      2  C   UNL d   1       0.721  -0.405  -0.135  0.00  0.00     0.055 A 
ATOM      3  N   UNL d   1       1.575  -1.461  -0.050  0.00  0.00    -0.358 N 
ATOM      4  C   UNL d   1      -0.009   1.751  -0.093  0.00  0.00     0.192 A 
ATOM      5  C   UNL d   1       3.480  -0.031   0.231  0.00  0.00     0.022 C 
ATOM      6  C   UNL d   1       2.605   1.199  -0.151  0.00  0.00     0.096 C 
ATOM      7  C   UNL d   1       2.942  -1.290   0.199  0.00  0.00     0.016 C 
ATOM      8  C   UNL d   1      -0.725  -0.441  -0.097  0.00  0.00     0.005 A 
ATOM      9  C   UNL d   1      -1.185   0.875  -0.061  0.00  0.00     0.027 A 
ATOM     10  O   UNL d   1       0.003   2.960  -0.010  0.00  0.00    -0.287 OA
ATOM     11  C   UNL d   1       3.672  -2.601   0.373  0.00  0.00     0.069 C 
ATOM     12  C   UNL d   1      -1.625  -1.492  -0.070  0.00  0.00     0.014 A 
ATOM     13  C   UNL d   1      -2.526   1.203   0.014  0.00  0.00     0.016 A 
ATOM     14  C   UNL d   1      -2.991  -1.190  -0.007  0.00  0.00     0.001 A 
ATOM     15  C   UNL d   1      -3.438   0.145   0.038  0.00  0.00     0.001 A 
ATOM     16  H   UNL d   1       1.186  -2.393   0.049  0.00  0.00     0.166 HD
ENDROOT
BRANCH   6  17
ATOM     17  C   UNL d   1       3.055   1.791  -1.490  0.00  0.00    -0.045 A 
ATOM     18  C   UNL d   1       3.522   0.972  -2.536  0.00  0.00     0.008 A 
ATOM     19  C   UNL d   1       3.993   1.524  -3.725  0.00  0.00     0.001 A 
ATOM     20  C   UNL d   1       3.972   2.905  -3.903  0.00  0.00     0.000 A 
ATOM     21  C   UNL d   1       3.466   3.727  -2.900  0.00  0.00     0.001 A 
ATOM     22  C   UNL d   1       3.007   3.177  -1.700  0.00  0.00     0.008 A 
ENDBRANCH   6  17
BRANCH   5  23
ATOM     23  C   UNL d   1       4.939   0.249   0.514  0.00  0.00     0.154 C 
ATOM     24  O   UNL d   1       5.797  -0.628   0.402  0.00  0.00    -0.293 OA
ATOM     25  C   UNL d   1       5.380   1.615   0.998  0.00  0.00     0.096 C 
ENDBRANCH   5  23
TORSDOF 2
