REMARK  2 active torsions:
REMARK  status: ('A' for Active; 'I' for Inactive)
REMARK       I    between atoms: N_4  and  C_1 
REMARK    1  A    between atoms: C_5  and  C_1 
REMARK       I    between atoms: C_2  and  N_3 
REMARK    2  A    between atoms: C_6  and  C_2 
ROOT
ATOM      1  C   UNL d   1       0.993   0.206  -0.017  0.00  0.00     0.253 C 
ATOM      2  C   UNL d   1      -0.908   3.654  -3.800  0.00  0.00     0.253 C 
ATOM      3  N   UNL d   1      -0.388   2.899  -2.752  0.00  0.00    -0.345 N 
ATOM      4  N   UNL d   1       0.181   0.692  -1.033  0.00  0.00    -0.345 N 
ATOM      5  C   UNL d   1       0.808   2.065  -2.995  0.00  0.00     0.146 C 
ATOM      6  C   UNL d   1      -1.086   1.406  -0.894  0.00  0.00     0.146 C 
ATOM      7  C   UNL d   1       0.656   0.642  -2.424  0.00  0.00     0.146 C 
ATOM      8  C   UNL d   1      -0.913   2.852  -1.377  0.00  0.00     0.146 C 
ATOM      9  O   UNL d   1       2.024  -0.430  -0.235  0.00  0.00    -0.267 OA
ATOM     10  O   UNL d   1      -0.520   3.542  -4.962  0.00  0.00    -0.267 OA
ENDROOT
BRANCH   2  11
ATOM     11  C   UNL d   1      -2.005   4.622  -3.541  0.00  0.00     0.032 A 
ATOM     12  C   UNL d   1      -1.935   5.556  -2.499  0.00  0.00     0.018 A 
ATOM     13  C   UNL d   1      -3.013   6.412  -2.255  0.00  0.00     0.025 A 
ATOM     14  C   UNL d   1      -4.133   6.370  -3.086  0.00  0.00     0.034 A 
ATOM     15  C   UNL d   1      -4.180   5.490  -4.166  0.00  0.00     0.025 A 
ATOM     16 CL   UNL d   1      -5.463   7.414  -2.774  0.00  0.00    -0.084 Cl
ATOM     17  C   UNL d   1      -3.114   4.616  -4.396  0.00  0.00     0.018 A 
ENDBRANCH   2  11
BRANCH   1  18
ATOM     18  C   UNL d   1       0.637   0.428   1.413  0.00  0.00     0.032 A 
ATOM     19  C   UNL d   1       0.741  -0.653   2.299  0.00  0.00     0.018 A 
ATOM     20  C   UNL d   1       0.444  -0.484   3.655  0.00  0.00     0.025 A 
ATOM     21  C   UNL d   1       0.044   0.765   4.126  0.00  0.00     0.034 A 
ATOM     22  C   UNL d   1      -0.029   1.855   3.261  0.00  0.00     0.025 A 
ATOM     23 CL   UNL d   1      -0.344   0.971   5.789  0.00  0.00    -0.084 Cl
ATOM     24  C   UNL d   1       0.297   1.692   1.911  0.00  0.00     0.018 A 
ENDBRANCH   1  18
TORSDOF 2
