REMARK  4 active torsions:
REMARK  status: ('A' for Active; 'I' for Inactive)
REMARK    1  A    between atoms: C_2  and  C_1 
REMARK    2  A    between atoms: C_5  and  C_2 
REMARK    3  A    between atoms: C_4  and  C_3 
REMARK    4  A    between atoms: O_10  and  C_4 
ROOT
ATOM      1  C   UNL d   1       1.388  -0.255   0.003  0.00  0.00     0.032 A 
ATOM      2  C   UNL d   1       0.490  -1.149   0.614  0.00  0.00     0.051 A 
ATOM      3  C   UNL d   1       0.885   0.799  -0.785  0.00  0.00     0.016 A 
ATOM      4  C   UNL d   1      -0.895  -0.905   0.484  0.00  0.00     0.019 A 
ATOM      5  C   UNL d   1      -0.486   1.021  -0.899  0.00  0.00     0.001 A 
ATOM      6  C   UNL d   1      -1.381   0.173  -0.256  0.00  0.00     0.001 A 
ENDROOT
BRANCH   1   7
ATOM      7  C   UNL d   1       2.861  -0.396   0.100  0.00  0.00     0.193 C 
ATOM      8  O   UNL d   1       3.332  -1.524  -0.032  0.00  0.00    -0.287 OA
BRANCH   7   9
ATOM      9  C   UNL d   1       3.771   0.779   0.239  0.00  0.00     0.015 A 
ATOM     10  C   UNL d   1       5.091   0.643  -0.207  0.00  0.00     0.016 A 
ATOM     11  C   UNL d   1       5.953   1.742  -0.206  0.00  0.00     0.007 A 
ATOM     12  C   UNL d   1       5.507   2.992   0.237  0.00  0.00    -0.062 A 
ATOM     13  C   UNL d   1       4.208   3.111   0.743  0.00  0.00     0.007 A 
ATOM     14  C   UNL d   1       6.427   4.177   0.182  0.00  0.00     0.048 C 
ATOM     15  C   UNL d   1       3.347   2.009   0.758  0.00  0.00     0.016 A 
ENDBRANCH   7   9
ENDBRANCH   1   7
BRANCH   2  16
ATOM     16  C   UNL d   1       0.832  -2.327   1.461  0.00  0.00     0.177 C 
ATOM     17  O   UNL d   1       0.126  -2.632   2.416  0.00  0.00    -0.646 OA
BRANCH  16  18
ATOM     18  O   UNL d   1       1.836  -3.113   1.044  0.00  0.00    -0.773 OA
ATOM     19  H   UNL d   1       2.455  -2.707   0.391  0.00  0.00     0.167 HD
ENDBRANCH  16  18
ENDBRANCH   2  16
TORSDOF 4
