REMARK  3 active torsions:
REMARK  status: ('A' for Active; 'I' for Inactive)
REMARK    1  A    between atoms: C_6  and  C_1 
REMARK    2  A    between atoms: C_4  and  C_5 
REMARK       I    between atoms: N_14  and  C_6 
REMARK    3  A    between atoms: N_18  and  N_14 
ROOT
ATOM      1  C   UNL d   1      -2.133   0.974   0.052  0.00  0.00     0.076 A 
ATOM      2  S   UNL d   1      -1.820  -0.710   0.017  0.00  0.00    -0.083 SA
ATOM      3  C   UNL d   1      -0.956   1.697   0.026  0.00  0.00     0.055 A 
ATOM      4  C   UNL d   1       2.222  -0.990  -0.014  0.00  0.00     0.064 A 
ATOM      5  C   UNL d   1      -0.120  -0.481   0.000  0.00  0.00     0.033 A 
ATOM      6  C   UNL d   1       0.205   0.874   0.002  0.00  0.00     0.050 A 
ATOM      7  N   UNL d   1       1.486   1.327  -0.010  0.00  0.00    -0.364 N 
ATOM      8  HN  UNL d   1       1.709   2.322  -0.014  1.00  0.00     0.165 HD
ATOM      9  C   UNL d   1       0.900  -1.446  -0.009  0.00  0.00     0.038 A 
ATOM     10  C   UNL d   1       2.444   0.378  -0.015  0.00  0.00     0.104 A 
ENDROOT
BRANCH   1  11
ATOM     11  C   UNL d   1      -3.479   1.522   0.118  0.00  0.00     0.272 C 
ATOM     12  O   UNL d   1      -3.709   2.731   0.193  0.00  0.00    -0.266 OA
ATOM     13  N   UNL d   1      -4.525   0.599   0.099  0.00  0.00    -0.289 N 
ATOM     14  H   UNL d   1      -4.324  -0.385  -0.065  0.00  0.00     0.183 HD
BRANCH  13  15
ATOM     15  N   UNL d   1      -5.869   1.042   0.109  0.00  0.00    -0.247 NA
ATOM     16  H   UNL d   1      -5.849   2.056  -0.072  0.00  0.00     0.143 HD
ATOM     17  H   UNL d   1      -6.214   0.975   1.071  0.00  0.00     0.143 HD
ENDBRANCH  13  15
ENDBRANCH   1  11
BRANCH   4  18
ATOM     18  C   UNL d   1       3.395  -1.923  -0.014  0.00  0.00     0.418 C 
ATOM     19  F   UNL d   1       3.042  -3.238  -0.009  0.00  0.00    -0.166 F 
ATOM     20  F   UNL d   1       4.194  -1.755  -1.103  0.00  0.00    -0.166 F 
ATOM     21  F   UNL d   1       4.199  -1.748   1.070  0.00  0.00    -0.166 F 
ENDBRANCH   4  18
TORSDOF 3
