REMARK  6 active torsions:
REMARK  status: ('A' for Active; 'I' for Inactive)
REMARK    1  A    between atoms: C_2  and  C_1 
REMARK       I    between atoms: N_6  and  C_1 
REMARK    2  A    between atoms: C_8  and  C_3 
REMARK    3  A    between atoms: C_5  and  S_7 
REMARK    4  A    between atoms: C_12  and  N_6 
REMARK    5  A    between atoms: S_7  and  C_13 
REMARK    6  A    between atoms: C_13  and  C_12 
ROOT
ATOM      1  C   UNL d   1       1.087  -0.426  -0.182  0.00  0.00     0.241 C 
ATOM      2  O   UNL d   1       0.552  -1.284   0.511  0.00  0.00    -0.269 OA
ATOM      3  N   UNL d   1       2.390  -0.006  -0.009  0.00  0.00    -0.357 N 
ATOM      4  H   UNL d   1       2.700   0.831  -0.486  0.00  0.00     0.162 HD
ENDROOT
BRANCH   1   5
ATOM      5  C   UNL d   1       0.373   0.255  -1.296  0.00  0.00     0.075 C 
ATOM      6  C   UNL d   1      -0.882  -0.128  -1.589  0.00  0.00     0.017 C 
BRANCH   6   7
ATOM      7  C   UNL d   1      -1.719   0.374  -2.693  0.00  0.00    -0.036 A 
ATOM      8  C   UNL d   1      -1.182   0.891  -3.879  0.00  0.00     0.011 A 
ATOM      9  C   UNL d   1      -2.017   1.264  -4.938  0.00  0.00     0.001 A 
ATOM     10  C   UNL d   1      -3.397   1.119  -4.829  0.00  0.00     0.000 A 
ATOM     11  C   UNL d   1      -3.947   0.611  -3.655  0.00  0.00     0.001 A 
ATOM     12  C   UNL d   1      -3.113   0.238  -2.597  0.00  0.00     0.011 A 
ENDBRANCH   6   7
ENDBRANCH   1   5
BRANCH   3  13
ATOM     13  C   UNL d   1       3.165  -0.498   1.123  0.00  0.00     0.133 C 
BRANCH  13  14
ATOM     14  C   UNL d   1       4.681  -0.413   0.910  0.00  0.00     0.094 C 
BRANCH  14  15
ATOM     15  S   UNL d   1       5.533  -1.099   2.381  0.00  0.00    -0.159 SA
BRANCH  15  16
ATOM     16  C   UNL d   1       7.323  -0.985   1.923  0.00  0.00    -0.003 C 
ATOM     17  C   UNL d   1       7.750   0.481   1.790  0.00  0.00     0.026 C 
ATOM     18  C   UNL d   1       8.108  -1.631   3.080  0.00  0.00     0.026 C 
ATOM     19  C   UNL d   1       7.622  -1.756   0.634  0.00  0.00     0.026 C 
ENDBRANCH  15  16
ENDBRANCH  14  15
ENDBRANCH  13  14
ENDBRANCH   3  13
TORSDOF 6
