REMARK  7 active torsions:
REMARK  status: ('A' for Active; 'I' for Inactive)
REMARK    1  A    between atoms: C_4  and  S_1 
REMARK    2  A    between atoms: C_5  and  S_1 
REMARK       I    between atoms: C_2  and  N_3 
REMARK    3  A    between atoms: C_11  and  C_2 
REMARK    4  A    between atoms: N_3  and  C_6 
REMARK    5  A    between atoms: C_9  and  N_3 
REMARK    6  A    between atoms: C_6  and  C_4 
REMARK    7  A    between atoms: C_14  and  C_9 
ROOT
ATOM      1  C   UNL d   1      -0.515  -1.995  -3.524  0.00  0.00     0.254 C 
ATOM      2  N   UNL d   1       0.395  -0.945  -3.705  0.00  0.00    -0.343 N 
ATOM      3  O   UNL d   1      -1.206  -2.445  -4.444  0.00  0.00    -0.267 OA
ENDROOT
BRANCH   2   4
ATOM      4  C   UNL d   1       1.016  -0.153  -2.630  0.00  0.00     0.142 C 
BRANCH   4   5
ATOM      5  C   UNL d   1       2.141  -0.832  -1.860  0.00  0.00     0.165 C 
BRANCH   5   6
ATOM      6  S   UNL d   1       2.725   0.145  -0.489  0.00  0.00     0.177 S 
ATOM      7  O   UNL d   1       3.065   1.462  -0.985  0.00  0.00    -0.223 OA
ATOM      8  O   UNL d   1       3.726  -0.651   0.206  0.00  0.00    -0.223 OA
BRANCH   6   9
ATOM      9  C   UNL d   1       1.362   0.364   0.642  0.00  0.00     0.059 A 
ATOM     10  C   UNL d   1       1.348  -0.299   1.874  0.00  0.00     0.024 A 
ATOM     11  C   UNL d   1       0.254  -0.142   2.735  0.00  0.00     0.008 A 
ATOM     12  C   UNL d   1      -0.837   0.658   2.363  0.00  0.00    -0.062 A 
ATOM     13  C   UNL d   1      -0.779   1.369   1.160  0.00  0.00     0.008 A 
ATOM     14  C   UNL d   1      -2.036   0.767   3.259  0.00  0.00     0.048 C 
ATOM     15  C   UNL d   1       0.331   1.249   0.319  0.00  0.00     0.024 A 
ENDBRANCH   6   9
ENDBRANCH   5   6
ENDBRANCH   4   5
ENDBRANCH   2   4
BRANCH   2  16
ATOM     16  C   UNL d   1       0.759  -0.602  -5.085  0.00  0.00     0.166 C 
BRANCH  16  17
ATOM     17  C   UNL d   1       0.221   0.719  -5.570  0.00  0.00    -0.025 A 
ATOM     18  C   UNL d   1       1.082   1.770  -5.880  0.00  0.00     0.096 A 
ATOM     19  N   UNL d   1       0.687   2.959  -6.389  0.00  0.00    -0.375 N 
ATOM     20  C   UNL d   1      -0.634   3.111  -6.615  0.00  0.00     0.087 A 
ATOM     21  HN  UNL d   1       1.354   3.704  -6.591  1.00  0.00     0.164 HD
ATOM     22  C   UNL d   1      -1.577   2.135  -6.340  0.00  0.00     0.018 A 
ATOM     23  C   UNL d   1      -1.143   0.921  -5.814  0.00  0.00     0.011 A 
ENDBRANCH  16  17
ENDBRANCH   2  16
BRANCH   1  24
ATOM     24  C   UNL d   1      -0.522  -2.751  -2.246  0.00  0.00     0.032 A 
ATOM     25  C   UNL d   1      -0.744  -2.174  -0.995  0.00  0.00     0.017 A 
ATOM     26  C   UNL d   1      -0.478  -2.910   0.161  0.00  0.00     0.001 A 
ATOM     27  C   UNL d   1      -0.056  -4.237   0.074  0.00  0.00     0.000 A 
ATOM     28  C   UNL d   1       0.045  -4.851  -1.172  0.00  0.00     0.001 A 
ATOM     29  C   UNL d   1      -0.190  -4.113  -2.329  0.00  0.00     0.017 A 
ENDBRANCH   1  24
TORSDOF 7
