REMARK  7 active torsions:
REMARK  status: ('A' for Active; 'I' for Inactive)
REMARK    1  A    between atoms: N_5  and  C_1 
REMARK    2  A    between atoms: C_12  and  N_8 
REMARK    3  A    between atoms: C_16  and  C_12 
REMARK    4  A    between atoms: O_15  and  C_21 
REMARK    5  A    between atoms: C_18  and  O_15 
REMARK    6  A    between atoms: C_21  and  C_16 
REMARK    7  A    between atoms: O_30  and  C_16 
ROOT
ATOM      1  N   UNL d   1      -4.349   0.344   0.554  0.00  0.00    -0.360 N 
ATOM      2  N   UNL d   1      -7.196   1.634   0.888  0.00  0.00     0.092 N 
ATOM      3  C   UNL d   1      -5.119   0.977  -0.525  0.00  0.00     0.155 C 
ATOM      4  C   UNL d   1      -6.086   2.057   0.005  0.00  0.00     0.292 C 
ATOM      5  C   UNL d   1      -5.754   0.234   2.583  0.00  0.00     0.050 C 
ATOM      6  C   UNL d   1      -5.095  -0.536   1.446  0.00  0.00     0.127 C 
ATOM      7  C   UNL d   1      -6.734   1.370   2.249  0.00  0.00     0.274 C 
ENDROOT
BRANCH   2   8
ATOM      8  C   UNL d   1      -8.054   0.631   0.258  0.00  0.00     0.306 C 
BRANCH   8   9
ATOM      9  C   UNL d   1      -9.298   0.124   1.014  0.00  0.00     0.170 C 
BRANCH   9  10
ATOM     10  C   UNL d   1     -10.335   1.221   1.310  0.00  0.00     0.209 C 
BRANCH  10  11
ATOM     11  O   UNL d   1     -11.445   0.586   1.961  0.00  0.00    -0.349 OA
BRANCH  11  12
ATOM     12  C   UNL d   1     -12.563   1.342   2.170  0.00  0.00     0.069 A 
ATOM     13  C   UNL d   1     -13.757   0.619   2.254  0.00  0.00     0.038 A 
ATOM     14  C   UNL d   1     -14.967   1.270   2.510  0.00  0.00     0.022 A 
ATOM     15  C   UNL d   1     -14.972   2.648   2.702  0.00  0.00     0.011 A 
ATOM     16  C   UNL d   1     -13.785   3.377   2.632  0.00  0.00     0.022 A 
ATOM     17 BR   UNL d   1     -16.599   3.537   3.075  0.00  0.00    -0.051 Br
ATOM     18  C   UNL d   1     -12.577   2.721   2.364  0.00  0.00     0.038 A 
ENDBRANCH  11  12
ENDBRANCH  10  11
ENDBRANCH   9  10
BRANCH   9  19
ATOM     19  O   UNL d   1      -9.884  -0.914   0.204  0.00  0.00    -0.392 OA
ATOM     20  H   UNL d   1     -10.396  -0.487  -0.505  0.00  0.00     0.210 HD
ENDBRANCH   9  19
ENDBRANCH   8   9
ENDBRANCH   2   8
BRANCH   1  21
ATOM     21  C   UNL d   1      -2.989   0.278   0.407  0.00  0.00     0.147 A 
ATOM     22  N   UNL d   1      -2.353   0.875  -0.578  0.00  0.00    -0.336 N 
ATOM     23  C   UNL d   1      -0.990   0.693  -0.500  0.00  0.00     0.051 A 
ATOM     24  HN  UNL d   1      -2.816   1.410  -1.314  1.00  0.00     0.168 HD
ATOM     25  C   UNL d   1      -0.037   1.211  -1.400  0.00  0.00     0.032 A 
ATOM     26  C   UNL d   1      -0.555  -0.075   0.576  0.00  0.00     0.036 A 
ATOM     27  C   UNL d   1       1.323   0.956  -1.195  0.00  0.00     0.026 A 
ATOM     28  C   UNL d   1       1.729   0.184  -0.112  0.00  0.00     0.035 A 
ATOM     29  C   UNL d   1       0.806  -0.350   0.790  0.00  0.00     0.045 A 
ATOM     30 CL   UNL d   1       3.409  -0.114   0.128  0.00  0.00    -0.084 Cl
ATOM     31  S   UNL d   1      -1.923  -0.548   1.499  0.00  0.00    -0.052 SA
ENDBRANCH   1  21
TORSDOF 7
