REMARK  4 active torsions:
REMARK  status: ('A' for Active; 'I' for Inactive)
REMARK    1  A    between atoms: C_3  and  C_1 
REMARK    2  A    between atoms: O_4  and  C_1 
REMARK    3  A    between atoms: N_2  and  C_5 
REMARK    4  A    between atoms: C_13  and  O_4 
ROOT
ATOM      1  C   UNL d   1       0.844  -0.063  -0.059  0.00  0.00     0.302 C 
ATOM      2  O   UNL d   1       0.318  -0.357  -1.119  0.00  0.00    -0.259 OA
ENDROOT
BRANCH   1   3
ATOM      3  C   UNL d   1       2.285   0.172   0.107  0.00  0.00     0.083 A 
ATOM      4  C   UNL d   1       2.900   1.251  -0.537  0.00  0.00     0.052 A 
ATOM      5 CL   UNL d   1       2.018   2.390  -1.492  0.00  0.00    -0.083 Cl
ATOM      6  C   UNL d   1       4.280   1.459  -0.400  0.00  0.00     0.025 A 
ATOM      7  C   UNL d   1       5.044   0.597   0.386  0.00  0.00     0.003 A 
ATOM      8  C   UNL d   1       4.434  -0.480   1.028  0.00  0.00     0.025 A 
ATOM      9  C   UNL d   1       3.060  -0.699   0.886  0.00  0.00     0.052 A 
ATOM     10 CL   UNL d   1       2.397  -2.087   1.676  0.00  0.00    -0.083 Cl
ENDBRANCH   1   3
BRANCH   1  11
ATOM     11  O   UNL d   1       0.251   0.122   1.176  0.00  0.00    -0.275 OA
BRANCH  11  12
ATOM     12  C   UNL d   1      -1.119  -0.168   1.249  0.00  0.00     0.079 A 
ATOM     13  C   UNL d   1      -1.513  -1.164   2.145  0.00  0.00     0.040 A 
ATOM     14  C   UNL d   1      -2.872  -1.429   2.327  0.00  0.00     0.039 A 
ATOM     15  C   UNL d   1      -3.821  -0.679   1.618  0.00  0.00     0.103 A 
ATOM     16  C   UNL d   1      -3.419   0.323   0.721  0.00  0.00     0.039 A 
ATOM     17  C   UNL d   1      -2.058   0.584   0.542  0.00  0.00     0.040 A 
BRANCH  15  18
ATOM     18  N   UNL d   1      -5.253  -0.932   1.833  0.00  0.00    -0.116 N 
ATOM     19  O   UNL d   1      -5.567  -1.832   2.625  0.00  0.00    -0.532 OA
ATOM     20  O   UNL d   1      -6.063  -0.225   1.217  0.00  0.00    -0.532 OA
ENDBRANCH  15  18
ENDBRANCH  11  12
ENDBRANCH   1  11
TORSDOF 4
