REMARK  6 active torsions:
REMARK  status: ('A' for Active; 'I' for Inactive)
REMARK    1  A    between atoms: C_5  and  C_1 
REMARK    2  A    between atoms: C_11  and  C_4 
REMARK    3  A    between atoms: S_15  and  C_10 
REMARK    4  A    between atoms: C_14  and  C_17 
REMARK    5  A    between atoms: C_16  and  C_14 
REMARK    6  A    between atoms: C_17  and  S_15 
ROOT
ATOM      1  C   UNL d   1       0.304  -2.743   0.131  0.00  0.00     0.050 A 
ATOM      2  N   UNL d   1      -0.300  -3.543  -0.767  0.00  0.00    -0.336 N 
ATOM      3  HN  UNL d   1      -0.989  -3.175  -1.423  1.00  0.00     0.168 HD
ATOM      4  C   UNL d   1       0.034  -4.841  -0.770  0.00  0.00     0.144 A 
ATOM      5  N   UNL d   1       0.925  -5.395   0.065  0.00  0.00    -0.347 N 
ATOM      6  HN  UNL d   1       1.161  -6.386   0.021  1.00  0.00     0.167 HD
ATOM      7  C   UNL d   1       1.223  -3.224   1.038  0.00  0.00     0.047 A 
ATOM      8  C   UNL d   1       1.489  -4.571   0.965  0.00  0.00     0.092 A 
ENDROOT
BRANCH   1   9
ATOM      9  C   UNL d   1      -0.040  -1.330   0.036  0.00  0.00     0.051 A 
ATOM     10  C   UNL d   1      -0.390  -0.525  -1.103  0.00  0.00     0.080 A 
ATOM     11  N   UNL d   1      -0.679   0.728  -0.714  0.00  0.00    -0.259 N 
ATOM     12  O   UNL d   1      -0.543   0.758   0.651  0.00  0.00    -0.241 OA
ATOM     13  HN  UNL d   1      -0.948   1.507  -1.316  1.00  0.00     0.195 HD
ATOM     14  C   UNL d   1      -0.174  -0.466   1.108  0.00  0.00     0.087 A 
ATOM     15  C   UNL d   1      -0.045  -0.569   2.576  0.00  0.00     0.080 C 
BRANCH  10  16
ATOM     16  C   UNL d   1      -0.468  -0.884  -2.524  0.00  0.00    -0.006 A 
ATOM     17  C   UNL d   1       0.457  -1.761  -3.108  0.00  0.00     0.015 A 
ATOM     18  C   UNL d   1       0.322  -2.159  -4.441  0.00  0.00     0.024 A 
ATOM     19  C   UNL d   1      -0.721  -1.654  -5.212  0.00  0.00     0.034 A 
ATOM     20  C   UNL d   1      -1.619  -0.740  -4.668  0.00  0.00     0.024 A 
ATOM     21 CL   UNL d   1      -0.899  -2.167  -6.845  0.00  0.00    -0.084 Cl
ATOM     22  C   UNL d   1      -1.493  -0.357  -3.329  0.00  0.00     0.015 A 
ENDBRANCH  10  16
ENDBRANCH   1   9
BRANCH   4  23
ATOM     23  S   UNL d   1      -0.736  -5.840  -2.018  0.00  0.00    -0.086 SA
BRANCH  23  24
ATOM     24  C   UNL d   1       0.065  -7.436  -1.702  0.00  0.00     0.166 C 
BRANCH  24  25
ATOM     25  C   UNL d   1      -0.581  -8.523  -2.537  0.00  0.00     0.169 C 
ATOM     26  O   UNL d   1      -1.527  -9.184  -2.107  0.00  0.00    -0.291 OA
BRANCH  25  27
ATOM     27  C   UNL d   1      -0.040  -8.848  -3.890  0.00  0.00     0.011 A 
ATOM     28  C   UNL d   1      -0.246 -10.145  -4.386  0.00  0.00     0.017 A 
ATOM     29  C   UNL d   1       0.209 -10.501  -5.658  0.00  0.00     0.025 A 
ATOM     30  C   UNL d   1       0.864  -9.557  -6.445  0.00  0.00     0.034 A 
ATOM     31  C   UNL d   1       1.077  -8.265  -5.963  0.00  0.00     0.025 A 
ATOM     32 CL   UNL d   1       1.402  -9.983  -8.022  0.00  0.00    -0.084 Cl
ATOM     33  C   UNL d   1       0.634  -7.910  -4.687  0.00  0.00     0.017 A 
ENDBRANCH  25  27
ENDBRANCH  24  25
ENDBRANCH  23  24
ENDBRANCH   4  23
TORSDOF 6
