REMARK  8 active torsions:
REMARK  status: ('A' for Active; 'I' for Inactive)
REMARK    1  A    between atoms: C_5  and  C_1 
REMARK    2  A    between atoms: N_11  and  C_2 
REMARK    3  A    between atoms: C_7  and  C_13 
REMARK    4  A    between atoms: C_8  and  C_14 
REMARK       I    between atoms: C_10  and  N_11 
REMARK    5  A    between atoms: O_15  and  C_10 
REMARK    6  A    between atoms: N_12  and  O_15 
REMARK    7  A    between atoms: C_13  and  N_12 
REMARK    8  A    between atoms: C_14  and  N_12 
ROOT
ATOM      1  O   UNL d   1       2.755  -2.177   0.442  0.00  0.00    -0.206 OA
ENDROOT
BRANCH   1   2
ATOM      2  N   UNL d   1       2.473  -0.794   0.863  0.00  0.00    -0.177 NA
BRANCH   2   3
ATOM      3  C   UNL d   1       2.306  -0.890   2.329  0.00  0.00     0.165 C 
BRANCH   3   4
ATOM      4  C   UNL d   1       2.138   0.453   2.988  0.00  0.00     0.017 A 
ATOM      5  C   UNL d   1       1.008   1.258   2.789  0.00  0.00     0.044 A 
ATOM      6 CL   UNL d   1      -0.399   0.677   1.974  0.00  0.00    -0.084 Cl
ATOM      7  C   UNL d   1       1.000   2.584   3.232  0.00  0.00     0.024 A 
ATOM      8  C   UNL d   1       2.106   3.115   3.896  0.00  0.00     0.005 A 
ATOM      9  C   UNL d   1       3.207   2.308   4.157  0.00  0.00     0.043 A 
ATOM     10  C   UNL d   1       3.210   0.992   3.710  0.00  0.00     0.125 A 
ATOM     11  F   UNL d   1       4.311   0.252   3.920  0.00  0.00    -0.205 F 
ENDBRANCH   3   4
ENDBRANCH   2   3
BRANCH   2  12
ATOM     12  C   UNL d   1       3.694  -0.009   0.536  0.00  0.00     0.165 C 
BRANCH  12  13
ATOM     13  C   UNL d   1       3.908   0.333  -0.918  0.00  0.00     0.017 A 
ATOM     14  C   UNL d   1       4.844  -0.403  -1.652  0.00  0.00     0.125 A 
ATOM     15  F   UNL d   1       5.486  -1.428  -1.071  0.00  0.00    -0.205 F 
ATOM     16  C   UNL d   1       5.176  -0.076  -2.966  0.00  0.00     0.043 A 
ATOM     17  C   UNL d   1       4.563   1.008  -3.585  0.00  0.00     0.005 A 
ATOM     18  C   UNL d   1       3.626   1.761  -2.879  0.00  0.00     0.024 A 
ATOM     19  C   UNL d   1       3.301   1.429  -1.555  0.00  0.00     0.044 A 
ATOM     20 CL   UNL d   1       2.188   2.469  -0.737  0.00  0.00    -0.084 Cl
ENDBRANCH  12  13
ENDBRANCH   2  12
ENDBRANCH   1   2
BRANCH   1  21
ATOM     21  C   UNL d   1       1.608  -2.946   0.230  0.00  0.00     0.382 C 
ATOM     22  N   UNL d   1       2.025  -4.229  -0.001  0.00  0.00    -0.297 N 
ATOM     23  H   UNL d   1       2.998  -4.367   0.212  0.00  0.00     0.171 HD
ATOM     24  O   UNL d   1       0.456  -2.563   0.349  0.00  0.00    -0.237 OA
BRANCH  22  25
ATOM     25  C   UNL d   1       1.321  -5.356  -0.408  0.00  0.00     0.098 C 
ATOM     26  C   UNL d   1       0.087  -5.674  -1.106  0.00  0.00     0.098 C 
ATOM     27  N   UNL d   1       0.112  -6.991  -1.404  0.00  0.00    -0.258 N 
ATOM     28  O   UNL d   1       1.128  -7.563  -0.702  0.00  0.00    -0.240 OA
ATOM     29  HN  UNL d   1      -0.520  -7.473  -2.043  1.00  0.00     0.195 HD
ATOM     30  C   UNL d   1       1.832  -6.597  -0.077  0.00  0.00     0.101 C 
ATOM     31  C   UNL d   1       2.879  -7.081   0.850  0.00  0.00     0.081 C 
BRANCH  26  32
ATOM     32  C   UNL d   1      -1.111  -4.909  -1.528  0.00  0.00     0.038 C 
ATOM     33  C   UNL d   1      -1.057  -3.596  -2.025  0.00  0.00     0.048 C 
ATOM     34 CL   UNL d   1       0.392  -2.898  -2.679  0.00  0.00    -0.083 Cl
ATOM     35  C   UNL d   1      -2.227  -2.828  -2.189  0.00  0.00     0.025 C 
ATOM     36  C   UNL d   1      -3.485  -3.394  -2.017  0.00  0.00     0.003 C 
ATOM     37  C   UNL d   1      -3.575  -4.741  -1.708  0.00  0.00     0.025 C 
ATOM     38  C   UNL d   1      -2.413  -5.486  -1.443  0.00  0.00     0.048 C 
ATOM     39 CL   UNL d   1      -2.747  -7.147  -1.036  0.00  0.00    -0.083 Cl
ENDBRANCH  26  32
ENDBRANCH  22  25
ENDBRANCH   1  21
TORSDOF 8
