REMARK  6 active torsions:
REMARK  status: ('A' for Active; 'I' for Inactive)
REMARK    1  A    between atoms: C_7  and  N_1 
REMARK    2  A    between atoms: C_6  and  O_10 
REMARK    3  A    between atoms: C_13  and  C_6 
REMARK    4  A    between atoms: C_12  and  C_7 
REMARK    5  A    between atoms: O_10  and  N_8 
REMARK    6  A    between atoms: C_14  and  C_15 
ROOT
ATOM      1  N   UNL d   1       2.264   0.150  -1.194  0.00  0.00    -0.264 N 
ATOM      2  HN  UNL d   1       2.074   0.915  -1.841  1.00  0.00     0.194 HD
ATOM      3  C   UNL d   1       1.373  -0.736  -0.855  0.00  0.00     0.025 C 
ATOM      4  C   UNL d   1       1.576  -1.840   0.154  0.00  0.00     0.067 C 
ENDROOT
BRANCH   1   5
ATOM      5  O   UNL d   1       3.519  -0.049  -0.579  0.00  0.00    -0.195 OA
BRANCH   5   6
ATOM      6  C   UNL d   1       4.094   1.167  -0.320  0.00  0.00     0.315 C 
ATOM      7  O   UNL d   1       3.509   2.236  -0.189  0.00  0.00    -0.257 OA
BRANCH   6   8
ATOM      8  C   UNL d   1       5.582   1.063  -0.263  0.00  0.00     0.041 A 
ATOM      9  C   UNL d   1       6.315   2.237  -0.056  0.00  0.00     0.018 A 
ATOM     10  C   UNL d   1       7.713   2.233  -0.143  0.00  0.00     0.009 A 
ATOM     11  C   UNL d   1       8.426   1.060  -0.448  0.00  0.00    -0.051 A 
ATOM     12  C   UNL d   1       7.680  -0.124  -0.583  0.00  0.00     0.009 A 
ATOM     13  C   UNL d   1       6.277  -0.127  -0.495  0.00  0.00     0.018 A 
BRANCH  11  14
ATOM     14  C   UNL d   1       9.950   1.119  -0.680  0.00  0.00    -0.024 C 
ATOM     15  C   UNL d   1      10.573  -0.240  -1.073  0.00  0.00     0.019 C 
ATOM     16  C   UNL d   1      10.254   2.102  -1.835  0.00  0.00     0.019 C 
ATOM     17  C   UNL d   1      10.675   1.606   0.592  0.00  0.00     0.019 C 
ENDBRANCH  11  14
ENDBRANCH   6   8
ENDBRANCH   5   6
ENDBRANCH   1   5
BRANCH   3  18
ATOM     18  C   UNL d   1      -0.012  -0.620  -1.487  0.00  0.00     0.188 C 
BRANCH  18  19
ATOM     19  N   UNL d   1      -0.133  -1.463  -2.653  0.00  0.00    -0.285 N 
ATOM     20  C   UNL d   1      -0.661  -2.736  -2.675  0.00  0.00     0.373 A 
ATOM     21  O   UNL d   1      -0.693  -3.249  -3.979  0.00  0.00    -0.259 OA
ATOM     22  O   UNL d   1      -1.060  -3.360  -1.701  0.00  0.00    -0.237 OA
ATOM     23  C   UNL d   1      -0.180  -2.200  -4.724  0.00  0.00     0.107 A 
ATOM     24  C   UNL d   1       0.171  -1.112  -3.949  0.00  0.00     0.073 A 
ATOM     25  C   UNL d   1      -0.040  -2.191  -6.097  0.00  0.00     0.040 A 
ATOM     26  C   UNL d   1       0.684   0.042  -4.495  0.00  0.00     0.033 A 
ATOM     27  C   UNL d   1       0.831   0.079  -5.887  0.00  0.00     0.002 A 
ATOM     28  C   UNL d   1       0.473  -1.028  -6.685  0.00  0.00     0.003 A 
ENDBRANCH  18  19
ENDBRANCH   3  18
TORSDOF 6
