REMARK  5 active torsions:
REMARK  status: ('A' for Active; 'I' for Inactive)
REMARK    1  A    between atoms: C_8  and  N_1 
REMARK    2  A    between atoms: C_16  and  C_2 
REMARK    3  A    between atoms: C_20  and  C_4 
REMARK    4  A    between atoms: C_9  and  S_18 
REMARK    5  A    between atoms: S_18  and  C_16 
ROOT
ATOM      1  N   UNL d   1      -0.056  -1.354  -0.011  0.00  0.00    -0.238 N 
ATOM      2  C   UNL d   1       1.249  -0.858  -0.015  0.00  0.00     0.071 C 
ATOM      3  N   UNL d   1      -0.919  -0.328  -0.205  0.00  0.00    -0.014 NA
ATOM      4  C   UNL d   1       1.077   0.521  -0.054  0.00  0.00     0.081 C 
ATOM      5  N   UNL d   1      -0.249   0.810  -0.184  0.00  0.00    -0.281 N 
ATOM      6  HN  UNL d   1      -0.653   1.744  -0.253  1.00  0.00     0.184 HD
ENDROOT
BRANCH   2   7
ATOM      7  C   UNL d   1       2.497  -1.665  -0.028  0.00  0.00     0.142 C 
BRANCH   7   8
ATOM      8  S   UNL d   1       2.625  -2.870  -1.374  0.00  0.00    -0.097 SA
BRANCH   8   9
ATOM      9  C   UNL d   1       4.176  -3.570  -0.946  0.00  0.00     0.130 A 
ATOM     10  S   UNL d   1       4.976  -4.752  -1.887  0.00  0.00    -0.027 SA
ATOM     11  C   UNL d   1       6.183  -4.800  -0.662  0.00  0.00     0.159 A 
ATOM     12  N   UNL d   1       7.223  -5.652  -0.723  0.00  0.00    -0.379 N 
ATOM     13  N   UNL d   1       5.970  -3.962   0.325  0.00  0.00    -0.279 N 
ATOM     14  H   UNL d   1       7.135  -6.470  -1.312  0.00  0.00     0.158 HD
ATOM     15  H   UNL d   1       7.703  -5.825   0.156  0.00  0.00     0.158 HD
ATOM     16  N   UNL d   1       4.805  -3.243   0.162  0.00  0.00    -0.286 N 
ATOM     17  HN  UNL d   1       6.595  -3.855   1.124  1.00  0.00     0.189 HD
ATOM     18  HN  UNL d   1       4.471  -2.540   0.822  1.00  0.00     0.188 HD
ENDBRANCH   8   9
ENDBRANCH   7   8
ENDBRANCH   2   7
BRANCH   1  19
ATOM     19  C   UNL d   1      -0.564  -2.661   0.221  0.00  0.00     0.093 A 
ATOM     20  C   UNL d   1      -1.808  -3.028  -0.316  0.00  0.00     0.147 A 
ATOM     21  C   UNL d   1      -2.353  -4.288  -0.078  0.00  0.00     0.086 A 
ATOM     22  F   UNL d   1      -2.494  -2.209  -1.125  0.00  0.00    -0.204 F 
ATOM     23  C   UNL d   1      -1.656  -5.187   0.712  0.00  0.00     0.119 A 
ATOM     24  C   UNL d   1      -0.429  -4.846   1.264  0.00  0.00     0.045 A 
ATOM     25  F   UNL d   1      -2.176  -6.398   0.952  0.00  0.00    -0.206 F 
ATOM     26  C   UNL d   1       0.121  -3.583   1.026  0.00  0.00     0.037 A 
ENDBRANCH   1  19
BRANCH   4  27
ATOM     27  C   UNL d   1       2.101   1.558  -0.082  0.00  0.00    -0.006 A 
ATOM     28  C   UNL d   1       1.860   2.738  -0.800  0.00  0.00     0.014 A 
ATOM     29  C   UNL d   1       2.857   3.707  -0.939  0.00  0.00     0.001 A 
ATOM     30  C   UNL d   1       4.110   3.508  -0.364  0.00  0.00     0.000 A 
ATOM     31  C   UNL d   1       4.348   2.367   0.396  0.00  0.00     0.001 A 
ATOM     32  C   UNL d   1       3.337   1.417   0.565  0.00  0.00     0.014 A 
ENDBRANCH   4  27
TORSDOF 5
