REMARK  2 active torsions:
REMARK  status: ('A' for Active; 'I' for Inactive)
REMARK    1  A    between atoms: C_7  and  N_1 
REMARK    2  A    between atoms: C_2  and  C_7 
ROOT
ATOM      1  C   UNL d   1       3.971   1.276   0.149  0.00  0.00    -0.028 A 
ATOM      2  C   UNL d   1       5.639   3.451  -0.488  0.00  0.00     0.038 A 
ATOM      3  C   UNL d   1       6.078   2.144  -0.688  0.00  0.00     0.012 A 
ATOM      4  C   UNL d   1       4.364   3.667   0.029  0.00  0.00     0.012 A 
ATOM      5  C   UNL d   1       3.532   2.593   0.347  0.00  0.00     0.028 A 
ATOM      6  C   UNL d   1       5.255   1.060  -0.373  0.00  0.00     0.028 A 
ATOM      7 BR   UNL d   1       7.805   1.832  -1.390  0.00  0.00    -0.051 Br
ATOM      8 BR   UNL d   1       3.754   5.436   0.301  0.00  0.00    -0.051 Br
ENDROOT
BRANCH   1   9
ATOM      9  C   UNL d   1       3.084   0.099   0.501  0.00  0.00     0.311 C 
BRANCH   9  10
ATOM     10  N   UNL d   1       1.796   0.063  -0.225  0.00  0.00     0.094 N 
ATOM     11  C   UNL d   1       2.009  -0.069  -1.684  0.00  0.00     0.283 C 
ATOM     12  C   UNL d   1       0.716  -0.076  -2.510  0.00  0.00     0.104 C 
ATOM     13  S   UNL d   1      -0.334  -1.502  -2.111  0.00  0.00    -0.166 SA
ATOM     14  C   UNL d   1      -0.400  -1.224  -0.318  0.00  0.00     0.104 C 
ATOM     15  C   UNL d   1       0.997  -1.073   0.296  0.00  0.00     0.283 C 
ENDBRANCH   9  10
ENDBRANCH   1   9
TORSDOF 2
