REMARK  4 active torsions:
REMARK  status: ('A' for Active; 'I' for Inactive)
REMARK    1  A    between atoms: C_14  and  C_7 
REMARK    2  A    between atoms: C_9  and  C_13 
REMARK    3  A    between atoms: O_18  and  C_10 
REMARK    4  A    between atoms: C_16  and  O_18 
ROOT
ATOM      1  C   UNL d   1      -0.386  -1.102   0.183  0.00  0.00     0.198 A 
ATOM      2  O   UNL d   1       0.396  -0.703   1.236  0.00  0.00    -0.271 OA
ATOM      3  N   UNL d   1      -0.663  -0.100  -0.633  0.00  0.00    -0.275 N 
ATOM      4  HN  UNL d   1      -1.212  -0.150  -1.491  1.00  0.00     0.189 HD
ATOM      5  N   UNL d   1      -0.067   1.025  -0.103  0.00  0.00    -0.277 N 
ATOM      6  HN  UNL d   1      -0.093   1.969  -0.488  1.00  0.00     0.189 HD
ATOM      7  C   UNL d   1       0.541   0.637   0.998  0.00  0.00     0.174 A 
ATOM      8  C   UNL d   1      -0.876  -2.434   0.012  0.00  0.00     0.131 A 
ATOM      9  C   UNL d   1      -1.259  -4.568   0.426  0.00  0.00     0.191 A 
ATOM     10  O   UNL d   1      -0.637  -3.455   0.901  0.00  0.00    -0.283 OA
ATOM     11  C   UNL d   1      -1.662  -2.917  -1.021  0.00  0.00     0.047 A 
ATOM     12  C   UNL d   1      -1.943  -4.270  -0.732  0.00  0.00     0.067 A 
ENDROOT
BRANCH   7  13
ATOM     13  C   UNL d   1       1.287   1.410   1.981  0.00  0.00     0.017 A 
ATOM     14  C   UNL d   1       1.396   2.804   1.844  0.00  0.00     0.032 A 
ATOM     15  C   UNL d   1       2.087   3.576   2.795  0.00  0.00     0.048 A 
ATOM     16  C   UNL d   1       2.678   2.932   3.893  0.00  0.00     0.016 A 
ATOM     17  C   UNL d   1       2.584   1.549   4.036  0.00  0.00     0.002 A 
ATOM     18  C   UNL d   1       1.893   0.795   3.086  0.00  0.00     0.016 A 
BRANCH  15  19
ATOM     19  C   UNL d   1       2.196   5.076   2.659  0.00  0.00     0.417 C 
ATOM     20  F   UNL d   1       1.590   5.570   1.544  0.00  0.00    -0.166 F 
ATOM     21  F   UNL d   1       1.635   5.734   3.712  0.00  0.00    -0.166 F 
ATOM     22  F   UNL d   1       3.489   5.499   2.600  0.00  0.00    -0.166 F 
ENDBRANCH  15  19
ENDBRANCH   7  13
BRANCH   9  23
ATOM     23  O   UNL d   1      -1.057  -5.667   1.158  0.00  0.00    -0.288 OA
BRANCH  23  24
ATOM     24  C   UNL d   1      -1.144  -6.907   0.566  0.00  0.00     0.081 A 
ATOM     25  C   UNL d   1      -0.674  -7.146  -0.732  0.00  0.00     0.061 A 
ATOM     26  C   UNL d   1      -0.822  -8.407  -1.302  0.00  0.00     0.038 A 
ATOM     27 CL   UNL d   1      -0.325  -8.656  -2.929  0.00  0.00    -0.084 Cl
ATOM     28  C   UNL d   1      -1.380  -9.451  -0.574  0.00  0.00     0.048 A 
ATOM     29  C   UNL d   1      -1.788  -9.223   0.739  0.00  0.00     0.038 A 
ATOM     30  C   UNL d   1      -1.677  -7.955   1.315  0.00  0.00     0.061 A 
ATOM     31 CL   UNL d   1      -2.444 -10.524   1.656  0.00  0.00    -0.084 Cl
ENDBRANCH  23  24
ENDBRANCH   9  23
TORSDOF 4
