REMARK  0 active torsions:
REMARK  status: ('A' for Active; 'I' for Inactive)
ROOT
ATOM      1  C   UNL d   1      -0.690   1.236   0.002  0.00  0.00     0.118 A 
ATOM      2  C   UNL d   1      -1.447  -0.058   0.002  0.00  0.00     0.268 A 
ATOM      3  N   UNL d   1      -0.687  -1.239   0.003  0.00  0.00    -0.322 N 
ATOM      4  C   UNL d   1       0.659   1.214   0.001  0.00  0.00    -0.034 A 
ATOM      5  C   UNL d   1       0.708  -1.227   0.002  0.00  0.00     0.011 A 
ATOM      6  C   UNL d   1       1.361  -0.055   0.001  0.00  0.00     0.033 A 
ATOM      7  C   UNL d   1      -1.437   2.449   0.004  0.00  0.00     0.105 C 
ATOM      8  N   UNL d   1      -1.980   3.475   0.005  0.00  0.00    -0.191 NA
ATOM      9  O   UNL d   1      -2.677  -0.047   0.001  0.00  0.00    -0.266 OA
ATOM     10  C   UNL d   1      -1.405  -2.510   0.004  0.00  0.00     0.159 C 
ATOM     11  C   UNL d   1       1.549   2.428   0.003  0.00  0.00     0.050 C 
ATOM     12  C   UNL d   1       1.471  -2.527   0.003  0.00  0.00     0.068 C 
ENDROOT
TORSDOF 0
