REMARK  3 active torsions:
REMARK  status: ('A' for Active; 'I' for Inactive)
REMARK    1  A    between atoms: C_10  and  C_2 
REMARK    2  A    between atoms: N_15  and  C_10 
REMARK    3  A    between atoms: O_16  and  N_13 
ROOT
ATOM      1  C   UNL d   1      -7.224  -0.436  -0.017  0.00  0.00     0.086 A 
ATOM      2  C   UNL d   1      -4.861  -0.592   0.005  0.00  0.00     0.006 A 
ATOM      3  C   UNL d   1      -7.125   1.017  -0.020  0.00  0.00     0.085 A 
ATOM      4  C   UNL d   1      -6.096  -1.274  -0.005  0.00  0.00     0.048 A 
ATOM      5  O   UNL d   1      -9.216   0.431  -0.029  0.00  0.00    -0.156 OA
ATOM      6  N   UNL d   1      -8.521  -0.766  -0.025  0.00  0.00    -0.240 N 
ATOM      7  HN  UNL d   1      -8.917  -1.707  -0.027  1.00  0.00     0.197 HD
ATOM      8  N   UNL d   1      -8.363   1.522  -0.031  0.00  0.00    -0.240 N 
ATOM      9  HN  UNL d   1      -8.625   2.508  -0.038  1.00  0.00     0.197 HD
ATOM     10  C   UNL d   1      -4.767   0.834   0.004  0.00  0.00     0.017 A 
ATOM     11  C   UNL d   1      -5.889   1.686  -0.011  0.00  0.00     0.035 A 
ENDROOT
BRANCH   2  12
ATOM     12  C   UNL d   1      -3.597  -1.397   0.037  0.00  0.00     0.108 C 
ATOM     13  N   UNL d   1      -2.511  -0.828   0.476  0.00  0.00    -0.258 N 
ATOM     14  HN  UNL d   1      -2.456   0.135   0.808  1.00  0.00     0.195 HD
BRANCH  13  15
ATOM     15  O   UNL d   1      -1.425  -1.719   0.430  0.00  0.00    -0.289 OA
ATOM     16  H   UNL d   1      -0.735  -1.220   0.907  0.00  0.00     0.244 HD
ENDBRANCH  13  15
BRANCH  12  17
ATOM     17  N   UNL d   1      -3.617  -2.702  -0.395  0.00  0.00    -0.287 NA
ATOM     18  H   UNL d   1      -4.176  -2.889  -1.219  0.00  0.00     0.125 HD
ATOM     19  H   UNL d   1      -2.662  -3.039  -0.498  0.00  0.00     0.125 HD
ENDBRANCH  12  17
ENDBRANCH   2  12
TORSDOF 3
