REMARK  4 active torsions:
REMARK  status: ('A' for Active; 'I' for Inactive)
REMARK    1  A    between atoms: C_11  and  C_3 
REMARK    2  A    between atoms: C_14  and  C_4 
REMARK    3  A    between atoms: C_13  and  C_10 
REMARK    4  A    between atoms: O_22  and  C_14 
ROOT
ATOM      1  C   UNL d   1       0.188  -0.812   0.009  0.00  0.00     0.145 A 
ATOM      2  N   UNL d   1       0.333   0.589   0.007  0.00  0.00    -0.234 N 
ATOM      3  C   UNL d   1      -0.788   1.413   0.013  0.00  0.00     0.144 A 
ATOM      4  C   UNL d   1       1.470  -1.337  -0.017  0.00  0.00     0.102 A 
ATOM      5  N   UNL d   1      -1.042  -1.411   0.039  0.00  0.00    -0.336 N 
ATOM      6  HN  UNL d   1      -1.132  -2.427   0.049  1.00  0.00     0.167 HD
ATOM      7  C   UNL d   1      -2.018   0.860   0.026  0.00  0.00     0.071 A 
ATOM      8  N   UNL d   1       1.636   0.940  -0.004  0.00  0.00    -0.302 N 
ATOM      9  HN  UNL d   1       2.023   1.883  -0.001  1.00  0.00     0.186 HD
ATOM     10  C   UNL d   1      -2.099  -0.640   0.054  0.00  0.00     0.120 A 
ATOM     11  C   UNL d   1       2.306  -0.207  -0.020  0.00  0.00     0.129 A 
ENDROOT
BRANCH   3  12
ATOM     12  C   UNL d   1      -0.596   2.888   0.008  0.00  0.00     0.434 C 
ATOM     13  F   UNL d   1       0.676   3.341  -0.036  0.00  0.00    -0.165 F 
ATOM     14  F   UNL d   1      -1.238   3.446  -1.056  0.00  0.00    -0.165 F 
ATOM     15  F   UNL d   1      -1.163   3.441   1.114  0.00  0.00    -0.165 F 
ENDBRANCH   3  12
BRANCH  10  16
ATOM     16  C   UNL d   1      -3.500  -1.265   0.115  0.00  0.00     0.432 C 
ATOM     17  F   UNL d   1      -4.489  -0.327   0.126  0.00  0.00    -0.165 F 
ATOM     18  F   UNL d   1      -3.754  -2.072  -0.950  0.00  0.00    -0.165 F 
ATOM     19  F   UNL d   1      -3.679  -2.017   1.234  0.00  0.00    -0.165 F 
ENDBRANCH  10  16
BRANCH   4  20
ATOM     20  C   UNL d   1       1.913  -2.713  -0.034  0.00  0.00     0.298 C 
ATOM     21  O   UNL d   1       3.103  -3.013  -0.047  0.00  0.00    -0.259 OA
BRANCH  20  22
ATOM     22  O   UNL d   1       0.899  -3.622  -0.039  0.00  0.00    -0.322 OA
ATOM     23  C   UNL d   1       1.336  -4.980  -0.065  0.00  0.00     0.213 C 
ENDBRANCH  20  22
ENDBRANCH   4  20
TORSDOF 4
