REMARK  3 active torsions:
REMARK  status: ('A' for Active; 'I' for Inactive)
REMARK       I    between atoms: N_3  and  C_1 
REMARK       I    between atoms: N_4  and  C_1 
REMARK    1  A    between atoms: C_2  and  C_7 
REMARK    2  A    between atoms: C_11  and  N_3 
REMARK    3  A    between atoms: C_12  and  N_4 
ROOT
ATOM      1  C   UNL d   1      -0.863  -1.186   0.128  0.00  0.00     0.325 C 
ATOM      2  N   UNL d   1       0.400  -1.007   0.676  0.00  0.00    -0.309 N 
ATOM      3  N   UNL d   1      -1.332  -0.034  -0.482  0.00  0.00    -0.309 N 
ATOM      4  O   UNL d   1      -1.497  -2.229   0.197  0.00  0.00    -0.247 OA
ATOM      5  H   UNL d   1       0.739  -0.062   0.763  0.00  0.00     0.170 HD
ATOM      6  H   UNL d   1      -0.676   0.721  -0.605  0.00  0.00     0.170 HD
ENDROOT
BRANCH   2   7
ATOM      7  C   UNL d   1       1.135  -2.007   1.360  0.00  0.00     0.036 A 
ATOM      8  C   UNL d   1       0.812  -3.364   1.301  0.00  0.00     0.030 A 
ATOM      9  C   UNL d   1       1.539  -4.312   2.022  0.00  0.00     0.011 A 
ATOM     10  C   UNL d   1       2.628  -3.932   2.813  0.00  0.00    -0.035 A 
ATOM     11  C   UNL d   1       2.967  -2.568   2.856  0.00  0.00     0.011 A 
ATOM     12  C   UNL d   1       2.233  -1.617   2.132  0.00  0.00     0.030 A 
BRANCH  10  13
ATOM     13  C   UNL d   1       3.405  -5.001   3.549  0.00  0.00     0.141 C 
ATOM     14  S   UNL d   1       3.457  -4.735   5.348  0.00  0.00    -0.148 SA
ATOM     15  C   UNL d   1       5.149  -5.328   5.578  0.00  0.00     0.085 C 
ATOM     16  C   UNL d   1       5.969  -4.790   4.423  0.00  0.00     0.085 C 
ATOM     17  S   UNL d   1       5.096  -5.184   2.889  0.00  0.00    -0.148 SA
ENDBRANCH  10  13
ENDBRANCH   2   7
BRANCH   3  18
ATOM     18  C   UNL d   1      -2.623   0.145  -1.036  0.00  0.00     0.036 A 
ATOM     19  C   UNL d   1      -3.631  -0.826  -0.991  0.00  0.00     0.031 A 
ATOM     20  C   UNL d   1      -4.892  -0.584  -1.545  0.00  0.00     0.026 A 
ATOM     21  C   UNL d   1      -5.158   0.640  -2.143  0.00  0.00     0.034 A 
ATOM     22  C   UNL d   1      -4.171   1.621  -2.195  0.00  0.00     0.026 A 
ATOM     23 CL   UNL d   1      -6.710   0.941  -2.817  0.00  0.00    -0.084 Cl
ATOM     24  C   UNL d   1      -2.906   1.373  -1.645  0.00  0.00     0.031 A 
ENDBRANCH   3  18
TORSDOF 3
