REMARK  6 active torsions:
REMARK  status: ('A' for Active; 'I' for Inactive)
REMARK    1  A    between atoms: C_4  and  S_1 
REMARK    2  A    between atoms: C_5  and  S_1 
REMARK    3  A    between atoms: C_2  and  C_8 
REMARK    4  A    between atoms: C_11  and  C_3 
REMARK    5  A    between atoms: C_7  and  C_4 
REMARK    6  A    between atoms: O_23  and  C_11 
ROOT
ATOM      1  S   UNL d   1       0.982  -0.042   0.082  0.00  0.00     0.196 S 
ATOM      2  O   UNL d   1       2.418   0.034   0.315  0.00  0.00    -0.221 OA
ATOM      3  O   UNL d   1       0.482  -0.902  -0.978  0.00  0.00    -0.221 OA
ENDROOT
BRANCH   1   4
ATOM      4  C   UNL d   1       0.362   1.606  -0.191  0.00  0.00     0.212 C 
BRANCH   4   5
ATOM      5  C   UNL d   1       0.815   2.498   0.901  0.00  0.00     0.068 A 
ATOM      6  O   UNL d   1      -0.030   2.629   1.961  0.00  0.00    -0.308 OA
ATOM      7  C   UNL d   1       0.558   3.480   2.861  0.00  0.00     0.150 A 
ATOM      8  C   UNL d   1       1.776   3.898   2.357  0.00  0.00     0.046 A 
ATOM      9  C   UNL d   1       1.939   3.272   1.097  0.00  0.00     0.036 A 
BRANCH   7  10
ATOM     10  C   UNL d   1      -0.111   3.796   4.102  0.00  0.00     0.316 C 
ATOM     11  O   UNL d   1       0.323   4.544   4.970  0.00  0.00    -0.257 OA
BRANCH  10  12
ATOM     12  O   UNL d   1      -1.303   3.135   4.175  0.00  0.00    -0.321 OA
ATOM     13  C   UNL d   1      -2.046   3.392   5.364  0.00  0.00     0.213 C 
ENDBRANCH  10  12
ENDBRANCH   7  10
ENDBRANCH   4   5
ENDBRANCH   1   4
BRANCH   1  14
ATOM     14  C   UNL d   1       0.210  -0.564   1.602  0.00  0.00     0.128 A 
ATOM     15  N   UNL d   1      -1.148  -0.544   1.567  0.00  0.00    -0.356 N 
ATOM     16  C   UNL d   1      -1.777  -0.930   2.700  0.00  0.00     0.105 A 
ATOM     17  HN  UNL d   1      -1.662  -0.254   0.735  1.00  0.00     0.166 HD
ATOM     18  C   UNL d   1      -1.119  -1.320   3.861  0.00  0.00     0.063 A 
ATOM     19  C   UNL d   1       0.284  -1.319   3.849  0.00  0.00     0.020 A 
ATOM     20  C   UNL d   1       0.969  -0.937   2.699  0.00  0.00     0.042 A 
BRANCH  18  21
ATOM     21  C   UNL d   1      -1.894  -1.722   5.079  0.00  0.00     0.418 C 
ATOM     22  F   UNL d   1      -3.244  -1.671   4.909  0.00  0.00    -0.166 F 
ATOM     23  F   UNL d   1      -1.616  -2.993   5.479  0.00  0.00    -0.166 F 
ATOM     24  F   UNL d   1      -1.625  -0.925   6.150  0.00  0.00    -0.166 F 
ENDBRANCH  18  21
ENDBRANCH   1  14
TORSDOF 6
