REMARK  4 active torsions:
REMARK  status: ('A' for Active; 'I' for Inactive)
REMARK    1  A    between atoms: C_6  and  C_1 
REMARK       I    between atoms: C_2  and  N_8 
REMARK       I    between atoms: N_3  and  C_2 
REMARK    2  A    between atoms: C_5  and  N_3 
REMARK    3  A    between atoms: N_4  and  C_6 
REMARK    4  A    between atoms: N_8  and  C_17 
ROOT
ATOM      1  N   UNL d   1      -1.111   2.936   0.399  0.00  0.00     0.092 N 
ATOM      2  C   UNL d   1      -3.162   3.462  -0.954  0.00  0.00     0.055 C 
ATOM      3  C   UNL d   1      -3.334   3.227   1.549  0.00  0.00     0.055 C 
ATOM      4  C   UNL d   1      -4.072   3.122   0.220  0.00  0.00     0.089 C 
ATOM      5  C   UNL d   1      -1.799   2.778  -0.892  0.00  0.00     0.275 C 
ATOM      6  C   UNL d   1      -1.959   2.571   1.546  0.00  0.00     0.275 C 
ENDROOT
BRANCH   4   7
ATOM      7  N   UNL d   1      -4.869   1.908   0.029  0.00  0.00    -0.338 N 
ATOM      8  C   UNL d   1      -4.440   0.637  -0.119  0.00  0.00     0.321 C 
ATOM      9  N   UNL d   1      -5.344  -0.346  -0.369  0.00  0.00    -0.306 N 
ATOM     10  O   UNL d   1      -3.272   0.278   0.030  0.00  0.00    -0.247 OA
ATOM     11  H   UNL d   1      -4.870  -1.240  -0.300  0.00  0.00     0.171 HD
ATOM     12  H   UNL d   1      -5.807   2.085  -0.293  0.00  0.00     0.164 HD
BRANCH   9  13
ATOM     13  C   UNL d   1      -6.737  -0.394  -0.559  0.00  0.00     0.075 A 
ATOM     14  C   UNL d   1      -7.570   0.682  -0.891  0.00  0.00     0.146 A 
ATOM     15  C   UNL d   1      -8.953   0.545  -0.947  0.00  0.00     0.086 A 
ATOM     16  F   UNL d   1      -7.065   1.884  -1.206  0.00  0.00    -0.204 F 
ATOM     17  C   UNL d   1      -9.518  -0.693  -0.694  0.00  0.00     0.119 A 
ATOM     18  C   UNL d   1      -8.721  -1.800  -0.435  0.00  0.00     0.044 A 
ATOM     19  F   UNL d   1     -10.850  -0.825  -0.701  0.00  0.00    -0.206 F 
ATOM     20  C   UNL d   1      -7.332  -1.653  -0.384  0.00  0.00     0.036 A 
ENDBRANCH   9  13
ENDBRANCH   4   7
BRANCH   1  21
ATOM     21  C   UNL d   1       0.096   2.074   0.443  0.00  0.00     0.315 C 
BRANCH  21  22
ATOM     22  C   UNL d   1       1.174   2.442  -0.548  0.00  0.00     0.030 A 
ATOM     23  C   UNL d   1       1.897   3.640  -0.482  0.00  0.00     0.045 A 
ATOM     24 CL   UNL d   1       1.630   4.810   0.761  0.00  0.00    -0.084 Cl
ATOM     25  C   UNL d   1       2.894   3.923  -1.426  0.00  0.00     0.024 A 
ATOM     26  C   UNL d   1       3.189   3.014  -2.441  0.00  0.00     0.005 A 
ATOM     27  C   UNL d   1       2.486   1.817  -2.513  0.00  0.00     0.043 A 
ATOM     28  C   UNL d   1       1.493   1.542  -1.575  0.00  0.00     0.126 A 
ATOM     29  F   UNL d   1       0.842   0.373  -1.672  0.00  0.00    -0.205 F 
ENDBRANCH  21  22
ENDBRANCH   1  21
TORSDOF 4
