REMARK  5 active torsions:
REMARK  status: ('A' for Active; 'I' for Inactive)
REMARK    1  A    between atoms: S_9  and  C_1 
REMARK    2  A    between atoms: C_11  and  N_5 
REMARK    3  A    between atoms: C_18  and  S_9 
REMARK    4  A    between atoms: C_13  and  C_14 
REMARK    5  A    between atoms: C_23  and  C_18 
ROOT
ATOM      1  C   UNL d   1      -0.252  -1.086  -0.011  0.00  0.00     0.091 A 
ATOM      2  C   UNL d   1       0.515   0.085   0.023  0.00  0.00     0.078 A 
ATOM      3  N   UNL d   1      -1.610  -1.057  -0.055  0.00  0.00    -0.348 N 
ATOM      4  HN  UNL d   1      -2.157  -1.918  -0.079  1.00  0.00     0.166 HD
ATOM      5  C   UNL d   1       1.946   0.077   0.056  0.00  0.00     0.102 C 
ATOM      6  N   UNL d   1       3.104   0.132   0.069  0.00  0.00    -0.191 NA
ATOM      7  C   UNL d   1      -2.211   0.160  -0.067  0.00  0.00     0.048 A 
ATOM      8  C   UNL d   1      -0.143   1.324   0.009  0.00  0.00     0.028 A 
ATOM      9  C   UNL d   1      -1.532   1.365  -0.036  0.00  0.00     0.032 A 
ENDROOT
BRANCH   1  10
ATOM     10  S   UNL d   1       0.507  -2.712   0.081  0.00  0.00    -0.106 SA
BRANCH  10  11
ATOM     11  C   UNL d   1      -0.733  -3.728  -0.783  0.00  0.00     0.119 C 
BRANCH  11  12
ATOM     12  C   UNL d   1      -0.394  -5.202  -0.771  0.00  0.00    -0.049 A 
ATOM     13  C   UNL d   1      -0.901  -6.040   0.235  0.00  0.00     0.008 A 
ATOM     14  C   UNL d   1      -0.641  -7.412   0.220  0.00  0.00     0.001 A 
ATOM     15  C   UNL d   1       0.138  -7.965  -0.793  0.00  0.00     0.000 A 
ATOM     16  C   UNL d   1       0.670  -7.143  -1.784  0.00  0.00     0.001 A 
ATOM     17  C   UNL d   1       0.411  -5.769  -1.772  0.00  0.00     0.008 A 
ENDBRANCH  11  12
ENDBRANCH  10  11
ENDBRANCH   1  10
BRANCH   7  18
ATOM     18  C   UNL d   1      -3.687   0.132  -0.139  0.00  0.00     0.117 C 
ATOM     19  N   UNL d   1      -4.385   1.213  -0.297  0.00  0.00    -0.362 N 
ATOM     20  HN  UNL d   1      -3.921   2.120  -0.347  1.00  0.00     0.165 HD
BRANCH  19  21
ATOM     21  C   UNL d   1      -5.789   1.127  -0.401  0.00  0.00     0.054 A 
ATOM     22  C   UNL d   1      -6.617   2.105   0.188  0.00  0.00     0.062 A 
ATOM     23  C   UNL d   1      -8.007   2.062   0.041  0.00  0.00     0.050 A 
ATOM     24 CL   UNL d   1      -5.945   3.411   1.106  0.00  0.00    -0.082 Cl
ATOM     25  C   UNL d   1      -8.586   1.040  -0.703  0.00  0.00     0.035 A 
ATOM     26  C   UNL d   1      -7.792   0.071  -1.308  0.00  0.00     0.026 A 
ATOM     27 CL   UNL d   1     -10.294   0.977  -0.893  0.00  0.00    -0.084 Cl
ATOM     28  C   UNL d   1      -6.403   0.124  -1.167  0.00  0.00     0.033 A 
ENDBRANCH  19  21
ENDBRANCH   7  18
TORSDOF 5
