REMARK  6 active torsions:
REMARK  status: ('A' for Active; 'I' for Inactive)
REMARK    1  A    between atoms: C2_2  and  C1_1 
REMARK       I    between atoms: N_7  and  C2_2 
REMARK    2  A    between atoms: CA_8  and  N_7 
REMARK    3  A    between atoms: CA_8  and  C_9 
REMARK    4  A    between atoms: CB_10  and  CA_8 
REMARK    5  A    between atoms: OXT_12  and  C_9 
REMARK    6  A    between atoms: CG_13  and  CB_10 
ROOT
ATOM      1  CA  PHE d   1      -0.777   1.747   1.560  0.00  0.00     0.186 C 
ENDROOT
BRANCH   1   2
ATOM      2  N   PHE d   1      -0.052   0.547   1.977  0.00  0.00    -0.343 N 
ATOM      3  C2  <1> d   1      -0.657  -0.501   2.643  0.00  0.00     0.273 C 
ATOM      4  O1  <1> d   1      -1.876  -0.462   2.847  0.00  0.00    -0.269 OA
ATOM      5  H   PHE d   1       0.951   0.523   1.781  0.00  0.00     0.163 HD
BRANCH   3   6
ATOM      6  C1  <1> d   1       0.238  -1.681   3.111  0.00  0.00     0.269 C 
ATOM      7 Cl1  <1> d   1       1.960  -1.394   2.732  0.00  0.00    -0.073 Cl
ATOM      8 Cl2  <1> d   1      -0.313  -3.157   2.282  0.00  0.00    -0.073 Cl
ATOM      9 Cl3  <1> d   1       0.050  -1.848   4.877  0.00  0.00    -0.073 Cl
ENDBRANCH   3   6
ENDBRANCH   1   2
BRANCH   1  10
ATOM     10  C   PHE d   1       0.229   2.876   1.326  0.00  0.00     0.163 C 
ATOM     11  O   PHE d   1       1.437   2.700   1.217  0.00  0.00    -0.648 OA
BRANCH  10  12
ATOM     12  OXT PHE d   1      -0.322   4.111   1.275  0.00  0.00    -0.775 OA
ATOM     13  HXT PHE d   1      -1.286   4.144   1.432  0.00  0.00     0.167 HD
ENDBRANCH  10  12
ENDBRANCH   1  10
BRANCH   1  14
ATOM     14  CB  PHE d   1      -1.702   1.535   0.352  0.00  0.00     0.074 C 
BRANCH  14  15
ATOM     15  CG  PHE d   1      -1.054   0.965  -0.889  0.00  0.00    -0.056 A 
ATOM     16  CD1 PHE d   1      -1.140  -0.408  -1.160  0.00  0.00     0.007 A 
ATOM     17  CE1 PHE d   1      -0.590  -0.936  -2.330  0.00  0.00     0.001 A 
ATOM     18  CZ  PHE d   1       0.052  -0.100  -3.238  0.00  0.00     0.000 A 
ATOM     19  CE2 PHE d   1       0.154   1.265  -2.975  0.00  0.00     0.001 A 
ATOM     20  CD2 PHE d   1      -0.396   1.797  -1.806  0.00  0.00     0.007 A 
ENDBRANCH  14  15
ENDBRANCH   1  14
TORSDOF 6
