REMARK  3 active torsions:
REMARK  status: ('A' for Active; 'I' for Inactive)
REMARK    1  A    between atoms: N_9  and  C_1 
REMARK    2  A    between atoms: N_3  and  N_9 
REMARK    3  A    between atoms: C_13  and  N_5 
ROOT
ATOM      1  C   UNL d   1      -0.917   1.159  -0.039  0.00  0.00     0.090 A 
ATOM      2  C   UNL d   1      -1.576   0.006  -0.184  0.00  0.00     0.133 A 
ATOM      3  C   UNL d   1      -0.895  -1.319  -0.202  0.00  0.00     0.291 A 
ATOM      4  N   UNL d   1       0.498  -1.291  -0.023  0.00  0.00    -0.220 N 
ATOM      5  N   UNL d   1       1.200  -0.120   0.184  0.00  0.00    -0.300 N 
ATOM      6  HN  UNL d   1       2.204  -0.133   0.360  1.00  0.00     0.186 HD
ATOM      7  C   UNL d   1       0.544   0.994   0.147  0.00  0.00     0.140 A 
ATOM      8  O   UNL d   1      -1.587  -2.332  -0.321  0.00  0.00    -0.264 OA
ATOM      9 CL   UNL d   1      -3.311  -0.015  -0.303  0.00  0.00    -0.076 Cl
ENDROOT
BRANCH   1  10
ATOM     10  N   UNL d   1      -1.473   2.437   0.045  0.00  0.00    -0.305 N 
ATOM     11  C   UNL d   1      -1.609   3.103   1.341  0.00  0.00     0.172 C 
BRANCH  10  12
ATOM     12  N   UNL d   1      -1.485   3.345  -1.038  0.00  0.00    -0.161 NA
ATOM     13  C   UNL d   1      -0.731   3.140  -2.171  0.00  0.00     0.227 C 
ATOM     14  O   UNL d   1       0.384   2.707  -2.342  0.00  0.00    -0.277 OA
ATOM     15  C   UNL d   1      -1.898   3.645  -3.068  0.00  0.00     0.044 C 
ATOM     16  C   UNL d   1      -2.755   3.444  -1.786  0.00  0.00     0.141 C 
ATOM     17  C   UNL d   1      -1.756   5.094  -3.524  0.00  0.00     0.026 C 
ATOM     18  C   UNL d   1      -2.265   2.712  -4.214  0.00  0.00     0.026 C 
ENDBRANCH  10  12
ENDBRANCH   1  10
BRANCH   4  19
ATOM     19  C   UNL d   1       1.307  -2.483   0.015  0.00  0.00     0.060 A 
ATOM     20  C   UNL d   1       0.861  -3.705  -0.507  0.00  0.00     0.032 A 
ATOM     21  C   UNL d   1       1.619  -4.875  -0.385  0.00  0.00     0.009 A 
ATOM     22  C   UNL d   1       2.855  -4.856   0.262  0.00  0.00    -0.062 A 
ATOM     23  C   UNL d   1       3.343  -3.636   0.737  0.00  0.00     0.009 A 
ATOM     24  C   UNL d   1       3.614  -6.135   0.450  0.00  0.00     0.048 C 
ATOM     25  C   UNL d   1       2.583  -2.464   0.602  0.00  0.00     0.032 A 
ENDBRANCH   4  19
TORSDOF 3
