REMARK  7 active torsions:
REMARK  status: ('A' for Active; 'I' for Inactive)
REMARK    1  A    between atoms: C_2  and  C_1 
REMARK    2  A    between atoms: C_23  and  N_3 
REMARK    3  A    between atoms: S_15  and  C_9 
REMARK    4  A    between atoms: C_14  and  C_21 
REMARK       I    between atoms: N_16  and  C_14 
REMARK    5  A    between atoms: C_21  and  S_15 
REMARK    6  A    between atoms: C_22  and  N_16 
REMARK    7  A    between atoms: C_24  and  C_17 
ROOT
ATOM      1  C   UNL d   1      -0.048  -3.027   0.027  0.00  0.00     0.193 A 
ATOM      2  O   UNL d   1      -0.224  -4.284  -0.501  0.00  0.00    -0.266 OA
ATOM      3  N   UNL d   1      -0.734  -2.118  -0.638  0.00  0.00    -0.275 N 
ATOM      4  HN  UNL d   1      -0.753  -1.115  -0.454  1.00  0.00     0.189 HD
ATOM      5  C   UNL d   1      -1.105  -4.062  -1.520  0.00  0.00     0.204 A 
ATOM      6  N   UNL d   1      -1.422  -2.789  -1.632  0.00  0.00    -0.272 N 
ATOM      7  HN  UNL d   1      -2.053  -2.377  -2.319  1.00  0.00     0.189 HD
ENDROOT
BRANCH   5   8
ATOM      8  S   UNL d   1      -1.748  -5.357  -2.494  0.00  0.00    -0.075 SA
BRANCH   8   9
ATOM      9  C   UNL d   1      -3.153  -4.490  -3.224  0.00  0.00     0.186 C 
BRANCH   9  10
ATOM     10  C   UNL d   1      -4.063  -5.314  -4.117  0.00  0.00     0.231 C 
ATOM     11  N   UNL d   1      -3.790  -6.662  -4.255  0.00  0.00    -0.327 N 
ATOM     12  H   UNL d   1      -3.091  -7.054  -3.633  0.00  0.00     0.169 HD
ATOM     13  O   UNL d   1      -5.003  -4.726  -4.663  0.00  0.00    -0.272 OA
BRANCH  11  14
ATOM     14  C   UNL d   1      -4.378  -7.544  -5.196  0.00  0.00     0.034 A 
ATOM     15  C   UNL d   1      -5.213  -7.114  -6.227  0.00  0.00     0.030 A 
ATOM     16  C   UNL d   1      -5.684  -8.005  -7.195  0.00  0.00     0.010 A 
ATOM     17  C   UNL d   1      -5.336  -9.359  -7.159  0.00  0.00    -0.055 A 
ATOM     18  C   UNL d   1      -4.539  -9.805  -6.095  0.00  0.00     0.010 A 
ATOM     19  C   UNL d   1      -4.061  -8.907  -5.126  0.00  0.00     0.030 A 
BRANCH  17  20
ATOM     20  C   UNL d   1      -5.749 -10.302  -8.276  0.00  0.00     0.010 C 
ATOM     21  C   UNL d   1      -7.269 -10.393  -8.437  0.00  0.00     0.015 C 
ATOM     22  C   UNL d   1      -5.096  -9.882  -9.599  0.00  0.00     0.015 C 
ENDBRANCH  17  20
ENDBRANCH  11  14
ENDBRANCH   9  10
ENDBRANCH   8   9
ENDBRANCH   5   8
BRANCH   1  23
ATOM     23  C   UNL d   1       0.706  -2.804   1.213  0.00  0.00     0.105 A 
ATOM     24  N   UNL d   1       1.199  -1.613   1.680  0.00  0.00    -0.288 N 
ATOM     25  N   UNL d   1       1.803  -1.732   2.887  0.00  0.00    -0.303 N 
ATOM     26  C   UNL d   1       1.703  -3.031   3.184  0.00  0.00     0.024 A 
ATOM     27  HN  UNL d   1       2.237  -0.995   3.444  1.00  0.00     0.186 HD
ATOM     28  C   UNL d   1       1.065  -3.747   2.155  0.00  0.00     0.061 A 
ATOM     29  C   UNL d   1       2.212  -3.559   4.471  0.00  0.00     0.070 C 
BRANCH  24  30
ATOM     30  C   UNL d   1       1.211  -0.306   1.046  0.00  0.00     0.145 C 
ATOM     31  C   UNL d   1       0.085   0.589   1.532  0.00  0.00     0.028 C 
ENDBRANCH  24  30
ENDBRANCH   1  23
TORSDOF 7
