REMARK  1 active torsions:
REMARK  status: ('A' for Active; 'I' for Inactive)
REMARK    1  A    between atoms: O_6  and  C_1 
ROOT
ATOM      1  C   UNL d   1       0.000   1.846   0.027  0.00  0.00     0.110 A 
ATOM      2  C   UNL d   1       1.183   0.886  -0.004  0.00  0.00    -0.009 A 
ATOM      3  C   UNL d   1      -1.182   0.886  -0.004  0.00  0.00    -0.009 A 
ATOM      4  C   UNL d   1       0.724  -0.450  -0.012  0.00  0.00    -0.016 A 
ATOM      5  C   UNL d   1      -0.724  -0.450  -0.012  0.00  0.00    -0.016 A 
ATOM      6  C   UNL d   1       0.000   2.733   1.267  0.00  0.00     0.056 C 
ATOM      7  C   UNL d   1      -2.537   1.184  -0.018  0.00  0.00     0.011 A 
ATOM      8  C   UNL d   1       2.538   1.184  -0.016  0.00  0.00     0.011 A 
ATOM      9  C   UNL d   1       1.627  -1.501  -0.018  0.00  0.00     0.013 A 
ATOM     10  C   UNL d   1      -1.625  -1.500  -0.018  0.00  0.00     0.013 A 
ATOM     11  C   UNL d   1      -2.993  -1.207  -0.018  0.00  0.00     0.001 A 
ATOM     12  C   UNL d   1       2.994  -1.206  -0.018  0.00  0.00     0.001 A 
ATOM     13  C   UNL d   1      -3.444   0.123  -0.022  0.00  0.00     0.001 A 
ATOM     14  C   UNL d   1       3.445   0.124  -0.020  0.00  0.00     0.001 A 
ENDROOT
BRANCH   1  15
ATOM     15  O   UNL d   1       0.000   2.652  -1.143  0.00  0.00    -0.380 OA
ATOM     16  H   UNL d   1       0.001   2.035  -1.895  0.00  0.00     0.211 HD
ENDBRANCH   1  15
TORSDOF 1
