REMARK  5 active torsions:
REMARK  status: ('A' for Active; 'I' for Inactive)
REMARK    1  A    between atoms: C_4  and  C_1 
REMARK    2  A    between atoms: N_3  and  C_2 
REMARK       I    between atoms: N_5  and  C_4 
REMARK    3  A    between atoms: C_7  and  N_5 
REMARK    4  A    between atoms: N_10  and  C_7 
REMARK    5  A    between atoms: C_11  and  N_10 
ROOT
ATOM      1  C   UNL d   1       3.510  -3.525   0.724  0.00  0.00     0.258 C 
ATOM      2  N   UNL d   1       2.225  -3.103   0.413  0.00  0.00    -0.299 N 
ATOM      3  O   UNL d   1       4.459  -3.063   0.092  0.00  0.00    -0.267 OA
ATOM      4  H   UNL d   1       2.272  -2.220  -0.071  0.00  0.00     0.171 HD
ENDROOT
BRANCH   2   5
ATOM      5  C   UNL d   1       1.106  -3.844   0.051  0.00  0.00     0.179 C 
ATOM      6  S   UNL d   1       0.974  -5.509  -0.019  0.00  0.00    -0.040 SA
BRANCH   5   7
ATOM      7  N   UNL d   1      -0.041  -3.102  -0.095  0.00  0.00    -0.332 N 
ATOM      8  H   UNL d   1      -0.899  -3.577   0.183  0.00  0.00     0.168 HD
BRANCH   7   9
ATOM      9  C   UNL d   1      -0.253  -1.915  -0.834  0.00  0.00     0.056 A 
ATOM     10  C   UNL d   1      -1.433  -1.180  -0.620  0.00  0.00     0.060 A 
ATOM     11 CL   UNL d   1      -2.539  -1.613   0.638  0.00  0.00    -0.082 Cl
ATOM     12  C   UNL d   1      -1.736  -0.067  -1.409  0.00  0.00     0.026 A 
ATOM     13  C   UNL d   1      -0.875   0.305  -2.440  0.00  0.00     0.002 A 
ATOM     14  C   UNL d   1       0.291  -0.424  -2.669  0.00  0.00     0.002 A 
ATOM     15  C   UNL d   1       0.608  -1.526  -1.866  0.00  0.00     0.031 A 
ENDBRANCH   7   9
ENDBRANCH   5   7
ENDBRANCH   2   5
BRANCH   1  16
ATOM     16  C   UNL d   1       3.714  -4.434   1.860  0.00  0.00     0.041 A 
ATOM     17  C   UNL d   1       4.988  -5.024   2.201  0.00  0.00     0.061 A 
ATOM     18  C   UNL d   1       4.923  -5.814   3.329  0.00  0.00     0.144 A 
ATOM     19  S   UNL d   1       3.366  -5.867   3.995  0.00  0.00    -0.077 SA
ATOM     20  C   UNL d   1       2.766  -4.789   2.809  0.00  0.00     0.069 A 
BRANCH  18  21
ATOM     21  N   UNL d   1       6.009  -6.535   3.946  0.00  0.00    -0.108 N 
ATOM     22  O   UNL d   1       7.115  -6.432   3.395  0.00  0.00    -0.531 OA
ATOM     23  O   UNL d   1       5.773  -7.190   4.967  0.00  0.00    -0.531 OA
ENDBRANCH  18  21
ENDBRANCH   1  16
TORSDOF 5
