REMARK  6 active torsions:
REMARK  status: ('A' for Active; 'I' for Inactive)
REMARK    1  A    between atoms: C_4  and  C_1 
REMARK    2  A    between atoms: C_5  and  C_2 
REMARK    3  A    between atoms: O_21  and  C_5 
REMARK    4  A    between atoms: C_9  and  C_19 
REMARK    5  A    between atoms: S_13  and  C_11 
REMARK    6  A    between atoms: C_19  and  S_13 
ROOT
ATOM      1  C   UNL d   1      -0.075   1.048   0.855  0.00  0.00     0.063 A 
ATOM      2  N   UNL d   1      -0.954   2.821   2.256  0.00  0.00    -0.360 N 
ATOM      3  HN  UNL d   1      -1.559   3.118   3.021  1.00  0.00     0.166 HD
ATOM      4  C   UNL d   1      -0.196   3.708   1.576  0.00  0.00     0.069 A 
ATOM      5  C   UNL d   1      -0.878   1.519   1.883  0.00  0.00     0.105 A 
ATOM      6  C   UNL d   1       0.713   1.982   0.179  0.00  0.00     0.020 A 
ATOM      7  C   UNL d   1       0.652   3.326   0.542  0.00  0.00     0.038 A 
ENDROOT
BRANCH   4   8
ATOM      8  S   UNL d   1      -0.288   5.434   2.001  0.00  0.00    -0.106 SA
BRANCH   8   9
ATOM      9  C   UNL d   1      -1.516   5.396   3.352  0.00  0.00     0.145 C 
BRANCH   9  10
ATOM     10  C   UNL d   1      -1.712   6.770   3.897  0.00  0.00     0.063 A 
ATOM     11  O   UNL d   1      -2.975   7.289   3.838  0.00  0.00    -0.308 OA
ATOM     12  C   UNL d   1      -2.928   8.552   4.372  0.00  0.00     0.150 A 
ATOM     13  C   UNL d   1      -1.634   8.828   4.776  0.00  0.00     0.046 A 
ATOM     14  C   UNL d   1      -0.858   7.683   4.484  0.00  0.00     0.036 A 
BRANCH  12  15
ATOM     15  C   UNL d   1      -4.114   9.375   4.443  0.00  0.00     0.316 C 
ATOM     16  O   UNL d   1      -4.151  10.515   4.892  0.00  0.00    -0.257 OA
BRANCH  15  17
ATOM     17  O   UNL d   1      -5.197   8.711   3.944  0.00  0.00    -0.321 OA
ATOM     18  C   UNL d   1      -6.406   9.470   3.981  0.00  0.00     0.213 C 
ENDBRANCH  15  17
ENDBRANCH  12  15
ENDBRANCH   9  10
ENDBRANCH   8   9
ENDBRANCH   4   8
BRANCH   1  19
ATOM     19  C   UNL d   1      -0.066  -0.402   0.481  0.00  0.00     0.418 C 
ATOM     20  F   UNL d   1      -0.896  -1.168   1.242  0.00  0.00    -0.166 F 
ATOM     21  F   UNL d   1       1.169  -0.963   0.594  0.00  0.00    -0.166 F 
ATOM     22  F   UNL d   1      -0.451  -0.606  -0.810  0.00  0.00    -0.166 F 
ENDBRANCH   1  19
TORSDOF 6
