REMARK  9 active torsions:
REMARK  status: ('A' for Active; 'I' for Inactive)
REMARK    1  A    between atoms: C_7  and  C_1 
REMARK    2  A    between atoms: C_16  and  N_2 
REMARK    3  A    between atoms: C_19  and  C_3 
REMARK    4  A    between atoms: C_12  and  C_6 
REMARK       I    between atoms: N_10  and  C_7 
REMARK    5  A    between atoms: C_8  and  N_10 
REMARK    6  A    between atoms: O_20  and  C_12 
REMARK    7  A    between atoms: O_21  and  C_14 
REMARK    8  A    between atoms: O_22  and  C_15 
REMARK    9  A    between atoms: C_28  and  C_19 
ROOT
ATOM      1  C   UNL d   1      -0.573   2.472   0.660  0.00  0.00     0.259 C 
ATOM      2  N   UNL d   1       0.139   3.438  -0.022  0.00  0.00    -0.322 N 
ATOM      3  O   UNL d   1      -1.525   2.738   1.388  0.00  0.00    -0.267 OA
ATOM      4  H   UNL d   1       0.538   3.150  -0.912  0.00  0.00     0.169 HD
ENDROOT
BRANCH   1   5
ATOM      5  C   UNL d   1      -0.197   1.066   0.456  0.00  0.00     0.073 A 
ATOM      6  C   UNL d   1       0.969   0.411   0.040  0.00  0.00     0.051 A 
ATOM      7  N   UNL d   1       0.727  -0.965   0.238  0.00  0.00    -0.260 N 
ATOM      8  N   UNL d   1      -0.485  -1.172   0.802  0.00  0.00    -0.304 N 
ATOM      9  C   UNL d   1      -1.052   0.026   0.856  0.00  0.00     0.126 A 
ATOM     10  HN  UNL d   1      -0.878  -2.058   1.119  1.00  0.00     0.186 HD
BRANCH   6  11
ATOM     11  C   UNL d   1       2.325   0.972  -0.296  0.00  0.00     0.060 C 
BRANCH  11  12
ATOM     12  C   UNL d   1       2.502   1.314  -1.775  0.00  0.00     0.002 C 
ATOM     13  C   UNL d   1       3.912   1.803  -2.071  0.00  0.00     0.005 C 
ENDBRANCH  11  12
ENDBRANCH   6  11
BRANCH   7  14
ATOM     14  C   UNL d   1       1.481  -2.139  -0.079  0.00  0.00     0.056 A 
ATOM     15  C   UNL d   1       1.247  -3.307   0.674  0.00  0.00     0.031 A 
ATOM     16  C   UNL d   1       1.801  -4.531   0.293  0.00  0.00     0.002 A 
ATOM     17  C   UNL d   1       2.580  -4.610  -0.855  0.00  0.00     0.000 A 
ATOM     18  C   UNL d   1       2.846  -3.456  -1.589  0.00  0.00     0.002 A 
ATOM     19  C   UNL d   1       2.317  -2.221  -1.192  0.00  0.00     0.031 A 
ENDBRANCH   7  14
ENDBRANCH   1   5
BRANCH   2  20
ATOM     20  C   UNL d   1       0.018   4.844   0.197  0.00  0.00     0.054 A 
ATOM     21  C   UNL d   1       0.289   5.760  -0.841  0.00  0.00     0.069 A 
ATOM     22  C   UNL d   1       0.238   7.137  -0.578  0.00  0.00     0.059 A 
ATOM     23  C   UNL d   1      -0.017   7.620   0.706  0.00  0.00     0.102 A 
ATOM     24  C   UNL d   1      -0.329   6.730   1.741  0.00  0.00     0.103 A 
ATOM     25  C   UNL d   1      -0.308   5.351   1.476  0.00  0.00     0.070 A 
BRANCH  21  26
ATOM     26  C   UNL d   1       0.603   5.292  -2.222  0.00  0.00     0.295 C 
ATOM     27  O   UNL d   1       0.604   4.117  -2.553  0.00  0.00    -0.259 OA
BRANCH  26  28
ATOM     28  O   UNL d   1       0.909   6.338  -3.026  0.00  0.00    -0.322 OA
ATOM     29  C   UNL d   1       1.259   5.995  -4.367  0.00  0.00     0.213 C 
ENDBRANCH  26  28
ENDBRANCH  21  26
BRANCH  23  30
ATOM     30  O   UNL d   1       0.025   8.987   0.804  0.00  0.00    -0.353 OA
ATOM     31  C   UNL d   1       0.675   9.492   1.968  0.00  0.00     0.210 C 
ENDBRANCH  23  30
BRANCH  24  32
ATOM     32  O   UNL d   1      -0.619   7.287   2.957  0.00  0.00    -0.353 OA
ATOM     33  C   UNL d   1      -1.174   6.463   3.971  0.00  0.00     0.210 C 
ENDBRANCH  24  32
ENDBRANCH   2  20
TORSDOF 9
