REMARK  4 active torsions:
REMARK  status: ('A' for Active; 'I' for Inactive)
REMARK    1  A    between atoms: C_14  and  N_4 
REMARK    2  A    between atoms: S_16  and  C_10 
REMARK    3  A    between atoms: C_15  and  C_13 
REMARK    4  A    between atoms: C_18  and  C_14 
ROOT
ATOM      1  C   UNL d   1      -0.591  -1.191   0.213  0.00  0.00     0.098 A 
ATOM      2  C   UNL d   1      -1.073  -2.531   0.253  0.00  0.00     0.152 A 
ATOM      3  N   UNL d   1      -2.226  -2.966   0.868  0.00  0.00    -0.314 N 
ATOM      4  N   UNL d   1       0.725  -0.786   0.172  0.00  0.00    -0.284 N 
ATOM      5  N   UNL d   1      -0.519  -3.553  -0.372  0.00  0.00    -0.281 N 
ATOM      6  HN  UNL d   1       0.363  -3.533  -0.884  1.00  0.00     0.188 HD
ATOM      7  N   UNL d   1       0.858   0.568   0.172  0.00  0.00    -0.301 N 
ATOM      8  HN  UNL d   1       1.723   1.107   0.207  1.00  0.00     0.187 HD
ATOM      9  C   UNL d   1      -1.325  -0.025   0.141  0.00  0.00     0.062 A 
ATOM     10  C   UNL d   1      -2.367  -4.279   0.507  0.00  0.00     0.162 A 
ATOM     11  N   UNL d   1      -1.338  -4.652  -0.216  0.00  0.00    -0.278 N 
ATOM     12  HN  UNL d   1      -1.173  -5.585  -0.594  1.00  0.00     0.189 HD
ATOM     13  C   UNL d   1      -0.394   1.036   0.117  0.00  0.00     0.036 A 
ATOM     14  C   UNL d   1      -3.108  -2.228   1.733  0.00  0.00     0.160 C 
ENDROOT
BRANCH   4  15
ATOM     15  C   UNL d   1       1.929  -1.590  -0.020  0.00  0.00     0.187 C 
BRANCH  15  16
ATOM     16  C   UNL d   1       2.317  -2.464   1.153  0.00  0.00    -0.038 A 
ATOM     17  C   UNL d   1       2.521  -3.840   0.948  0.00  0.00     0.012 A 
ATOM     18  C   UNL d   1       3.002  -4.653   1.973  0.00  0.00     0.043 A 
ATOM     19  C   UNL d   1       3.282  -4.093   3.214  0.00  0.00     0.116 A 
ATOM     20  C   UNL d   1       3.076  -2.736   3.448  0.00  0.00     0.043 A 
ATOM     21  F   UNL d   1       3.770  -4.866   4.191  0.00  0.00    -0.206 F 
ATOM     22  C   UNL d   1       2.594  -1.922   2.418  0.00  0.00     0.012 A 
ENDBRANCH  15  16
ENDBRANCH   4  15
BRANCH  13  23
ATOM     23  C   UNL d   1      -0.717   2.519   0.049  0.00  0.00    -0.007 C 
ATOM     24  C   UNL d   1      -1.403   2.955   1.359  0.00  0.00     0.021 C 
ATOM     25  C   UNL d   1       0.540   3.386  -0.156  0.00  0.00     0.021 C 
ATOM     26  C   UNL d   1      -1.679   2.797  -1.127  0.00  0.00     0.021 C 
ENDBRANCH  13  23
BRANCH  10  27
ATOM     27  S   UNL d   1      -3.749  -5.222   0.950  0.00  0.00    -0.097 SA
ATOM     28  C   UNL d   1      -3.363  -6.817   0.208  0.00  0.00     0.099 C 
ENDBRANCH  10  27
TORSDOF 4
