REMARK  6 active torsions:
REMARK  status: ('A' for Active; 'I' for Inactive)
REMARK    1  A    between atoms: C_2  and  C_1 
REMARK       I    between atoms: N_7  and  C_2 
REMARK    2  A    between atoms: O_15  and  C_3 
REMARK       I    between atoms: C_5  and  N_8 
REMARK    3  A    between atoms: C_13  and  C_5 
REMARK    4  A    between atoms: N_8  and  N_7 
REMARK    5  A    between atoms: C_9  and  C_14 
REMARK    6  A    between atoms: C_22  and  O_15 
ROOT
ATOM      1  C   UNL d   1      -0.152   1.172   0.037  0.00  0.00     0.147 A 
ATOM      2  C   UNL d   1      -0.166  -1.037  -0.036  0.00  0.00     0.191 A 
ATOM      3  O   UNL d   1      -0.977   0.070   0.023  0.00  0.00    -0.282 OA
ATOM      4  C   UNL d   1       1.167   0.754   0.026  0.00  0.00     0.048 A 
ATOM      5  C   UNL d   1       1.158  -0.655   0.009  0.00  0.00     0.067 A 
ENDROOT
BRANCH   1   6
ATOM      6  C   UNL d   1      -0.666   2.529   0.045  0.00  0.00     0.293 C 
ATOM      7  N   UNL d   1      -2.038   2.691   0.118  0.00  0.00    -0.261 N 
ATOM      8  H   UNL d   1      -2.692   1.916   0.215  0.00  0.00     0.190 HD
ATOM      9  O   UNL d   1       0.069   3.518  -0.007  0.00  0.00    -0.264 OA
BRANCH   7  10
ATOM     10  N   UNL d   1      -2.548   4.008   0.212  0.00  0.00    -0.263 N 
ATOM     11  C   UNL d   1      -3.912   4.194   0.290  0.00  0.00     0.270 C 
ATOM     12  O   UNL d   1      -4.708   3.256   0.285  0.00  0.00    -0.266 OA
ATOM     13  H   UNL d   1      -1.882   4.757   0.037  0.00  0.00     0.190 HD
BRANCH  11  14
ATOM     14  C   UNL d   1      -4.407   5.601   0.363  0.00  0.00     0.033 A 
ATOM     15  C   UNL d   1      -5.687   5.876  -0.142  0.00  0.00     0.019 A 
ATOM     16  C   UNL d   1      -6.228   7.164  -0.044  0.00  0.00     0.025 A 
ATOM     17  C   UNL d   1      -5.496   8.173   0.574  0.00  0.00     0.034 A 
ATOM     18  C   UNL d   1      -4.223   7.912   1.083  0.00  0.00     0.025 A 
ATOM     19 CL   UNL d   1      -6.176   9.747   0.732  0.00  0.00    -0.084 Cl
ATOM     20  C   UNL d   1      -3.674   6.625   0.977  0.00  0.00     0.019 A 
ENDBRANCH  11  14
ENDBRANCH   7  10
ENDBRANCH   1   6
BRANCH   2  21
ATOM     21  O   UNL d   1      -0.805  -2.206  -0.122  0.00  0.00    -0.288 OA
BRANCH  21  22
ATOM     22  C   UNL d   1      -0.206  -3.296  -0.725  0.00  0.00     0.078 A 
ATOM     23  C   UNL d   1      -0.499  -4.564  -0.220  0.00  0.00     0.038 A 
ATOM     24  C   UNL d   1      -0.011  -5.713  -0.863  0.00  0.00     0.012 A 
ATOM     25  C   UNL d   1       0.773  -5.615  -2.027  0.00  0.00    -0.035 A 
ATOM     26  C   UNL d   1       1.084  -4.331  -2.504  0.00  0.00     0.012 A 
ATOM     27  C   UNL d   1       0.584  -3.187  -1.872  0.00  0.00     0.038 A 
BRANCH  25  28
ATOM     28  C   UNL d   1       1.175  -6.868  -2.784  0.00  0.00     0.141 C 
ATOM     29  S   UNL d   1       2.969  -7.032  -3.049  0.00  0.00    -0.148 SA
ATOM     30  C   UNL d   1       2.842  -7.869  -4.651  0.00  0.00     0.085 C 
ATOM     31  C   UNL d   1       1.783  -7.131  -5.443  0.00  0.00     0.085 C 
ATOM     32  S   UNL d   1       0.309  -6.981  -4.397  0.00  0.00    -0.148 SA
ENDBRANCH  25  28
ENDBRANCH  21  22
ENDBRANCH   2  21
TORSDOF 6
