REMARK  6 active torsions:
REMARK  status: ('A' for Active; 'I' for Inactive)
REMARK    1  A    between atoms: O_4  and  C_1 
REMARK    2  A    between atoms: C_3  and  C_2 
REMARK       I    between atoms: N_5  and  C_3 
REMARK    3  A    between atoms: C_12  and  O_4 
REMARK    4  A    between atoms: C_11  and  N_5 
REMARK    5  A    between atoms: C_8  and  C_11 
REMARK    6  A    between atoms: O_13  and  C_8 
ROOT
ATOM      1  C   UNL d   1      -0.235   0.468  -0.292  0.00  0.00     0.163 A 
ATOM      2  C   UNL d   1       1.056   0.818   0.093  0.00  0.00     0.083 A 
ATOM      3  N   UNL d   1      -0.638  -0.828  -0.391  0.00  0.00    -0.346 N 
ATOM      4  HN  UNL d   1      -1.586  -1.064  -0.685  1.00  0.00     0.167 HD
ATOM      5  C   UNL d   1       1.962  -0.201   0.411  0.00  0.00     0.023 A 
ATOM      6  C   UNL d   1       0.258  -1.789  -0.086  0.00  0.00     0.090 A 
ATOM      7  C   UNL d   1       1.558  -1.529   0.311  0.00  0.00     0.018 A 
ENDROOT
BRANCH   2   8
ATOM      8  C   UNL d   1       1.459   2.221   0.266  0.00  0.00     0.256 C 
ATOM      9  N   UNL d   1       2.538   2.714  -0.422  0.00  0.00    -0.347 N 
ATOM     10  H   UNL d   1       2.782   3.660  -0.154  0.00  0.00     0.163 HD
ATOM     11  O   UNL d   1       0.862   2.933   1.067  0.00  0.00    -0.268 OA
BRANCH   9  12
ATOM     12  C   UNL d   1       3.265   2.125  -1.544  0.00  0.00     0.233 C 
BRANCH  12  13
ATOM     13  C   UNL d   1       4.712   1.708  -1.275  0.00  0.00     0.276 C 
ATOM     14  O   UNL d   1       5.427   1.198  -2.129  0.00  0.00    -0.263 OA
BRANCH  13  15
ATOM     15  O   UNL d   1       5.107   1.984  -0.002  0.00  0.00    -0.325 OA
ATOM     16  C   UNL d   1       6.471   1.651   0.271  0.00  0.00     0.213 C 
ENDBRANCH  13  15
ENDBRANCH  12  13
ENDBRANCH   9  12
ENDBRANCH   2   8
BRANCH   1  17
ATOM     17  O   UNL d   1      -1.132   1.487  -0.603  0.00  0.00    -0.293 OA
BRANCH  17  18
ATOM     18  C   UNL d   1      -2.365   1.114  -1.085  0.00  0.00     0.077 A 
ATOM     19  C   UNL d   1      -3.493   1.438  -0.332  0.00  0.00     0.038 A 
ATOM     20  C   UNL d   1      -4.764   1.091  -0.799  0.00  0.00     0.009 A 
ATOM     21  C   UNL d   1      -4.915   0.435  -2.029  0.00  0.00    -0.062 A 
ATOM     22  C   UNL d   1      -3.777   0.145  -2.792  0.00  0.00     0.009 A 
ATOM     23  C   UNL d   1      -6.280   0.026  -2.499  0.00  0.00     0.048 C 
ATOM     24  C   UNL d   1      -2.506   0.496  -2.330  0.00  0.00     0.038 A 
ENDBRANCH  17  18
ENDBRANCH   1  17
TORSDOF 6
