REMARK  2 active torsions:
REMARK  status: ('A' for Active; 'I' for Inactive)
REMARK    1  A    between atoms: N_5  and  C_2 
REMARK    2  A    between atoms: N_10  and  C_9 
ROOT
ATOM      1  C   UNL d   1      -0.306  -1.348   0.014  0.00  0.00     0.015 A 
ATOM      2  C   UNL d   1       0.968  -0.732   0.054  0.00  0.00     0.135 A 
ATOM      3  N   UNL d   1       0.882   0.604   0.044  0.00  0.00    -0.244 N 
ATOM      4  HN  UNL d   1       1.653   1.271   0.036  1.00  0.00     0.196 HD
ATOM      5  O   UNL d   1      -0.469   0.891   0.046  0.00  0.00    -0.240 OA
ATOM      6  C   UNL d   1      -1.171  -0.274   0.022  0.00  0.00     0.082 A 
ATOM      7  C   UNL d   1      -0.694  -2.775  -0.035  0.00  0.00     0.055 C 
ATOM      8  C   UNL d   1      -2.641  -0.144   0.003  0.00  0.00     0.079 C 
ENDROOT
BRANCH   2   9
ATOM      9  N   UNL d   1       2.194  -1.419   0.014  0.00  0.00    -0.337 N 
ATOM     10  C   UNL d   1       3.169  -0.751   0.544  0.00  0.00     0.179 C 
ATOM     11  HN  UNL d   1       2.304  -2.349  -0.391  1.00  0.00     0.168 HD
BRANCH  10  12
ATOM     12  N   UNL d   1       4.502  -1.115   0.608  0.00  0.00    -0.386 N 
ATOM     13  C   UNL d   1       5.017  -2.276  -0.095  0.00  0.00     0.149 C 
ATOM     14  C   UNL d   1       5.501  -0.253   1.220  0.00  0.00     0.149 C 
ENDBRANCH  10  12
ENDBRANCH   2   9
TORSDOF 2
