REMARK  5 active torsions:
REMARK  status: ('A' for Active; 'I' for Inactive)
REMARK    1  A    between atoms: N_2  and  C_1 
REMARK    2  A    between atoms: N_3  and  C_6 
REMARK       I    between atoms: C_5  and  N_9 
REMARK    3  A    between atoms: C_7  and  C_5 
REMARK    4  A    between atoms: O_12  and  C_8 
REMARK    5  A    between atoms: N_9  and  O_12 
ROOT
ATOM      1  C   UNL d   1       1.425  -0.223   0.167  0.00  0.00     0.141 A 
ATOM      2  C   UNL d   1       0.525  -1.300   0.169  0.00  0.00     0.075 A 
ATOM      3  C   UNL d   1      -0.841  -1.028   0.040  0.00  0.00     0.105 A 
ATOM      4  C   UNL d   1       1.001   1.103   0.014  0.00  0.00     0.132 A 
ATOM      5  C   UNL d   1      -1.296   0.294  -0.061  0.00  0.00     0.039 A 
ATOM      6  C   UNL d   1      -0.377   1.351  -0.066  0.00  0.00     0.044 A 
ENDROOT
BRANCH   4   7
ATOM      7  O   UNL d   1       1.938   2.114  -0.019  0.00  0.00    -0.233 OA
BRANCH   7   8
ATOM      8  N   UNL d   1       1.480   3.188  -0.809  0.00  0.00    -0.224 N 
ATOM      9  C   UNL d   1       1.626   4.458  -0.298  0.00  0.00     0.282 C 
ATOM     10  O   UNL d   1       2.084   4.675   0.821  0.00  0.00    -0.265 OA
ATOM     11  H   UNL d   1       1.443   3.040  -1.810  0.00  0.00     0.198 HD
BRANCH   9  12
ATOM     12  C   UNL d   1       1.174   5.530  -1.184  0.00  0.00     0.074 A 
ATOM     13  S   UNL d   1       0.291   5.213  -2.624  0.00  0.00    -0.097 SA
ATOM     14  C   UNL d   1       0.092   6.876  -2.958  0.00  0.00     0.050 A 
ATOM     15  C   UNL d   1       0.703   7.668  -2.013  0.00  0.00     0.009 A 
ATOM     16  C   UNL d   1       1.325   6.893  -0.991  0.00  0.00     0.025 A 
ENDBRANCH   9  12
ENDBRANCH   7   8
ENDBRANCH   4   7
BRANCH   1  17
ATOM     17  N   UNL d   1       2.832  -0.525   0.338  0.00  0.00    -0.113 N 
ATOM     18  O   UNL d   1       3.147  -1.148   1.359  0.00  0.00    -0.532 OA
ATOM     19  O   UNL d   1       3.598  -0.196  -0.577  0.00  0.00    -0.532 OA
ENDBRANCH   1  17
BRANCH   3  20
ATOM     20  N   UNL d   1      -1.809  -2.133   0.010  0.00  0.00    -0.116 N 
ATOM     21  O   UNL d   1      -1.362  -3.286   0.074  0.00  0.00    -0.532 OA
ATOM     22  O   UNL d   1      -3.009  -1.843  -0.090  0.00  0.00    -0.532 OA
ENDBRANCH   3  20
TORSDOF 5
