REMARK  4 active torsions:
REMARK  status: ('A' for Active; 'I' for Inactive)
REMARK    1  A    between atoms: C_4  and  N_1 
REMARK    2  A    between atoms: C_18  and  C_2 
REMARK    3  A    between atoms: C_10  and  C_3 
REMARK       I    between atoms: N_15  and  C_10 
REMARK    4  A    between atoms: O_20  and  C_18 
ROOT
ATOM      1  N   UNL d   1       0.957  -0.576   0.206  0.00  0.00    -0.254 N 
ATOM      2  C   UNL d   1       0.994   0.804   0.010  0.00  0.00     0.075 A 
ATOM      3  C   UNL d   1      -0.320   1.261   0.137  0.00  0.00     0.075 A 
ATOM      4  N   UNL d   1      -0.326  -1.011   0.308  0.00  0.00    -0.304 N 
ATOM      5  HN  UNL d   1      -0.646  -1.976   0.395  1.00  0.00     0.186 HD
ATOM      6  C   UNL d   1      -1.075   0.084   0.272  0.00  0.00     0.127 A 
ENDROOT
BRANCH   1   7
ATOM      7  C   UNL d   1       2.001  -1.539   0.305  0.00  0.00     0.100 A 
ATOM      8  C   UNL d   1       3.128  -1.326   1.118  0.00  0.00     0.066 A 
ATOM      9  C   UNL d   1       4.159  -2.276   1.171  0.00  0.00     0.050 A 
ATOM     10 CL   UNL d   1       3.268  -0.032   2.261  0.00  0.00    -0.082 Cl
ATOM     11  C   UNL d   1       4.040  -3.474   0.479  0.00  0.00     0.037 A 
ATOM     12  C   UNL d   1       2.907  -3.734  -0.278  0.00  0.00     0.050 A 
ATOM     13 CL   UNL d   1       5.288  -4.654   0.584  0.00  0.00    -0.084 Cl
ATOM     14  C   UNL d   1       1.896  -2.769  -0.383  0.00  0.00     0.066 A 
ATOM     15 CL   UNL d   1       0.622  -3.173  -1.491  0.00  0.00    -0.082 Cl
ENDBRANCH   1   7
BRANCH   2  16
ATOM     16  C   UNL d   1       2.198   1.624  -0.330  0.00  0.00     0.227 C 
BRANCH  16  17
ATOM     17  O   UNL d   1       3.165   0.835  -1.019  0.00  0.00    -0.390 OA
ATOM     18  C   UNL d   1       2.889   0.705  -2.411  0.00  0.00     0.201 C 
ENDBRANCH  16  17
ENDBRANCH   2  16
BRANCH   3  19
ATOM     19  C   UNL d   1      -0.756   2.654   0.102  0.00  0.00     0.254 C 
ATOM     20  O   UNL d   1       0.040   3.583   0.115  0.00  0.00    -0.268 OA
ATOM     21  N   UNL d   1      -2.122   2.848   0.062  0.00  0.00    -0.361 N 
ATOM     22  C   UNL d   1      -2.711   4.166   0.068  0.00  0.00     0.149 C 
ATOM     23  H   UNL d   1      -2.747   2.058   0.042  0.00  0.00     0.162 HD
ENDBRANCH   3  19
TORSDOF 4
