REMARK  6 active torsions:
REMARK  status: ('A' for Active; 'I' for Inactive)
REMARK    1  A    between atoms: C_10  and  N_2 
REMARK    2  A    between atoms: C_7  and  C_3 
REMARK    3  A    between atoms: C_11  and  C_4 
REMARK    4  A    between atoms: O_15  and  C_7 
REMARK    5  A    between atoms: C_17  and  C_10 
REMARK    6  A    between atoms: C_21  and  O_15 
ROOT
ATOM      1  C   UNL d   1      -1.297   0.011  -0.209  0.00  0.00     0.104 C 
ATOM      2  N   UNL d   1      -0.397  -1.048   0.086  0.00  0.00    -0.334 N 
ATOM      3  C   UNL d   1      -2.616   0.015  -0.543  0.00  0.00     0.153 C 
ATOM      4  C   UNL d   1       0.640  -0.580   0.912  0.00  0.00     0.052 C 
ATOM      5  S   UNL d   1      -0.498   1.615   0.147  0.00  0.00    -0.080 SA
ATOM      6  C   UNL d   1       0.714   0.754   1.057  0.00  0.00     0.082 C 
ATOM      7  C   UNL d   1      -3.332   1.229  -0.805  0.00  0.00     0.108 C 
ATOM      8  N   UNL d   1      -3.918   2.209  -1.010  0.00  0.00    -0.191 NA
ENDROOT
BRANCH   3   9
ATOM      9  C   UNL d   1      -3.418  -1.236  -0.510  0.00  0.00     0.306 C 
ATOM     10  O   UNL d   1      -3.023  -2.318  -0.102  0.00  0.00    -0.258 OA
BRANCH   9  11
ATOM     11  O   UNL d   1      -4.690  -1.032  -0.956  0.00  0.00    -0.317 OA
BRANCH  11  12
ATOM     12  C   UNL d   1      -5.508  -2.209  -1.087  0.00  0.00     0.174 C 
ATOM     13  C   UNL d   1      -6.119  -2.650   0.234  0.00  0.00     0.034 C 
ENDBRANCH  11  12
ENDBRANCH   9  11
ENDBRANCH   3   9
BRANCH   2  14
ATOM     14  C   UNL d   1      -0.210  -2.283  -0.716  0.00  0.00     0.168 C 
BRANCH  14  15
ATOM     15  C   UNL d   1      -0.491  -2.100  -2.198  0.00  0.00    -0.040 A 
ATOM     16  C   UNL d   1       0.246  -1.192  -2.973  0.00  0.00     0.009 A 
ATOM     17  C   UNL d   1      -0.081  -0.976  -4.314  0.00  0.00     0.001 A 
ATOM     18  C   UNL d   1      -1.136  -1.675  -4.898  0.00  0.00     0.000 A 
ATOM     19  C   UNL d   1      -1.838  -2.621  -4.155  0.00  0.00     0.001 A 
ATOM     20  C   UNL d   1      -1.506  -2.844  -2.819  0.00  0.00     0.009 A 
ENDBRANCH  14  15
ENDBRANCH   2  14
BRANCH   4  21
ATOM     21  C   UNL d   1       1.471  -1.476   1.727  0.00  0.00    -0.009 A 
ATOM     22  C   UNL d   1       0.968  -1.960   2.945  0.00  0.00     0.015 A 
ATOM     23  C   UNL d   1       1.769  -2.733   3.792  0.00  0.00     0.020 A 
ATOM     24  C   UNL d   1       3.076  -3.032   3.418  0.00  0.00     0.011 A 
ATOM     25  C   UNL d   1       3.587  -2.568   2.207  0.00  0.00     0.020 A 
ATOM     26 BR   UNL d   1       4.168  -4.060   4.569  0.00  0.00    -0.051 Br
ATOM     27  C   UNL d   1       2.787  -1.784   1.366  0.00  0.00     0.015 A 
ENDBRANCH   4  21
TORSDOF 6
