REMARK  7 active torsions:
REMARK  status: ('A' for Active; 'I' for Inactive)
REMARK    1  A    between atoms: N_2  and  S_1 
REMARK    2  A    between atoms: C_12  and  S_1 
REMARK    3  A    between atoms: N_13  and  C_4 
REMARK    4  A    between atoms: S_18  and  C_4 
REMARK    5  A    between atoms: C_5  and  C_6 
REMARK    6  A    between atoms: C_9  and  N_15 
REMARK    7  A    between atoms: N_15  and  N_13 
ROOT
ATOM      1  N   UNL d   1       1.461   0.938  -2.719  0.00  0.00    -0.278 N 
ATOM      2  H   UNL d   1       0.979   1.765  -2.348  0.00  0.00     0.189 HD
ENDROOT
BRANCH   1   3
ATOM      3  C   UNL d   1       0.777  -0.256  -2.507  0.00  0.00     0.168 C 
ATOM      4  N   UNL d   1       0.430  -0.843  -1.419  0.00  0.00    -0.259 N 
ATOM      5  HN  UNL d   1      -0.126  -1.696  -1.468  1.00  0.00     0.181 HD
BRANCH   4   6
ATOM      6  S   UNL d   1       0.852  -0.263   0.019  0.00  0.00     0.264 S 
ATOM      7  O   UNL d   1       0.108   0.955   0.284  0.00  0.00    -0.200 OA
ATOM      8  O   UNL d   1       2.296  -0.290   0.145  0.00  0.00    -0.200 OA
BRANCH   6   9
ATOM      9  C   UNL d   1       0.209  -1.509   1.142  0.00  0.00     0.079 A 
ATOM     10  C   UNL d   1       1.061  -2.174   2.030  0.00  0.00     0.025 A 
ATOM     11  C   UNL d   1       0.555  -3.204   2.829  0.00  0.00     0.002 A 
ATOM     12  C   UNL d   1      -0.791  -3.564   2.742  0.00  0.00     0.000 A 
ATOM     13  C   UNL d   1      -1.641  -2.884   1.868  0.00  0.00     0.002 A 
ATOM     14  C   UNL d   1      -1.145  -1.855   1.066  0.00  0.00     0.025 A 
ENDBRANCH   6   9
ENDBRANCH   4   6
BRANCH   3  15
ATOM     15  S   UNL d   1       0.260  -1.112  -3.992  0.00  0.00    -0.096 SA
ATOM     16  C   UNL d   1       0.334  -2.829  -3.443  0.00  0.00     0.099 C 
ENDBRANCH   3  15
ENDBRANCH   1   3
BRANCH   1  17
ATOM     17  N   UNL d   1       2.134   1.186  -3.907  0.00  0.00    -0.283 N 
ATOM     18  H   UNL d   1       3.073   0.789  -3.930  0.00  0.00     0.188 HD
BRANCH  17  19
ATOM     19  C   UNL d   1       2.105   2.431  -4.579  0.00  0.00     0.120 A 
ATOM     20  N   UNL d   1       1.479   3.494  -4.031  0.00  0.00    -0.345 N 
ATOM     21  C   UNL d   1       1.454   4.655  -4.738  0.00  0.00     0.007 A 
ATOM     22  HN  UNL d   1       1.039   3.429  -3.114  1.00  0.00     0.167 HD
ATOM     23  C   UNL d   1       0.794   5.846  -4.106  0.00  0.00     0.068 C 
ATOM     24  C   UNL d   1       2.018   4.785  -6.004  0.00  0.00     0.041 A 
ATOM     25  C   UNL d   1       2.633   3.678  -6.586  0.00  0.00     0.053 A 
ATOM     26  C   UNL d   1       2.677   2.489  -5.851  0.00  0.00     0.066 A 
BRANCH  25  27
ATOM     27  C   UNL d   1       3.212   3.771  -7.972  0.00  0.00     0.417 C 
ATOM     28  F   UNL d   1       3.769   2.608  -8.410  0.00  0.00    -0.166 F 
ATOM     29  F   UNL d   1       2.279   4.112  -8.904  0.00  0.00    -0.166 F 
ATOM     30  F   UNL d   1       4.192   4.712  -8.065  0.00  0.00    -0.166 F 
ENDBRANCH  25  27
ENDBRANCH  17  19
ENDBRANCH   1  17
TORSDOF 7
