REMARK  2 active torsions:
REMARK  status: ('A' for Active; 'I' for Inactive)
REMARK    1  A    between atoms: O_6  and  C_1 
REMARK    2  A    between atoms: C_3  and  O_6 
REMARK       I    between atoms: N_9  and  C_3 
ROOT
ATOM      1  C   UNL d   1      -0.585  -1.627  -0.388  0.00  0.00     0.099 A 
ATOM      2  C   UNL d   1      -1.739  -0.994  -0.637  0.00  0.00     0.120 A 
ATOM      3  C   UNL d   1      -1.844   0.470  -0.714  0.00  0.00     0.290 A 
ATOM      4  C   UNL d   1       0.627  -0.830  -0.162  0.00  0.00     0.032 A 
ATOM      5  O   UNL d   1      -0.695   1.201  -0.470  0.00  0.00    -0.275 OA
ATOM      6  C   UNL d   1       0.528   0.561  -0.198  0.00  0.00     0.092 A 
ATOM      7  O   UNL d   1      -2.915   1.009  -0.970  0.00  0.00    -0.260 OA
ATOM      8  C   UNL d   1       1.885  -1.388   0.094  0.00  0.00     0.017 A 
ATOM      9  C   UNL d   1       1.626   1.392   0.026  0.00  0.00     0.038 A 
ATOM     10  C   UNL d   1       2.998  -0.568   0.316  0.00  0.00     0.001 A 
ATOM     11  C   UNL d   1       2.868   0.821   0.286  0.00  0.00     0.003 A 
ENDROOT
BRANCH   1  12
ATOM     12  O   UNL d   1      -0.414  -3.032  -0.259  0.00  0.00    -0.260 OA
BRANCH  12  13
ATOM     13  C   UNL d   1      -1.356  -3.972  -0.595  0.00  0.00     0.367 C 
ATOM     14  N   UNL d   1      -0.980  -5.265  -0.248  0.00  0.00    -0.336 N 
ATOM     15  C   UNL d   1      -1.950  -6.337  -0.381  0.00  0.00     0.154 C 
ATOM     16  C   UNL d   1       0.240  -5.574   0.476  0.00  0.00     0.154 C 
ATOM     17  O   UNL d   1      -2.426  -3.717  -1.139  0.00  0.00    -0.238 OA
ENDBRANCH  12  13
ENDBRANCH   1  12
TORSDOF 2
