REMARK  2 active torsions:
REMARK  status: ('A' for Active; 'I' for Inactive)
REMARK    1  A    between atoms: C_2  and  C_1 
REMARK    2  A    between atoms: S_14  and  C_8 
ROOT
ATOM      1  C   UNL d   1       1.896  -0.521  -0.034  0.00  0.00     0.192 A 
ATOM      2  O   UNL d   1       1.744   0.597   0.751  0.00  0.00    -0.266 OA
ATOM      3  N   UNL d   1       0.865  -0.700  -0.841  0.00  0.00    -0.275 N 
ATOM      4  HN  UNL d   1       0.746  -1.453  -1.517  1.00  0.00     0.189 HD
ATOM      5  C   UNL d   1       0.532   1.076   0.342  0.00  0.00     0.201 A 
ATOM      6  N   UNL d   1      -0.019   0.330  -0.591  0.00  0.00    -0.272 N 
ATOM      7  HN  UNL d   1      -0.921   0.482  -1.041  1.00  0.00     0.189 HD
ENDROOT
BRANCH   1   8
ATOM      8  C   UNL d   1       3.090  -1.418   0.019  0.00  0.00     0.092 A 
ATOM      9  N   UNL d   1       4.126  -1.214   0.919  0.00  0.00    -0.350 N 
ATOM     10  C   UNL d   1       5.039  -2.148   0.763  0.00  0.00     0.047 A 
ATOM     11  HN  UNL d   1       4.173  -0.455   1.598  1.00  0.00     0.166 HD
ATOM     12  C   UNL d   1       6.285  -2.253   1.573  0.00  0.00     0.076 C 
ATOM     13  S   UNL d   1       4.724  -3.296  -0.478  0.00  0.00    -0.087 SA
ATOM     14  C   UNL d   1       3.243  -2.504  -0.819  0.00  0.00     0.085 A 
ENDBRANCH   1   8
BRANCH   5  15
ATOM     15  S   UNL d   1      -0.173   2.522   0.985  0.00  0.00    -0.098 SA
ATOM     16  H   UNL d   1       0.892   2.909   1.698  0.00  0.00     0.110 HD
ENDBRANCH   5  15
TORSDOF 2
