REMARK  4 active torsions:
REMARK  status: ('A' for Active; 'I' for Inactive)
REMARK       I    between atoms: N_2  and  C_1 
REMARK    1  A    between atoms: C_4  and  C_1 
REMARK    2  A    between atoms: C_6  and  N_3 
REMARK    3  A    between atoms: C_17  and  C_6 
REMARK    4  A    between atoms: C_18  and  C_6 
ROOT
ATOM      1  C   UNL d   1       0.841   0.217   0.108  0.00  0.00     0.253 C 
ATOM      2  N   UNL d   1       0.234  -0.821   0.825  0.00  0.00    -0.345 N 
ATOM      3  N   UNL d   1      -0.306  -3.444   2.103  0.00  0.00     0.105 N 
ATOM      4  C   UNL d   1       0.707  -1.102   2.183  0.00  0.00     0.156 C 
ATOM      5  C   UNL d   1      -0.862  -1.680   0.349  0.00  0.00     0.156 C 
ATOM      6  C   UNL d   1      -0.635  -3.168   0.681  0.00  0.00     0.293 C 
ATOM      7  C   UNL d   1       0.881  -2.611   2.428  0.00  0.00     0.293 C 
ATOM      8  O   UNL d   1       1.874   0.765   0.476  0.00  0.00    -0.267 OA
ENDROOT
BRANCH   3   9
ATOM      9  C   UNL d   1      -1.480  -3.198   2.996  0.00  0.00     0.289 C 
BRANCH   9  10
ATOM     10  C   UNL d   1      -2.676  -4.084   2.614  0.00  0.00    -0.021 A 
ATOM     11  C   UNL d   1      -2.556  -5.484   2.583  0.00  0.00     0.010 A 
ATOM     12  C   UNL d   1      -3.647  -6.287   2.253  0.00  0.00     0.001 A 
ATOM     13  C   UNL d   1      -4.871  -5.703   1.940  0.00  0.00     0.000 A 
ATOM     14  C   UNL d   1      -5.004  -4.315   1.950  0.00  0.00     0.001 A 
ATOM     15  C   UNL d   1      -3.915  -3.509   2.287  0.00  0.00     0.010 A 
ENDBRANCH   9  10
BRANCH   9  16
ATOM     16  C   UNL d   1      -1.205  -3.345   4.498  0.00  0.00    -0.021 A 
ATOM     17  C   UNL d   1      -1.908  -2.531   5.409  0.00  0.00     0.010 A 
ATOM     18  C   UNL d   1      -1.717  -2.666   6.785  0.00  0.00     0.001 A 
ATOM     19  C   UNL d   1      -0.825  -3.616   7.275  0.00  0.00     0.000 A 
ATOM     20  C   UNL d   1      -0.133  -4.440   6.389  0.00  0.00     0.001 A 
ATOM     21  C   UNL d   1      -0.329  -4.314   5.012  0.00  0.00     0.010 A 
ENDBRANCH   9  16
ENDBRANCH   3   9
BRANCH   1  22
ATOM     22  C   UNL d   1       0.224   0.685  -1.161  0.00  0.00     0.032 A 
ATOM     23  C   UNL d   1      -1.166   0.841  -1.278  0.00  0.00     0.027 A 
ATOM     24  C   UNL d   1      -1.684   1.166  -2.515  0.00  0.00    -0.022 A 
ATOM     25  C   UNL d   1      -3.097   1.315  -2.925  0.00  0.00     0.068 C 
ATOM     26  C   UNL d   1      -0.853   1.453  -3.584  0.00  0.00     0.075 A 
ATOM     27  C   UNL d   1      -2.899   1.399  -4.439  0.00  0.00     0.180 C 
ATOM     28  O   UNL d   1      -1.533   1.788  -4.725  0.00  0.00    -0.350 OA
ATOM     29  C   UNL d   1       0.521   1.413  -3.470  0.00  0.00     0.038 A 
ATOM     30  C   UNL d   1       1.064   1.008  -2.246  0.00  0.00     0.020 A 
ENDBRANCH   1  22
TORSDOF 4
