REMARK  5 active torsions:
REMARK  status: ('A' for Active; 'I' for Inactive)
REMARK       I    between atoms: N_3  and  C_1 
REMARK    1  A    between atoms: O_6  and  C_1 
REMARK    2  A    between atoms: C_2  and  C_4 
REMARK       I    between atoms: C_4  and  N_8 
REMARK    3  A    between atoms: C_14  and  O_6 
REMARK    4  A    between atoms: N_8  and  C_18 
REMARK    5  A    between atoms: C_18  and  C_22 
ROOT
ATOM      1  C   UNL d   1       0.993   0.055   0.113  0.00  0.00     0.363 C 
ATOM      2  N   UNL d   1       0.457   1.090   0.860  0.00  0.00    -0.328 N 
ATOM      3  O   UNL d   1       0.651  -1.116   0.265  0.00  0.00    -0.238 OA
ATOM      4  C   UNL d   1      -0.549   0.807   1.874  0.00  0.00     0.128 C 
ATOM      5  C   UNL d   1       0.784   2.500   0.688  0.00  0.00     0.128 C 
ATOM      6  C   UNL d   1      -1.853   1.528   1.539  0.00  0.00     0.026 C 
ATOM      7  C   UNL d   1      -0.477   3.299   0.349  0.00  0.00     0.026 C 
ATOM      8  C   UNL d   1      -1.655   3.039   1.316  0.00  0.00     0.006 C 
ENDROOT
BRANCH   8   9
ATOM      9  C   UNL d   1      -1.516   3.778   2.660  0.00  0.00     0.127 C 
BRANCH   9  10
ATOM     10  N   UNL d   1      -1.528   5.216   2.474  0.00  0.00    -0.356 N 
ATOM     11  C   UNL d   1      -0.465   6.018   2.826  0.00  0.00     0.254 C 
ATOM     12  O   UNL d   1       0.535   5.586   3.389  0.00  0.00    -0.268 OA
ATOM     13  H   UNL d   1      -2.346   5.633   2.042  0.00  0.00     0.162 HD
BRANCH  11  14
ATOM     14  C   UNL d   1      -0.537   7.461   2.457  0.00  0.00     0.070 A 
ATOM     15  C   UNL d   1      -1.601   8.016   1.738  0.00  0.00     0.135 A 
ATOM     16  C   UNL d   1      -1.584   9.351   1.340  0.00  0.00     0.085 A 
ATOM     17  F   UNL d   1      -2.667   7.275   1.395  0.00  0.00    -0.205 F 
ATOM     18  C   UNL d   1      -0.493  10.142   1.672  0.00  0.00     0.119 A 
ATOM     19  C   UNL d   1       0.569   9.626   2.406  0.00  0.00     0.043 A 
ATOM     20  F   UNL d   1      -0.459  11.419   1.272  0.00  0.00    -0.206 F 
ATOM     21  C   UNL d   1       0.547   8.286   2.801  0.00  0.00     0.023 A 
ENDBRANCH  11  14
ENDBRANCH   9  10
ENDBRANCH   8   9
BRANCH   1  22
ATOM     22  O   UNL d   1       1.915   0.459  -0.800  0.00  0.00    -0.294 OA
BRANCH  22  23
ATOM     23  C   UNL d   1       2.591  -0.511  -1.650  0.00  0.00     0.061 C 
ATOM     24  C   UNL d   1       1.613  -1.208  -2.607  0.00  0.00     0.046 C 
ATOM     25  C   UNL d   1       3.588   0.303  -2.495  0.00  0.00     0.046 C 
ATOM     26  C   UNL d   1       3.395  -1.527  -0.827  0.00  0.00     0.046 C 
ENDBRANCH  22  23
ENDBRANCH   1  22
TORSDOF 5
