REMARK  3 active torsions:
REMARK  status: ('A' for Active; 'I' for Inactive)
REMARK    1  A    between atoms: C_12  and  C_5 
REMARK    2  A    between atoms: S_14  and  C_9 
REMARK    3  A    between atoms: C_13  and  C_11 
ROOT
ATOM      1  N   UNL d   1      -0.234  -0.628  -0.011  0.00  0.00    -0.243 N 
ATOM      2  C   UNL d   1      -0.163   0.755   0.025  0.00  0.00     0.130 A 
ATOM      3  N   UNL d   1       1.024   1.419   0.117  0.00  0.00    -0.335 N 
ATOM      4  HN  UNL d   1       1.067   2.438   0.122  1.00  0.00     0.168 HD
ATOM      5  C   UNL d   1       2.139  -0.824   0.164  0.00  0.00     0.067 A 
ATOM      6  C   UNL d   1       0.928  -1.428   0.041  0.00  0.00     0.049 A 
ATOM      7  N   UNL d   1      -1.522  -1.047  -0.084  0.00  0.00    -0.292 N 
ATOM      8  HN  UNL d   1      -1.850  -2.010  -0.146  1.00  0.00     0.187 HD
ATOM      9  C   UNL d   1       2.096   0.694   0.199  0.00  0.00     0.086 A 
ATOM     10  C   UNL d   1      -1.457   1.216  -0.009  0.00  0.00     0.082 A 
ATOM     11  C   UNL d   1      -2.276   0.061  -0.057  0.00  0.00     0.062 A 
ATOM     12  C   UNL d   1       0.668  -2.912  -0.037  0.00  0.00     0.071 C 
ENDROOT
BRANCH  11  13
ATOM     13  C   UNL d   1      -3.745  -0.009  -0.070  0.00  0.00    -0.008 A 
ATOM     14  C   UNL d   1      -4.394  -1.255  -0.018  0.00  0.00     0.015 A 
ATOM     15  C   UNL d   1      -5.791  -1.341  -0.034  0.00  0.00     0.024 A 
ATOM     16  C   UNL d   1      -6.552  -0.178  -0.104  0.00  0.00     0.034 A 
ATOM     17  C   UNL d   1      -5.930   1.066  -0.152  0.00  0.00     0.024 A 
ATOM     18 CL   UNL d   1      -8.269  -0.278  -0.133  0.00  0.00    -0.084 Cl
ATOM     19  C   UNL d   1      -4.532   1.149  -0.136  0.00  0.00     0.015 A 
ENDBRANCH  11  13
BRANCH   5  20
ATOM     20  C   UNL d   1       3.365  -1.659   0.337  0.00  0.00     0.160 C 
ATOM     21  O   UNL d   1       3.348  -2.618   1.115  0.00  0.00    -0.293 OA
ATOM     22  C   UNL d   1       4.627  -1.351  -0.428  0.00  0.00     0.097 C 
ENDBRANCH   5  20
BRANCH   9  23
ATOM     23  S   UNL d   1       3.619   1.544   0.404  0.00  0.00    -0.116 SA
ATOM     24  C   UNL d   1       3.102   3.263   0.178  0.00  0.00     0.097 C 
ENDBRANCH   9  23
TORSDOF 3
