REMARK  5 active torsions:
REMARK  status: ('A' for Active; 'I' for Inactive)
REMARK    1  A    between atoms: C_2  and  S_1 
REMARK    2  A    between atoms: C_4  and  S_1 
REMARK    3  A    between atoms: N_5  and  C_3 
REMARK    4  A    between atoms: C_10  and  C_7 
REMARK    5  A    between atoms: O_20  and  C_10 
ROOT
ATOM      1  C   UNL d   1       0.391  -1.476  -0.664  0.00  0.00     0.097 A 
ATOM      2  C   UNL d   1       1.182  -2.603  -0.434  0.00  0.00     0.125 A 
ATOM      3  C   UNL d   1       0.823  -3.870  -0.927  0.00  0.00     0.056 A 
ATOM      4  C   UNL d   1      -0.334  -3.997  -1.700  0.00  0.00     0.040 A 
ATOM      5  C   UNL d   1      -0.749  -1.608  -1.468  0.00  0.00     0.027 A 
ATOM      6  C   UNL d   1      -1.112  -2.862  -1.972  0.00  0.00     0.020 A 
ENDROOT
BRANCH   1   7
ATOM      7  S   UNL d   1       0.830   0.137  -0.062  0.00  0.00     0.210 S 
ATOM      8  O   UNL d   1      -0.189   1.067  -0.508  0.00  0.00    -0.217 OA
ATOM      9  O   UNL d   1       2.203   0.317  -0.501  0.00  0.00    -0.217 OA
BRANCH   7  10
ATOM     10  C   UNL d   1       0.811   0.206   1.707  0.00  0.00     0.087 A 
ATOM     11  C   UNL d   1       1.968   0.671   2.356  0.00  0.00     0.049 A 
ATOM     12  C   UNL d   1       2.016   0.703   3.746  0.00  0.00     0.035 A 
ATOM     13 CL   UNL d   1       3.443   1.238   4.541  0.00  0.00    -0.084 Cl
ATOM     14  C   UNL d   1       0.918   0.295   4.497  0.00  0.00     0.025 A 
ATOM     15  C   UNL d   1      -0.237  -0.152   3.851  0.00  0.00     0.027 A 
ATOM     16  C   UNL d   1      -0.297  -0.202   2.453  0.00  0.00     0.056 A 
ATOM     17 CL   UNL d   1      -1.765  -0.781   1.762  0.00  0.00    -0.083 Cl
ENDBRANCH   7  10
ENDBRANCH   1   7
BRANCH   2  18
ATOM     18  N   UNL d   1       2.402  -2.539   0.340  0.00  0.00    -0.114 N 
ATOM     19  O   UNL d   1       2.279  -2.306   1.545  0.00  0.00    -0.532 OA
ATOM     20  O   UNL d   1       3.452  -2.815  -0.250  0.00  0.00    -0.532 OA
ENDBRANCH   2  18
BRANCH   4  21
ATOM     21  C   UNL d   1      -0.826  -5.310  -2.191  0.00  0.00     0.176 C 
ATOM     22  O   UNL d   1      -2.012  -5.530  -2.369  0.00  0.00    -0.646 OA
BRANCH  21  23
ATOM     23  O   UNL d   1       0.136  -6.223  -2.424  0.00  0.00    -0.773 OA
ATOM     24  H   UNL d   1       1.054  -5.901  -2.449  0.00  0.00     0.167 HD
ENDBRANCH  21  23
ENDBRANCH   4  21
TORSDOF 5
