REMARK  7 active torsions:
REMARK  status: ('A' for Active; 'I' for Inactive)
REMARK    1  A    between atoms: C_7  and  C_1 
REMARK    2  A    between atoms: C_16  and  C_3 
REMARK    3  A    between atoms: S_19  and  C_5 
REMARK    4  A    between atoms: S_6  and  C_15 
REMARK    5  A    between atoms: S_20  and  C_11 
REMARK    6  A    between atoms: C_15  and  C_22 
REMARK    7  A    between atoms: C_22  and  S_20 
ROOT
ATOM      1  C   UNL d   1       1.314  -1.254  -0.025  0.00  0.00     0.045 A 
ATOM      2  C   UNL d   1      -0.719  -0.064   0.109  0.00  0.00     0.080 A 
ATOM      3  C   UNL d   1      -0.082  -1.377   0.045  0.00  0.00     0.016 A 
ATOM      4  S   UNL d   1       1.786   0.407  -0.010  0.00  0.00    -0.079 SA
ATOM      5  C   UNL d   1       0.185   0.977   0.052  0.00  0.00     0.063 A 
ATOM      6  C   UNL d   1      -2.135   0.159   0.191  0.00  0.00     0.102 C 
ATOM      7  N   UNL d   1      -3.286   0.331   0.241  0.00  0.00    -0.191 NA
ENDROOT
BRANCH   3   8
ATOM      8  C   UNL d   1      -0.787  -2.678   0.016  0.00  0.00    -0.023 A 
ATOM      9  C   UNL d   1      -1.968  -2.835  -0.729  0.00  0.00     0.012 A 
ATOM     10  C   UNL d   1      -2.621  -4.070  -0.800  0.00  0.00     0.001 A 
ATOM     11  C   UNL d   1      -2.070  -5.186  -0.182  0.00  0.00     0.000 A 
ATOM     12  C   UNL d   1      -0.899  -5.055   0.557  0.00  0.00     0.001 A 
ATOM     13  C   UNL d   1      -0.294  -3.801   0.699  0.00  0.00     0.012 A 
ENDBRANCH   3   8
BRANCH   5  14
ATOM     14  S   UNL d   1      -0.122   2.714  -0.061  0.00  0.00    -0.126 SA
ATOM     15  C   UNL d   1      -0.970   3.074   1.492  0.00  0.00     0.096 C 
ENDBRANCH   5  14
BRANCH   1  16
ATOM     16  C   UNL d   1       2.410  -2.248  -0.131  0.00  0.00     0.053 A 
ATOM     17  N   UNL d   1       3.510  -1.973   0.607  0.00  0.00    -0.336 N 
ATOM     18  C   UNL d   1       4.512  -2.864   0.568  0.00  0.00     0.144 A 
ATOM     19  HN  UNL d   1       3.575  -1.125   1.170  1.00  0.00     0.168 HD
ATOM     20  N   UNL d   1       4.474  -4.025  -0.103  0.00  0.00    -0.347 N 
ATOM     21  C   UNL d   1       3.365  -4.266  -0.819  0.00  0.00     0.092 A 
ATOM     22  HN  UNL d   1       5.247  -4.689  -0.071  1.00  0.00     0.167 HD
ATOM     23  C   UNL d   1       2.312  -3.389  -0.902  0.00  0.00     0.048 A 
BRANCH  18  24
ATOM     24  S   UNL d   1       6.051  -2.478   1.365  0.00  0.00    -0.093 SA
BRANCH  24  25
ATOM     25  C   UNL d   1       5.474  -1.411   2.724  0.00  0.00     0.097 C 
BRANCH  25  26
ATOM     26  C   UNL d   1       6.682  -0.927   3.508  0.00  0.00     0.150 C 
BRANCH  26  27
ATOM     27  S   UNL d   1       6.167   0.072   4.887  0.00  0.00     0.141 S 
ATOM     28  O   UNL d   1       5.451   1.225   4.371  0.00  0.00    -0.228 OA
ATOM     29  O   UNL d   1       5.557  -0.802   5.872  0.00  0.00    -0.228 OA
ATOM     30  C   UNL d   1       7.702   0.660   5.563  0.00  0.00     0.161 C 
ENDBRANCH  26  27
ENDBRANCH  25  26
ENDBRANCH  24  25
ENDBRANCH  18  24
ENDBRANCH   1  16
TORSDOF 7
