REMARK  5 active torsions:
REMARK  status: ('A' for Active; 'I' for Inactive)
REMARK    1  A    between atoms: C_2  and  C_1 
REMARK    2  A    between atoms: C_10  and  C_5 
REMARK    3  A    between atoms: C_18  and  C_11 
REMARK    4  A    between atoms: O_20  and  C_18 
REMARK    5  A    between atoms: C_22  and  O_20 
ROOT
ATOM      1  C   UNL d   1      -1.533   2.254  -0.039  0.00  0.00     0.075 A 
ATOM      2  N   UNL d   1      -2.391   2.534   1.011  0.00  0.00    -0.349 N 
ATOM      3  HN  UNL d   1      -2.552   1.926   1.814  1.00  0.00     0.166 HD
ATOM      4  C   UNL d   1      -2.970   3.705   0.821  0.00  0.00     0.075 A 
ATOM      5  C   UNL d   1      -1.465   3.230  -1.013  0.00  0.00     0.084 A 
ATOM      6  S   UNL d   1      -2.485   4.542  -0.606  0.00  0.00    -0.084 SA
ENDROOT
BRANCH   1   7
ATOM      7  C   UNL d   1      -0.746   0.990  -0.095  0.00  0.00     0.128 A 
ATOM      8  C   UNL d   1      -0.025   0.517  -1.168  0.00  0.00     0.074 A 
ATOM      9  C   UNL d   1       0.592  -0.681  -0.724  0.00  0.00     0.069 A 
ATOM     10  N   UNL d   1       0.211  -0.942   0.538  0.00  0.00    -0.260 N 
ATOM     11  O   UNL d   1      -0.629   0.090   0.920  0.00  0.00    -0.235 OA
ATOM     12  HN  UNL d   1       0.487  -1.744   1.105  1.00  0.00     0.195 HD
BRANCH   9  13
ATOM     13  C   UNL d   1       1.466  -1.601  -1.466  0.00  0.00     0.014 A 
ATOM     14  C   UNL d   1       2.345  -1.200  -2.493  0.00  0.00     0.048 A 
ATOM     15  C   UNL d   1       3.107  -2.146  -3.194  0.00  0.00     0.048 A 
ATOM     16 CL   UNL d   1       2.612   0.451  -2.944  0.00  0.00    -0.083 Cl
ATOM     17  C   UNL d   1       3.022  -3.494  -2.865  0.00  0.00     0.035 A 
ATOM     18  C   UNL d   1       2.188  -3.912  -1.836  0.00  0.00     0.025 A 
ATOM     19 CL   UNL d   1       3.962  -4.645  -3.731  0.00  0.00    -0.084 Cl
ATOM     20  C   UNL d   1       1.416  -2.973  -1.144  0.00  0.00     0.017 A 
ENDBRANCH   9  13
ENDBRANCH   1   7
BRANCH   4  21
ATOM     21  C   UNL d   1      -4.021   4.309   1.708  0.00  0.00     0.240 C 
BRANCH  21  22
ATOM     22  O   UNL d   1      -3.344   5.062   2.717  0.00  0.00    -0.345 OA
BRANCH  22  23
ATOM     23  C   UNL d   1      -4.153   5.621   3.668  0.00  0.00     0.069 A 
ATOM     24  C   UNL d   1      -3.586   5.745   4.939  0.00  0.00     0.038 A 
ATOM     25  C   UNL d   1      -4.308   6.328   5.984  0.00  0.00     0.026 A 
ATOM     26  C   UNL d   1      -5.595   6.804   5.749  0.00  0.00     0.034 A 
ATOM     27  C   UNL d   1      -6.162   6.701   4.481  0.00  0.00     0.026 A 
ATOM     28 CL   UNL d   1      -6.486   7.534   7.027  0.00  0.00    -0.084 Cl
ATOM     29  C   UNL d   1      -5.441   6.111   3.438  0.00  0.00     0.038 A 
ENDBRANCH  22  23
ENDBRANCH  21  22
ENDBRANCH   4  21
TORSDOF 5
