REMARK  5 active torsions:
REMARK  status: ('A' for Active; 'I' for Inactive)
REMARK    1  A    between atoms: N_6  and  S_1 
REMARK    2  A    between atoms: C_7  and  S_1 
REMARK    3  A    between atoms: C_2  and  C_10 
REMARK    4  A    between atoms: C_5  and  C_17 
REMARK    5  A    between atoms: N_11  and  N_6 
ROOT
ATOM      1  S   UNL d   1       1.161  -0.004   0.039  0.00  0.00     0.276 S 
ATOM      2  O   UNL d   1       0.409  -0.541   1.153  0.00  0.00    -0.199 OA
ATOM      3  O   UNL d   1       2.605  -0.087  -0.029  0.00  0.00    -0.199 OA
ENDROOT
BRANCH   1   4
ATOM      4  N   UNL d   1       0.684   1.630  -0.169  0.00  0.00    -0.223 N 
ATOM      5  H   UNL d   1      -0.195   1.760  -0.676  0.00  0.00     0.200 HD
BRANCH   4   6
ATOM      6  N   UNL d   1       1.049   2.537   0.898  0.00  0.00    -0.300 N 
ATOM      7  C   UNL d   1       0.622   3.753   0.796  0.00  0.00     0.139 C 
ATOM      8  HN  UNL d   1       1.615   2.232   1.690  1.00  0.00     0.186 HD
BRANCH   7   9
ATOM      9  C   UNL d   1       0.930   4.680   1.863  0.00  0.00     0.074 A 
ATOM     10  N   UNL d   1       0.528   5.958   1.799  0.00  0.00    -0.260 N 
ATOM     11  O   UNL d   1       0.946   6.546   2.982  0.00  0.00    -0.242 OA
ATOM     12  HN  UNL d   1       0.019   6.405   1.036  1.00  0.00     0.195 HD
ATOM     13  C   UNL d   1       1.591   5.624   3.746  0.00  0.00     0.074 A 
ATOM     14  C   UNL d   1       1.624   4.429   3.074  0.00  0.00     0.067 A 
ATOM     15  C   UNL d   1       2.069   6.072   5.065  0.00  0.00     0.079 C 
ENDBRANCH   7   9
ENDBRANCH   4   6
ENDBRANCH   1   4
BRANCH   1  16
ATOM     16  C   UNL d   1       0.538  -0.770  -1.441  0.00  0.00     0.081 A 
ATOM     17  C   UNL d   1       0.997  -0.323  -2.686  0.00  0.00     0.041 A 
ATOM     18  C   UNL d   1       0.566  -0.961  -3.860  0.00  0.00     0.049 A 
ATOM     19  C   UNL d   1      -0.317  -2.050  -3.758  0.00  0.00     0.016 A 
ATOM     20  C   UNL d   1      -0.766  -2.493  -2.511  0.00  0.00     0.002 A 
ATOM     21  C   UNL d   1      -0.342  -1.852  -1.348  0.00  0.00     0.025 A 
BRANCH  18  22
ATOM     22  C   UNL d   1       1.046  -0.508  -5.219  0.00  0.00     0.417 C 
ATOM     23  F   UNL d   1       1.883   0.565  -5.166  0.00  0.00    -0.166 F 
ATOM     24  F   UNL d   1       1.721  -1.481  -5.888  0.00  0.00    -0.166 F 
ATOM     25  F   UNL d   1       0.018  -0.136  -6.030  0.00  0.00    -0.166 F 
ENDBRANCH  18  22
ENDBRANCH   1  16
TORSDOF 5
