REMARK  2 active torsions:
REMARK  status: ('A' for Active; 'I' for Inactive)
REMARK    1  A    between atoms: C_8  and  C_1 
REMARK    2  A    between atoms: C_3  and  C_2 
REMARK       I    between atoms: N_6  and  C_3 
REMARK       I    between atoms: C_7  and  N_6 
REMARK       I    between atoms: N_11  and  C_7 
ROOT
ATOM      1  C   UNL d   1      -0.964  -0.762   0.007  0.00  0.00     0.088 A 
ATOM      2  C   UNL d   1       0.164  -1.607   0.270  0.00  0.00     0.093 A 
ATOM      3  N   UNL d   1      -0.721   0.492   0.418  0.00  0.00    -0.259 N 
ATOM      4  HN  UNL d   1      -1.361   1.285   0.370  1.00  0.00     0.195 HD
ATOM      5  O   UNL d   1       0.559   0.498   0.916  0.00  0.00    -0.241 OA
ATOM      6  C   UNL d   1       1.093  -0.745   0.821  0.00  0.00     0.090 A 
ATOM      7  C   UNL d   1       2.476  -0.876   1.319  0.00  0.00     0.080 C 
ENDROOT
BRANCH   2   8
ATOM      8  C   UNL d   1       0.393  -3.023   0.010  0.00  0.00     0.274 C 
ATOM      9  N   UNL d   1      -0.731  -3.821   0.220  0.00  0.00    -0.156 N 
ATOM     10  C   UNL d   1      -1.026  -5.151  -0.029  0.00  0.00     0.676 C 
ATOM     11  H   UNL d   1      -1.536  -3.312   0.538  0.00  0.00     0.187 HD
ATOM     12  N   UNL d   1      -0.132  -6.161  -0.279  0.00  0.00    -0.214 N 
ATOM     13  N   UNL d   1      -2.290  -5.425  -0.004  0.00  0.00    -0.234 N 
ATOM     14  C   UNL d   1       1.313  -6.120  -0.035  0.00  0.00     0.167 C 
ATOM     15  C   UNL d   1      -0.548  -7.318  -1.099  0.00  0.00     0.167 C 
ATOM     16  C   UNL d   1       1.859  -7.492   0.399  0.00  0.00     0.188 C 
ATOM     17  O   UNL d   1       1.476  -8.543  -0.495  0.00  0.00    -0.388 OA
ATOM     18  C   UNL d   1       0.046  -8.621  -0.556  0.00  0.00     0.188 C 
ATOM     19  H   UNL d   1      -2.876  -4.612   0.169  0.00  0.00     0.174 HD
ATOM     20  HN  UNL d   1      -2.662  -6.364  -0.144  1.00  0.00     0.174 HD
ATOM     21  O   UNL d   1       1.506  -3.410  -0.322  0.00  0.00    -0.267 OA
ENDBRANCH   2   8
BRANCH   1  22
ATOM     22  C   UNL d   1      -2.242  -1.065  -0.627  0.00  0.00     0.054 A 
ATOM     23  C   UNL d   1      -2.350  -1.543  -1.942  0.00  0.00     0.049 A 
ATOM     24 CL   UNL d   1      -0.971  -1.829  -2.945  0.00  0.00    -0.083 Cl
ATOM     25  C   UNL d   1      -3.609  -1.793  -2.505  0.00  0.00     0.025 A 
ATOM     26  C   UNL d   1      -4.773  -1.556  -1.772  0.00  0.00     0.005 A 
ATOM     27  C   UNL d   1      -4.679  -1.078  -0.469  0.00  0.00     0.043 A 
ATOM     28  C   UNL d   1      -3.425  -0.842   0.091  0.00  0.00     0.130 A 
ATOM     29  F   UNL d   1      -3.378  -0.423   1.365  0.00  0.00    -0.205 F 
ENDBRANCH   1  22
TORSDOF 2
