REMARK  13 active torsions:
REMARK  status: ('A' for Active; 'I' for Inactive)
REMARK    1  A    between atoms: C_3  and  C_1 
REMARK    2  A    between atoms: C_4  and  C_1 
REMARK    3  A    between atoms: S_9  and  C_2 
REMARK    4  A    between atoms: N_17  and  C_2 
REMARK       I    between atoms: N_20  and  C_3 
REMARK    5  A    between atoms: N_6  and  C_4 
REMARK    6  A    between atoms: C_5  and  C_14 
REMARK    7  A    between atoms: C_14  and  S_9 
REMARK    8  A    between atoms: C_12  and  C_10 
REMARK    9  A    between atoms: O_21  and  C_13 
REMARK   10  A    between atoms: C_24  and  N_17 
REMARK   11  A    between atoms: C_22  and  C_24 
REMARK   12  A    between atoms: C_26  and  C_22 
REMARK   13  A    between atoms: O_23  and  C_26 
ROOT
ATOM      1  C   UNL d   1       1.084  -0.051  -0.016  0.00  0.00     0.121 C 
ATOM      2  C   UNL d   1       0.393  -0.222  -1.176  0.00  0.00     0.071 C 
ENDROOT
BRANCH   2   3
ATOM      3  S   UNL d   1      -1.379  -0.365  -1.227  0.00  0.00    -0.112 SA
BRANCH   3   4
ATOM      4  C   UNL d   1      -1.982   1.301  -0.799  0.00  0.00     0.121 C 
BRANCH   4   5
ATOM      5  C   UNL d   1      -3.500   1.342  -0.786  0.00  0.00    -0.014 A 
ATOM      6  C   UNL d   1      -4.177   0.741   0.299  0.00  0.00     0.026 A 
ATOM      7  C   UNL d   1      -5.573   0.822   0.460  0.00  0.00     0.010 A 
ATOM      8  C   UNL d   1      -6.319   1.499  -0.504  0.00  0.00     0.018 A 
ATOM      9  C   UNL d   1      -5.668   2.081  -1.602  0.00  0.00     0.038 A 
ATOM     10  C   UNL d   1      -4.276   1.998  -1.753  0.00  0.00     0.075 A 
BRANCH   7  11
ATOM     11  C   UNL d   1      -6.171   0.200   1.684  0.00  0.00     0.155 C 
ATOM     12  O   UNL d   1      -5.449  -0.490   2.412  0.00  0.00    -0.293 OA
ATOM     13  C   UNL d   1      -7.608   0.447   2.071  0.00  0.00     0.096 C 
ENDBRANCH   7  11
BRANCH  10  14
ATOM     14  O   UNL d   1      -3.770   2.712  -2.803  0.00  0.00    -0.355 OA
ATOM     15  C   UNL d   1      -3.006   1.952  -3.736  0.00  0.00     0.210 C 
ENDBRANCH  10  14
ENDBRANCH   4   5
ENDBRANCH   3   4
ENDBRANCH   2   3
BRANCH   2  16
ATOM     16  N   UNL d   1       0.994  -0.395  -2.431  0.00  0.00    -0.286 NA
ATOM     17  H   UNL d   1       0.256  -0.439  -3.134  0.00  0.00     0.128 HD
BRANCH  16  18
ATOM     18  C   UNL d   1       2.039  -1.395  -2.693  0.00  0.00     0.095 C 
BRANCH  18  19
ATOM     19  C   UNL d   1       1.648  -2.278  -3.878  0.00  0.00     0.041 C 
BRANCH  19  20
ATOM     20  C   UNL d   1       2.709  -3.336  -4.153  0.00  0.00     0.168 C 
BRANCH  20  21
ATOM     21  O   UNL d   1       2.836  -4.173  -3.005  0.00  0.00    -0.396 OA
ATOM     22  C   UNL d   1       3.874  -5.132  -3.160  0.00  0.00     0.201 C 
ENDBRANCH  20  21
ENDBRANCH  19  20
ENDBRANCH  18  19
ENDBRANCH  16  18
ENDBRANCH   2  16
BRANCH   1  23
ATOM     23  C   UNL d   1       0.542   0.139   1.367  0.00  0.00     0.261 C 
ATOM     24  O   UNL d   1       1.153   0.784   2.216  0.00  0.00    -0.267 OA
ATOM     25  N   UNL d   1      -0.635  -0.448   1.703  0.00  0.00    -0.365 N 
ATOM     26  H   UNL d   1      -1.201  -0.980   1.051  0.00  0.00     0.159 HD
ATOM     27  H   UNL d   1      -0.984  -0.311   2.645  0.00  0.00     0.159 HD
ENDBRANCH   1  23
BRANCH   1  28
ATOM     28  C   UNL d   1       2.604  -0.051  -0.016  0.00  0.00    -0.029 C 
BRANCH  28  29
ATOM     29  N   UNL d   1       3.865  -0.051  -0.016  0.00  0.00    -0.365 N 
ATOM     30  HN2 UNL d   1       2.845  -0.051  -0.016  1.00  0.00     0.165 HD
ATOM     31  HN1 UNL d   1       4.885  -0.051  -0.016  1.00  0.00     0.165 HD
ENDBRANCH  28  29
ENDBRANCH   1  28
TORSDOF 13
