REMARK  7 active torsions:
REMARK  status: ('A' for Active; 'I' for Inactive)
REMARK    1  A    between atoms: C_4  and  C_1 
REMARK       I    between atoms: C_2  and  N_5 
REMARK       I    between atoms: N_8  and  C_2 
REMARK    2  A    between atoms: O_6  and  C_3 
REMARK    3  A    between atoms: O_19  and  C_4 
REMARK    4  A    between atoms: N_5  and  C_11 
REMARK    5  A    between atoms: C_13  and  O_6 
REMARK    6  A    between atoms: C_20  and  N_8 
REMARK    7  A    between atoms: C_24  and  O_19 
ROOT
ATOM      1  C   UNL d   1       1.858  -0.028  -0.059  0.00  0.00     0.075 C 
ATOM      2  C   UNL d   1       1.053  -1.041  -0.603  0.00  0.00     0.092 C 
ATOM      3  C   UNL d   1       1.295   1.247   0.106  0.00  0.00     0.050 C 
ATOM      4  C   UNL d   1      -0.022   1.529  -0.264  0.00  0.00     0.037 C 
ATOM      5  C   UNL d   1      -0.179  -0.697  -1.188  0.00  0.00     0.040 C 
ATOM      6  C   UNL d   1      -0.705   0.593  -1.036  0.00  0.00     0.032 C 
ENDROOT
BRANCH   4   7
ATOM      7  N   UNL d   1      -0.723   2.673   0.197  0.00  0.00    -0.309 N 
ATOM      8  C   UNL d   1      -0.360   3.377   1.341  0.00  0.00     0.325 C 
ATOM      9  N   UNL d   1      -1.339   4.271   1.759  0.00  0.00    -0.309 N 
ATOM     10  O   UNL d   1       0.685   3.186   1.951  0.00  0.00    -0.247 OA
ATOM     11  H   UNL d   1      -2.221   4.255   1.266  0.00  0.00     0.170 HD
ATOM     12  H   UNL d   1      -1.676   2.776  -0.118  0.00  0.00     0.170 HD
BRANCH   9  13
ATOM     13  C   UNL d   1      -1.276   5.063   2.925  0.00  0.00     0.036 A 
ATOM     14  C   UNL d   1      -0.119   5.216   3.698  0.00  0.00     0.029 A 
ATOM     15  C   UNL d   1      -0.125   5.976   4.872  0.00  0.00     0.002 A 
ATOM     16  C   UNL d   1      -1.288   6.600   5.281  0.00  0.00     0.000 A 
ATOM     17  C   UNL d   1      -2.454   6.480   4.512  0.00  0.00     0.002 A 
ATOM     18  C   UNL d   1      -2.439   5.716   3.342  0.00  0.00     0.029 A 
ENDBRANCH   9  13
ENDBRANCH   4   7
BRANCH   1  19
ATOM     19  C   UNL d   1       3.301  -0.140   0.342  0.00  0.00     0.296 C 
ATOM     20  O   UNL d   1       3.954   0.851   0.642  0.00  0.00    -0.259 OA
BRANCH  19  21
ATOM     21  O   UNL d   1       3.832  -1.385   0.236  0.00  0.00    -0.318 OA
BRANCH  21  22
ATOM     22  C   UNL d   1       5.275  -1.435   0.287  0.00  0.00     0.174 C 
ATOM     23  C   UNL d   1       5.856  -1.282   1.686  0.00  0.00     0.034 C 
ENDBRANCH  21  22
ENDBRANCH  19  21
ENDBRANCH   1  19
BRANCH   2  24
ATOM     24  O   UNL d   1       1.447  -2.339  -0.390  0.00  0.00    -0.308 OA
BRANCH  24  25
ATOM     25  C   UNL d   1       0.887  -3.364  -1.101  0.00  0.00     0.093 A 
ATOM     26  C   UNL d   1      -0.083  -4.191  -0.536  0.00  0.00     0.064 A 
ATOM     27  C   UNL d   1      -0.361  -5.406  -1.158  0.00  0.00     0.052 A 
ATOM     28 CL   UNL d   1      -1.482  -6.512  -0.472  0.00  0.00    -0.083 Cl
ATOM     29  C   UNL d   1       0.328  -5.732  -2.320  0.00  0.00     0.111 A 
ATOM     30  N   UNL d   1       1.225  -4.913  -2.922  0.00  0.00    -0.371 N 
ATOM     31  C   UNL d   1       1.491  -3.749  -2.289  0.00  0.00     0.124 A 
ATOM     32  HN  UNL d   1       1.674  -5.162  -3.804  1.00  0.00     0.164 HD
ENDBRANCH  24  25
ENDBRANCH   2  24
TORSDOF 7
