REMARK  6 active torsions:
REMARK  status: ('A' for Active; 'I' for Inactive)
REMARK    1  A    between atoms: C_7  and  C_1 
REMARK    2  A    between atoms: S_8  and  C_3 
REMARK       I    between atoms: N_11  and  C_7 
REMARK    3  A    between atoms: C_14  and  S_8 
REMARK    4  A    between atoms: N_9  and  N_11 
REMARK    5  A    between atoms: C_16  and  C_13 
REMARK    6  A    between atoms: C_19  and  C_14 
ROOT
ATOM      1  C   UNL d   1      -0.062  -1.204   0.039  0.00  0.00     0.121 A 
ATOM      2  N   UNL d   1       0.766  -0.084   0.040  0.00  0.00    -0.326 N 
ATOM      3  C   UNL d   1      -0.037   1.032   0.117  0.00  0.00     0.147 A 
ATOM      4  N   UNL d   1      -1.308   0.716   0.145  0.00  0.00    -0.344 N 
ATOM      5  HN  UNL d   1      -2.104   1.350   0.199  1.00  0.00     0.167 HD
ATOM      6  C   UNL d   1      -1.334  -0.652   0.084  0.00  0.00     0.125 A 
ATOM      7  C   UNL d   1       2.211  -0.045  -0.021  0.00  0.00     0.159 C 
ENDROOT
BRANCH   1   8
ATOM      8  C   UNL d   1       0.357  -2.598   0.005  0.00  0.00     0.288 C 
ATOM      9  N   UNL d   1      -0.670  -3.541  -0.021  0.00  0.00    -0.265 N 
ATOM     10  H   UNL d   1      -1.643  -3.267  -0.024  0.00  0.00     0.190 HD
ATOM     11  O   UNL d   1       1.541  -2.932   0.010  0.00  0.00    -0.264 OA
BRANCH   9  12
ATOM     12  N   UNL d   1      -0.352  -4.872  -0.023  0.00  0.00    -0.308 N 
ATOM     13  C   UNL d   1      -1.333  -5.715  -0.022  0.00  0.00     0.118 C 
ATOM     14  HN  UNL d   1       0.618  -5.186  -0.026  1.00  0.00     0.186 HD
BRANCH  13  15
ATOM     15  C   UNL d   1      -1.083  -7.174  -0.014  0.00  0.00    -0.019 A 
ATOM     16  C   UNL d   1       0.226  -7.671  -0.033  0.00  0.00     0.014 A 
ATOM     17  C   UNL d   1       0.453  -9.051  -0.016  0.00  0.00     0.024 A 
ATOM     18  C   UNL d   1      -0.630  -9.928   0.020  0.00  0.00     0.034 A 
ATOM     19  C   UNL d   1      -1.937  -9.438   0.038  0.00  0.00     0.024 A 
ATOM     20 CL   UNL d   1      -0.353 -11.626   0.045  0.00  0.00    -0.084 Cl
ATOM     21  C   UNL d   1      -2.167  -8.057   0.020  0.00  0.00     0.014 A 
ENDBRANCH  13  15
ENDBRANCH   9  12
ENDBRANCH   1   8
BRANCH   3  22
ATOM     22  S   UNL d   1       0.592   2.651   0.151  0.00  0.00    -0.089 SA
BRANCH  22  23
ATOM     23  C   UNL d   1      -0.799   3.547   0.897  0.00  0.00     0.121 C 
BRANCH  23  24
ATOM     24  C   UNL d   1      -0.505   5.025   1.049  0.00  0.00    -0.048 A 
ATOM     25  C   UNL d   1      -0.945   5.943   0.082  0.00  0.00     0.009 A 
ATOM     26  C   UNL d   1      -0.691   7.310   0.230  0.00  0.00     0.024 A 
ATOM     27  C   UNL d   1       0.012   7.768   1.341  0.00  0.00     0.034 A 
ATOM     28  C   UNL d   1       0.469   6.871   2.303  0.00  0.00     0.024 A 
ATOM     29 CL   UNL d   1       0.316   9.452   1.527  0.00  0.00    -0.084 Cl
ATOM     30  C   UNL d   1       0.213   5.503   2.157  0.00  0.00     0.009 A 
ENDBRANCH  23  24
ENDBRANCH  22  23
ENDBRANCH   3  22
TORSDOF 6
