REMARK  3 active torsions:
REMARK  status: ('A' for Active; 'I' for Inactive)
REMARK    1  A    between atoms: C_7  and  C_4 
REMARK    2  A    between atoms: O_10  and  C_9 
REMARK    3  A    between atoms: C_15  and  O_10 
ROOT
ATOM      1  C   UNL d   1      -1.032  -2.940   0.246  0.00  0.00     0.045 A 
ATOM      2  C   UNL d   1       0.333  -2.920   0.880  0.00  0.00     0.257 A 
ATOM      3  N   UNL d   1       0.761  -4.238   0.839  0.00  0.00    -0.322 N 
ATOM      4  C   UNL d   1      -1.830  -1.865   0.337  0.00  0.00     0.032 C 
ATOM      5  C   UNL d   1      -1.268  -4.300  -0.238  0.00  0.00     0.006 A 
ATOM      6  C   UNL d   1      -0.165  -5.050   0.187  0.00  0.00     0.046 A 
ATOM      7  O   UNL d   1       0.914  -1.966   1.360  0.00  0.00    -0.267 OA
ATOM      8  C   UNL d   1      -2.265  -4.892  -0.991  0.00  0.00     0.015 A 
ATOM      9  C   UNL d   1      -0.052  -6.405  -0.052  0.00  0.00     0.030 A 
ATOM     10  C   UNL d   1      -2.164  -6.261  -1.260  0.00  0.00     0.001 A 
ATOM     11  C   UNL d   1      -1.076  -7.014  -0.780  0.00  0.00     0.002 A 
ATOM     12  H   UNL d   1       1.644  -4.538   1.222  0.00  0.00     0.169 HD
ENDROOT
BRANCH   4  13
ATOM     13  C   UNL d   1      -3.265  -1.854   0.035  0.00  0.00    -0.002 A 
ATOM     14  C   UNL d   1      -3.858  -1.412  -1.157  0.00  0.00     0.079 A 
ATOM     15  C   UNL d   1      -5.252  -1.525  -1.309  0.00  0.00     0.037 A 
ATOM     16  C   UNL d   1      -6.053  -2.041  -0.291  0.00  0.00     0.003 A 
ATOM     17  C   UNL d   1      -5.472  -2.469   0.893  0.00  0.00     0.001 A 
ATOM     18  C   UNL d   1      -4.090  -2.376   1.054  0.00  0.00     0.014 A 
BRANCH  14  19
ATOM     19  O   UNL d   1      -3.246  -0.916  -2.276  0.00  0.00    -0.351 OA
BRANCH  19  20
ATOM     20  C   UNL d   1      -2.040  -0.179  -2.111  0.00  0.00     0.171 C 
ATOM     21  C   UNL d   1      -1.915   0.777  -3.285  0.00  0.00     0.034 C 
ENDBRANCH  19  20
ENDBRANCH  14  19
ENDBRANCH   4  13
TORSDOF 3
