REMARK  7 active torsions:
REMARK  status: ('A' for Active; 'I' for Inactive)
REMARK    1  A    between atoms: C_12  and  C_1 
REMARK    2  A    between atoms: C_3  and  C_2 
REMARK    3  A    between atoms: C_15  and  C_10 
REMARK    4  A    between atoms: O_17  and  C_12 
REMARK    5  A    between atoms: O_16  and  C_15 
REMARK    6  A    between atoms: C_18  and  O_16 
REMARK    7  A    between atoms: C_19  and  O_17 
ROOT
ATOM      1  C   UNL d   1      -1.495   2.223  -0.026  0.00  0.00     0.075 A 
ATOM      2  N   UNL d   1      -2.386   2.510   0.992  0.00  0.00    -0.349 N 
ATOM      3  HN  UNL d   1      -2.582   1.902   1.786  1.00  0.00     0.166 HD
ATOM      4  C   UNL d   1      -2.946   3.686   0.783  0.00  0.00     0.075 A 
ATOM      5  C   UNL d   1      -1.343   3.216  -0.972  0.00  0.00     0.084 A 
ATOM      6  S   UNL d   1      -2.366   4.537  -0.599  0.00  0.00    -0.084 SA
ENDROOT
BRANCH   1   7
ATOM      7  C   UNL d   1      -0.748   0.940  -0.052  0.00  0.00     0.128 A 
ATOM      8  C   UNL d   1      -0.054   0.399  -1.112  0.00  0.00     0.079 A 
ATOM      9  C   UNL d   1       0.470  -0.824  -0.622  0.00  0.00     0.132 A 
ATOM     10  N   UNL d   1       0.129  -1.002   0.665  0.00  0.00    -0.255 N 
ATOM     11  O   UNL d   1      -0.660   0.083   1.002  0.00  0.00    -0.235 OA
ATOM     12  HN  UNL d   1       0.396  -1.778   1.270  1.00  0.00     0.195 HD
BRANCH   9  13
ATOM     13  C   UNL d   1       1.202  -1.826  -1.384  0.00  0.00     0.311 C 
ATOM     14  O   UNL d   1       1.403  -1.727  -2.595  0.00  0.00    -0.258 OA
BRANCH  13  15
ATOM     15  O   UNL d   1       1.550  -2.911  -0.631  0.00  0.00    -0.317 OA
BRANCH  15  16
ATOM     16  C   UNL d   1       1.769  -4.123  -1.358  0.00  0.00     0.175 C 
ATOM     17  C   UNL d   1       0.419  -4.782  -1.584  0.00  0.00     0.034 C 
ENDBRANCH  15  16
ENDBRANCH  13  15
ENDBRANCH   9  13
ENDBRANCH   1   7
BRANCH   4  18
ATOM     18  C   UNL d   1      -3.972   4.317   1.677  0.00  0.00     0.240 C 
BRANCH  18  19
ATOM     19  O   UNL d   1      -5.250   4.112   1.072  0.00  0.00    -0.345 OA
BRANCH  19  20
ATOM     20  C   UNL d   1      -6.325   4.687   1.701  0.00  0.00     0.069 A 
ATOM     21  C   UNL d   1      -6.288   5.403   2.900  0.00  0.00     0.037 A 
ATOM     22  C   UNL d   1      -7.463   5.950   3.426  0.00  0.00     0.003 A 
ATOM     23  C   UNL d   1      -8.677   5.783   2.763  0.00  0.00     0.000 A 
ATOM     24  C   UNL d   1      -8.720   5.061   1.574  0.00  0.00     0.003 A 
ATOM     25  C   UNL d   1      -7.546   4.513   1.049  0.00  0.00     0.037 A 
ENDBRANCH  19  20
ENDBRANCH  18  19
ENDBRANCH   4  18
TORSDOF 7
