REMARK  5 active torsions:
REMARK  status: ('A' for Active; 'I' for Inactive)
REMARK    1  A    between atoms: C_8  and  N_1 
REMARK    2  A    between atoms: C_12  and  C_4 
REMARK    3  A    between atoms: C_7  and  O_18 
REMARK       I    between atoms: N_11  and  C_7 
REMARK    4  A    between atoms: C_15  and  N_11 
REMARK    5  A    between atoms: O_18  and  N_13 
ROOT
ATOM      1  C   UNL d   1      -1.122   2.465   0.089  0.00  0.00     0.130 C 
ATOM      2  N   UNL d   1      -2.250   2.732  -0.472  0.00  0.00    -0.267 N 
ATOM      3  HN  UNL d   1      -2.847   2.055  -0.948  1.00  0.00     0.194 HD
ENDROOT
BRANCH   2   4
ATOM      4  O   UNL d   1      -2.531   4.099  -0.325  0.00  0.00    -0.181 OA
BRANCH   4   5
ATOM      5  C   UNL d   1      -3.760   4.372  -0.859  0.00  0.00     0.387 C 
ATOM      6  N   UNL d   1      -4.539   5.243  -0.136  0.00  0.00    -0.301 N 
ATOM      7  H   UNL d   1      -5.432   5.378  -0.591  0.00  0.00     0.171 HD
ATOM      8  O   UNL d   1      -4.200   3.885  -1.899  0.00  0.00    -0.236 OA
BRANCH   6   9
ATOM      9  C   UNL d   1      -4.330   5.905   1.088  0.00  0.00     0.038 A 
ATOM     10  C   UNL d   1      -3.167   5.837   1.854  0.00  0.00     0.054 A 
ATOM     11  C   UNL d   1      -3.028   6.615   3.012  0.00  0.00     0.042 A 
ATOM     12 CL   UNL d   1      -1.544   6.487   3.892  0.00  0.00    -0.084 Cl
ATOM     13  C   UNL d   1      -4.051   7.476   3.427  0.00  0.00    -0.040 A 
ATOM     14  C   UNL d   1      -5.249   7.478   2.704  0.00  0.00     0.011 A 
ATOM     15  C   UNL d   1      -3.893   8.392   4.606  0.00  0.00     0.050 C 
ATOM     16  C   UNL d   1      -5.384   6.702   1.549  0.00  0.00     0.030 A 
ENDBRANCH   6   9
ENDBRANCH   4   5
ENDBRANCH   2   4
BRANCH   1  17
ATOM     17  C   UNL d   1      -0.679   1.099   0.218  0.00  0.00     0.029 C 
ATOM     18  C   UNL d   1      -1.408  -0.076   0.037  0.00  0.00     0.039 C 
ATOM     19  N   UNL d   1      -0.505  -1.111   0.198  0.00  0.00    -0.287 N 
ATOM     20  C   UNL d   1      -2.862  -0.255  -0.236  0.00  0.00     0.071 C 
ATOM     21  N   UNL d   1       0.692  -0.668   0.646  0.00  0.00    -0.301 N 
ATOM     22  C   UNL d   1       0.598   0.661   0.644  0.00  0.00     0.035 C 
ATOM     23  HN  UNL d   1       1.496  -1.231   0.925  1.00  0.00     0.187 HD
ATOM     24  C   UNL d   1       1.749   1.481   1.096  0.00  0.00     0.070 C 
BRANCH  19  25
ATOM     25  C   UNL d   1      -0.688  -2.574   0.061  0.00  0.00     0.043 C 
ATOM     26  C   UNL d   1      -1.315  -3.133   1.349  0.00  0.00     0.039 C 
ATOM     27  C   UNL d   1      -1.553  -2.960  -1.157  0.00  0.00     0.039 C 
ATOM     28  C   UNL d   1       0.680  -3.279  -0.152  0.00  0.00     0.039 C 
ENDBRANCH  19  25
ENDBRANCH   1  17
TORSDOF 5
