REMARK  6 active torsions:
REMARK  status: ('A' for Active; 'I' for Inactive)
REMARK    1  A    between atoms: N_8  and  C_2 
REMARK    2  A    between atoms: S_16  and  C_3 
REMARK    3  A    between atoms: N_19  and  C_10 
REMARK       I    between atoms: N_11  and  C_14 
REMARK    4  A    between atoms: C_12  and  N_11 
REMARK    5  A    between atoms: C_14  and  C_21 
REMARK    6  A    between atoms: C_21  and  S_16 
ROOT
ATOM      1  S   UNL d   1       0.732  -2.636   1.258  0.00  0.00    -0.094 SA
ENDROOT
BRANCH   1   2
ATOM      2  C   UNL d   1       0.742  -0.910   0.923  0.00  0.00     0.130 A 
ATOM      3  S   UNL d   1      -0.378   0.188   1.604  0.00  0.00    -0.026 SA
ATOM      4  C   UNL d   1       0.344   1.431   0.631  0.00  0.00     0.166 A 
ATOM      5  N   UNL d   1       1.372   0.986  -0.071  0.00  0.00    -0.278 N 
ATOM      6  N   UNL d   1       1.602  -0.362   0.096  0.00  0.00    -0.286 N 
ATOM      7  HN  UNL d   1       1.938   1.581  -0.677  1.00  0.00     0.189 HD
ATOM      8  HN  UNL d   1       2.352  -0.875  -0.368  1.00  0.00     0.188 HD
BRANCH   4   9
ATOM      9  N   UNL d   1      -0.197   2.678   0.672  0.00  0.00    -0.332 N 
ATOM     10  C   UNL d   1       0.277   3.516  -0.190  0.00  0.00     0.179 C 
ATOM     11  HN  UNL d   1      -0.927   2.934   1.337  1.00  0.00     0.168 HD
BRANCH  10  12
ATOM     12  N   UNL d   1      -0.117   4.827  -0.358  0.00  0.00    -0.386 N 
ATOM     13  C   UNL d   1      -1.194   5.415   0.421  0.00  0.00     0.149 C 
ATOM     14  C   UNL d   1       0.470   5.684  -1.375  0.00  0.00     0.149 C 
ENDBRANCH  10  12
ENDBRANCH   4   9
ENDBRANCH   1   2
BRANCH   1  15
ATOM     15  C   UNL d   1       2.065  -3.160   0.143  0.00  0.00     0.184 C 
BRANCH  15  16
ATOM     16  C   UNL d   1       2.205  -4.660  -0.063  0.00  0.00     0.231 C 
ATOM     17  N   UNL d   1       1.444  -5.484   0.745  0.00  0.00    -0.324 N 
ATOM     18  H   UNL d   1       0.656  -5.042   1.204  0.00  0.00     0.169 HD
ATOM     19  O   UNL d   1       2.947  -5.058  -0.962  0.00  0.00    -0.272 OA
BRANCH  17  20
ATOM     20  C   UNL d   1       1.469  -6.900   0.708  0.00  0.00     0.073 A 
ATOM     21  C   UNL d   1       2.590  -7.664   0.338  0.00  0.00     0.145 A 
ATOM     22  C   UNL d   1       2.525  -9.052   0.250  0.00  0.00     0.086 A 
ATOM     23  F   UNL d   1       3.788  -7.096   0.147  0.00  0.00    -0.204 F 
ATOM     24  C   UNL d   1       1.338  -9.693   0.561  0.00  0.00     0.119 A 
ATOM     25  C   UNL d   1       0.228  -8.972   0.988  0.00  0.00     0.044 A 
ATOM     26  F   UNL d   1       1.262 -11.027   0.468  0.00  0.00    -0.206 F 
ATOM     27  C   UNL d   1       0.296  -7.577   1.075  0.00  0.00     0.036 A 
ENDBRANCH  17  20
ENDBRANCH  15  16
ENDBRANCH   1  15
TORSDOF 6
