REMARK  4 active torsions:
REMARK  status: ('A' for Active; 'I' for Inactive)
REMARK    1  A    between atoms: C_6  and  S_1 
REMARK    2  A    between atoms: C_9  and  S_1 
REMARK    3  A    between atoms: C_10  and  C_4 
REMARK    4  A    between atoms: C_5  and  C_6 
ROOT
ATOM      1  S   UNL d   1       1.105   0.016   0.109  0.00  0.00     0.196 S 
ATOM      2  O   UNL d   1       2.552   0.082   0.251  0.00  0.00    -0.221 OA
ATOM      3  O   UNL d   1       0.545  -0.637  -1.065  0.00  0.00    -0.221 OA
ENDROOT
BRANCH   1   4
ATOM      4  C   UNL d   1       0.459   1.664   0.181  0.00  0.00     0.212 C 
BRANCH   4   5
ATOM      5  C   UNL d   1       0.907   2.311   1.442  0.00  0.00     0.065 A 
ATOM      6  N   UNL d   1       0.232   2.276   2.572  0.00  0.00    -0.350 N 
ATOM      7  C   UNL d   1       0.897   2.987   3.566  0.00  0.00     0.085 A 
ATOM      8  HN  UNL d   1      -0.658   1.793   2.701  1.00  0.00     0.166 HD
ATOM      9  C   UNL d   1       2.080   3.568   3.149  0.00  0.00     0.084 A 
ATOM     10  S   UNL d   1       2.355   3.240   1.492  0.00  0.00    -0.085 SA
BRANCH   7  11
ATOM     11  C   UNL d   1       0.373   3.100   4.931  0.00  0.00     0.172 C 
ATOM     12  O   UNL d   1       0.979   3.726   5.801  0.00  0.00    -0.291 OA
ATOM     13  C   UNL d   1      -0.940   2.432   5.258  0.00  0.00     0.098 C 
ENDBRANCH   7  11
ENDBRANCH   4   5
ENDBRANCH   1   4
BRANCH   1  14
ATOM     14  C   UNL d   1       0.459  -0.819   1.546  0.00  0.00     0.128 A 
ATOM     15  N   UNL d   1      -0.897  -0.894   1.592  0.00  0.00    -0.357 N 
ATOM     16  C   UNL d   1      -1.408  -1.582   2.636  0.00  0.00     0.089 A 
ATOM     17  HN  UNL d   1      -1.490  -0.459   0.885  1.00  0.00     0.166 HD
ATOM     18  C   UNL d   1      -0.634  -2.173   3.627  0.00  0.00     0.017 A 
ATOM     19  C   UNL d   1       0.752  -2.056   3.549  0.00  0.00     0.004 A 
ATOM     20  C   UNL d   1       1.320  -1.368   2.484  0.00  0.00     0.042 A 
ENDBRANCH   1  14
TORSDOF 4
