REMARK  10 active torsions:
REMARK  status: ('A' for Active; 'I' for Inactive)
REMARK    1  A    between atoms: S_14  and  C_3 
REMARK    2  A    between atoms: S_15  and  C_4 
REMARK    3  A    between atoms: C_8  and  C_21 
REMARK    4  A    between atoms: C_9  and  C_20 
REMARK    5  A    between atoms: C_16  and  C_10 
REMARK    6  A    between atoms: C_17  and  C_11 
REMARK    7  A    between atoms: C_21  and  S_14 
REMARK    8  A    between atoms: C_20  and  S_15 
REMARK    9  A    between atoms: O_29  and  C_18 
REMARK   10  A    between atoms: O_28  and  C_19 
ROOT
ATOM      1  N   UNL d   1       1.343  -0.377  -0.387  0.00  0.00    -0.324 N 
ATOM      2  HN  UNL d   1       2.305  -0.683  -0.533  1.00  0.00     0.169 HD
ATOM      3  C   UNL d   1       0.935   0.922  -0.077  0.00  0.00     0.152 A 
ATOM      4  C   UNL d   1       0.273  -1.135  -0.459  0.00  0.00     0.130 A 
ATOM      5  N   UNL d   1      -0.364   1.190   0.060  0.00  0.00    -0.305 N 
ATOM      6  HN  UNL d   1      -0.781   2.097   0.270  1.00  0.00     0.176 HD
ATOM      7  S   UNL d   1      -1.171  -0.247  -0.179  0.00  0.00     0.013 SA
ENDROOT
BRANCH   3   8
ATOM      8  S   UNL d   1       2.138   2.195   0.098  0.00  0.00    -0.089 SA
BRANCH   8   9
ATOM      9  C   UNL d   1       1.254   3.455   1.080  0.00  0.00     0.123 C 
BRANCH   9  10
ATOM     10  C   UNL d   1       0.936   3.177   2.540  0.00  0.00    -0.014 A 
ATOM     11  C   UNL d   1       1.456   2.031   3.176  0.00  0.00     0.026 A 
ATOM     12  C   UNL d   1       1.264   1.757   4.541  0.00  0.00     0.010 A 
ATOM     13  C   UNL d   1       0.465   2.602   5.298  0.00  0.00     0.018 A 
ATOM     14  C   UNL d   1      -0.035   3.761   4.708  0.00  0.00     0.038 A 
ATOM     15  C   UNL d   1       0.214   4.075   3.353  0.00  0.00     0.075 A 
BRANCH  12  16
ATOM     16  C   UNL d   1       2.006   0.604   5.121  0.00  0.00     0.155 C 
ATOM     17  O   UNL d   1       2.800  -0.004   4.402  0.00  0.00    -0.293 OA
ATOM     18  C   UNL d   1       1.790   0.194   6.549  0.00  0.00     0.096 C 
ENDBRANCH  12  16
BRANCH  15  19
ATOM     19  O   UNL d   1      -0.187   5.347   3.057  0.00  0.00    -0.355 OA
ATOM     20  C   UNL d   1      -0.753   5.621   1.789  0.00  0.00     0.210 C 
ENDBRANCH  15  19
ENDBRANCH   9  10
ENDBRANCH   8   9
ENDBRANCH   3   8
BRANCH   4  21
ATOM     21  S   UNL d   1       0.264  -2.849  -0.790  0.00  0.00    -0.099 SA
BRANCH  21  22
ATOM     22  C   UNL d   1       1.981  -3.356  -0.482  0.00  0.00     0.123 C 
BRANCH  22  23
ATOM     23  C   UNL d   1       2.573  -3.220   0.906  0.00  0.00    -0.014 A 
ATOM     24  C   UNL d   1       1.713  -3.005   2.013  0.00  0.00     0.026 A 
ATOM     25  C   UNL d   1       2.189  -2.855   3.320  0.00  0.00     0.010 A 
ATOM     26  C   UNL d   1       3.557  -2.899   3.552  0.00  0.00     0.018 A 
ATOM     27  C   UNL d   1       4.419  -3.162   2.493  0.00  0.00     0.038 A 
ATOM     28  C   UNL d   1       3.949  -3.364   1.181  0.00  0.00     0.075 A 
BRANCH  25  29
ATOM     29  C   UNL d   1       1.265  -2.678   4.478  0.00  0.00     0.155 C 
ATOM     30  O   UNL d   1       1.636  -2.957   5.613  0.00  0.00    -0.293 OA
ATOM     31  C   UNL d   1      -0.126  -2.150   4.223  0.00  0.00     0.096 C 
ENDBRANCH  25  29
BRANCH  28  32
ATOM     32  O   UNL d   1       4.989  -3.739   0.379  0.00  0.00    -0.355 OA
ATOM     33  C   UNL d   1       4.883  -3.834  -1.025  0.00  0.00     0.210 C 
ENDBRANCH  28  32
ENDBRANCH  22  23
ENDBRANCH  21  22
ENDBRANCH   4  21
TORSDOF 10
