REMARK  7 active torsions:
REMARK  status: ('A' for Active; 'I' for Inactive)
REMARK    1  A    between atoms: C_2  and  C_1 
REMARK       I    between atoms: N_6  and  C_2 
REMARK    2  A    between atoms: C_3  and  O_5 
REMARK    3  A    between atoms: N_10  and  C_3 
REMARK    4  A    between atoms: O_5  and  C_4 
REMARK    5  A    between atoms: C_12  and  N_6 
REMARK    6  A    between atoms: C_23  and  N_10 
REMARK    7  A    between atoms: C_24  and  N_10 
ROOT
ATOM      1  C   UNL d   1       2.561  -1.499  -0.151  0.00  0.00     0.067 C 
ATOM      2  C   UNL d   1       3.011  -0.766   0.957  0.00  0.00     0.094 C 
ATOM      3  C   UNL d   1       1.313  -1.232  -0.698  0.00  0.00     0.039 C 
ATOM      4  C   UNL d   1       2.323   0.347   1.422  0.00  0.00     0.040 C 
ATOM      5  C   UNL d   1       0.584  -0.149  -0.200  0.00  0.00     0.012 C 
ATOM      6  C   UNL d   1       1.108   0.667   0.812  0.00  0.00     0.022 C 
ATOM      7 BR   UNL d   1      -1.138   0.211  -0.892  0.00  0.00    -0.051 Br
ENDROOT
BRANCH   1   8
ATOM      8  C   UNL d   1       3.462  -2.471  -0.813  0.00  0.00     0.259 C 
ATOM      9  N   UNL d   1       4.704  -1.918  -1.097  0.00  0.00    -0.323 N 
ATOM     10  H   UNL d   1       4.806  -0.931  -0.901  0.00  0.00     0.169 HD
ATOM     11  O   UNL d   1       3.063  -3.588  -1.079  0.00  0.00    -0.267 OA
BRANCH   9  12
ATOM     12  C   UNL d   1       5.856  -2.554  -1.589  0.00  0.00     0.036 A 
ATOM     13  C   UNL d   1       5.949  -3.926  -1.811  0.00  0.00     0.056 A 
ATOM     14  C   UNL d   1       7.158  -4.478  -2.247  0.00  0.00     0.074 A 
ATOM     15 CL   UNL d   1       7.275  -6.178  -2.489  0.00  0.00    -0.081 Cl
ATOM     16  C   UNL d   1       8.261  -3.656  -2.471  0.00  0.00     0.138 A 
ATOM     17  C   UNL d   1       8.176  -2.285  -2.264  0.00  0.00     0.046 A 
ATOM     18  F   UNL d   1       9.429  -4.171  -2.884  0.00  0.00    -0.204 F 
ATOM     19  C   UNL d   1       6.977  -1.732  -1.823  0.00  0.00     0.032 A 
ENDBRANCH   9  12
ENDBRANCH   1   8
BRANCH   2  20
ATOM     20  O   UNL d   1       4.082  -1.374   1.708  0.00  0.00    -0.283 OA
BRANCH  20  21
ATOM     21  C   UNL d   1       5.173  -1.085   2.545  0.00  0.00     0.217 C 
ATOM     22  S   UNL d   1       5.736   0.481   2.614  0.00  0.00    -0.033 SA
BRANCH  21  23
ATOM     23  N   UNL d   1       5.684  -2.225   3.174  0.00  0.00    -0.353 N 
BRANCH  23  24
ATOM     24  C   UNL d   1       6.970  -2.176   3.896  0.00  0.00     0.121 C 
ATOM     25  C   UNL d   1       7.594  -3.495   4.332  0.00  0.00     0.026 C 
ENDBRANCH  23  24
BRANCH  23  26
ATOM     26  C   UNL d   1       4.865  -3.446   3.247  0.00  0.00     0.121 C 
ATOM     27  C   UNL d   1       5.125  -4.416   2.107  0.00  0.00     0.026 C 
ENDBRANCH  23  26
ENDBRANCH  21  23
ENDBRANCH  20  21
ENDBRANCH   2  20
TORSDOF 7
