REMARK  3 active torsions:
REMARK  status: ('A' for Active; 'I' for Inactive)
REMARK    1  A    between atoms: C_2  and  C_1 
REMARK    2  A    between atoms: N_3  and  C_8 
REMARK    3  A    between atoms: S_17  and  C_11 
ROOT
ATOM      1  C   UNL d   1      -0.992  -2.475   0.057  0.00  0.00     0.013 A 
ATOM      2  C   UNL d   1      -0.299  -3.028   1.157  0.00  0.00     0.051 A 
ATOM      3  C   UNL d   1       0.058  -4.384   1.183  0.00  0.00     0.103 A 
ATOM      4  C   UNL d   1      -1.368  -3.337  -1.002  0.00  0.00     0.013 A 
ATOM      5  C   UNL d   1      -0.293  -5.227   0.130  0.00  0.00     0.037 A 
ATOM      6  C   UNL d   1      -1.013  -4.703  -0.944  0.00  0.00     0.022 A 
ENDROOT
BRANCH   1   7
ATOM      7  C   UNL d   1      -1.313  -1.037   0.104  0.00  0.00     0.078 A 
ATOM      8  C   UNL d   1      -0.511   0.065   0.523  0.00  0.00     0.056 A 
ATOM      9  C   UNL d   1      -1.289   1.186   0.403  0.00  0.00     0.128 A 
ATOM     10 BR   UNL d   1       1.271   0.059   1.107  0.00  0.00    -0.047 Br
ATOM     11  N   UNL d   1      -2.475   0.743  -0.091  0.00  0.00    -0.310 N 
ATOM     12  N   UNL d   1      -2.532  -0.587  -0.243  0.00  0.00    -0.299 N 
ATOM     13  H   UNL d   1      -3.292   1.289  -0.345  0.00  0.00     0.186 HD
ATOM     14  HN  UNL d   1      -3.330  -1.140  -0.555  1.00  0.00     0.187 HD
ENDBRANCH   1   7
BRANCH   4  15
ATOM     15  S   UNL d   1      -2.347  -2.912  -2.451  0.00  0.00    -0.134 SA
ATOM     16  C   UNL d   1      -1.227  -1.775  -3.298  0.00  0.00     0.095 C 
ENDBRANCH   4  15
BRANCH   3  17
ATOM     17  N   UNL d   1       0.805  -4.919   2.329  0.00  0.00    -0.116 N 
ATOM     18  O   UNL d   1       1.147  -4.127   3.215  0.00  0.00    -0.532 OA
ATOM     19  O   UNL d   1       1.055  -6.133   2.333  0.00  0.00    -0.532 OA
ENDBRANCH   3  17
TORSDOF 3
