REMARK  3 active torsions:
REMARK  status: ('A' for Active; 'I' for Inactive)
REMARK    1  A    between atoms: N_3  and  C_1 
REMARK    2  A    between atoms: O_4  and  C_2 
REMARK    3  A    between atoms: C_7  and  O_4 
ROOT
ATOM      1  O   UNL d   1      -0.160   2.678   0.039  0.00  0.00    -0.299 OA
ENDROOT
BRANCH   1   2
ATOM      2  C   UNL d   1      -1.343   2.887   0.641  0.00  0.00     0.149 A 
ATOM      3  C   UNL d   1      -2.094   1.976   1.371  0.00  0.00     0.144 A 
ATOM      4  C   UNL d   1      -3.301   2.554   1.893  0.00  0.00     0.046 A 
ATOM      5  C   UNL d   1      -3.464   3.863   1.505  0.00  0.00     0.055 A 
ATOM      6  S   UNL d   1      -2.207   4.378   0.479  0.00  0.00    -0.074 SA
BRANCH   3   7
ATOM      7  N   UNL d   1      -1.693   0.607   1.613  0.00  0.00    -0.112 N 
ATOM      8  O   UNL d   1      -0.596   0.231   1.185  0.00  0.00    -0.532 OA
ATOM      9  O   UNL d   1      -2.490  -0.094   2.251  0.00  0.00    -0.532 OA
ENDBRANCH   3   7
ENDBRANCH   1   2
BRANCH   1  10
ATOM     10  C   UNL d   1       0.826   3.638  -0.010  0.00  0.00     0.098 A 
ATOM     11  C   UNL d   1       1.617   3.728  -1.163  0.00  0.00     0.069 A 
ATOM     12  C   UNL d   1       2.640   4.676  -1.245  0.00  0.00     0.050 A 
ATOM     13 CL   UNL d   1       1.354   2.687  -2.514  0.00  0.00    -0.081 Cl
ATOM     14  C   UNL d   1       2.874   5.529  -0.169  0.00  0.00     0.035 A 
ATOM     15  C   UNL d   1       2.114   5.428   0.995  0.00  0.00     0.026 A 
ATOM     16 CL   UNL d   1       4.119   6.712  -0.271  0.00  0.00    -0.084 Cl
ATOM     17  C   UNL d   1       1.101   4.470   1.083  0.00  0.00     0.041 A 
ENDBRANCH   1  10
TORSDOF 3
