REMARK  9 active torsions:
REMARK  status: ('A' for Active; 'I' for Inactive)
REMARK    1  A    between atoms: C_2  and  S_1 
REMARK    2  A    between atoms: C_7  and  S_1 
REMARK    3  A    between atoms: S_3  and  C_4 
REMARK    4  A    between atoms: N_19  and  S_3 
REMARK    5  A    between atoms: C_6  and  C_8 
REMARK    6  A    between atoms: N_13  and  C_26 
REMARK    7  A    between atoms: C_29  and  N_19 
REMARK    8  A    between atoms: C_26  and  C_28 
REMARK    9  A    between atoms: C_28  and  C_29 
ROOT
ATOM      1  C   UNL d   1      -4.647  -3.401  -0.666  0.00  0.00     0.107 A 
ATOM      2  C   UNL d   1      -2.716  -4.283   0.608  0.00  0.00     0.116 A 
ATOM      3  S   UNL d   1      -4.341  -3.863   0.953  0.00  0.00    -0.065 SA
ATOM      4  C   UNL d   1      -3.520  -3.560  -1.454  0.00  0.00     0.033 A 
ATOM      5  C   UNL d   1      -2.415  -4.078  -0.725  0.00  0.00     0.034 A 
ENDROOT
BRANCH   2   6
ATOM      6  S   UNL d   1      -1.689  -4.864   1.942  0.00  0.00     0.248 S 
ATOM      7  O   UNL d   1      -0.522  -4.011   1.891  0.00  0.00    -0.205 OA
ATOM      8  O   UNL d   1      -2.505  -4.969   3.131  0.00  0.00    -0.205 OA
BRANCH   6   9
ATOM      9  N   UNL d   1      -1.139  -6.412   1.535  0.00  0.00    -0.215 NA
ATOM     10  H   UNL d   1      -0.193  -6.518   1.904  0.00  0.00     0.139 HD
BRANCH   9  11
ATOM     11  C   UNL d   1      -2.039  -7.537   1.855  0.00  0.00     0.106 C 
BRANCH  11  12
ATOM     12  C   UNL d   1      -1.392  -8.860   1.441  0.00  0.00     0.045 C 
BRANCH  12  13
ATOM     13  C   UNL d   1      -1.165  -8.972  -0.073  0.00  0.00     0.274 C 
BRANCH  13  14
ATOM     14  N   UNL d   1      -0.652 -10.297  -0.483  0.00  0.00     0.092 N 
ATOM     15  C   UNL d   1       0.698 -10.611   0.035  0.00  0.00     0.219 C 
ATOM     16  C   UNL d   1       0.896 -12.133   0.093  0.00  0.00     0.043 C 
ATOM     17  C   UNL d   1       1.836  -9.917  -0.735  0.00  0.00     0.035 C 
ATOM     18  C   UNL d   1       1.741 -10.129  -2.240  0.00  0.00     0.004 C 
ATOM     19  C   UNL d   1       0.355  -9.738  -2.734  0.00  0.00     0.030 C 
ATOM     20  C   UNL d   1      -0.736 -10.469  -1.948  0.00  0.00     0.273 C 
ENDBRANCH  13  14
ENDBRANCH  12  13
ENDBRANCH  11  12
ENDBRANCH   9  11
ENDBRANCH   6   9
ENDBRANCH   2   6
BRANCH   1  21
ATOM     21  S   UNL d   1      -6.311  -2.947  -1.109  0.00  0.00     0.228 S 
ATOM     22  O   UNL d   1      -7.130  -4.080  -0.714  0.00  0.00    -0.215 OA
ATOM     23  O   UNL d   1      -6.200  -2.568  -2.508  0.00  0.00    -0.215 OA
BRANCH  21  24
ATOM     24  C   UNL d   1      -6.910  -1.516  -0.245  0.00  0.00     0.134 A 
ATOM     25  N   UNL d   1      -6.106  -0.970   0.701  0.00  0.00    -0.356 N 
ATOM     26  C   UNL d   1      -6.593   0.137   1.322  0.00  0.00     0.105 A 
ATOM     27  HN  UNL d   1      -5.195  -1.365   0.932  1.00  0.00     0.166 HD
ATOM     28  C   UNL d   1      -7.821   0.727   1.030  0.00  0.00     0.063 A 
ATOM     29  C   UNL d   1      -8.611   0.129   0.041  0.00  0.00     0.020 A 
ATOM     30  C   UNL d   1      -8.154  -1.012  -0.609  0.00  0.00     0.043 A 
BRANCH  28  31
ATOM     31  C   UNL d   1      -8.281   1.966   1.738  0.00  0.00     0.418 C 
ATOM     32  F   UNL d   1      -7.405   2.418   2.677  0.00  0.00    -0.166 F 
ATOM     33  F   UNL d   1      -8.479   3.007   0.882  0.00  0.00    -0.166 F 
ATOM     34  F   UNL d   1      -9.465   1.788   2.386  0.00  0.00    -0.166 F 
ENDBRANCH  28  31
ENDBRANCH  21  24
ENDBRANCH   1  21
TORSDOF 9
