REMARK  4 active torsions:
REMARK  status: ('A' for Active; 'I' for Inactive)
REMARK    1  A    between atoms: C_8  and  C_1 
REMARK       I    between atoms: N_9  and  C_1 
REMARK    2  A    between atoms: C_2  and  C_7 
REMARK       I    between atoms: N_10  and  C_2 
REMARK    3  A    between atoms: C_11  and  N_9 
REMARK    4  A    between atoms: C_12  and  N_10 
ROOT
ATOM      1  C   UNL d   1       0.992   1.834  -1.404  0.00  0.00     0.080 C 
ATOM      2  C   UNL d   1       0.437   0.723  -0.894  0.00  0.00     0.080 C 
ENDROOT
BRANCH   1   3
ATOM      3  C   UNL d   1       0.183   2.734  -2.264  0.00  0.00     0.245 C 
ATOM      4  N   UNL d   1       0.922   3.786  -2.767  0.00  0.00    -0.324 N 
ATOM      5  H   UNL d   1       1.926   3.756  -2.639  0.00  0.00     0.169 HD
ATOM      6  O   UNL d   1      -1.003   2.501  -2.463  0.00  0.00    -0.268 OA
BRANCH   4   7
ATOM      7  C   UNL d   1       0.422   4.896  -3.483  0.00  0.00     0.036 A 
ATOM      8  C   UNL d   1      -0.941   5.197  -3.582  0.00  0.00     0.056 A 
ATOM      9  C   UNL d   1      -1.365   6.326  -4.288  0.00  0.00     0.074 A 
ATOM     10 CL   UNL d   1      -3.047   6.689  -4.374  0.00  0.00    -0.081 Cl
ATOM     11  C   UNL d   1      -0.431   7.154  -4.903  0.00  0.00     0.138 A 
ATOM     12  C   UNL d   1       0.927   6.873  -4.809  0.00  0.00     0.046 A 
ATOM     13  F   UNL d   1      -0.820   8.237  -5.591  0.00  0.00    -0.204 F 
ATOM     14  C   UNL d   1       1.354   5.751  -4.090  0.00  0.00     0.032 A 
ENDBRANCH   4   7
ENDBRANCH   1   3
BRANCH   2  15
ATOM     15  C   UNL d   1       1.222  -0.068   0.088  0.00  0.00     0.245 C 
ATOM     16  N   UNL d   1       0.547  -1.175   0.558  0.00  0.00    -0.324 N 
ATOM     17  H   UNL d   1      -0.306  -1.445   0.084  0.00  0.00     0.169 HD
ATOM     18  O   UNL d   1       2.353   0.287   0.402  0.00  0.00    -0.268 OA
BRANCH  16  19
ATOM     19  C   UNL d   1       0.953  -1.994   1.638  0.00  0.00     0.036 A 
ATOM     20  C   UNL d   1       1.973  -1.638   2.528  0.00  0.00     0.056 A 
ATOM     21  C   UNL d   1       2.305  -2.475   3.597  0.00  0.00     0.074 A 
ATOM     22 CL   UNL d   1       3.545  -1.995   4.693  0.00  0.00    -0.081 Cl
ATOM     23  C   UNL d   1       1.626  -3.674   3.777  0.00  0.00     0.138 A 
ATOM     24  C   UNL d   1       0.607  -4.042   2.906  0.00  0.00     0.046 A 
ATOM     25  F   UNL d   1       1.932  -4.492   4.795  0.00  0.00    -0.204 F 
ATOM     26  C   UNL d   1       0.263  -3.199   1.844  0.00  0.00     0.032 A 
ENDBRANCH  16  19
ENDBRANCH   2  15
TORSDOF 4
