REMARK  4 active torsions:
REMARK  status: ('A' for Active; 'I' for Inactive)
REMARK    1  A    between atoms: C_10  and  C_3 
REMARK    2  A    between atoms: C_12  and  C_6 
REMARK    3  A    between atoms: O_14  and  C_10 
REMARK    4  A    between atoms: C_20  and  O_14 
ROOT
ATOM      1  C   UNL d   1       1.173   0.890  -0.123  0.00  0.00     0.034 A 
ATOM      2  C   UNL d   1       0.753  -0.379  -0.093  0.00  0.00     0.055 A 
ATOM      3  C   UNL d   1       3.508   0.013   0.212  0.00  0.00     0.052 C 
ATOM      4  N   UNL d   1       1.617  -1.433  -0.059  0.00  0.00    -0.358 N 
ATOM      5  C   UNL d   1       0.003   1.772  -0.044  0.00  0.00     0.192 A 
ATOM      6  C   UNL d   1       2.622   1.243  -0.138  0.00  0.00     0.099 C 
ATOM      7  C   UNL d   1       2.985  -1.250   0.186  0.00  0.00     0.019 C 
ATOM      8  C   UNL d   1      -0.694  -0.428  -0.053  0.00  0.00     0.005 A 
ATOM      9  C   UNL d   1      -1.166   0.884  -0.022  0.00  0.00     0.027 A 
ATOM     10  O   UNL d   1      -0.002   2.980   0.024  0.00  0.00    -0.287 OA
ATOM     11  C   UNL d   1       3.725  -2.543   0.422  0.00  0.00     0.069 C 
ATOM     12  C   UNL d   1      -1.582  -1.488  -0.034  0.00  0.00     0.014 A 
ATOM     13  C   UNL d   1      -2.509   1.198   0.031  0.00  0.00     0.016 A 
ATOM     14  C   UNL d   1      -2.951  -1.199   0.014  0.00  0.00     0.001 A 
ATOM     15  C   UNL d   1      -3.411   0.132   0.046  0.00  0.00     0.001 A 
ATOM     16  H   UNL d   1       1.234  -2.366   0.057  0.00  0.00     0.166 HD
ENDROOT
BRANCH   6  17
ATOM     17  C   UNL d   1       3.045   1.799  -1.498  0.00  0.00    -0.045 A 
ATOM     18  C   UNL d   1       2.948   1.011  -2.660  0.00  0.00     0.008 A 
ATOM     19  C   UNL d   1       3.420   1.482  -3.884  0.00  0.00     0.001 A 
ATOM     20  C   UNL d   1       3.989   2.750  -3.965  0.00  0.00     0.000 A 
ATOM     21  C   UNL d   1       4.070   3.552  -2.827  0.00  0.00     0.001 A 
ATOM     22  C   UNL d   1       3.598   3.083  -1.600  0.00  0.00     0.008 A 
ENDBRANCH   6  17
BRANCH   3  23
ATOM     23  C   UNL d   1       4.925   0.322   0.578  0.00  0.00     0.292 C 
ATOM     24  O   UNL d   1       5.865  -0.452   0.522  0.00  0.00    -0.259 OA
BRANCH  23  25
ATOM     25  O   UNL d   1       4.984   1.589   1.074  0.00  0.00    -0.318 OA
BRANCH  25  26
ATOM     26  C   UNL d   1       6.160   1.975   1.798  0.00  0.00     0.174 C 
ATOM     27  C   UNL d   1       6.978   2.982   1.015  0.00  0.00     0.034 C 
ENDBRANCH  25  26
ENDBRANCH  23  25
ENDBRANCH   3  23
TORSDOF 4
