REMARK  4 active torsions:
REMARK  status: ('A' for Active; 'I' for Inactive)
REMARK    1  A    between atoms: N_4  and  C_1 
REMARK    2  A    between atoms: S_2  and  C_5 
REMARK    3  A    between atoms: C_12  and  S_2 
REMARK    4  A    between atoms: C_5  and  C_3 
ROOT
ATOM      1  S   UNL d   1       2.241   3.460  -0.076  0.00  0.00     0.179 S 
ATOM      2  O   UNL d   1       1.554   3.837  -1.298  0.00  0.00    -0.222 OA
ATOM      3  O   UNL d   1       1.669   3.780   1.222  0.00  0.00    -0.222 OA
ENDROOT
BRANCH   1   4
ATOM      4  C   UNL d   1       2.554   1.693  -0.103  0.00  0.00     0.187 C 
BRANCH   4   5
ATOM      5  C   UNL d   1       1.266   0.901  -0.129  0.00  0.00    -0.003 A 
ATOM      6  C   UNL d   1       0.569   0.422  -1.235  0.00  0.00     0.150 A 
ATOM      7  S   UNL d   1      -0.868  -0.399  -0.810  0.00  0.00    -0.077 SA
ATOM      8  C   UNL d   1      -0.613  -0.126   0.852  0.00  0.00     0.053 A 
ATOM      9  C   UNL d   1       0.553   0.567   1.082  0.00  0.00     0.018 A 
BRANCH   6  10
ATOM     10  N   UNL d   1       0.912   0.520  -2.640  0.00  0.00    -0.108 N 
ATOM     11  O   UNL d   1       2.034   0.973  -2.905  0.00  0.00    -0.531 OA
ATOM     12  O   UNL d   1       0.094   0.120  -3.478  0.00  0.00    -0.531 OA
ENDBRANCH   6  10
ENDBRANCH   4   5
ENDBRANCH   1   4
BRANCH   1  13
ATOM     13  C   UNL d   1       3.847   4.222  -0.141  0.00  0.00     0.059 A 
ATOM     14  C   UNL d   1       4.699   3.956  -1.216  0.00  0.00     0.023 A 
ATOM     15  C   UNL d   1       5.934   4.606  -1.289  0.00  0.00     0.002 A 
ATOM     16  C   UNL d   1       6.304   5.522  -0.302  0.00  0.00     0.000 A 
ATOM     17  C   UNL d   1       5.447   5.787   0.766  0.00  0.00     0.002 A 
ATOM     18  C   UNL d   1       4.217   5.136   0.852  0.00  0.00     0.023 A 
ENDBRANCH   1  13
TORSDOF 4
