REMARK  5 active torsions:
REMARK  status: ('A' for Active; 'I' for Inactive)
REMARK    1  A    between atoms: C_6  and  C_1 
REMARK    2  A    between atoms: S_15  and  C_3 
REMARK    3  A    between atoms: C_7  and  C_6 
REMARK    4  A    between atoms: N_11  and  C_8 
REMARK    5  A    between atoms: C_14  and  N_11 
ROOT
ATOM      1  C   UNL d   1      -2.197  -3.451  -0.098  0.00  0.00     0.111 C 
ATOM      2  C   UNL d   1      -2.804  -4.593   0.290  0.00  0.00     0.115 C 
ATOM      3  C   UNL d   1      -2.970  -2.370  -0.593  0.00  0.00     0.105 C 
ATOM      4  N   UNL d   1      -3.637  -1.507  -0.990  0.00  0.00    -0.191 NA
ENDROOT
BRANCH   1   5
ATOM      5  C   UNL d   1      -0.691  -3.353  -0.080  0.00  0.00     0.211 C 
ATOM      6  O   UNL d   1      -0.042  -4.398  -0.184  0.00  0.00    -0.285 OA
BRANCH   5   7
ATOM      7  C   UNL d   1      -0.024  -2.047   0.026  0.00  0.00     0.065 C 
ATOM      8  S   UNL d   1      -0.721  -0.776   0.949  0.00  0.00    -0.078 SA
ATOM      9  C   UNL d   1       0.517   0.333   0.559  0.00  0.00     0.052 C 
ATOM     10  C   UNL d   1       1.526  -0.296  -0.141  0.00  0.00    -0.005 A 
ATOM     11  C   UNL d   1       1.232  -1.672  -0.443  0.00  0.00    -0.025 A 
ATOM     12  C   UNL d   1       2.762   0.298  -0.546  0.00  0.00     0.010 A 
ATOM     13  C   UNL d   1       2.215  -2.546  -1.183  0.00  0.00     0.045 A 
ATOM     14  C   UNL d   1       3.515  -1.836  -1.627  0.00  0.00     0.032 A 
ATOM     15  C   UNL d   1       3.688  -0.396  -1.223  0.00  0.00    -0.025 A 
BRANCH   9  16
ATOM     16  S   UNL d   1       0.471   2.001   1.130  0.00  0.00    -0.126 SA
ATOM     17  C   UNL d   1      -1.046   2.603   0.349  0.00  0.00     0.096 C 
ENDBRANCH   9  16
ENDBRANCH   5   7
ENDBRANCH   1   5
BRANCH   2  18
ATOM     18  N   UNL d   1      -4.162  -4.833   0.372  0.00  0.00    -0.363 N 
ATOM     19  H   UNL d   1      -4.789  -4.036   0.247  0.00  0.00     0.165 HD
BRANCH  18  20
ATOM     20  C   UNL d   1      -4.857  -6.020   0.690  0.00  0.00     0.053 A 
ATOM     21  C   UNL d   1      -6.197  -5.950   1.140  0.00  0.00     0.060 A 
ATOM     22 CL   UNL d   1      -7.008  -4.425   1.256  0.00  0.00    -0.082 Cl
ATOM     23  C   UNL d   1      -6.907  -7.098   1.509  0.00  0.00     0.026 A 
ATOM     24  C   UNL d   1      -6.293  -8.345   1.426  0.00  0.00     0.002 A 
ATOM     25  C   UNL d   1      -4.978  -8.439   0.977  0.00  0.00     0.002 A 
ATOM     26  C   UNL d   1      -4.263  -7.286   0.621  0.00  0.00     0.031 A 
ENDBRANCH  18  20
ENDBRANCH   2  18
TORSDOF 5
