REMARK  5 active torsions:
REMARK  status: ('A' for Active; 'I' for Inactive)
REMARK       I    between atoms: N_6  and  C_1 
REMARK       I    between atoms: N_7  and  C_1 
REMARK    1  A    between atoms: C_5  and  C_8 
REMARK    2  A    between atoms: O_20  and  C_5 
REMARK    3  A    between atoms: C_11  and  N_6 
REMARK    4  A    between atoms: C_16  and  N_7 
REMARK    5  A    between atoms: C_24  and  O_20 
ROOT
ATOM      1  C   UNL d   1       0.942  -0.164   0.056  0.00  0.00     0.325 C 
ATOM      2  N   UNL d   1       2.289  -0.125   0.372  0.00  0.00    -0.309 N 
ATOM      3  N   UNL d   1       0.167   0.451   1.030  0.00  0.00    -0.309 N 
ATOM      4  O   UNL d   1       0.484  -0.693  -0.948  0.00  0.00    -0.247 OA
ATOM      5  H   UNL d   1       2.516   0.107   1.327  0.00  0.00     0.170 HD
ATOM      6  H   UNL d   1       0.622   1.159   1.587  0.00  0.00     0.170 HD
ENDROOT
BRANCH   2   7
ATOM      7  C   UNL d   1       3.319  -0.712  -0.403  0.00  0.00     0.037 A 
ATOM      8  C   UNL d   1       3.143  -1.116  -1.732  0.00  0.00     0.048 A 
ATOM      9  C   UNL d   1       4.181  -1.783  -2.355  0.00  0.00     0.050 A 
ATOM     10  C   UNL d   1       4.218  -2.337  -3.704  0.00  0.00     0.294 A 
ATOM     11  C   UNL d   1       5.379  -2.045  -1.730  0.00  0.00    -0.018 A 
ATOM     12  O   UNL d   1       5.437  -2.937  -3.840  0.00  0.00    -0.313 OA
ATOM     13  O   UNL d   1       3.346  -2.272  -4.545  0.00  0.00    -0.259 OA
ATOM     14  C   UNL d   1       6.236  -2.827  -2.642  0.00  0.00     0.218 A 
ATOM     15  C   UNL d   1       5.603  -1.602  -0.440  0.00  0.00     0.012 A 
ATOM     16  C   UNL d   1       4.567  -0.925   0.221  0.00  0.00     0.030 A 
ENDBRANCH   2   7
BRANCH   3  17
ATOM     17  C   UNL d   1      -1.248   0.424   1.059  0.00  0.00     0.037 A 
ATOM     18  C   UNL d   1      -1.995  -0.534   0.367  0.00  0.00     0.047 A 
ATOM     19  C   UNL d   1      -3.396  -0.505   0.374  0.00  0.00     0.041 A 
ATOM     20  C   UNL d   1      -4.056   0.484   1.108  0.00  0.00     0.018 A 
ATOM     21  C   UNL d   1      -3.320   1.418   1.838  0.00  0.00     0.003 A 
ATOM     22  C   UNL d   1      -1.921   1.383   1.821  0.00  0.00     0.029 A 
BRANCH  19  23
ATOM     23  C   UNL d   1      -4.200  -1.542  -0.327  0.00  0.00     0.293 C 
ATOM     24  O   UNL d   1      -5.416  -1.620  -0.250  0.00  0.00    -0.259 OA
BRANCH  23  25
ATOM     25  O   UNL d   1      -3.378  -2.414  -0.958  0.00  0.00    -0.318 OA
BRANCH  25  26
ATOM     26  C   UNL d   1      -3.951  -3.670  -1.339  0.00  0.00     0.174 C 
ATOM     27  C   UNL d   1      -3.827  -4.620  -0.162  0.00  0.00     0.034 C 
ENDBRANCH  25  26
ENDBRANCH  23  25
ENDBRANCH  19  23
ENDBRANCH   3  17
TORSDOF 5
