REMARK  2 active torsions:
REMARK  status: ('A' for Active; 'I' for Inactive)
REMARK       I    between atoms: N_2  and  C_1 
REMARK    1  A    between atoms: C_5  and  C_1 
REMARK    2  A    between atoms: C_6  and  N_2 
ROOT
ATOM      1  C   UNL d   1       1.003   0.043   0.092  0.00  0.00     0.256 C 
ATOM      2  N   UNL d   1       0.339  -0.572  -0.958  0.00  0.00    -0.321 N 
ATOM      3  O   UNL d   1       2.217   0.072   0.240  0.00  0.00    -0.267 OA
ATOM      4  H   UNL d   1      -0.547  -0.161  -1.231  0.00  0.00     0.169 HD
ENDROOT
BRANCH   1   5
ATOM      5  C   UNL d   1       0.140   0.797   1.038  0.00  0.00     0.033 A 
ATOM      6  C   UNL d   1      -1.108   0.284   1.431  0.00  0.00     0.038 A 
ATOM      7  C   UNL d   1      -1.849   1.012   2.381  0.00  0.00     0.033 A 
ATOM      8  S   UNL d   1      -3.381   0.635   3.074  0.00  0.00    -0.083 SA
ATOM      9  C   UNL d   1      -1.388   2.213   2.921  0.00  0.00     0.049 A 
ATOM     10  C   UNL d   1      -3.302   2.070   4.002  0.00  0.00     0.139 A 
ATOM     11  N   UNL d   1      -2.230   2.812   3.841  0.00  0.00    -0.359 N 
ATOM     12  HN  UNL d   1      -2.047   3.694   4.320  1.00  0.00     0.166 HD
ATOM     13  C   UNL d   1      -0.133   2.708   2.507  0.00  0.00     0.032 A 
ATOM     14  C   UNL d   1       0.624   1.988   1.574  0.00  0.00     0.019 A 
ENDBRANCH   1   5
BRANCH   2  15
ATOM     15  C   UNL d   1       1.026  -1.289  -1.965  0.00  0.00     0.057 A 
ATOM     16  C   UNL d   1       0.690  -1.095  -3.314  0.00  0.00     0.062 A 
ATOM     17  C   UNL d   1       1.359  -1.794  -4.320  0.00  0.00     0.050 A 
ATOM     18 CL   UNL d   1      -0.493   0.081  -3.772  0.00  0.00    -0.082 Cl
ATOM     19  C   UNL d   1       2.338  -2.722  -3.974  0.00  0.00     0.035 A 
ATOM     20  C   UNL d   1       2.668  -2.941  -2.637  0.00  0.00     0.026 A 
ATOM     21 CL   UNL d   1       3.148  -3.607  -5.208  0.00  0.00    -0.084 Cl
ATOM     22  C   UNL d   1       2.021  -2.216  -1.633  0.00  0.00     0.033 A 
ENDBRANCH   2  15
TORSDOF 2
