REMARK  6 active torsions:
REMARK  status: ('A' for Active; 'I' for Inactive)
REMARK    1  A    between atoms: C_5  and  C_3 
REMARK    2  A    between atoms: C_13  and  N_4 
REMARK    3  A    between atoms: S_18  and  C_11 
REMARK    4  A    between atoms: C_12  and  N_15 
REMARK    5  A    between atoms: C_14  and  C_29 
REMARK       I    between atoms: N_15  and  C_14 
REMARK    6  A    between atoms: C_29  and  S_18 
ROOT
ATOM      1  C   UNL d   1       2.448   1.236  -0.193  0.00  0.00     0.067 A 
ATOM      2  N   UNL d   1       2.905   1.213  -1.454  0.00  0.00    -0.335 N 
ATOM      3  HN  UNL d   1       2.479   0.622  -2.168  1.00  0.00     0.168 HD
ATOM      4  C   UNL d   1       3.944   2.002  -1.724  0.00  0.00     0.145 A 
ATOM      5  N   UNL d   1       4.567   2.787  -0.832  0.00  0.00    -0.347 N 
ATOM      6  HN  UNL d   1       5.360   3.373  -1.093  1.00  0.00     0.167 HD
ATOM      7  C   UNL d   1       2.995   2.022   0.798  0.00  0.00     0.049 A 
ATOM      8  C   UNL d   1       4.090   2.760   0.424  0.00  0.00     0.092 A 
ENDROOT
BRANCH   1   9
ATOM      9  C   UNL d   1       1.214   0.464   0.071  0.00  0.00     0.125 A 
ATOM     10  N   UNL d   1       0.337   0.938   0.911  0.00  0.00    -0.288 N 
ATOM     11  N   UNL d   1      -0.784   0.194   1.175  0.00  0.00    -0.267 N 
ATOM     12  HN  UNL d   1       0.481   1.842   1.362  1.00  0.00     0.188 HD
ATOM     13  C   UNL d   1      -0.973  -1.066   0.642  0.00  0.00     0.120 A 
ATOM     14  C   UNL d   1      -0.160  -1.659  -0.233  0.00  0.00     0.076 A 
ATOM     15  C   UNL d   1       1.017  -0.873  -0.634  0.00  0.00     0.203 A 
ATOM     16  O   UNL d   1       1.798  -1.315  -1.458  0.00  0.00    -0.286 OA
BRANCH  11  17
ATOM     17  C   UNL d   1      -1.736   0.833   2.030  0.00  0.00     0.056 A 
ATOM     18  C   UNL d   1      -1.901   2.233   1.991  0.00  0.00     0.034 A 
ATOM     19  C   UNL d   1      -2.835   2.877   2.809  0.00  0.00     0.044 A 
ATOM     20  C   UNL d   1      -3.602   2.126   3.688  0.00  0.00     0.116 A 
ATOM     21  C   UNL d   1      -3.458   0.748   3.760  0.00  0.00     0.044 A 
ATOM     22  F   UNL d   1      -4.490   2.739   4.481  0.00  0.00    -0.206 F 
ATOM     23  C   UNL d   1      -2.532   0.104   2.933  0.00  0.00     0.034 A 
ENDBRANCH  11  17
ENDBRANCH   1   9
BRANCH   4  24
ATOM     24  S   UNL d   1       4.240   2.387  -3.429  0.00  0.00    -0.085 SA
BRANCH  24  25
ATOM     25  C   UNL d   1       2.525   2.295  -4.022  0.00  0.00     0.185 C 
BRANCH  25  26
ATOM     26  C   UNL d   1       1.518   3.227  -3.347  0.00  0.00     0.231 C 
ATOM     27  N   UNL d   1       2.010   4.194  -2.487  0.00  0.00    -0.326 N 
ATOM     28  H   UNL d   1       3.021   4.291  -2.449  0.00  0.00     0.169 HD
ATOM     29  O   UNL d   1       0.325   3.107  -3.640  0.00  0.00    -0.272 OA
BRANCH  27  30
ATOM     30  C   UNL d   1       1.254   5.151  -1.771  0.00  0.00     0.037 A 
ATOM     31  C   UNL d   1      -0.138   5.102  -1.647  0.00  0.00     0.053 A 
ATOM     32  C   UNL d   1      -0.830   6.155  -1.044  0.00  0.00     0.037 A 
ATOM     33 CL   UNL d   1      -2.548   6.099  -0.946  0.00  0.00    -0.084 Cl
ATOM     34  C   UNL d   1      -0.149   7.255  -0.537  0.00  0.00     0.048 A 
ATOM     35  C   UNL d   1       1.241   7.270  -0.594  0.00  0.00     0.037 A 
ATOM     36  C   UNL d   1       1.946   6.219  -1.188  0.00  0.00     0.053 A 
ATOM     37 CL   UNL d   1       2.100   8.618   0.045  0.00  0.00    -0.084 Cl
ENDBRANCH  27  30
ENDBRANCH  25  26
ENDBRANCH  24  25
ENDBRANCH   4  24
TORSDOF 6
