REMARK  7 active torsions:
REMARK  status: ('A' for Active; 'I' for Inactive)
REMARK    1  A    between atoms: C_2  and  C_1 
REMARK    2  A    between atoms: C_3  and  C_2 
REMARK    3  A    between atoms: O_6  and  C_2 
REMARK    4  A    between atoms: O_7  and  C_3 
REMARK    5  A    between atoms: O_8  and  C_3 
REMARK    6  A    between atoms: O_9  and  C_4 
REMARK    7  A    between atoms: O_11  and  C_5 
ROOT
ATOM      1  C   UNL d   1       1.488  -0.289   0.077  0.00  0.00     0.047 A 
ATOM      2  C   UNL d   1       0.919  -0.557  -1.193  0.00  0.00     0.080 A 
ATOM      3  C   UNL d   1       0.575  -0.057   1.155  0.00  0.00     0.080 A 
ATOM      4  C   UNL d   1      -1.338  -0.324  -0.299  0.00  0.00     0.005 A 
ATOM      5  C   UNL d   1      -0.814  -0.089   0.963  0.00  0.00     0.037 A 
ATOM      6  C   UNL d   1      -0.476  -0.563  -1.365  0.00  0.00     0.037 A 
ENDROOT
BRANCH   1   7
ATOM      7  C   UNL d   1       3.032  -0.327   0.353  0.00  0.00     0.136 C 
ATOM      8  C   UNL d   1       3.361  -1.723   0.923  0.00  0.00     0.057 C 
BRANCH   7   9
ATOM      9  C   UNL d   1       4.031  -0.029  -0.850  0.00  0.00     0.297 C 
BRANCH   9  10
ATOM     10  O   UNL d   1       3.848   1.308  -1.347  0.00  0.00    -0.363 OA
ATOM     11  C   UNL d   1       4.537   1.526  -2.569  0.00  0.00     0.205 C 
ENDBRANCH   9  10
BRANCH   9  12
ATOM     12  O   UNL d   1       5.423  -0.292  -0.550  0.00  0.00    -0.363 OA
ATOM     13  C   UNL d   1       6.002   0.560   0.428  0.00  0.00     0.205 C 
ENDBRANCH   9  12
ENDBRANCH   7   9
BRANCH   7  14
ATOM     14  O   UNL d   1       3.386   0.629   1.389  0.00  0.00    -0.380 OA
ATOM     15  H   UNL d   1       2.576   0.842   1.878  0.00  0.00     0.211 HD
ENDBRANCH   7  14
ENDBRANCH   1   7
BRANCH   2  16
ATOM     16  O   UNL d   1       1.756  -0.885  -2.222  0.00  0.00    -0.355 OA
ATOM     17  C   UNL d   1       1.278  -0.695  -3.549  0.00  0.00     0.210 C 
ENDBRANCH   2  16
BRANCH   3  18
ATOM     18  O   UNL d   1       1.128   0.148   2.396  0.00  0.00    -0.355 OA
ATOM     19  C   UNL d   1       0.368   0.832   3.384  0.00  0.00     0.210 C 
ENDBRANCH   3  18
TORSDOF 7
