REMARK  7 active torsions:
REMARK  status: ('A' for Active; 'I' for Inactive)
REMARK    1  A    between atoms: C_4  and  N_1 
REMARK    2  A    between atoms: C_2  and  C_3 
REMARK    3  A    between atoms: C_6  and  C_5 
REMARK    4  A    between atoms: S_10  and  C_7 
REMARK    5  A    between atoms: C_14  and  S_10 
REMARK    6  A    between atoms: C_11  and  C_13 
REMARK       I    between atoms: N_18  and  C_11 
REMARK    7  A    between atoms: C_26  and  N_18 
ROOT
ATOM      1  C   UNL d   1       0.001   0.948  -0.715  0.00  0.00     0.103 A 
ATOM      2  C   UNL d   1      -0.420   1.996  -2.871  0.00  0.00    -0.017 A 
ATOM      3  C   UNL d   1      -1.558   2.665  -2.321  0.00  0.00     0.017 A 
ATOM      4  C   UNL d   1       0.342   1.133  -2.060  0.00  0.00     0.048 A 
ATOM      5  C   UNL d   1      -1.097   1.615  -0.164  0.00  0.00     0.037 A 
ATOM      6  C   UNL d   1      -1.878   2.451  -0.971  0.00  0.00     0.022 A 
ENDROOT
BRANCH   2   7
ATOM      7  C   UNL d   1       0.112   2.332  -4.211  0.00  0.00     0.018 C 
ATOM      8  C   UNL d   1       0.716   1.542  -5.123  0.00  0.00     0.075 C 
BRANCH   8   9
ATOM      9  C   UNL d   1       1.390   2.263  -6.245  0.00  0.00     0.245 C 
ATOM     10  N   UNL d   1       1.605   1.513  -7.389  0.00  0.00    -0.324 N 
ATOM     11  H   UNL d   1       1.166   0.605  -7.454  0.00  0.00     0.169 HD
ATOM     12  O   UNL d   1       1.679   3.446  -6.102  0.00  0.00    -0.268 OA
BRANCH  10  13
ATOM     13  C   UNL d   1       2.266   1.998  -8.549  0.00  0.00     0.035 A 
ATOM     14  C   UNL d   1       3.042   3.166  -8.554  0.00  0.00     0.031 A 
ATOM     15  C   UNL d   1       3.633   3.642  -9.728  0.00  0.00     0.026 A 
ATOM     16  C   UNL d   1       3.462   2.945 -10.915  0.00  0.00     0.034 A 
ATOM     17  C   UNL d   1       2.724   1.762 -10.928  0.00  0.00     0.026 A 
ATOM     18 CL   UNL d   1       4.160   3.547 -12.367  0.00  0.00    -0.084 Cl
ATOM     19  C   UNL d   1       2.137   1.284  -9.746  0.00  0.00     0.031 A 
ENDBRANCH  10  13
ENDBRANCH   8   9
ENDBRANCH   2   7
BRANCH   3  20
ATOM     20  S   UNL d   1      -2.633   3.602  -3.407  0.00  0.00    -0.072 SA
BRANCH  20  21
ATOM     21  C   UNL d   1      -3.518   4.898  -2.556  0.00  0.00     0.074 A 
ATOM     22  N   UNL d   1      -3.308   5.206  -1.258  0.00  0.00    -0.359 N 
ATOM     23  C   UNL d   1      -4.029   6.238  -0.732  0.00  0.00     0.105 A 
ATOM     24  HN  UNL d   1      -2.635   4.687  -0.693  1.00  0.00     0.166 HD
ATOM     25  C   UNL d   1      -4.955   6.996  -1.439  0.00  0.00     0.063 A 
ATOM     26  C   UNL d   1      -5.161   6.655  -2.774  0.00  0.00     0.020 A 
ATOM     27  C   UNL d   1      -4.440   5.603  -3.333  0.00  0.00     0.038 A 
BRANCH  25  28
ATOM     28  C   UNL d   1      -5.689   8.146  -0.816  0.00  0.00     0.418 C 
ATOM     29  F   UNL d   1      -5.426   8.317   0.508  0.00  0.00    -0.166 F 
ATOM     30  F   UNL d   1      -5.389   9.334  -1.413  0.00  0.00    -0.166 F 
ATOM     31  F   UNL d   1      -7.042   8.017  -0.914  0.00  0.00    -0.166 F 
ENDBRANCH  25  28
ENDBRANCH  20  21
ENDBRANCH   3  20
BRANCH   1  32
ATOM     32  N   UNL d   1       0.814   0.061   0.128  0.00  0.00    -0.116 N 
ATOM     33  O   UNL d   1       1.722  -0.582  -0.424  0.00  0.00    -0.532 OA
ATOM     34  O   UNL d   1       0.548   0.007   1.337  0.00  0.00    -0.532 OA
ENDBRANCH   1  32
TORSDOF 7
