REMARK  0 active torsions:
REMARK  status: ('A' for Active; 'I' for Inactive)
ROOT
ATOM      1  C   UNL d   1      -0.264  -0.659   0.007  0.00  0.00     0.139 A 
ATOM      2  C   UNL d   1      -0.403   0.744   0.006  0.00  0.00     0.053 A 
ATOM      3  C   UNL d   1       1.034  -1.302   0.008  0.00  0.00     0.291 A 
ATOM      4  N   UNL d   1      -1.446  -1.282   0.008  0.00  0.00    -0.255 N 
ATOM      5  HN  UNL d   1      -1.618  -2.287   0.010  1.00  0.00     0.195 HD
ATOM      6  N   UNL d   1       1.950   1.014   0.004  0.00  0.00    -0.300 N 
ATOM      7  HN  UNL d   1       2.784   1.602   0.003  1.00  0.00     0.187 HD
ATOM      8  N   UNL d   1       2.093  -0.375   0.006  0.00  0.00    -0.260 N 
ATOM      9  C   UNL d   1       0.771   1.577   0.004  0.00  0.00     0.037 A 
ATOM     10  O   UNL d   1      -2.386  -0.269   0.007  0.00  0.00    -0.241 OA
ATOM     11  C   UNL d   1      -1.764   0.950   0.005  0.00  0.00     0.087 A 
ATOM     12  O   UNL d   1       1.197  -2.521   0.009  0.00  0.00    -0.264 OA
ATOM     13  C   UNL d   1       3.449  -0.884   0.003  0.00  0.00     0.181 C 
ATOM     14  C   UNL d   1       0.736   3.079   0.004  0.00  0.00     0.070 C 
ATOM     15  C   UNL d   1      -2.704   2.087   0.003  0.00  0.00     0.080 C 
ENDROOT
TORSDOF 0
