REMARK  6 active torsions:
REMARK  status: ('A' for Active; 'I' for Inactive)
REMARK    1  A    between atoms: C_3  and  C_1 
REMARK    2  A    between atoms: C_4  and  C_1 
REMARK    3  A    between atoms: S_9  and  C_2 
REMARK    4  A    between atoms: S_10  and  C_2 
REMARK    5  A    between atoms: O_11  and  C_3 
REMARK    6  A    between atoms: N_5  and  C_4 
ROOT
ATOM      1  C   UNL d   1       0.919  -0.005   0.058  0.00  0.00     0.124 C 
ATOM      2  C   UNL d   1       0.252  -0.408   1.170  0.00  0.00     0.061 C 
ENDROOT
BRANCH   1   3
ATOM      3  C   UNL d   1       0.387   0.511  -1.222  0.00  0.00     0.304 C 
ATOM      4  O   UNL d   1      -0.550   1.280  -1.346  0.00  0.00    -0.258 OA
BRANCH   3   5
ATOM      5  O   UNL d   1       1.177   0.077  -2.243  0.00  0.00    -0.322 OA
ATOM      6  C   UNL d   1       0.930   0.680  -3.517  0.00  0.00     0.213 C 
ENDBRANCH   3   5
ENDBRANCH   1   3
BRANCH   1   7
ATOM      7  C   UNL d   1       2.439  -0.005   0.058  0.00  0.00    -0.029 C 
BRANCH   7   8
ATOM      8  N   UNL d   1       3.700  -0.005   0.058  0.00  0.00    -0.365 N 
ATOM      9  HN2 UNL d   1       2.680  -0.005   0.058  1.00  0.00     0.165 HD
ATOM     10  HN1 UNL d   1       4.720  -0.005   0.058  1.00  0.00     0.165 HD
ENDBRANCH   7   8
ENDBRANCH   1   7
BRANCH   2  11
ATOM     11  S   UNL d   1      -1.456  -0.610   1.489  0.00  0.00    -0.126 SA
ATOM     12  C   UNL d   1      -2.461  -0.057   0.129  0.00  0.00     0.096 C 
ENDBRANCH   2  11
BRANCH   2  13
ATOM     13  S   UNL d   1       1.219  -0.988   2.568  0.00  0.00    -0.126 SA
ATOM     14  C   UNL d   1       0.799   0.243   3.829  0.00  0.00     0.096 C 
ENDBRANCH   2  13
TORSDOF 6
