REMARK  7 active torsions:
REMARK  status: ('A' for Active; 'I' for Inactive)
REMARK    1  A    between atoms: N_5  and  C_1 
REMARK    2  A    between atoms: C_18  and  N_9 
REMARK    3  A    between atoms: C_24  and  C_18 
REMARK    4  A    between atoms: C_19  and  O_23 
REMARK    5  A    between atoms: O_23  and  C_27 
REMARK    6  A    between atoms: C_27  and  C_24 
REMARK    7  A    between atoms: O_32  and  C_24 
ROOT
ATOM      1  N   UNL d   1      -4.371   0.344   0.563  0.00  0.00    -0.360 N 
ATOM      2  N   UNL d   1      -7.218   1.645   0.898  0.00  0.00     0.092 N 
ATOM      3  C   UNL d   1      -5.142   0.976  -0.516  0.00  0.00     0.155 C 
ATOM      4  C   UNL d   1      -6.107   2.061   0.011  0.00  0.00     0.292 C 
ATOM      5  C   UNL d   1      -5.770   0.257   2.597  0.00  0.00     0.050 C 
ATOM      6  C   UNL d   1      -5.120  -0.525   1.463  0.00  0.00     0.127 C 
ATOM      7  C   UNL d   1      -6.752   1.389   2.261  0.00  0.00     0.274 C 
ENDROOT
BRANCH   2   8
ATOM      8  C   UNL d   1      -8.078   0.637   0.277  0.00  0.00     0.306 C 
BRANCH   8   9
ATOM      9  C   UNL d   1      -9.305   0.110   1.046  0.00  0.00     0.170 C 
BRANCH   9  10
ATOM     10  C   UNL d   1     -10.391   1.168   1.300  0.00  0.00     0.209 C 
BRANCH  10  11
ATOM     11  O   UNL d   1     -11.440   0.527   2.038  0.00  0.00    -0.348 OA
BRANCH  11  12
ATOM     12  C   UNL d   1     -12.599   1.213   2.266  0.00  0.00     0.071 A 
ATOM     13  C   UNL d   1     -13.590   0.466   2.918  0.00  0.00     0.076 A 
ATOM     14  C   UNL d   1     -14.788   1.083   3.209  0.00  0.00     0.107 A 
ATOM     15  O   UNL d   1     -15.846   0.510   3.845  0.00  0.00    -0.323 OA
ATOM     16  C   UNL d   1     -15.025   2.391   2.871  0.00  0.00     0.105 A 
ATOM     17  C   UNL d   1     -16.766   1.621   3.892  0.00  0.00     0.352 A 
ATOM     18  O   UNL d   1     -16.260   2.811   3.249  0.00  0.00    -0.323 OA
ATOM     19  C   UNL d   1     -14.075   3.152   2.221  0.00  0.00     0.042 A 
ATOM     20  C   UNL d   1     -12.845   2.552   1.918  0.00  0.00     0.039 A 
ENDBRANCH  11  12
ENDBRANCH  10  11
ENDBRANCH   9  10
BRANCH   9  21
ATOM     21  O   UNL d   1      -9.850  -0.976   0.266  0.00  0.00    -0.392 OA
ATOM     22  H   UNL d   1     -10.327  -0.591  -0.489  0.00  0.00     0.210 HD
ENDBRANCH   9  21
ENDBRANCH   8   9
ENDBRANCH   2   8
BRANCH   1  23
ATOM     23  C   UNL d   1      -3.011   0.269   0.412  0.00  0.00     0.147 A 
ATOM     24  N   UNL d   1      -2.374   0.866  -0.574  0.00  0.00    -0.336 N 
ATOM     25  C   UNL d   1      -1.010   0.681  -0.495  0.00  0.00     0.051 A 
ATOM     26  HN  UNL d   1      -2.835   1.402  -1.309  1.00  0.00     0.168 HD
ATOM     27  C   UNL d   1      -0.056   1.208  -1.388  0.00  0.00     0.032 A 
ATOM     28  C   UNL d   1      -0.577  -0.091   0.578  0.00  0.00     0.036 A 
ATOM     29  C   UNL d   1       1.304   0.955  -1.180  0.00  0.00     0.026 A 
ATOM     30  C   UNL d   1       1.709   0.176  -0.101  0.00  0.00     0.035 A 
ATOM     31  C   UNL d   1       0.783  -0.367   0.794  0.00  0.00     0.045 A 
ATOM     32 CL   UNL d   1       3.389  -0.117   0.144  0.00  0.00    -0.084 Cl
ATOM     33  S   UNL d   1      -1.947  -0.570   1.496  0.00  0.00    -0.052 SA
ENDBRANCH   1  23
TORSDOF 7
