REMARK  1 active torsions:
REMARK  status: ('A' for Active; 'I' for Inactive)
REMARK    1  A    between atoms: N_6  and  C_1 
REMARK       I    between atoms: C_8  and  N_6 
ROOT
ATOM      1  C   UNL d   1       0.656  -1.322  -0.008  0.00  0.00     0.126 A 
ATOM      2  N   UNL d   1       1.056  -0.008   0.104  0.00  0.00    -0.281 N 
ATOM      3  N   UNL d   1       0.015   0.858   0.091  0.00  0.00    -0.302 N 
ATOM      4  HN  UNL d   1       0.047   1.875   0.169  1.00  0.00     0.186 HD
ATOM      5  C   UNL d   1      -0.711  -1.279  -0.174  0.00  0.00     0.076 A 
ATOM      6  C   UNL d   1      -1.063   0.081  -0.048  0.00  0.00     0.025 A 
ATOM      7  C   UNL d   1       2.383   0.556   0.024  0.00  0.00     0.179 C 
ATOM      8  C   UNL d   1      -2.418   0.681  -0.050  0.00  0.00     0.070 C 
ENDROOT
BRANCH   1   9
ATOM      9  N   UNL d   1       1.456  -2.454   0.006  0.00  0.00    -0.312 N 
ATOM     10  C   UNL d   1       2.507  -2.584   0.895  0.00  0.00     0.219 C 
ATOM     11  O   UNL d   1       2.846  -1.755   1.739  0.00  0.00    -0.274 OA
ATOM     12  C   UNL d   1       3.223  -3.903   0.781  0.00  0.00     0.117 C 
ATOM     13  H   UNL d   1       1.026  -3.314  -0.318  0.00  0.00     0.170 HD
ENDBRANCH   1   9
TORSDOF 1
