REMARK  0 active torsions:
REMARK  status: ('A' for Active; 'I' for Inactive)
ROOT
ATOM      1  C   UNL d   1       0.224  -0.769   0.002  0.00  0.00     0.149 A 
ATOM      2  N   UNL d   1       0.252   0.637   0.004  0.00  0.00    -0.243 N 
ATOM      3  N   UNL d   1       1.532   1.104   0.004  0.00  0.00    -0.302 N 
ATOM      4  HN  UNL d   1       1.840   2.076   0.006  1.00  0.00     0.186 HD
ATOM      5  C   UNL d   1       1.541  -1.173   0.001  0.00  0.00     0.107 A 
ATOM      6  N   UNL d   1      -0.951  -1.474   0.003  0.00  0.00    -0.344 N 
ATOM      7  HN  UNL d   1      -0.964  -2.494   0.004  1.00  0.00     0.167 HD
ATOM      8  C   UNL d   1      -0.943   1.373   0.004  0.00  0.00     0.034 A 
ATOM      9  C   UNL d   1      -2.115   0.715   0.001  0.00  0.00     0.051 A 
ATOM     10  C   UNL d   1       2.292   0.009   0.001  0.00  0.00     0.134 A 
ATOM     11  C   UNL d   1      -2.051  -0.776   0.003  0.00  0.00     0.009 A 
ATOM     12  C   UNL d   1       2.030  -2.510  -0.003  0.00  0.00     0.105 C 
ATOM     13  N   UNL d   1       2.475  -3.581  -0.005  0.00  0.00    -0.191 NA
ATOM     14  C   UNL d   1      -0.913   2.870   0.007  0.00  0.00     0.070 C 
ATOM     15  C   UNL d   1      -3.367  -1.510   0.008  0.00  0.00     0.068 C 
ENDROOT
TORSDOF 0
