REMARK  6 active torsions:
REMARK  status: ('A' for Active; 'I' for Inactive)
REMARK    1  A    between atoms: C_8  and  N_1 
REMARK    2  A    between atoms: C_12  and  C_2 
REMARK    3  A    between atoms: S_11  and  C_5 
REMARK    4  A    between atoms: C_25  and  S_11 
REMARK    5  A    between atoms: C_16  and  C_17 
REMARK    6  A    between atoms: C_27  and  C_25 
ROOT
ATOM      1  N   UNL d   1      -0.363  -1.302  -0.023  0.00  0.00    -0.275 N 
ATOM      2  C   UNL d   1       0.896  -0.672  -0.044  0.00  0.00     0.139 A 
ATOM      3  N   UNL d   1       0.715   0.639  -0.054  0.00  0.00    -0.282 N 
ATOM      4  HN  UNL d   1       1.455   1.339  -0.013  1.00  0.00     0.188 HD
ATOM      5  C   UNL d   1      -1.261  -0.241  -0.124  0.00  0.00     0.168 A 
ATOM      6  N   UNL d   1      -0.620   0.903  -0.128  0.00  0.00    -0.278 N 
ATOM      7  HN  UNL d   1      -1.045   1.829  -0.178  1.00  0.00     0.189 HD
ENDROOT
BRANCH   2   8
ATOM      8  C   UNL d   1       2.232  -1.287  -0.116  0.00  0.00     0.010 A 
ATOM      9  C   UNL d   1       2.514  -2.396  -0.920  0.00  0.00     0.016 A 
ATOM     10  C   UNL d   1       3.785  -2.988  -0.911  0.00  0.00     0.009 A 
ATOM     11  C   UNL d   1       4.841  -2.462  -0.146  0.00  0.00    -0.051 A 
ATOM     12  C   UNL d   1       4.570  -1.305   0.599  0.00  0.00     0.009 A 
ATOM     13  C   UNL d   1       3.289  -0.730   0.615  0.00  0.00     0.016 A 
BRANCH  11  14
ATOM     14  C   UNL d   1       6.216  -3.157  -0.144  0.00  0.00    -0.024 C 
ATOM     15  C   UNL d   1       7.292  -2.410   0.678  0.00  0.00     0.019 C 
ATOM     16  C   UNL d   1       6.076  -4.570   0.465  0.00  0.00     0.019 C 
ATOM     17  C   UNL d   1       6.755  -3.282  -1.586  0.00  0.00     0.019 C 
ENDBRANCH  11  14
ENDBRANCH   2   8
BRANCH   1  18
ATOM     18  C   UNL d   1      -0.631  -2.706   0.061  0.00  0.00     0.046 A 
ATOM     19  C   UNL d   1       0.214  -3.541   0.814  0.00  0.00     0.069 A 
ATOM     20  C   UNL d   1      -0.001  -4.904   0.765  0.00  0.00     0.107 A 
ATOM     21  O   UNL d   1       0.764  -5.851   1.372  0.00  0.00    -0.323 OA
ATOM     22  C   UNL d   1      -1.036  -5.451   0.048  0.00  0.00     0.105 A 
ATOM     23  C   UNL d   1       0.098  -7.057   0.943  0.00  0.00     0.352 A 
ATOM     24  O   UNL d   1      -1.057  -6.808   0.114  0.00  0.00    -0.323 OA
ATOM     25  C   UNL d   1      -1.915  -4.664  -0.659  0.00  0.00     0.042 A 
ATOM     26  C   UNL d   1      -1.702  -3.280  -0.662  0.00  0.00     0.033 A 
ENDBRANCH   1  18
BRANCH   5  27
ATOM     27  S   UNL d   1      -2.999  -0.339  -0.055  0.00  0.00    -0.087 SA
BRANCH  27  28
ATOM     28  C   UNL d   1      -3.451   1.184  -0.947  0.00  0.00     0.121 C 
BRANCH  28  29
ATOM     29  C   UNL d   1      -4.944   1.319  -1.142  0.00  0.00    -0.048 A 
ATOM     30  C   UNL d   1      -5.724   2.043  -0.224  0.00  0.00     0.014 A 
ATOM     31  C   UNL d   1      -7.104   2.205  -0.415  0.00  0.00    -0.061 A 
ATOM     32  C   UNL d   1      -7.934   3.003   0.548  0.00  0.00     0.048 C 
ATOM     33  C   UNL d   1      -7.712   1.621  -1.532  0.00  0.00     0.007 A 
ATOM     34  C   UNL d   1      -6.953   0.888  -2.444  0.00  0.00     0.001 A 
ATOM     35  C   UNL d   1      -5.579   0.737  -2.251  0.00  0.00     0.008 A 
ENDBRANCH  28  29
ENDBRANCH  27  28
ENDBRANCH   5  27
TORSDOF 6
