REMARK  7 active torsions:
REMARK  status: ('A' for Active; 'I' for Inactive)
REMARK    1  A    between atoms: C_6  and  C_1 
REMARK    2  A    between atoms: C_8  and  C_2 
REMARK    3  A    between atoms: C_12  and  N_3 
REMARK    4  A    between atoms: O_13  and  C_8 
REMARK    5  A    between atoms: N_9  and  O_13 
REMARK    6  A    between atoms: C_14  and  C_11 
REMARK    7  A    between atoms: N_23  and  C_11 
ROOT
ATOM      1  C   UNL d   1      -0.972  -2.654   0.197  0.00  0.00     0.158 C 
ATOM      2  C   UNL d   1      -0.365  -1.405   0.079  0.00  0.00     0.091 C 
ATOM      3  N   UNL d   1      -2.331  -2.450   0.024  0.00  0.00    -0.251 N 
ATOM      4  N   UNL d   1      -2.558  -1.192  -0.456  0.00  0.00    -0.303 N 
ATOM      5  HN  UNL d   1      -3.433  -0.819  -0.825  1.00  0.00     0.186 HD
ATOM      6  C   UNL d   1      -1.399  -0.557  -0.338  0.00  0.00     0.127 C 
ENDROOT
BRANCH   2   7
ATOM      7  C   UNL d   1       1.018  -1.045   0.342  0.00  0.00     0.318 C 
ATOM      8  O   UNL d   1       1.779  -1.755   0.986  0.00  0.00    -0.257 OA
BRANCH   7   9
ATOM      9  O   UNL d   1       1.321   0.192  -0.180  0.00  0.00    -0.193 OA
BRANCH   9  10
ATOM     10  N   UNL d   1       2.166   0.889   0.705  0.00  0.00    -0.246 N 
ATOM     11  C   UNL d   1       2.554   2.022   0.197  0.00  0.00     0.109 C 
ATOM     12  HN  UNL d   1       2.439   0.549   1.627  1.00  0.00     0.196 HD
BRANCH  11  13
ATOM     13  C   UNL d   1       3.320   2.958   1.084  0.00  0.00     0.004 A 
ATOM     14  C   UNL d   1       3.969   2.470   2.225  0.00  0.00     0.016 A 
ATOM     15  C   UNL d   1       4.657   3.346   3.071  0.00  0.00     0.024 A 
ATOM     16  C   UNL d   1       4.689   4.709   2.779  0.00  0.00     0.034 A 
ATOM     17  C   UNL d   1       4.035   5.206   1.653  0.00  0.00     0.024 A 
ATOM     18 CL   UNL d   1       5.532   5.787   3.820  0.00  0.00    -0.084 Cl
ATOM     19  C   UNL d   1       3.348   4.332   0.805  0.00  0.00     0.016 A 
ENDBRANCH  11  13
BRANCH  11  20
ATOM     20  N   UNL d   1       2.299   2.401  -1.104  0.00  0.00    -0.286 NA
ATOM     21  H   UNL d   1       2.038   1.612  -1.688  0.00  0.00     0.125 HD
ATOM     22  H   UNL d   1       3.024   2.959  -1.541  0.00  0.00     0.125 HD
ENDBRANCH  11  20
ENDBRANCH   9  10
ENDBRANCH   7   9
ENDBRANCH   2   7
BRANCH   1  23
ATOM     23  C   UNL d   1      -0.354  -3.970   0.408  0.00  0.00     0.435 C 
ATOM     24  F   UNL d   1       0.913  -4.028  -0.070  0.00  0.00    -0.165 F 
ATOM     25  F   UNL d   1      -0.306  -4.305   1.719  0.00  0.00    -0.165 F 
ATOM     26  F   UNL d   1      -1.022  -4.962  -0.235  0.00  0.00    -0.165 F 
ENDBRANCH   1  23
BRANCH   3  27
ATOM     27  C   UNL d   1      -3.475  -3.275   0.282  0.00  0.00     0.057 A 
ATOM     28  C   UNL d   1      -3.431  -4.421   1.083  0.00  0.00     0.033 A 
ATOM     29  C   UNL d   1      -4.596  -5.171   1.312  0.00  0.00     0.026 A 
ATOM     30  C   UNL d   1      -5.810  -4.771   0.763  0.00  0.00     0.034 A 
ATOM     31  C   UNL d   1      -5.878  -3.622  -0.014  0.00  0.00     0.026 A 
ATOM     32 CL   UNL d   1      -7.233  -5.691   1.060  0.00  0.00    -0.084 Cl
ATOM     33  C   UNL d   1      -4.720  -2.877  -0.250  0.00  0.00     0.033 A 
ENDBRANCH   3  27
TORSDOF 7
