REMARK  9 active torsions:
REMARK  status: ('A' for Active; 'I' for Inactive)
REMARK    1  A    between atoms: C_4  and  C_1 
REMARK    2  A    between atoms: N_5  and  C_2 
REMARK       I    between atoms: C_3  and  N_6 
REMARK       I    between atoms: N_9  and  C_3 
REMARK    3  A    between atoms: O_17  and  C_4 
REMARK    4  A    between atoms: N_6  and  C_10 
REMARK    5  A    between atoms: C_13  and  N_9 
REMARK    6  A    between atoms: O_14  and  C_16 
REMARK    7  A    between atoms: C_18  and  O_14 
REMARK    8  A    between atoms: C_26  and  O_17 
REMARK    9  A    between atoms: C_23  and  C_18 
ROOT
ATOM      1  C   UNL d   1      -0.695   3.325   1.253  0.00  0.00     0.325 C 
ATOM      2  N   UNL d   1      -0.920   2.535   0.143  0.00  0.00    -0.309 N 
ATOM      3  N   UNL d   1      -1.725   4.153   1.629  0.00  0.00    -0.309 N 
ATOM      4  O   UNL d   1       0.287   3.272   1.989  0.00  0.00    -0.247 OA
ATOM      5  H   UNL d   1      -1.870   2.547  -0.201  0.00  0.00     0.170 HD
ATOM      6  H   UNL d   1      -1.580   4.588   2.533  0.00  0.00     0.170 HD
ENDROOT
BRANCH   2   7
ATOM      7  C   UNL d   1      -0.145   1.393  -0.186  0.00  0.00     0.037 C 
ATOM      8  C   UNL d   1       1.184   1.223   0.205  0.00  0.00     0.049 C 
ATOM      9  C   UNL d   1       1.807  -0.037   0.116  0.00  0.00     0.068 C 
ATOM     10  C   UNL d   1       1.062  -1.167  -0.280  0.00  0.00     0.046 C 
ATOM     11  C   UNL d   1      -0.176  -0.923  -0.899  0.00  0.00     0.032 C 
ATOM     12  C   UNL d   1      -0.768   0.348  -0.871  0.00  0.00     0.032 C 
BRANCH   9  13
ATOM     13  C   UNL d   1       3.277  -0.144   0.358  0.00  0.00     0.295 C 
ATOM     14  O   UNL d   1       4.011  -0.916  -0.223  0.00  0.00    -0.259 OA
BRANCH  13  15
ATOM     15  O   UNL d   1       3.657   0.734   1.322  0.00  0.00    -0.318 OA
BRANCH  15  16
ATOM     16  C   UNL d   1       5.035   0.660   1.723  0.00  0.00     0.174 C 
ATOM     17  C   UNL d   1       5.956   1.350   0.731  0.00  0.00     0.034 C 
ENDBRANCH  15  16
ENDBRANCH  13  15
ENDBRANCH   9  13
BRANCH  10  18
ATOM     18  N   UNL d   1       1.332  -2.501   0.089  0.00  0.00    -0.380 N 
ATOM     19  C   UNL d   1       1.938  -2.686   1.417  0.00  0.00     0.123 C 
ATOM     20  C   UNL d   1       1.673  -4.106   1.897  0.00  0.00     0.020 C 
ATOM     21  C   UNL d   1       2.249  -5.115   0.912  0.00  0.00     0.003 C 
ATOM     22  C   UNL d   1       1.794  -4.847  -0.525  0.00  0.00     0.020 C 
ATOM     23  C   UNL d   1       1.871  -3.373  -0.961  0.00  0.00     0.123 C 
ENDBRANCH  10  18
ENDBRANCH   2   7
BRANCH   3  24
ATOM     24  C   UNL d   1      -2.854   4.533   0.904  0.00  0.00     0.036 A 
ATOM     25  C   UNL d   1      -4.112   4.121   1.335  0.00  0.00     0.032 A 
ATOM     26  C   UNL d   1      -5.248   4.482   0.603  0.00  0.00     0.039 A 
ATOM     27  C   UNL d   1      -5.130   5.283  -0.539  0.00  0.00     0.069 A 
ATOM     28  C   UNL d   1      -3.875   5.785  -0.891  0.00  0.00     0.039 A 
ATOM     29  C   UNL d   1      -2.733   5.395  -0.183  0.00  0.00     0.032 A 
BRANCH  27  30
ATOM     30  O   UNL d   1      -6.184   5.650  -1.343  0.00  0.00    -0.347 OA
BRANCH  30  31
ATOM     31  C   UNL d   1      -7.149   4.605  -1.518  0.00  0.00     0.214 C 
BRANCH  31  32
ATOM     32  C   UNL d   1      -8.307   4.974  -2.423  0.00  0.00    -0.034 A 
ATOM     33  C   UNL d   1      -8.983   3.949  -3.108  0.00  0.00     0.009 A 
ATOM     34  C   UNL d   1     -10.214   4.191  -3.720  0.00  0.00     0.001 A 
ATOM     35  C   UNL d   1     -10.777   5.462  -3.667  0.00  0.00     0.000 A 
ATOM     36  C   UNL d   1     -10.087   6.503  -3.045  0.00  0.00     0.001 A 
ATOM     37  C   UNL d   1      -8.856   6.262  -2.428  0.00  0.00     0.009 A 
ENDBRANCH  31  32
ENDBRANCH  30  31
ENDBRANCH  27  30
ENDBRANCH   3  24
TORSDOF 9
