REMARK  4 active torsions:
REMARK  status: ('A' for Active; 'I' for Inactive)
REMARK    1  A    between atoms: N_10  and  C_3 
REMARK    2  A    between atoms: C_9  and  C_6 
REMARK    3  A    between atoms: O_11  and  C_8 
REMARK    4  A    between atoms: C_14  and  O_11 
ROOT
ATOM      1  N   UNL d   1      -0.191   1.240  -0.189  0.00  0.00    -0.313 N 
ATOM      2  HN  UNL d   1      -0.701   2.122  -0.248  1.00  0.00     0.170 HD
ATOM      3  C   UNL d   1      -0.807   0.060  -0.211  0.00  0.00     0.157 A 
ATOM      4  N   UNL d   1      -0.201  -1.126  -0.114  0.00  0.00    -0.332 N 
ATOM      5  HN  UNL d   1      -0.735  -1.995  -0.131  1.00  0.00     0.168 HD
ATOM      6  C   UNL d   1       1.145  -1.136   0.010  0.00  0.00     0.048 A 
ATOM      7  C   UNL d   1       1.869   0.037   0.034  0.00  0.00     0.086 A 
ATOM      8  C   UNL d   1       1.145   1.194  -0.082  0.00  0.00     0.146 A 
ENDROOT
BRANCH   6   9
ATOM      9  C   UNL d   1       1.782  -2.466   0.107  0.00  0.00    -0.009 A 
ATOM     10  C   UNL d   1       2.977  -2.670   0.825  0.00  0.00     0.013 A 
ATOM     11  C   UNL d   1       3.581  -3.929   0.893  0.00  0.00     0.001 A 
ATOM     12  C   UNL d   1       3.000  -5.016   0.250  0.00  0.00     0.000 A 
ATOM     13  C   UNL d   1       1.813  -4.848  -0.456  0.00  0.00     0.001 A 
ATOM     14  C   UNL d   1       1.212  -3.587  -0.524  0.00  0.00     0.013 A 
ENDBRANCH   6   9
BRANCH   8  15
ATOM     15  O   UNL d   1       1.875   2.365  -0.019  0.00  0.00    -0.336 OA
BRANCH  15  16
ATOM     16  C   UNL d   1       1.212   3.473  -0.627  0.00  0.00     0.173 C 
ATOM     17  C   UNL d   1       2.145   4.667  -0.529  0.00  0.00     0.034 C 
ENDBRANCH  15  16
ENDBRANCH   8  15
BRANCH   3  18
ATOM     18  N   UNL d   1      -2.186   0.059  -0.278  0.00  0.00    -0.274 NA
ATOM     19  H   UNL d   1      -2.543   0.922   0.108  0.00  0.00     0.127 HD
ATOM     20  H   UNL d   1      -2.536  -0.801   0.122  0.00  0.00     0.127 HD
ENDBRANCH   3  18
TORSDOF 4
