REMARK  2 active torsions:
REMARK  status: ('A' for Active; 'I' for Inactive)
REMARK    1  A    between atoms: C_2  and  C_1 
REMARK    2  A    between atoms: C_14  and  C_11 
ROOT
ATOM      1  C   UNL d   1      -1.599  -2.448   0.060  0.00  0.00     0.183 A 
ATOM      2  O   UNL d   1      -1.476  -3.405   1.043  0.00  0.00    -0.272 OA
ATOM      3  N   UNL d   1      -2.457  -2.824  -0.870  0.00  0.00    -0.277 N 
ATOM      4  HN  UNL d   1      -2.722  -2.291  -1.698  1.00  0.00     0.189 HD
ATOM      5  N   UNL d   1      -2.930  -4.067  -0.517  0.00  0.00    -0.277 N 
ATOM      6  HN  UNL d   1      -3.608  -4.632  -1.029  1.00  0.00     0.189 HD
ATOM      7  C   UNL d   1      -2.333  -4.382   0.612  0.00  0.00     0.174 A 
ENDROOT
BRANCH   1   8
ATOM      8  C   UNL d   1      -0.877  -1.210   0.048  0.00  0.00     0.081 A 
ATOM      9  C   UNL d   1      -0.914  -0.175  -0.877  0.00  0.00     0.027 A 
ATOM     10  N   UNL d   1      -0.065   0.889  -0.591  0.00  0.00    -0.357 N 
ATOM     11  C   UNL d   1      -1.726  -0.059  -2.119  0.00  0.00     0.070 C 
ATOM     12  C   UNL d   1       0.597   0.665   0.521  0.00  0.00     0.048 A 
ATOM     13  HN  UNL d   1       0.030   1.726  -1.166  1.00  0.00     0.166 HD
ATOM     14  S   UNL d   1       0.238  -0.817   1.299  0.00  0.00    -0.071 SA
ATOM     15  C   UNL d   1       1.595   1.610   1.093  0.00  0.00     0.076 C 
ENDBRANCH   1   8
BRANCH   7  16
ATOM     16  C   UNL d   1      -2.450  -5.582   1.427  0.00  0.00     0.017 A 
ATOM     17  C   UNL d   1      -1.724  -5.738   2.619  0.00  0.00     0.017 A 
ATOM     18  C   UNL d   1      -1.850  -6.901   3.384  0.00  0.00     0.025 A 
ATOM     19  C   UNL d   1      -2.704  -7.918   2.964  0.00  0.00     0.034 A 
ATOM     20  C   UNL d   1      -3.433  -7.782   1.785  0.00  0.00     0.025 A 
ATOM     21 CL   UNL d   1      -2.857  -9.348   3.906  0.00  0.00    -0.084 Cl
ATOM     22  C   UNL d   1      -3.306  -6.618   1.021  0.00  0.00     0.017 A 
ENDBRANCH   7  16
TORSDOF 2
