REMARK  6 active torsions:
REMARK  status: ('A' for Active; 'I' for Inactive)
REMARK    1  A    between atoms: S_9  and  C_2 
REMARK    2  A    between atoms: C_8  and  C_4 
REMARK    3  A    between atoms: C_7  and  C_10 
REMARK    4  A    between atoms: O_18  and  C_8 
REMARK    5  A    between atoms: C_10  and  S_9 
REMARK    6  A    between atoms: C_26  and  O_18 
ROOT
ATOM      1  C   UNL d   1       0.206  -0.722   0.100  0.00  0.00     0.041 A 
ATOM      2  C   UNL d   1       1.365  -1.477   0.211  0.00  0.00     0.057 A 
ATOM      3  C   UNL d   1       0.492   0.703   0.020  0.00  0.00    -0.018 A 
ATOM      4  C   UNL d   1       1.855   0.964  -0.027  0.00  0.00     0.088 A 
ATOM      5  S   UNL d   1       2.746  -0.487   0.029  0.00  0.00    -0.076 SA
ATOM      6  C   UNL d   1      -1.177  -1.213   0.082  0.00  0.00     0.162 C 
ATOM      7  C   UNL d   1      -0.608   1.742  -0.031  0.00  0.00     0.050 C 
ATOM      8  C   UNL d   1      -2.001   1.177   0.356  0.00  0.00    -0.037 C 
ATOM      9  C   UNL d   1      -2.227  -0.189  -0.327  0.00  0.00     0.093 C 
ATOM     10  O   UNL d   1      -1.501  -2.372   0.328  0.00  0.00    -0.292 OA
ATOM     11  C   UNL d   1      -3.094   2.159  -0.117  0.00  0.00     0.015 C 
ATOM     12  C   UNL d   1      -2.132   1.036   1.887  0.00  0.00     0.015 C 
ENDROOT
BRANCH   2  13
ATOM     13  S   UNL d   1       1.530  -3.232   0.412  0.00  0.00    -0.117 SA
BRANCH  13  14
ATOM     14  C   UNL d   1       3.112  -3.368   1.305  0.00  0.00     0.122 C 
BRANCH  14  15
ATOM     15  C   UNL d   1       3.538  -4.790   1.582  0.00  0.00    -0.005 A 
ATOM     16  C   UNL d   1       4.315  -5.511   0.652  0.00  0.00     0.042 A 
ATOM     17 CL   UNL d   1       4.769  -4.848  -0.882  0.00  0.00    -0.084 Cl
ATOM     18  C   UNL d   1       4.778  -6.800   0.938  0.00  0.00     0.024 A 
ATOM     19  C   UNL d   1       4.466  -7.404   2.151  0.00  0.00     0.003 A 
ATOM     20  C   UNL d   1       3.680  -6.722   3.075  0.00  0.00     0.024 A 
ATOM     21  C   UNL d   1       3.216  -5.431   2.793  0.00  0.00     0.042 A 
ATOM     22 CL   UNL d   1       2.260  -4.664   4.015  0.00  0.00    -0.084 Cl
ENDBRANCH  14  15
ENDBRANCH  13  14
ENDBRANCH   2  13
BRANCH   4  23
ATOM     23  C   UNL d   1       2.542   2.246  -0.128  0.00  0.00     0.300 C 
ATOM     24  O   UNL d   1       1.991   3.339  -0.191  0.00  0.00    -0.259 OA
BRANCH  23  25
ATOM     25  O   UNL d   1       3.897   2.073  -0.141  0.00  0.00    -0.317 OA
BRANCH  25  26
ATOM     26  C   UNL d   1       4.710   3.250  -0.201  0.00  0.00     0.174 C 
ATOM     27  C   UNL d   1       4.895   3.690  -1.641  0.00  0.00     0.034 C 
ENDBRANCH  25  26
ENDBRANCH  23  25
ENDBRANCH   4  23
TORSDOF 6
