REMARK  7 active torsions:
REMARK  status: ('A' for Active; 'I' for Inactive)
REMARK    1  A    between atoms: C_16  and  N_3 
REMARK    2  A    between atoms: C_10  and  C_4 
REMARK    3  A    between atoms: N_8  and  C_9 
REMARK       I    between atoms: N_12  and  C_10 
REMARK    4  A    between atoms: C_11  and  N_12 
REMARK    5  A    between atoms: S_21  and  C_19 
REMARK    6  A    between atoms: C_25  and  S_21 
REMARK    7  A    between atoms: C_26  and  C_25 
ROOT
ATOM      1  C   UNL d   1      -2.573  -0.127   0.340  0.00  0.00     0.276 C 
ATOM      2  N   UNL d   1      -3.498   0.909   0.173  0.00  0.00    -0.319 N 
ATOM      3  O   UNL d   1      -1.368   0.030   0.156  0.00  0.00    -0.266 OA
ATOM      4  H   UNL d   1      -4.453   0.594  -0.014  0.00  0.00     0.169 HD
ENDROOT
BRANCH   1   5
ATOM      5  C   UNL d   1      -3.108  -1.468   0.665  0.00  0.00     0.141 A 
ATOM      6  N   UNL d   1      -4.393  -1.750   1.003  0.00  0.00    -0.272 N 
ATOM      7  N   UNL d   1      -4.352  -3.110   1.199  0.00  0.00    -0.196 N 
ATOM      8  HN  UNL d   1      -5.187  -1.115   1.088  1.00  0.00     0.189 HD
ATOM      9  N   UNL d   1      -3.144  -3.687   1.043  0.00  0.00    -0.281 N 
ATOM     10  C   UNL d   1      -2.362  -2.682   0.673  0.00  0.00     0.057 A 
ATOM     11  HN  UNL d   1      -2.891  -4.666   1.178  1.00  0.00     0.189 HD
ATOM     12  C   UNL d   1      -0.964  -3.018   0.329  0.00  0.00     0.072 C 
BRANCH   7  13
ATOM     13  C   UNL d   1      -5.461  -3.950   1.495  0.00  0.00     0.074 A 
ATOM     14  C   UNL d   1      -6.743  -3.447   1.703  0.00  0.00     0.033 A 
ATOM     15  C   UNL d   1      -7.789  -4.347   1.958  0.00  0.00     0.002 A 
ATOM     16  C   UNL d   1      -7.573  -5.723   1.998  0.00  0.00     0.000 A 
ATOM     17  C   UNL d   1      -6.294  -6.227   1.800  0.00  0.00     0.002 A 
ATOM     18  C   UNL d   1      -5.242  -5.342   1.556  0.00  0.00     0.033 A 
ENDBRANCH   7  13
ENDBRANCH   1   5
BRANCH   2  19
ATOM     19  C   UNL d   1      -3.091   2.192  -0.326  0.00  0.00     0.069 A 
ATOM     20  C   UNL d   1      -3.758   2.869  -1.367  0.00  0.00     0.129 A 
ATOM     21  C   UNL d   1      -3.205   4.042  -1.920  0.00  0.00     0.040 A 
ATOM     22  C   UNL d   1      -2.026   4.582  -1.404  0.00  0.00     0.021 A 
ATOM     23  C   UNL d   1      -1.396   3.994  -0.307  0.00  0.00     0.002 A 
ATOM     24  C   UNL d   1      -1.941   2.807   0.223  0.00  0.00     0.050 A 
BRANCH  20  25
ATOM     25  N   UNL d   1      -5.006   2.367  -1.955  0.00  0.00    -0.113 N 
ATOM     26  O   UNL d   1      -5.477   1.309  -1.516  0.00  0.00    -0.532 OA
ATOM     27  O   UNL d   1      -5.533   3.039  -2.857  0.00  0.00    -0.532 OA
ENDBRANCH  20  25
BRANCH  23  28
ATOM     28  S   UNL d   1       0.023   4.850   0.358  0.00  0.00    -0.130 SA
BRANCH  28  29
ATOM     29  C   UNL d   1       1.031   3.495   1.046  0.00  0.00     0.079 C 
BRANCH  29  30
ATOM     30  C   UNL d   1       2.377   4.043   1.522  0.00  0.00     0.006 C 
ATOM     31  C   UNL d   1       3.217   2.942   2.153  0.00  0.00     0.006 C 
ENDBRANCH  29  30
ENDBRANCH  28  29
ENDBRANCH  23  28
ENDBRANCH   2  19
TORSDOF 7
