REMARK  3 active torsions:
REMARK  status: ('A' for Active; 'I' for Inactive)
REMARK    1  A    between atoms: C_10  and  C_1 
REMARK    2  A    between atoms: C_4  and  C_2 
REMARK       I    between atoms: N_15  and  C_10 
REMARK    3  A    between atoms: N_16  and  N_15 
ROOT
ATOM      1  C   UNL d   1      -0.175  -1.111  -0.119  0.00  0.00     0.098 A 
ATOM      2  C   UNL d   1       0.656   1.175  -0.048  0.00  0.00     0.104 A 
ATOM      3  S   UNL d   1       1.370  -0.369  -0.246  0.00  0.00    -0.063 SA
ATOM      4  N   UNL d   1      -0.655   1.174   0.077  0.00  0.00    -0.351 N 
ATOM      5  HN  UNL d   1      -1.229   2.007   0.204  1.00  0.00     0.166 HD
ATOM      6  C   UNL d   1      -1.145  -0.126   0.011  0.00  0.00     0.029 A 
ATOM      7  C   UNL d   1      -2.619  -0.321   0.088  0.00  0.00     0.070 C 
ENDROOT
BRANCH   1   8
ATOM      8  C   UNL d   1      -0.339  -2.555  -0.148  0.00  0.00     0.274 C 
ATOM      9  O   UNL d   1      -1.415  -3.123   0.026  0.00  0.00    -0.266 OA
ATOM     10  N   UNL d   1       0.832  -3.287  -0.373  0.00  0.00    -0.289 N 
ATOM     11  H   UNL d   1       1.693  -2.794  -0.604  0.00  0.00     0.183 HD
BRANCH  10  12
ATOM     12  N   UNL d   1       0.803  -4.697  -0.446  0.00  0.00    -0.247 NA
ATOM     13  H   UNL d   1      -0.188  -4.979  -0.455  0.00  0.00     0.143 HD
ATOM     14  H   UNL d   1       1.161  -5.066   0.439  0.00  0.00     0.143 HD
ENDBRANCH  10  12
ENDBRANCH   1   8
BRANCH   2  15
ATOM     15  C   UNL d   1       1.465   2.439  -0.007  0.00  0.00     0.091 A 
ATOM     16  N   UNL d   1       2.789   2.473  -0.217  0.00  0.00    -0.258 N 
ATOM     17  O   UNL d   1       3.154   3.801  -0.090  0.00  0.00    -0.242 OA
ATOM     18  HN  UNL d   1       3.399   1.684  -0.428  1.00  0.00     0.195 HD
ATOM     19  C   UNL d   1       2.057   4.546   0.209  0.00  0.00     0.074 A 
ATOM     20  C   UNL d   1       0.955   3.729   0.263  0.00  0.00     0.068 A 
ATOM     21  C   UNL d   1       2.282   5.989   0.402  0.00  0.00     0.079 C 
ENDBRANCH   2  15
TORSDOF 3
