REMARK  4 active torsions:
REMARK  status: ('A' for Active; 'I' for Inactive)
REMARK    1  A    between atoms: O_10  and  N_6 
REMARK    2  A    between atoms: C_9  and  O_10 
REMARK    3  A    between atoms: C_11  and  C_9 
REMARK    4  A    between atoms: C_12  and  C_13 
ROOT
ATOM      1  C   UNL d   1      -0.672  -0.509   0.062  0.00  0.00     0.023 A 
ATOM      2  C   UNL d   1      -1.103   0.799   0.173  0.00  0.00     0.022 A 
ATOM      3  N   UNL d   1      -0.009   1.618   0.168  0.00  0.00    -0.358 N 
ATOM      4  C   UNL d   1       0.750  -0.479  -0.027  0.00  0.00     0.005 A 
ATOM      5  C   UNL d   1       1.137   0.863   0.051  0.00  0.00     0.043 A 
ATOM      6  N   UNL d   1      -1.164  -2.810   0.044  0.00  0.00    -0.261 N 
ATOM      7  HN  UNL d   1      -0.194  -3.036  -0.177  1.00  0.00     0.194 HD
ATOM      8  C   UNL d   1      -1.631  -1.605   0.096  0.00  0.00     0.045 C 
ATOM      9  C   UNL d   1      -2.512   1.255   0.296  0.00  0.00     0.058 C 
ATOM     10  C   UNL d   1       1.755  -1.460  -0.152  0.00  0.00     0.014 A 
ATOM     11  C   UNL d   1       2.479   1.266   0.015  0.00  0.00     0.030 A 
ATOM     12  C   UNL d   1      -3.103  -1.232   0.293  0.00  0.00     0.060 C 
ATOM     13  C   UNL d   1      -3.430   0.162  -0.274  0.00  0.00     0.012 C 
ATOM     14  C   UNL d   1       3.100  -1.073  -0.194  0.00  0.00     0.001 A 
ATOM     15  C   UNL d   1       3.452   0.272  -0.109  0.00  0.00     0.002 A 
ATOM     16  H   UNL d   1      -0.024   2.626   0.244  0.00  0.00     0.166 HD
ENDROOT
BRANCH   6  17
ATOM     17  O   UNL d   1      -2.149  -3.775   0.326  0.00  0.00    -0.195 OA
BRANCH  17  18
ATOM     18  C   UNL d   1      -1.631  -5.019   0.097  0.00  0.00     0.315 C 
ATOM     19  O   UNL d   1      -0.989  -5.373  -0.878  0.00  0.00    -0.257 OA
BRANCH  18  20
ATOM     20  C   UNL d   1      -1.963  -5.921   1.237  0.00  0.00     0.041 A 
ATOM     21  C   UNL d   1      -1.592  -7.268   1.164  0.00  0.00     0.018 A 
ATOM     22  C   UNL d   1      -1.885  -8.143   2.220  0.00  0.00     0.009 A 
ATOM     23  C   UNL d   1      -2.562  -7.702   3.374  0.00  0.00    -0.051 A 
ATOM     24  C   UNL d   1      -2.877  -6.335   3.448  0.00  0.00     0.009 A 
ATOM     25  C   UNL d   1      -2.585  -5.457   2.398  0.00  0.00     0.018 A 
BRANCH  23  26
ATOM     26  C   UNL d   1      -2.980  -8.701   4.470  0.00  0.00    -0.024 C 
ATOM     27  C   UNL d   1      -3.783  -8.049   5.620  0.00  0.00     0.019 C 
ATOM     28  C   UNL d   1      -3.886  -9.787   3.847  0.00  0.00     0.019 C 
ATOM     29  C   UNL d   1      -1.747  -9.380   5.101  0.00  0.00     0.019 C 
ENDBRANCH  23  26
ENDBRANCH  18  20
ENDBRANCH  17  18
ENDBRANCH   6  17
TORSDOF 4
