REMARK  4 active torsions:
REMARK  status: ('A' for Active; 'I' for Inactive)
REMARK       I    between atoms: C_4  and  N_8 
REMARK    1  A    between atoms: C_10  and  C_4 
REMARK    2  A    between atoms: N_8  and  C_5 
REMARK    3  A    between atoms: C_9  and  C_10 
REMARK    4  A    between atoms: O_16  and  C_14 
ROOT
ATOM      1  C   UNL d   1      -2.928  -2.524  -0.856  0.00  0.00     0.222 C 
ATOM      2  N   UNL d   1      -2.030  -2.627  -1.899  0.00  0.00    -0.356 N 
ATOM      3  O   UNL d   1      -2.981  -1.588  -0.067  0.00  0.00    -0.273 OA
ATOM      4  H   UNL d   1      -2.272  -3.307  -2.608  0.00  0.00     0.162 HD
ENDROOT
BRANCH   1   5
ATOM      5  C   UNL d   1      -3.898  -3.695  -0.754  0.00  0.00     0.144 C 
BRANCH   5   6
ATOM      6  C   UNL d   1      -5.342  -3.363  -1.058  0.00  0.00    -0.016 A 
ATOM      7  C   UNL d   1      -6.402  -4.245  -0.779  0.00  0.00     0.074 A 
ATOM      8  C   UNL d   1      -7.726  -3.804  -0.913  0.00  0.00     0.037 A 
ATOM      9  C   UNL d   1      -8.024  -2.507  -1.347  0.00  0.00     0.003 A 
ATOM     10  C   UNL d   1      -6.989  -1.649  -1.675  0.00  0.00     0.001 A 
ATOM     11  C   UNL d   1      -5.671  -2.075  -1.553  0.00  0.00     0.010 A 
BRANCH   7  12
ATOM     12  O   UNL d   1      -6.321  -5.506  -0.249  0.00  0.00    -0.355 OA
ATOM     13  C   UNL d   1      -5.310  -6.381  -0.724  0.00  0.00     0.210 C 
ENDBRANCH   7  12
ENDBRANCH   5   6
ENDBRANCH   1   5
BRANCH   2  14
ATOM     14  C   UNL d   1      -1.047  -1.622  -2.350  0.00  0.00     0.088 C 
ATOM     15  C   UNL d   1      -0.684  -0.466  -1.398  0.00  0.00     0.061 C 
ATOM     16  C   UNL d   1       0.475  -0.786  -0.437  0.00  0.00     0.225 C 
ATOM     17  N   UNL d   1       1.625  -1.111  -1.306  0.00  0.00     0.093 N 
ATOM     18  C   UNL d   1       0.264  -2.046   0.399  0.00  0.00     0.038 C 
ATOM     19  C   UNL d   1       1.310  -2.485  -1.742  0.00  0.00     0.225 C 
ATOM     20  C   UNL d   1       2.916  -1.019  -0.625  0.00  0.00     0.310 C 
ATOM     21  C   UNL d   1       0.227  -2.352  -2.832  0.00  0.00     0.061 C 
ATOM     22  C   UNL d   1       0.810  -3.179  -0.468  0.00  0.00     0.038 C 
ENDBRANCH   2  14
TORSDOF 4
