REMARK  4 active torsions:
REMARK  status: ('A' for Active; 'I' for Inactive)
REMARK    1  A    between atoms: N_4  and  C_3 
REMARK       I    between atoms: C_5  and  N_4 
REMARK       I    between atoms: N_11  and  C_5 
REMARK    2  A    between atoms: C_12  and  C_6 
REMARK    3  A    between atoms: C_7  and  C_12 
REMARK    4  A    between atoms: C_10  and  N_11 
ROOT
ATOM      1  N   UNL d   1       1.060  -0.904  -0.111  0.00  0.00    -0.339 N 
ATOM      2  HN  UNL d   1       1.953  -1.262   0.228  1.00  0.00     0.168 HD
ATOM      3  C   UNL d   1       0.787   0.426  -0.383  0.00  0.00     0.116 A 
ATOM      4  C   UNL d   1      -0.014  -1.645  -0.357  0.00  0.00     0.056 A 
ATOM      5  S   UNL d   1      -1.350  -0.779  -1.037  0.00  0.00    -0.085 SA
ATOM      6  C   UNL d   1      -0.477   0.676  -0.874  0.00  0.00     0.100 A 
ENDROOT
BRANCH   3   7
ATOM      7  N   UNL d   1       1.668   1.460  -0.158  0.00  0.00    -0.294 N 
ATOM      8  C   UNL d   1       2.889   1.489   0.435  0.00  0.00     0.326 C 
ATOM      9  N   UNL d   1       3.452   0.305   0.807  0.00  0.00    -0.309 N 
ATOM     10  O   UNL d   1       3.397   2.596   0.596  0.00  0.00    -0.247 OA
ATOM     11  H   UNL d   1       3.039  -0.522   0.383  0.00  0.00     0.170 HD
ATOM     12  H   UNL d   1       1.342   2.391  -0.376  0.00  0.00     0.172 HD
BRANCH   9  13
ATOM     13  C   UNL d   1       4.577   0.155   1.649  0.00  0.00     0.039 A 
ATOM     14  C   UNL d   1       5.011   1.161   2.520  0.00  0.00     0.053 A 
ATOM     15  C   UNL d   1       6.062   0.922   3.409  0.00  0.00     0.037 A 
ATOM     16 CL   UNL d   1       6.548   2.155   4.508  0.00  0.00    -0.084 Cl
ATOM     17  C   UNL d   1       6.704  -0.310   3.435  0.00  0.00     0.048 A 
ATOM     18  C   UNL d   1       6.293  -1.300   2.550  0.00  0.00     0.037 A 
ATOM     19  C   UNL d   1       5.239  -1.074   1.660  0.00  0.00     0.053 A 
ATOM     20 CL   UNL d   1       7.082  -2.832   2.561  0.00  0.00    -0.084 Cl
ENDBRANCH   9  13
ENDBRANCH   3   7
BRANCH   4  21
ATOM     21  C   UNL d   1      -0.257  -3.074   0.077  0.00  0.00     0.107 C 
BRANCH  21  22
ATOM     22  C   UNL d   1       0.611  -4.166  -0.520  0.00  0.00    -0.009 A 
ATOM     23  C   UNL d   1       1.924  -4.384  -0.045  0.00  0.00     0.042 A 
ATOM     24 CL   UNL d   1       2.622  -3.399   1.185  0.00  0.00    -0.084 Cl
ATOM     25  C   UNL d   1       2.689  -5.469  -0.481  0.00  0.00     0.024 A 
ATOM     26  C   UNL d   1       2.160  -6.392  -1.377  0.00  0.00     0.003 A 
ATOM     27  C   UNL d   1       0.871  -6.200  -1.864  0.00  0.00     0.024 A 
ATOM     28  C   UNL d   1       0.114  -5.093  -1.459  0.00  0.00     0.042 A 
ATOM     29 CL   UNL d   1      -1.476  -4.963  -2.129  0.00  0.00    -0.084 Cl
ENDBRANCH  21  22
ENDBRANCH   4  21
TORSDOF 4
