REMARK  6 active torsions:
REMARK  status: ('A' for Active; 'I' for Inactive)
REMARK    1  A    between atoms: N_4  and  C_1 
REMARK    2  A    between atoms: C_5  and  C_9 
REMARK    3  A    between atoms: C_10  and  C_5 
REMARK       I    between atoms: N_11  and  C_10 
REMARK    4  A    between atoms: C_13  and  N_11 
REMARK    5  A    between atoms: O_24  and  C_15 
REMARK    6  A    between atoms: O_25  and  C_21 
ROOT
ATOM      1  C   UNL d   1       2.233   0.443  -0.859  0.00  0.00     0.116 C 
ATOM      2  C   UNL d   1       3.192  -0.603  -0.881  0.00  0.00     0.105 C 
ATOM      3  N   UNL d   1       4.075  -1.362  -0.891  0.00  0.00    -0.191 NA
ENDROOT
BRANCH   1   4
ATOM      4  C   UNL d   1       0.941   0.324  -1.234  0.00  0.00     0.077 C 
ATOM      5  C   UNL d   1       0.345  -0.889  -1.677  0.00  0.00     0.110 A 
ATOM      6  N   UNL d   1      -0.988  -0.953  -2.081  0.00  0.00    -0.318 N 
ATOM      7  N   UNL d   1       0.900  -2.087  -1.765  0.00  0.00    -0.348 N 
ATOM      8  C   UNL d   1      -1.201  -2.234  -2.536  0.00  0.00     0.192 A 
ATOM      9  C   UNL d   1      -1.966   0.115  -2.007  0.00  0.00     0.159 C 
ATOM     10  C   UNL d   1      -0.046  -2.926  -2.288  0.00  0.00     0.144 A 
ATOM     11  HN  UNL d   1       1.851  -2.337  -1.495  1.00  0.00     0.167 HD
BRANCH   8  12
ATOM     12  N   UNL d   1      -2.388  -2.723  -3.151  0.00  0.00    -0.096 N 
ATOM     13  O   UNL d   1      -3.240  -1.898  -3.499  0.00  0.00    -0.530 OA
ATOM     14  O   UNL d   1      -2.460  -3.945  -3.314  0.00  0.00    -0.530 OA
ENDBRANCH   8  12
ENDBRANCH   1   4
BRANCH   1  15
ATOM     15  C   UNL d   1       2.648   1.804  -0.368  0.00  0.00     0.266 C 
ATOM     16  N   UNL d   1       4.010   2.027  -0.270  0.00  0.00    -0.320 N 
ATOM     17  H   UNL d   1       4.668   1.383  -0.695  0.00  0.00     0.169 HD
ATOM     18  O   UNL d   1       1.797   2.664  -0.141  0.00  0.00    -0.267 OA
BRANCH  16  19
ATOM     19  C   UNL d   1       4.581   3.220   0.231  0.00  0.00     0.068 A 
ATOM     20  C   UNL d   1       5.758   3.745  -0.328  0.00  0.00     0.097 A 
ATOM     21  C   UNL d   1       6.398   4.839   0.280  0.00  0.00     0.075 A 
ATOM     22  C   UNL d   1       5.890   5.401   1.452  0.00  0.00     0.070 A 
ATOM     23  C   UNL d   1       4.708   4.890   1.989  0.00  0.00     0.039 A 
ATOM     24  C   UNL d   1       4.047   3.822   1.376  0.00  0.00     0.035 A 
BRANCH  20  25
ATOM     25  O   UNL d   1       6.400   3.261  -1.441  0.00  0.00    -0.354 OA
ATOM     26  C   UNL d   1       5.572   2.940  -2.557  0.00  0.00     0.210 C 
ENDBRANCH  20  25
BRANCH  22  27
ATOM     27  O   UNL d   1       6.449   6.420   2.171  0.00  0.00    -0.356 OA
ATOM     28  C   UNL d   1       7.673   6.961   1.690  0.00  0.00     0.210 C 
ENDBRANCH  22  27
ENDBRANCH  16  19
ENDBRANCH   1  15
TORSDOF 6
