REMARK  1 active torsions:
REMARK  status: ('A' for Active; 'I' for Inactive)
REMARK       I    between atoms: C_3  and  N_1 
REMARK    1  A    between atoms: C_6  and  C_3 
ROOT
ATOM      1  N   UNL d   1       2.102   0.704   0.303  0.00  0.00    -0.339 N 
ATOM      2  C   UNL d   1      -0.282   0.662  -0.097  0.00  0.00    -0.022 A 
ATOM      3  C   UNL d   1       2.979   1.021   1.351  0.00  0.00     0.261 C 
ATOM      4  C   UNL d   1       0.966   1.519  -0.184  0.00  0.00     0.117 C 
ATOM      5  C   UNL d   1      -0.237  -0.718   0.016  0.00  0.00    -0.008 A 
ATOM      6  C   UNL d   1       2.215  -0.640  -0.299  0.00  0.00     0.132 C 
ATOM      7  S   UNL d   1      -1.774  -1.435   0.098  0.00  0.00    -0.106 SA
ATOM      8  C   UNL d   1       1.026  -1.521   0.112  0.00  0.00     0.067 C 
ATOM      9  C   UNL d   1      -1.637   1.124  -0.098  0.00  0.00     0.017 A 
ATOM     10  C   UNL d   1      -2.543   0.090   0.000  0.00  0.00     0.051 A 
ATOM     11  O   UNL d   1       3.898   0.236   1.621  0.00  0.00    -0.267 OA
ATOM     12  C   UNL d   1       1.209   2.045  -1.600  0.00  0.00     0.037 C 
ENDROOT
BRANCH   3  13
ATOM     13  C   UNL d   1       2.820   2.256   2.115  0.00  0.00     0.072 A 
ATOM     14  S   UNL d   1       4.252   3.086   2.601  0.00  0.00    -0.097 SA
ATOM     15  C   UNL d   1       3.368   4.297   3.417  0.00  0.00     0.050 A 
ATOM     16  C   UNL d   1       2.012   4.085   3.337  0.00  0.00     0.009 A 
ATOM     17  C   UNL d   1       1.700   2.881   2.637  0.00  0.00     0.025 A 
ENDBRANCH   3  13
TORSDOF 1
