REMARK  2 active torsions:
REMARK  status: ('A' for Active; 'I' for Inactive)
REMARK    1  A    between atoms: N_2  and  N_1 
REMARK    2  A    between atoms: C_4  and  N_2 
ROOT
ATOM      1  C   UNL d   1       4.658  -1.555  -0.353  0.00  0.00     0.111 A 
ATOM      2  C   UNL d   1       3.457  -0.985   0.165  0.00  0.00     0.074 A 
ATOM      3  C   UNL d   1       4.728  -2.697  -1.227  0.00  0.00     0.105 C 
ATOM      4  N   UNL d   1       4.811  -3.622  -1.914  0.00  0.00    -0.191 NA
ATOM      5  C   UNL d   1       5.907  -0.974  -0.076  0.00  0.00     0.139 A 
ATOM      6  F   UNL d   1       7.031  -1.523  -0.563  0.00  0.00    -0.204 F 
ATOM      7  C   UNL d   1       3.621   0.180   0.952  0.00  0.00     0.033 A 
ATOM      8  C   UNL d   1       4.875   0.764   1.189  0.00  0.00     0.005 A 
ATOM      9  C   UNL d   1       6.024   0.181   0.679  0.00  0.00     0.044 A 
ENDROOT
BRANCH   2  10
ATOM     10  N   UNL d   1       2.136  -1.471  -0.092  0.00  0.00    -0.288 N 
ATOM     11  C   UNL d   1       1.979  -2.919  -0.243  0.00  0.00     0.178 C 
BRANCH  10  12
ATOM     12  N   UNL d   1       0.910  -0.718  -0.036  0.00  0.00    -0.263 N 
ATOM     13  C   UNL d   1       0.679   0.528  -0.631  0.00  0.00     0.030 A 
ATOM     14  C   UNL d   1      -0.665   0.832  -0.528  0.00  0.00     0.029 A 
ATOM     15  C   UNL d   1       1.693   1.421  -1.256  0.00  0.00     0.070 C 
ATOM     16  C   UNL d   1      -1.288  -0.207   0.166  0.00  0.00     0.029 A 
ATOM     17  C   UNL d   1      -0.314  -1.121   0.523  0.00  0.00     0.030 A 
ATOM     18  C   UNL d   1      -0.579  -2.354   1.318  0.00  0.00     0.070 C 
ENDBRANCH  10  12
ENDBRANCH   2  10
TORSDOF 2
