REMARK  3 active torsions:
REMARK  status: ('A' for Active; 'I' for Inactive)
REMARK    1  A    between atoms: C_4  and  N_1 
REMARK       I    between atoms: C_2  and  N_3 
REMARK       I    between atoms: N_5  and  C_2 
REMARK    2  A    between atoms: C_10  and  N_5 
REMARK    3  A    between atoms: N_6  and  C_7 
ROOT
ATOM      1  C   UNL d   1      -4.972   6.529  -3.607  0.00  0.00     0.323 C 
ATOM      2  N   UNL d   1      -4.481   5.497  -2.814  0.00  0.00    -0.332 N 
ATOM      3  N   UNL d   1      -5.894   6.172  -4.571  0.00  0.00    -0.306 N 
ATOM      4  N   UNL d   1      -1.812   4.181  -2.719  0.00  0.00    -0.366 N 
ATOM      5  O   UNL d   1      -4.617   7.685  -3.395  0.00  0.00    -0.247 OA
ATOM      6  C   UNL d   1      -3.442   5.852  -1.831  0.00  0.00     0.147 C 
ATOM      7  C   UNL d   1      -2.005   5.578  -2.312  0.00  0.00     0.144 C 
ATOM      8  C   UNL d   1      -3.879   3.243  -3.780  0.00  0.00     0.040 C 
ATOM      9  C   UNL d   1      -4.792   4.070  -2.880  0.00  0.00     0.129 C 
ATOM     10  C   UNL d   1      -2.460   3.769  -3.966  0.00  0.00     0.126 C 
ATOM     11  H   UNL d   1      -6.312   5.263  -4.471  0.00  0.00     0.171 HD
ENDROOT
BRANCH   3  12
ATOM     12  C   UNL d   1      -6.623   7.098  -5.372  0.00  0.00     0.075 A 
ATOM     13  C   UNL d   1      -6.189   8.393  -5.704  0.00  0.00     0.146 A 
ATOM     14  C   UNL d   1      -7.037   9.305  -6.331  0.00  0.00     0.086 A 
ATOM     15  F   UNL d   1      -4.925   8.787  -5.504  0.00  0.00    -0.204 F 
ATOM     16  C   UNL d   1      -8.315   8.907  -6.684  0.00  0.00     0.119 A 
ATOM     17  C   UNL d   1      -8.739   7.602  -6.465  0.00  0.00     0.044 A 
ATOM     18  F   UNL d   1      -9.147   9.786  -7.257  0.00  0.00    -0.206 F 
ATOM     19  C   UNL d   1      -7.891   6.694  -5.820  0.00  0.00     0.036 A 
ENDBRANCH   3  12
BRANCH   4  20
ATOM     20  C   UNL d   1      -1.110   3.243  -1.992  0.00  0.00     0.103 A 
ATOM     21  C   UNL d   1      -0.102   3.598  -1.090  0.00  0.00     0.051 A 
ATOM     22  C   UNL d   1       0.617   2.623  -0.393  0.00  0.00     0.041 A 
ATOM     23  C   UNL d   1       0.309   1.287  -0.608  0.00  0.00     0.118 A 
ATOM     24  C   UNL d   1      -0.693   0.985  -1.511  0.00  0.00     0.125 A 
ATOM     25  N   UNL d   1      -1.388   1.931  -2.196  0.00  0.00    -0.350 N 
ATOM     26  HN  UNL d   1      -2.113   1.656  -2.858  1.00  0.00     0.166 HD
BRANCH  23  27
ATOM     27  N   UNL d   1       1.021   0.229   0.082  0.00  0.00    -0.114 N 
ATOM     28  O   UNL d   1       0.673  -0.942  -0.136  0.00  0.00    -0.532 OA
ATOM     29  O   UNL d   1       1.938   0.555   0.853  0.00  0.00    -0.532 OA
ENDBRANCH  23  27
ENDBRANCH   4  20
TORSDOF 3
