REMARK  3 active torsions:
REMARK  status: ('A' for Active; 'I' for Inactive)
REMARK    1  A    between atoms: C_9  and  N_3 
REMARK    2  A    between atoms: C_10  and  C_4 
REMARK    3  A    between atoms: C_11  and  C_5 
ROOT
ATOM      1  N   UNL d   1      -3.331   2.892   0.941  0.00  0.00    -0.197 NA
ATOM      2  C   UNL d   1      -2.260   2.745   0.516  0.00  0.00     0.063 C 
ATOM      3  C   UNL d   1      -0.914   2.578  -0.041  0.00  0.00     0.166 C 
ENDROOT
BRANCH   3   4
ATOM      4  C   UNL d   1      -0.444   1.159  -0.010  0.00  0.00     0.001 A 
ATOM      5  C   UNL d   1       0.903   0.685   0.068  0.00  0.00     0.067 A 
ATOM      6  N   UNL d   1       0.939  -0.653   0.150  0.00  0.00    -0.293 N 
ATOM      7  N   UNL d   1      -0.349  -1.065   0.028  0.00  0.00    -0.267 N 
ATOM      8  HN  UNL d   1       1.763  -1.240   0.276  1.00  0.00     0.187 HD
ATOM      9  C   UNL d   1      -1.202   0.009  -0.078  0.00  0.00     0.127 A 
BRANCH   5  10
ATOM     10  C   UNL d   1       2.126   1.496   0.089  0.00  0.00    -0.007 A 
ATOM     11  C   UNL d   1       2.210   2.675  -0.669  0.00  0.00     0.014 A 
ATOM     12  C   UNL d   1       3.314   3.521  -0.565  0.00  0.00     0.001 A 
ATOM     13  C   UNL d   1       4.374   3.171   0.264  0.00  0.00     0.000 A 
ATOM     14  C   UNL d   1       4.335   1.972   0.975  0.00  0.00     0.001 A 
ATOM     15  C   UNL d   1       3.216   1.136   0.889  0.00  0.00     0.014 A 
ENDBRANCH   5  10
BRANCH   7  16
ATOM     16  C   UNL d   1      -0.700  -2.445   0.011  0.00  0.00     0.056 A 
ATOM     17  C   UNL d   1       0.289  -3.421   0.199  0.00  0.00     0.031 A 
ATOM     18  C   UNL d   1      -0.050  -4.776   0.177  0.00  0.00     0.002 A 
ATOM     19  C   UNL d   1      -1.371  -5.167  -0.037  0.00  0.00     0.000 A 
ATOM     20  C   UNL d   1      -2.358  -4.204  -0.227  0.00  0.00     0.002 A 
ATOM     21  C   UNL d   1      -2.029  -2.847  -0.200  0.00  0.00     0.031 A 
ENDBRANCH   7  16
ENDBRANCH   3   4
TORSDOF 3
