REMARK  3 active torsions:
REMARK  status: ('A' for Active; 'I' for Inactive)
REMARK    1  A    between atoms: N_5  and  C_1 
REMARK    2  A    between atoms: C_10  and  C_4 
REMARK       I    between atoms: C_6  and  N_5 
REMARK       I    between atoms: N_9  and  C_6 
REMARK    3  A    between atoms: C_12  and  N_9 
ROOT
ATOM      1  N   UNL d   1      -0.008  -2.191   0.098  0.00  0.00    -0.288 N 
ATOM      2  C   UNL d   1       0.674  -3.293  -0.262  0.00  0.00     0.326 C 
ATOM      3  N   UNL d   1       1.784  -3.184  -1.045  0.00  0.00    -0.309 N 
ATOM      4  O   UNL d   1       0.141  -4.359   0.066  0.00  0.00    -0.247 OA
ATOM      5  H   UNL d   1      -0.930  -2.426   0.432  0.00  0.00     0.172 HD
ATOM      6  H   UNL d   1       2.266  -2.293  -1.025  0.00  0.00     0.170 HD
ENDROOT
BRANCH   1   7
ATOM      7  C   UNL d   1       0.263  -0.861   0.119  0.00  0.00     0.152 A 
ATOM      8  N   UNL d   1       1.370  -0.155   0.036  0.00  0.00    -0.339 N 
ATOM      9  C   UNL d   1       1.062   1.197   0.316  0.00  0.00     0.025 A 
ATOM     10  HN  UNL d   1       2.294  -0.520  -0.193  1.00  0.00     0.168 HD
ATOM     11  C   UNL d   1      -0.297   1.453   0.441  0.00  0.00     0.079 A 
ATOM     12  S   UNL d   1      -1.186   0.009   0.395  0.00  0.00    -0.064 SA
BRANCH   9  13
ATOM     13  C   UNL d   1       2.139   2.276   0.452  0.00  0.00    -0.008 C 
ATOM     14  C   UNL d   1       2.250   3.069  -0.863  0.00  0.00     0.021 C 
ATOM     15  C   UNL d   1       1.775   3.275   1.584  0.00  0.00     0.021 C 
ATOM     16  C   UNL d   1       3.513   1.683   0.805  0.00  0.00     0.021 C 
ENDBRANCH   9  13
ENDBRANCH   1   7
BRANCH   3  17
ATOM     17  C   UNL d   1       2.324  -4.236  -1.841  0.00  0.00     0.036 A 
ATOM     18  C   UNL d   1       1.663  -5.458  -2.054  0.00  0.00     0.031 A 
ATOM     19  C   UNL d   1       2.191  -6.443  -2.899  0.00  0.00     0.026 A 
ATOM     20  C   UNL d   1       3.395  -6.216  -3.549  0.00  0.00     0.034 A 
ATOM     21  C   UNL d   1       4.075  -5.016  -3.348  0.00  0.00     0.026 A 
ATOM     22 CL   UNL d   1       4.032  -7.410  -4.611  0.00  0.00    -0.084 Cl
ATOM     23  C   UNL d   1       3.541  -4.030  -2.500  0.00  0.00     0.031 A 
ENDBRANCH   3  17
TORSDOF 3
