REMARK  4 active torsions:
REMARK  status: ('A' for Active; 'I' for Inactive)
REMARK    1  A    between atoms: N_2  and  C_1 
REMARK    2  A    between atoms: C_14  and  C_5 
REMARK    3  A    between atoms: N_15  and  N_7 
REMARK    4  A    between atoms: C_13  and  N_15 
ROOT
ATOM      1  N   UNL d   1       3.832  -0.903   0.160  0.00  0.00    -0.309 N 
ATOM      2  HN  UNL d   1       3.899   0.111   0.246  1.00  0.00     0.186 HD
ATOM      3  C   UNL d   1       2.701  -1.514   0.041  0.00  0.00     0.119 C 
ENDROOT
BRANCH   1   4
ATOM      4  N   UNL d   1       4.929  -1.710   0.161  0.00  0.00    -0.286 N 
ATOM      5  H   UNL d   1       5.025  -2.452  -0.532  0.00  0.00     0.188 HD
BRANCH   4   6
ATOM      6  C   UNL d   1       6.187  -1.087   0.283  0.00  0.00     0.119 A 
ATOM      7  N   UNL d   1       7.231  -1.693  -0.326  0.00  0.00    -0.351 N 
ATOM      8  C   UNL d   1       8.443  -1.103  -0.211  0.00  0.00     0.089 A 
ATOM      9  HN  UNL d   1       7.109  -2.559  -0.850  1.00  0.00     0.166 HD
ATOM     10  C   UNL d   1       8.676   0.067   0.492  0.00  0.00     0.017 A 
ATOM     11  C   UNL d   1       7.600   0.670   1.125  0.00  0.00     0.005 A 
ATOM     12  C   UNL d   1       6.342   0.083   1.025  0.00  0.00     0.050 A 
ENDBRANCH   4   6
ENDBRANCH   1   4
BRANCH   3  13
ATOM     13  C   UNL d   1       1.497  -0.703   0.020  0.00  0.00    -0.010 A 
ATOM     14  C   UNL d   1       1.442   0.732   0.110  0.00  0.00     0.057 A 
ATOM     15  C   UNL d   1       0.152   1.209   0.058  0.00  0.00     0.144 A 
ATOM     16  S   UNL d   1      -0.996  -0.033  -0.096  0.00  0.00    -0.077 SA
ATOM     17  C   UNL d   1       0.226  -1.236  -0.094  0.00  0.00     0.065 A 
BRANCH  15  18
ATOM     18  N   UNL d   1      -0.255   2.589   0.121  0.00  0.00    -0.108 N 
ATOM     19  O   UNL d   1       0.650   3.426   0.238  0.00  0.00    -0.531 OA
ATOM     20  O   UNL d   1      -1.464   2.848   0.053  0.00  0.00    -0.531 OA
ENDBRANCH  15  18
ENDBRANCH   3  13
TORSDOF 4
