REMARK  0 active torsions:
REMARK  status: ('A' for Active; 'I' for Inactive)
ROOT
ATOM      1  S   UNL d   1       1.706   1.861  -0.416  0.00  0.00     0.286 S 
ATOM      2  S   UNL d   1       2.171  -1.011  -0.885  0.00  0.00     0.286 S 
ATOM      3  C   UNL d   1       2.823   0.523  -0.361  0.00  0.00     0.341 C 
ATOM      4  O   UNL d   1       1.069  -1.278   0.290  0.00  0.00    -0.229 OA
ATOM      5  O   UNL d   1       0.653   1.398   0.744  0.00  0.00    -0.229 OA
ATOM      6  C   UNL d   1      -0.182  -0.750   0.139  0.00  0.00     0.124 A 
ATOM      7  C   UNL d   1      -0.394   0.603   0.379  0.00  0.00     0.124 A 
ATOM      8  O   UNL d   1       2.422   3.015   0.100  0.00  0.00    -0.197 OA
ATOM      9  O   UNL d   1       1.049   1.943  -1.702  0.00  0.00    -0.197 OA
ATOM     10  O   UNL d   1       1.528  -0.892  -2.176  0.00  0.00    -0.197 OA
ATOM     11  O   UNL d   1       3.231  -1.987  -0.698  0.00  0.00    -0.197 OA
ATOM     12  C   UNL d   1      -1.242  -1.579  -0.206  0.00  0.00     0.041 A 
ATOM     13  C   UNL d   1      -1.668   1.149   0.279  0.00  0.00     0.041 A 
ATOM     14  C   UNL d   1      -2.519  -1.032  -0.341  0.00  0.00     0.003 A 
ATOM     15  C   UNL d   1      -2.731   0.329  -0.099  0.00  0.00     0.003 A 
ENDROOT
TORSDOF 0
