REMARK  3 active torsions:
REMARK  status: ('A' for Active; 'I' for Inactive)
REMARK    1  A    between atoms: N_2  and  S_1 
REMARK    2  A    between atoms: C_4  and  S_1 
REMARK       I    between atoms: C_5  and  N_2 
REMARK       I    between atoms: N_7  and  C_5 
REMARK    3  A    between atoms: C_14  and  N_7 
ROOT
ATOM      1  N   UNL d   1       0.928   0.894  -0.861  0.00  0.00    -0.264 N 
ATOM      2  HN  UNL d   1       1.131   0.128  -0.219  1.00  0.00     0.180 HD
ATOM      3  C   UNL d   1       0.906   2.212  -0.414  0.00  0.00     0.332 C 
ATOM      4  N   UNL d   1       1.523   2.603   0.748  0.00  0.00    -0.308 N 
ATOM      5  O   UNL d   1       0.289   3.093  -1.010  0.00  0.00    -0.246 OA
ATOM      6  H   UNL d   1       1.427   3.599   0.872  0.00  0.00     0.170 HD
ENDROOT
BRANCH   1   7
ATOM      7  S   UNL d   1       0.640   0.622  -2.342  0.00  0.00     0.063 S 
ATOM      8  O   UNL d   1       1.268   1.274  -3.474  0.00  0.00    -0.244 OA
ATOM      9  C   UNL d   1      -1.111   0.551  -2.631  0.00  0.00     0.143 C 
BRANCH   7  10
ATOM     10  C   UNL d   1       1.078  -1.102  -2.557  0.00  0.00     0.078 A 
ATOM     11  S   UNL d   1       0.734  -2.212  -1.301  0.00  0.00    -0.092 SA
ATOM     12  C   UNL d   1       1.148  -3.553  -2.283  0.00  0.00     0.051 A 
ATOM     13  C   UNL d   1       1.565  -3.166  -3.537  0.00  0.00     0.009 A 
ATOM     14  C   UNL d   1       1.555  -1.752  -3.683  0.00  0.00     0.030 A 
ENDBRANCH   7  10
ENDBRANCH   1   7
BRANCH   4  15
ATOM     15  C   UNL d   1       2.103   1.885   1.807  0.00  0.00     0.036 A 
ATOM     16  C   UNL d   1       2.230   0.498   1.850  0.00  0.00     0.029 A 
ATOM     17  C   UNL d   1       2.721  -0.137   2.996  0.00  0.00     0.002 A 
ATOM     18  C   UNL d   1       3.102   0.610   4.107  0.00  0.00     0.000 A 
ATOM     19  C   UNL d   1       3.017   1.998   4.064  0.00  0.00     0.002 A 
ATOM     20  C   UNL d   1       2.526   2.631   2.918  0.00  0.00     0.029 A 
ENDBRANCH   4  15
TORSDOF 3
