REMARK  9 active torsions:
REMARK  status: ('A' for Active; 'I' for Inactive)
REMARK       I    between atoms: C_10  and  N_1 
REMARK    1  A    between atoms: C_9  and  C_3 
REMARK    2  A    between atoms: C_9  and  O_12 
REMARK    3  A    between atoms: C_11  and  C_9 
REMARK    4  A    between atoms: C_18  and  C_11 
REMARK    5  A    between atoms: C_11  and  O_13 
REMARK    6  A    between atoms: C_14  and  O_12 
REMARK    7  A    between atoms: C_15  and  O_13 
REMARK    8  A    between atoms: C_17  and  O_20 
REMARK    9  A    between atoms: O_20  and  C_18 
ROOT
ATOM      1  C   UNL d   1      -0.584   5.576  -4.834  0.00  0.00     0.196 C 
ENDROOT
BRANCH   1   2
ATOM      2  C   UNL d   1      -2.127   5.453  -4.945  0.00  0.00     0.197 C 
ATOM      3  C   UNL d   1      -2.917   6.719  -5.356  0.00  0.00     0.183 C 
ATOM      4  N   UNL d   1      -4.316   6.329  -5.300  0.00  0.00    -0.321 N 
ATOM      5  S   UNL d   1      -2.854   8.076  -4.114  0.00  0.00    -0.129 SA
ATOM      6  C   UNL d   1      -4.714   6.191  -3.896  0.00  0.00     0.206 C 
ATOM      7  C   UNL d   1      -5.092   5.811  -6.306  0.00  0.00     0.217 C 
ATOM      8  C   UNL d   1      -3.893   5.086  -3.222  0.00  0.00     0.284 C 
ATOM      9  C   UNL d   1      -4.415   7.566  -3.263  0.00  0.00     0.033 C 
ATOM     10  O   UNL d   1      -2.638   4.870  -3.702  0.00  0.00    -0.309 OA
ATOM     11  O   UNL d   1      -4.264   4.522  -2.197  0.00  0.00    -0.263 OA
ATOM     12  C   UNL d   1      -5.544   8.546  -3.619  0.00  0.00     0.029 C 
ATOM     13  C   UNL d   1      -4.186   7.579  -1.752  0.00  0.00     0.029 C 
ATOM     14  O   UNL d   1      -6.134   5.201  -6.069  0.00  0.00    -0.274 OA
ATOM     15  C   UNL d   1      -4.644   6.022  -7.727  0.00  0.00     0.117 C 
ENDBRANCH   1   2
BRANCH   1  16
ATOM     16  O   UNL d   1       0.018   5.652  -6.155  0.00  0.00    -0.311 OA
BRANCH  16  17
ATOM     17  C   UNL d   1       0.292   6.885  -6.641  0.00  0.00     0.255 C 
ATOM     18  O   UNL d   1      -0.096   7.935  -6.147  0.00  0.00    -0.266 OA
ATOM     19  C   UNL d   1       1.132   6.808  -7.880  0.00  0.00     0.126 C 
ENDBRANCH  16  17
ENDBRANCH   1  16
BRANCH   1  20
ATOM     20  C   UNL d   1       0.040   4.363  -4.069  0.00  0.00     0.188 C 
BRANCH  20  21
ATOM     21  C   UNL d   1      -0.363   2.975  -4.614  0.00  0.00     0.213 C 
BRANCH  21  22
ATOM     22  O   UNL d   1       0.077   2.801  -5.974  0.00  0.00    -0.319 OA
BRANCH  22  23
ATOM     23  C   UNL d   1       1.127   1.955  -6.161  0.00  0.00     0.254 C 
ATOM     24  O   UNL d   1       1.686   1.303  -5.292  0.00  0.00    -0.266 OA
ATOM     25  C   UNL d   1       1.509   1.903  -7.607  0.00  0.00     0.126 C 
ENDBRANCH  22  23
ENDBRANCH  21  22
ENDBRANCH  20  21
BRANCH  20  26
ATOM     26  O   UNL d   1       1.488   4.475  -4.101  0.00  0.00    -0.311 OA
BRANCH  26  27
ATOM     27  C   UNL d   1       2.139   3.811  -3.100  0.00  0.00     0.255 C 
ATOM     28  O   UNL d   1       1.595   3.274  -2.146  0.00  0.00    -0.266 OA
ATOM     29  C   UNL d   1       3.613   3.764  -3.362  0.00  0.00     0.126 C 
ENDBRANCH  26  27
ENDBRANCH  20  26
ENDBRANCH   1  20
TORSDOF 9
