REMARK  4 active torsions:
REMARK  status: ('A' for Active; 'I' for Inactive)
REMARK    1  A    between atoms: C_2  and  C_1 
REMARK       I    between atoms: N_4  and  C_2 
REMARK    2  A    between atoms: N_3  and  C_5 
REMARK    3  A    between atoms: C_7  and  N_6 
REMARK    4  A    between atoms: N_24  and  C_10 
ROOT
ATOM      1  C   UNL d   1      -1.858   2.515   0.106  0.00  0.00     0.255 C 
ATOM      2  N   UNL d   1      -1.120   3.670  -0.148  0.00  0.00    -0.345 N 
ATOM      3  N   UNL d   1       0.645   5.878  -0.360  0.00  0.00    -0.364 N 
ATOM      4  O   UNL d   1      -2.633   2.423   1.060  0.00  0.00    -0.267 OA
ATOM      5  C   UNL d   1      -0.448   4.000  -1.418  0.00  0.00     0.146 C 
ATOM      6  C   UNL d   1      -1.285   4.833   0.750  0.00  0.00     0.146 C 
ATOM      7  C   UNL d   1       0.034   5.627   0.955  0.00  0.00     0.144 C 
ATOM      8  C   UNL d   1       0.909   4.655  -1.129  0.00  0.00     0.144 C 
ENDROOT
BRANCH   1   9
ATOM      9  C   UNL d   1      -1.720   1.326  -0.782  0.00  0.00     0.054 C 
ATOM     10  C   UNL d   1      -2.862   0.583  -1.153  0.00  0.00     0.021 C 
ATOM     11  C   UNL d   1      -2.711  -0.458  -2.079  0.00  0.00     0.026 C 
ATOM     12  C   UNL d   1      -1.447  -0.822  -2.551  0.00  0.00     0.026 C 
ATOM     13  C   UNL d   1      -0.320  -0.151  -2.089  0.00  0.00     0.035 C 
ATOM     14  C   UNL d   1      -0.446   0.897  -1.182  0.00  0.00     0.042 C 
ATOM     15 CL   UNL d   1       1.237  -0.580  -2.680  0.00  0.00    -0.084 Cl
BRANCH  10  16
ATOM     16  N   UNL d   1      -4.168   0.985  -0.807  0.00  0.00    -0.302 NA
ATOM     17  H   UNL d   1      -4.164   1.526   0.068  0.00  0.00     0.124 HD
ATOM     18  H   UNL d   1      -4.828   0.215  -0.751  0.00  0.00     0.124 HD
ENDBRANCH  10  16
ENDBRANCH   1   9
BRANCH   3  19
ATOM     19  C   UNL d   1       1.473   6.966  -0.547  0.00  0.00     0.103 A 
ATOM     20  N   UNL d   1       1.997   7.617   0.513  0.00  0.00    -0.350 N 
ATOM     21  C   UNL d   1       2.764   8.717   0.279  0.00  0.00     0.125 A 
ATOM     22  HN  UNL d   1       1.823   7.293   1.465  1.00  0.00     0.166 HD
ATOM     23  C   UNL d   1       3.014   9.217  -0.990  0.00  0.00     0.118 A 
ATOM     24  C   UNL d   1       2.462   8.566  -2.083  0.00  0.00     0.041 A 
ATOM     25  C   UNL d   1       1.688   7.432  -1.849  0.00  0.00     0.051 A 
BRANCH  23  26
ATOM     26  N   UNL d   1       3.824  10.409  -1.172  0.00  0.00    -0.114 N 
ATOM     27  O   UNL d   1       4.310  10.933  -0.167  0.00  0.00    -0.532 OA
ATOM     28  O   UNL d   1       3.983  10.828  -2.325  0.00  0.00    -0.532 OA
ENDBRANCH  23  26
ENDBRANCH   3  19
TORSDOF 4
