REMARK  7 active torsions:
REMARK  status: ('A' for Active; 'I' for Inactive)
REMARK    1  A    between atoms: C_8  and  C_1 
REMARK    2  A    between atoms: C_13  and  C_4 
REMARK    3  A    between atoms: S_15  and  C_6 
REMARK    4  A    between atoms: O_16  and  C_8 
REMARK    5  A    between atoms: O_17  and  C_13 
REMARK    6  A    between atoms: O_18  and  C_13 
REMARK    7  A    between atoms: C_19  and  S_15 
ROOT
ATOM      1  C   UNL d   1      -1.562   1.326  -0.005  0.00  0.00     0.068 A 
ATOM      2  N   UNL d   1      -1.479  -1.094  -0.162  0.00  0.00    -0.348 N 
ATOM      3  HN  UNL d   1      -1.970  -1.984  -0.240  1.00  0.00     0.166 HD
ATOM      4  C   UNL d   1      -2.200   0.082  -0.082  0.00  0.00     0.082 A 
ATOM      5  C   UNL d   1       0.566   0.124  -0.062  0.00  0.00     0.079 A 
ATOM      6  C   UNL d   1      -0.129  -1.074  -0.137  0.00  0.00     0.092 A 
ATOM      7  C   UNL d   1      -0.156   1.325  -0.007  0.00  0.00     0.045 A 
ATOM      8  C   UNL d   1       1.995   0.182  -0.024  0.00  0.00     0.102 C 
ATOM      9  N   UNL d   1       3.150   0.282   0.008  0.00  0.00    -0.191 NA
ENDROOT
BRANCH   6  10
ATOM     10  S   UNL d   1       0.699  -2.657  -0.053  0.00  0.00    -0.099 SA
BRANCH  10  11
ATOM     11  C   UNL d   1      -0.508  -3.754  -0.872  0.00  0.00     0.173 C 
ATOM     12  C   UNL d   1      -0.043  -5.156  -0.834  0.00  0.00    -0.107 C 
ATOM     13  C   UNL d   1       0.328  -6.298  -0.797  0.00  0.00     0.013 C 
ENDBRANCH  10  11
ENDBRANCH   6  10
BRANCH   1  14
ATOM     14  C   UNL d   1      -2.307   2.618   0.113  0.00  0.00     0.295 C 
ATOM     15  O   UNL d   1      -3.518   2.734   0.061  0.00  0.00    -0.259 OA
BRANCH  14  16
ATOM     16  O   UNL d   1      -1.445   3.644   0.336  0.00  0.00    -0.322 OA
ATOM     17  C   UNL d   1      -2.072   4.919   0.524  0.00  0.00     0.213 C 
ENDBRANCH  14  16
ENDBRANCH   1  14
BRANCH   4  18
ATOM     18  C   UNL d   1      -3.724  -0.083  -0.087  0.00  0.00     0.310 C 
BRANCH  18  19
ATOM     19  O   UNL d   1      -4.133  -0.058  -1.461  0.00  0.00    -0.360 OA
ATOM     20  C   UNL d   1      -5.545  -0.129  -1.599  0.00  0.00     0.205 C 
ENDBRANCH  18  19
BRANCH  18  21
ATOM     21  O   UNL d   1      -4.130  -1.325   0.519  0.00  0.00    -0.360 OA
ATOM     22  C   UNL d   1      -3.856  -1.379   1.912  0.00  0.00     0.205 C 
ENDBRANCH  18  21
ENDBRANCH   4  18
TORSDOF 7
