REMARK  8 active torsions:
REMARK  status: ('A' for Active; 'I' for Inactive)
REMARK    1  A    between atoms: C_17  and  S_1 
REMARK    2  A    between atoms: N_20  and  S_1 
REMARK    3  A    between atoms: C_2  and  C_5 
REMARK    4  A    between atoms: C_9  and  S_27 
REMARK    5  A    between atoms: C_28  and  N_20 
REMARK    6  A    between atoms: C_21  and  C_22 
REMARK    7  A    between atoms: S_27  and  C_31 
REMARK    8  A    between atoms: C_31  and  C_28 
ROOT
ATOM      1  C   UNL d   1       9.848   0.643   1.779  0.00  0.00     0.015 A 
ATOM      2  C   UNL d   1       7.830  -0.650   2.257  0.00  0.00     0.079 A 
ATOM      3  N   UNL d   1       7.658   1.438   1.105  0.00  0.00    -0.352 N 
ATOM      4  HN  UNL d   1       7.086   2.146   0.645  1.00  0.00     0.166 HD
ATOM      5  C   UNL d   1       7.074   0.342   1.650  0.00  0.00     0.091 A 
ATOM      6  C   UNL d   1       9.221  -0.497   2.308  0.00  0.00     0.041 A 
ATOM      7  C   UNL d   1       9.017   1.591   1.172  0.00  0.00     0.018 A 
ATOM      8  C   UNL d   1       7.245  -1.802   2.870  0.00  0.00     0.102 C 
ATOM      9  N   UNL d   1       6.796  -2.760   3.341  0.00  0.00    -0.191 NA
ATOM     10  C   UNL d   1       9.499   2.880   0.567  0.00  0.00     0.069 C 
ENDROOT
BRANCH   5  11
ATOM     11  S   UNL d   1       5.287   0.407   1.662  0.00  0.00    -0.110 SA
BRANCH  11  12
ATOM     12  C   UNL d   1       4.844  -1.054   0.644  0.00  0.00     0.096 C 
BRANCH  12  13
ATOM     13  C   UNL d   1       3.320  -1.238   0.613  0.00  0.00     0.115 C 
BRANCH  13  14
ATOM     14  N   UNL d   1       2.665  -0.097  -0.056  0.00  0.00    -0.215 NA
ATOM     15  H   UNL d   1       2.994   0.822   0.251  0.00  0.00     0.140 HD
BRANCH  14  16
ATOM     16  S   UNL d   1       0.983  -0.135  -0.211  0.00  0.00     0.241 S 
ATOM     17  O   UNL d   1       0.615   1.007  -1.018  0.00  0.00    -0.206 OA
ATOM     18  O   UNL d   1       0.591  -1.480  -0.569  0.00  0.00    -0.206 OA
BRANCH  16  19
ATOM     19  C   UNL d   1       0.429   0.186   1.448  0.00  0.00     0.074 A 
ATOM     20  C   UNL d   1       0.251   1.502   1.872  0.00  0.00     0.025 A 
ATOM     21  C   UNL d   1      -0.167   1.755   3.183  0.00  0.00     0.009 A 
ATOM     22  C   UNL d   1      -0.420   0.708   4.093  0.00  0.00    -0.051 A 
ATOM     23  C   UNL d   1      -0.285  -0.609   3.614  0.00  0.00     0.009 A 
ATOM     24  C   UNL d   1       0.129  -0.872   2.303  0.00  0.00     0.025 A 
BRANCH  22  25
ATOM     25  C   UNL d   1      -0.790   1.025   5.555  0.00  0.00    -0.024 C 
ATOM     26  C   UNL d   1      -1.045  -0.233   6.417  0.00  0.00     0.019 C 
ATOM     27  C   UNL d   1       0.371   1.803   6.215  0.00  0.00     0.019 C 
ATOM     28  C   UNL d   1      -2.069   1.888   5.622  0.00  0.00     0.019 C 
ENDBRANCH  22  25
ENDBRANCH  16  19
ENDBRANCH  14  16
ENDBRANCH  13  14
ENDBRANCH  12  13
ENDBRANCH  11  12
ENDBRANCH   5  11
BRANCH   1  29
ATOM     29  C   UNL d   1      11.297   0.790   1.923  0.00  0.00     0.051 A 
ATOM     30  N   UNL d   1      11.889   2.021   2.149  0.00  0.00    -0.353 N 
ATOM     31  C   UNL d   1      13.196   1.893   2.236  0.00  0.00     0.047 A 
ATOM     32  HN  UNL d   1      11.383   2.902   2.236  1.00  0.00     0.166 HD
ATOM     33  C   UNL d   1      14.145   3.025   2.417  0.00  0.00     0.076 C 
ATOM     34  S   UNL d   1      13.790   0.287   2.118  0.00  0.00    -0.087 SA
ATOM     35  C   UNL d   1      12.185  -0.270   1.888  0.00  0.00     0.081 A 
ENDBRANCH   1  29
TORSDOF 8
