REMARK  4 active torsions:
REMARK  status: ('A' for Active; 'I' for Inactive)
REMARK    1  A    between atoms: C_3  and  C_1 
REMARK    2  A    between atoms: N_5  and  C_2 
REMARK       I    between atoms: N_8  and  C_3 
REMARK       I    between atoms: C_4  and  N_7 
REMARK    3  A    between atoms: C_10  and  C_4 
REMARK    4  A    between atoms: N_7  and  N_8 
ROOT
ATOM      1  C   UNL d   1      -0.323   2.734  -0.060  0.00  0.00     0.279 C 
ATOM      2  N   UNL d   1      -1.418   3.110   0.698  0.00  0.00    -0.263 N 
ATOM      3  O   UNL d   1       0.221   3.551  -0.807  0.00  0.00    -0.265 OA
ATOM      4  H   UNL d   1      -1.835   2.507   1.404  0.00  0.00     0.190 HD
ENDROOT
BRANCH   1   5
ATOM      5  C   UNL d   1       0.114   1.353   0.081  0.00  0.00     0.101 A 
ATOM      6  C   UNL d   1       1.390   0.817  -0.008  0.00  0.00     0.061 A 
ATOM      7  C   UNL d   1       1.359  -0.614  -0.106  0.00  0.00     0.039 A 
ATOM      8  C   UNL d   1       0.086  -1.120   0.013  0.00  0.00     0.053 A 
ATOM      9  S   UNL d   1      -1.074   0.114   0.214  0.00  0.00    -0.094 SA
BRANCH   6  10
ATOM     10  N   UNL d   1       2.615   1.562  -0.010  0.00  0.00    -0.331 N 
ATOM     11  C   UNL d   1       2.833   2.801   0.560  0.00  0.00     0.096 A 
ATOM     12  C   UNL d   1       4.148   3.165   0.369  0.00  0.00     0.019 A 
ATOM     13  C   UNL d   1       4.774   2.112  -0.328  0.00  0.00     0.019 A 
ATOM     14  C   UNL d   1       3.826   1.130  -0.516  0.00  0.00     0.096 A 
ENDBRANCH   6  10
ENDBRANCH   1   5
BRANCH   2  15
ATOM     15  N   UNL d   1      -1.859   4.436   0.620  0.00  0.00    -0.265 N 
ATOM     16  C   UNL d   1      -2.594   4.965   1.664  0.00  0.00     0.269 C 
ATOM     17  O   UNL d   1      -2.916   4.276   2.637  0.00  0.00    -0.269 OA
ATOM     18  H   UNL d   1      -1.461   5.010  -0.127  0.00  0.00     0.190 HD
BRANCH  16  19
ATOM     19  C   UNL d   1      -2.935   6.449   1.567  0.00  0.00     0.271 C 
ATOM     20 CL   UNL d   1      -1.557   7.392   2.163  0.00  0.00    -0.098 Cl
ATOM     21 CL   UNL d   1      -3.330   6.910  -0.104  0.00  0.00    -0.098 Cl
ENDBRANCH  16  19
ENDBRANCH   2  15
TORSDOF 4
