REMARK  4 active torsions:
REMARK  status: ('A' for Active; 'I' for Inactive)
REMARK    1  A    between atoms: N_11  and  C_1 
REMARK       I    between atoms: C_2  and  N_8 
REMARK    2  A    between atoms: C_9  and  C_2 
REMARK       I    between atoms: N_8  and  C_10 
REMARK       I    between atoms: C_10  and  N_11 
REMARK    3  A    between atoms: O_22  and  C_13 
REMARK    4  A    between atoms: O_21  and  C_14 
ROOT
ATOM      1  C   UNL d   1       2.740  -2.722  -0.149  0.00  0.00     0.265 C 
ATOM      2  N   UNL d   1       2.067  -3.904   0.122  0.00  0.00    -0.275 N 
ATOM      3  C   UNL d   1       2.504  -5.199   0.087  0.00  0.00     0.327 C 
ATOM      4  N   UNL d   1       3.559  -5.463  -0.742  0.00  0.00    -0.303 N 
ATOM      5  O   UNL d   1       3.848  -2.656  -0.665  0.00  0.00    -0.267 OA
ATOM      6  O   UNL d   1       1.936  -6.018   0.802  0.00  0.00    -0.247 OA
ATOM      7  H   UNL d   1       1.248  -3.828   0.710  0.00  0.00     0.173 HD
ATOM      8  H   UNL d   1       4.200  -4.684  -0.892  0.00  0.00     0.171 HD
ENDROOT
BRANCH   4   9
ATOM      9  C   UNL d   1       3.998  -6.774  -1.048  0.00  0.00     0.120 A 
ATOM     10  C   UNL d   1       3.140  -7.887  -1.097  0.00  0.00     0.188 A 
ATOM     11  C   UNL d   1       3.635  -9.161  -1.358  0.00  0.00     0.199 A 
ATOM     12  F   UNL d   1       1.811  -7.747  -0.983  0.00  0.00    -0.200 F 
ATOM     13  F   UNL d   1       2.800 -10.209  -1.397  0.00  0.00    -0.199 F 
ATOM     14  C   UNL d   1       4.986  -9.345  -1.608  0.00  0.00     0.199 A 
ATOM     15  C   UNL d   1       5.839  -8.251  -1.615  0.00  0.00     0.199 A 
ATOM     16  F   UNL d   1       5.460 -10.572  -1.860  0.00  0.00    -0.199 F 
ATOM     17  C   UNL d   1       5.347  -6.975  -1.348  0.00  0.00     0.188 A 
ATOM     18  F   UNL d   1       7.143  -8.424  -1.875  0.00  0.00    -0.199 F 
ATOM     19  F   UNL d   1       6.189  -5.931  -1.348  0.00  0.00    -0.200 F 
ENDBRANCH   4   9
BRANCH   1  20
ATOM     20  C   UNL d   1       1.924  -1.520   0.198  0.00  0.00     0.099 C 
ATOM     21  C   UNL d   1       1.288  -1.441   1.454  0.00  0.00     0.086 C 
ATOM     22  C   UNL d   1       0.276  -0.498   1.660  0.00  0.00     0.038 C 
ATOM     23  C   UNL d   1      -0.080   0.383   0.639  0.00  0.00     0.005 C 
ATOM     24  C   UNL d   1       0.611   0.365  -0.571  0.00  0.00     0.038 C 
ATOM     25  C   UNL d   1       1.638  -0.560  -0.779  0.00  0.00     0.086 C 
BRANCH  21  26
ATOM     26  O   UNL d   1       1.660  -2.362   2.401  0.00  0.00    -0.355 OA
ATOM     27  C   UNL d   1       1.465  -1.984   3.762  0.00  0.00     0.210 C 
ENDBRANCH  21  26
BRANCH  25  28
ATOM     28  O   UNL d   1       2.262  -0.541  -1.997  0.00  0.00    -0.355 OA
ATOM     29  C   UNL d   1       3.393   0.336  -1.938  0.00  0.00     0.210 C 
ENDBRANCH  25  28
ENDBRANCH   1  20
TORSDOF 4
