REMARK  4 active torsions:
REMARK  status: ('A' for Active; 'I' for Inactive)
REMARK    1  A    between atoms: O_3  and  S_1 
REMARK    2  A    between atoms: C_6  and  S_1 
REMARK    3  A    between atoms: N_2  and  C_9 
REMARK    4  A    between atoms: C_5  and  O_3 
ROOT
ATOM      1  C   UNL d   1       0.365  -0.265  -1.720  0.00  0.00     0.086 A 
ATOM      2  C   UNL d   1      -0.775  -0.400  -4.300  0.00  0.00     0.037 A 
ATOM      3  C   UNL d   1       0.100  -1.505  -2.294  0.00  0.00     0.028 A 
ATOM      4  C   UNL d   1       0.062   0.907  -2.411  0.00  0.00     0.028 A 
ATOM      5  C   UNL d   1      -0.493   0.833  -3.693  0.00  0.00     0.031 A 
ATOM      6  C   UNL d   1      -0.470  -1.565  -3.573  0.00  0.00     0.031 A 
ENDROOT
BRANCH   1   7
ATOM      7  S   UNL d   1       0.944  -0.157  -0.040  0.00  0.00     0.303 S 
ATOM      8  O   UNL d   1       0.361   1.060   0.499  0.00  0.00    -0.193 OA
ATOM      9  O   UNL d   1       0.678  -1.438   0.586  0.00  0.00    -0.193 OA
BRANCH   7  10
ATOM     10  O   UNL d   1       2.559   0.036  -0.189  0.00  0.00    -0.227 OA
BRANCH  10  11
ATOM     11  C   UNL d   1       3.361   0.094   0.929  0.00  0.00     0.111 A 
ATOM     12  C   UNL d   1       4.639  -0.479   0.868  0.00  0.00     0.068 A 
ATOM     13 CL   UNL d   1       5.203  -1.269  -0.561  0.00  0.00    -0.081 Cl
ATOM     14  C   UNL d   1       5.493  -0.425   1.973  0.00  0.00     0.026 A 
ATOM     15  C   UNL d   1       5.081   0.212   3.146  0.00  0.00     0.002 A 
ATOM     16  C   UNL d   1       3.822   0.802   3.204  0.00  0.00     0.003 A 
ATOM     17  C   UNL d   1       2.971   0.750   2.099  0.00  0.00     0.040 A 
ENDBRANCH  10  11
ENDBRANCH   7  10
ENDBRANCH   1   7
BRANCH   2  18
ATOM     18  N   UNL d   1      -1.367  -0.478  -5.592  0.00  0.00    -0.318 N 
ATOM     19  C   UNL d   1      -1.629   0.601  -6.453  0.00  0.00     0.224 C 
ATOM     20  O   UNL d   1      -1.342   1.782  -6.329  0.00  0.00    -0.273 OA
ATOM     21  C   UNL d   1      -2.409   0.074  -7.634  0.00  0.00     0.105 C 
ATOM     22  C   UNL d   1      -2.163  -1.419  -7.582  0.00  0.00     0.029 C 
ATOM     23  C   UNL d   1      -1.943  -1.697  -6.112  0.00  0.00     0.133 C 
ENDBRANCH   2  18
TORSDOF 4
