REMARK  5 active torsions:
REMARK  status: ('A' for Active; 'I' for Inactive)
REMARK    1  A    between atoms: C_5  and  C_13 
REMARK    2  A    between atoms: O_11  and  C_5 
REMARK    3  A    between atoms: C_15  and  C_10 
REMARK    4  A    between atoms: C_13  and  C_14 
REMARK    5  A    between atoms: C_14  and  C_15 
ROOT
ATOM      1  C   UNL d   1      -0.210  -0.683   0.008  0.00  0.00     0.105 A 
ATOM      2  C   UNL d   1      -0.232   0.691   0.015  0.00  0.00     0.105 A 
ATOM      3  O   UNL d   1      -1.458  -1.223   0.026  0.00  0.00    -0.323 OA
ATOM      4  O   UNL d   1      -1.497   1.189   0.039  0.00  0.00    -0.323 OA
ATOM      5  C   UNL d   1      -2.267  -0.030   0.088  0.00  0.00     0.352 A 
ATOM      6  C   UNL d   1       0.972  -1.392  -0.013  0.00  0.00     0.047 A 
ATOM      7  C   UNL d   1       0.928   1.433   0.006  0.00  0.00     0.040 A 
ATOM      8  C   UNL d   1       2.178  -0.672  -0.034  0.00  0.00    -0.055 A 
ATOM      9  C   UNL d   1       2.144   0.741  -0.015  0.00  0.00     0.010 A 
ENDROOT
BRANCH   8  10
ATOM     10  C   UNL d   1       3.503  -1.398  -0.054  0.00  0.00     0.039 C 
BRANCH  10  11
ATOM     11  C   UNL d   1       3.686  -2.344  -1.245  0.00  0.00     0.015 C 
BRANCH  11  12
ATOM     12  C   UNL d   1       3.669  -1.630  -2.599  0.00  0.00     0.110 C 
BRANCH  12  13
ATOM     13  C   UNL d   1       3.867  -2.610  -3.735  0.00  0.00     0.139 C 
ATOM     14  O   UNL d   1       4.042  -3.810  -3.610  0.00  0.00    -0.650 OA
BRANCH  13  15
ATOM     15  O   UNL d   1       3.837  -2.006  -4.945  0.00  0.00    -0.776 OA
ATOM     16  H   UNL d   1       3.678  -1.045  -4.901  0.00  0.00     0.167 HD
ENDBRANCH  13  15
ENDBRANCH  12  13
ENDBRANCH  11  12
ENDBRANCH  10  11
ENDBRANCH   8  10
TORSDOF 5
