REMARK  3 active torsions:
REMARK  status: ('A' for Active; 'I' for Inactive)
REMARK    1  A    between atoms: C_6  and  C_1 
REMARK    2  A    between atoms: C_5  and  C_2 
REMARK       I    between atoms: N_9  and  C_5 
REMARK    3  A    between atoms: C_14  and  N_9 
ROOT
ATOM      1  C   UNL d   1      -1.461  -0.372   0.565  0.00  0.00     0.086 A 
ATOM      2  C   UNL d   1      -0.192  -0.983   0.315  0.00  0.00     0.093 A 
ATOM      3  N   UNL d   1      -1.302   0.944   0.791  0.00  0.00    -0.259 N 
ATOM      4  HN  UNL d   1      -2.027   1.605   1.070  1.00  0.00     0.195 HD
ATOM      5  O   UNL d   1       0.023   1.226   0.574  0.00  0.00    -0.241 OA
ATOM      6  C   UNL d   1       0.686   0.086   0.268  0.00  0.00     0.090 A 
ATOM      7  C   UNL d   1       2.116   0.261  -0.062  0.00  0.00     0.080 C 
ENDROOT
BRANCH   2   8
ATOM      8  C   UNL d   1       0.151  -2.375   0.083  0.00  0.00     0.261 C 
ATOM      9  N   UNL d   1       1.331  -2.733   0.718  0.00  0.00    -0.323 N 
ATOM     10  H   UNL d   1       1.685  -2.069   1.395  0.00  0.00     0.169 HD
ATOM     11  O   UNL d   1      -0.557  -3.108  -0.589  0.00  0.00    -0.267 OA
BRANCH   9  12
ATOM     12  C   UNL d   1       2.123  -3.880   0.521  0.00  0.00     0.036 A 
ATOM     13  C   UNL d   1       1.825  -4.890  -0.396  0.00  0.00     0.056 A 
ATOM     14  C   UNL d   1       2.721  -5.949  -0.582  0.00  0.00     0.074 A 
ATOM     15 CL   UNL d   1       2.354  -7.178  -1.732  0.00  0.00    -0.081 Cl
ATOM     16  C   UNL d   1       3.908  -6.000   0.145  0.00  0.00     0.138 A 
ATOM     17  C   UNL d   1       4.208  -5.009   1.071  0.00  0.00     0.046 A 
ATOM     18  F   UNL d   1       4.788  -6.995  -0.038  0.00  0.00    -0.204 F 
ATOM     19  C   UNL d   1       3.315  -3.954   1.261  0.00  0.00     0.032 A 
ENDBRANCH   9  12
ENDBRANCH   2   8
BRANCH   1  20
ATOM     20  C   UNL d   1      -2.803  -0.951   0.651  0.00  0.00     0.037 A 
ATOM     21  C   UNL d   1      -3.120  -1.951   1.590  0.00  0.00     0.048 A 
ATOM     22 CL   UNL d   1      -1.958  -2.603   2.698  0.00  0.00    -0.083 Cl
ATOM     23  C   UNL d   1      -4.433  -2.434   1.710  0.00  0.00     0.025 A 
ATOM     24  C   UNL d   1      -5.454  -1.914   0.919  0.00  0.00     0.003 A 
ATOM     25  C   UNL d   1      -5.162  -0.925  -0.013  0.00  0.00     0.025 A 
ATOM     26  C   UNL d   1      -3.849  -0.455  -0.158  0.00  0.00     0.048 A 
ATOM     27 CL   UNL d   1      -3.602   0.740  -1.393  0.00  0.00    -0.083 Cl
ENDBRANCH   1  20
TORSDOF 3
