REMARK  3 active torsions:
REMARK  status: ('A' for Active; 'I' for Inactive)
REMARK    1  A    between atoms: C_2  and  C_1 
REMARK       I    between atoms: N_3  and  C_1 
REMARK       I    between atoms: C_4  and  N_5 
REMARK    2  A    between atoms: C_12  and  C_4 
REMARK    3  A    between atoms: N_5  and  C_13 
ROOT
ATOM      1  C   UNL d   1       1.159   0.202  -0.034  0.00  0.00     0.257 C 
ATOM      2  N   UNL d   1       0.191   1.010  -0.648  0.00  0.00    -0.348 N 
ATOM      3  O   UNL d   1       1.062  -0.220   1.117  0.00  0.00    -0.267 OA
ATOM      4  C   UNL d   1       0.423   1.796  -1.865  0.00  0.00     0.128 C 
ATOM      5  C   UNL d   1      -0.932   1.440   0.181  0.00  0.00     0.128 C 
ATOM      6  C   UNL d   1      -2.004   2.533  -1.845  0.00  0.00     0.087 C 
ATOM      7  C   UNL d   1      -2.214   1.625  -0.631  0.00  0.00     0.045 C 
ATOM      8  C   UNL d   1      -0.842   2.001  -2.689  0.00  0.00     0.045 C 
ENDROOT
BRANCH   1   9
ATOM      9  C   UNL d   1       2.345  -0.218  -0.804  0.00  0.00     0.075 A 
ATOM     10  C   UNL d   1       3.391   0.677  -1.065  0.00  0.00     0.051 A 
ATOM     11 CL   UNL d   1       3.439   2.277  -0.411  0.00  0.00    -0.083 Cl
ATOM     12  C   UNL d   1       4.462   0.284  -1.876  0.00  0.00     0.025 A 
ATOM     13  C   UNL d   1       4.534  -1.018  -2.365  0.00  0.00     0.003 A 
ATOM     14  C   UNL d   1       3.539  -1.938  -2.033  0.00  0.00     0.025 A 
ATOM     15  C   UNL d   1       2.442  -1.540  -1.261  0.00  0.00     0.051 A 
ATOM     16 CL   UNL d   1       1.240  -2.738  -0.927  0.00  0.00    -0.083 Cl
ENDBRANCH   1   9
BRANCH   6  17
ATOM     17  N   UNL d   1      -1.793   3.915  -1.421  0.00  0.00    -0.356 N 
ATOM     18  C   UNL d   1      -1.922   5.003  -2.258  0.00  0.00     0.222 C 
ATOM     19  O   UNL d   1      -2.326   4.915  -3.414  0.00  0.00    -0.273 OA
ATOM     20  H   UNL d   1      -1.460   4.083  -0.481  0.00  0.00     0.162 HD
BRANCH  18  21
ATOM     21  C   UNL d   1      -1.500   6.319  -1.591  0.00  0.00     0.078 C 
ATOM     22  C   UNL d   1      -1.770   7.559  -2.453  0.00  0.00     0.014 C 
ATOM     23  C   UNL d   1      -0.796   7.725  -3.621  0.00  0.00     0.001 C 
ATOM     24  C   UNL d   1       0.666   7.566  -3.212  0.00  0.00     0.000 C 
ATOM     25  C   UNL d   1       0.901   6.308  -2.387  0.00  0.00     0.001 C 
ATOM     26  C   UNL d   1      -0.021   6.275  -1.172  0.00  0.00     0.014 C 
ENDBRANCH  18  21
ENDBRANCH   6  17
TORSDOF 3
