REMARK  4 active torsions:
REMARK  status: ('A' for Active; 'I' for Inactive)
REMARK    1  A    between atoms: C_3  and  N_1 
REMARK    2  A    between atoms: N_6  and  C_3 
REMARK    3  A    between atoms: C_8  and  N_6 
REMARK    4  A    between atoms: O_13  and  C_10 
ROOT
ATOM      1  N   UNL d   1      -1.701  -3.386  -0.457  0.00  0.00    -0.331 N 
ATOM      2  H   UNL d   1      -2.541  -3.947  -0.544  0.00  0.00     0.168 HD
ENDROOT
BRANCH   1   3
ATOM      3  C   UNL d   1      -1.862  -2.032  -0.565  0.00  0.00     0.181 C 
ATOM      4  S   UNL d   1      -3.395  -1.394  -0.329  0.00  0.00    -0.040 SA
BRANCH   3   5
ATOM      5  N   UNL d   1      -0.767  -1.268  -0.907  0.00  0.00    -0.293 N 
ATOM      6  C   UNL d   1       0.264  -1.543  -1.777  0.00  0.00     0.235 C 
ATOM      7  O   UNL d   1       0.655  -2.552  -2.317  0.00  0.00    -0.272 OA
ATOM      8  C   UNL d   1       0.696  -0.058  -1.799  0.00  0.00     0.051 C 
ATOM      9  C   UNL d   1      -0.572   0.183  -0.937  0.00  0.00     0.153 C 
ATOM     10  C   UNL d   1       2.029   0.203  -1.109  0.00  0.00     0.027 C 
ATOM     11  C   UNL d   1       0.631   0.587  -3.181  0.00  0.00     0.027 C 
ENDBRANCH   3   5
ENDBRANCH   1   3
BRANCH   1  12
ATOM     12  C   UNL d   1      -0.600  -4.077   0.104  0.00  0.00     0.068 A 
ATOM     13  C   UNL d   1      -0.456  -5.454  -0.113  0.00  0.00     0.095 A 
ATOM     14  C   UNL d   1       0.547  -6.169   0.556  0.00  0.00     0.039 A 
ATOM     15  C   UNL d   1       1.415  -5.511   1.430  0.00  0.00     0.003 A 
ATOM     16  C   UNL d   1       1.281  -4.145   1.647  0.00  0.00     0.002 A 
ATOM     17  C   UNL d   1       0.279  -3.430   0.987  0.00  0.00     0.032 A 
BRANCH  13  18
ATOM     18  O   UNL d   1      -1.288  -6.209  -0.905  0.00  0.00    -0.354 OA
ATOM     19  C   UNL d   1      -1.396  -5.731  -2.248  0.00  0.00     0.210 C 
ENDBRANCH  13  18
ENDBRANCH   1  12
TORSDOF 4
