REMARK  3 active torsions:
REMARK  status: ('A' for Active; 'I' for Inactive)
REMARK    1  A    between atoms: C_2  and  C_1 
REMARK       I    between atoms: N_8  and  C_2 
REMARK    2  A    between atoms: O_9  and  C_3 
REMARK    3  A    between atoms: N_10  and  N_8 
ROOT
ATOM      1  C   UNL d   1       1.546   0.812   0.032  0.00  0.00     0.073 A 
ATOM      2  C   UNL d   1       1.516  -0.640   0.002  0.00  0.00     0.090 A 
ATOM      3  S   UNL d   1      -0.957   0.094  -0.067  0.00  0.00    -0.110 SA
ATOM      4  C   UNL d   1       0.243   1.302   0.003  0.00  0.00     0.069 A 
ATOM      5  C   UNL d   1       0.224  -1.125  -0.048  0.00  0.00     0.087 A 
ENDROOT
BRANCH   1   6
ATOM      6  C   UNL d   1       2.681   1.737   0.136  0.00  0.00     0.269 C 
ATOM      7  O   UNL d   1       3.718   1.488   0.750  0.00  0.00    -0.266 OA
ATOM      8  N   UNL d   1       2.508   2.971  -0.496  0.00  0.00    -0.290 N 
ATOM      9  H   UNL d   1       1.730   3.124  -1.131  0.00  0.00     0.183 HD
BRANCH   8  10
ATOM     10  N   UNL d   1       3.557   3.927  -0.469  0.00  0.00    -0.247 NA
ATOM     11  H   UNL d   1       4.418   3.415  -0.226  0.00  0.00     0.143 HD
ATOM     12  H   UNL d   1       3.407   4.531   0.346  0.00  0.00     0.143 HD
ENDBRANCH   8  10
ENDBRANCH   1   6
BRANCH   2  13
ATOM     13  O   UNL d   1       2.475  -1.603  -0.007  0.00  0.00    -0.354 OA
ATOM     14  C   UNL d   1       3.828  -1.202   0.036  0.00  0.00     0.210 C 
ENDBRANCH   2  13
TORSDOF 3
