REMARK  4 active torsions:
REMARK  status: ('A' for Active; 'I' for Inactive)
REMARK    1  A    between atoms: C_2  and  C_1 
REMARK       I    between atoms: N_3  and  C_1 
REMARK       I    between atoms: C_4  and  N_3 
REMARK       I    between atoms: N_7  and  C_4 
REMARK    2  A    between atoms: C_5  and  N_7 
REMARK    3  A    between atoms: O_19  and  C_6 
REMARK    4  A    between atoms: O_21  and  C_10 
ROOT
ATOM      1  C   UNL d   1       1.118  -0.133  -0.245  0.00  0.00     0.265 C 
ATOM      2  N   UNL d   1       0.353   0.928  -0.720  0.00  0.00    -0.275 N 
ATOM      3  C   UNL d   1      -1.033   0.973  -0.774  0.00  0.00     0.327 C 
ATOM      4  N   UNL d   1      -1.667   0.602   0.391  0.00  0.00    -0.308 N 
ATOM      5  O   UNL d   1       0.695  -1.000   0.516  0.00  0.00    -0.267 OA
ATOM      6  O   UNL d   1      -1.574   1.368  -1.804  0.00  0.00    -0.247 OA
ATOM      7  H   UNL d   1       0.754   1.433  -1.500  0.00  0.00     0.173 HD
ATOM      8  H   UNL d   1      -1.078   0.714   1.204  0.00  0.00     0.170 HD
ENDROOT
BRANCH   1   9
ATOM      9  C   UNL d   1       2.575  -0.116  -0.583  0.00  0.00     0.100 A 
ATOM     10  C   UNL d   1       3.099  -0.443  -1.854  0.00  0.00     0.108 A 
ATOM     11  C   UNL d   1       4.505  -0.474  -2.024  0.00  0.00     0.068 A 
ATOM     12 CL   UNL d   1       5.224  -0.807  -3.566  0.00  0.00    -0.081 Cl
ATOM     13  C   UNL d   1       5.376  -0.256  -0.959  0.00  0.00     0.029 A 
ATOM     14  C   UNL d   1       4.863   0.006   0.303  0.00  0.00     0.039 A 
ATOM     15  C   UNL d   1       3.476   0.082   0.501  0.00  0.00     0.086 A 
BRANCH  10  16
ATOM     16  O   UNL d   1       2.404  -0.985  -2.902  0.00  0.00    -0.353 OA
ATOM     17  C   UNL d   1       1.281  -0.303  -3.429  0.00  0.00     0.210 C 
ENDBRANCH  10  16
BRANCH  15  18
ATOM     18  O   UNL d   1       2.950   0.382   1.737  0.00  0.00    -0.355 OA
ATOM     19  C   UNL d   1       3.678  -0.132   2.856  0.00  0.00     0.210 C 
ENDBRANCH  15  18
ENDBRANCH   1   9
BRANCH   4  20
ATOM     20  C   UNL d   1      -3.071   0.646   0.623  0.00  0.00     0.048 A 
ATOM     21  C   UNL d   1      -3.977  -0.151  -0.108  0.00  0.00    -0.034 A 
ATOM     22  C   UNL d   1      -5.330  -0.231   0.318  0.00  0.00     0.015 A 
ATOM     23  C   UNL d   1      -3.614  -1.029  -1.271  0.00  0.00     0.050 C 
ATOM     24  C   UNL d   1      -5.798   0.459   1.436  0.00  0.00    -0.061 A 
ATOM     25  C   UNL d   1      -4.909   1.277   2.123  0.00  0.00     0.015 A 
ATOM     26  C   UNL d   1      -7.219   0.287   1.897  0.00  0.00     0.048 C 
ATOM     27  C   UNL d   1      -3.556   1.389   1.728  0.00  0.00    -0.034 A 
ATOM     28  C   UNL d   1      -2.741   2.411   2.474  0.00  0.00     0.050 C 
ENDBRANCH   4  20
TORSDOF 4
