REMARK  4 active torsions:
REMARK  status: ('A' for Active; 'I' for Inactive)
REMARK    1  A    between atoms: C_7  and  C_5 
REMARK    2  A    between atoms: C_9  and  C_7 
REMARK    3  A    between atoms: S_8  and  C_9 
REMARK    4  A    between atoms: C_15  and  S_8 
ROOT
ATOM      1  N   UNL d   1       1.020   1.197   0.023  0.00  0.00    -0.327 N 
ATOM      2  C   UNL d   1      -0.282   0.689   0.002  0.00  0.00     0.041 A 
ATOM      3  C   UNL d   1       2.088   0.601  -0.594  0.00  0.00     0.222 C 
ATOM      4  C   UNL d   1      -0.517  -0.597  -0.498  0.00  0.00    -0.030 A 
ATOM      5  C   UNL d   1      -2.883  -0.343  -0.019  0.00  0.00     0.011 A 
ATOM      6  C   UNL d   1      -1.820  -1.117  -0.500  0.00  0.00     0.024 A 
ATOM      7  C   UNL d   1      -1.331   1.460   0.495  0.00  0.00     0.031 A 
ATOM      8  O   UNL d   1       3.219   1.072  -0.504  0.00  0.00    -0.273 OA
ATOM      9  C   UNL d   1      -2.631   0.949   0.470  0.00  0.00     0.017 A 
ATOM     10  C   UNL d   1       0.659  -1.438  -0.916  0.00  0.00     0.050 C 
ATOM     11  C   UNL d   1       1.772  -0.576  -1.491  0.00  0.00     0.108 C 
ATOM     12  H   UNL d   1       1.222   2.064   0.505  0.00  0.00     0.169 HD
ENDROOT
BRANCH   5  13
ATOM     13  C   UNL d   1      -4.296  -0.826  -0.020  0.00  0.00     0.168 C 
ATOM     14  O   UNL d   1      -5.199   0.009  -0.085  0.00  0.00    -0.292 OA
BRANCH  13  15
ATOM     15  C   UNL d   1      -4.606  -2.313   0.017  0.00  0.00     0.158 C 
BRANCH  15  16
ATOM     16  S   UNL d   1      -4.062  -3.054   1.594  0.00  0.00    -0.152 SA
BRANCH  16  17
ATOM     17  C   UNL d   1      -4.716  -4.785   1.464  0.00  0.00    -0.003 C 
ATOM     18  C   UNL d   1      -4.031  -5.530   0.313  0.00  0.00     0.026 C 
ATOM     19  C   UNL d   1      -4.372  -5.488   2.789  0.00  0.00     0.026 C 
ATOM     20  C   UNL d   1      -6.239  -4.799   1.285  0.00  0.00     0.026 C 
ENDBRANCH  16  17
ENDBRANCH  15  16
ENDBRANCH  13  15
ENDBRANCH   5  13
TORSDOF 4
