REMARK  4 active torsions:
REMARK  status: ('A' for Active; 'I' for Inactive)
REMARK    1  A    between atoms: C_8  and  C_1 
REMARK    2  A    between atoms: S_6  and  C_2 
REMARK    3  A    between atoms: C_9  and  S_6 
REMARK    4  A    between atoms: C_10  and  C_9 
ROOT
ATOM      1  C   UNL d   1       0.686  -0.563  -0.892  0.00  0.00     0.027 A 
ATOM      2  C   UNL d   1       1.183  -1.562  -0.128  0.00  0.00     0.061 A 
ATOM      3  C   UNL d   1      -0.170   0.446  -0.171  0.00  0.00     0.091 A 
ATOM      4  S   UNL d   1       0.820  -1.559   1.581  0.00  0.00    -0.044 SA
ATOM      5  S   UNL d   1      -0.213   0.181   1.565  0.00  0.00    -0.039 SA
ATOM      6  S   UNL d   1      -1.026   1.731  -0.839  0.00  0.00    -0.071 SA
ENDROOT
BRANCH   2   7
ATOM      7  S   UNL d   1       2.244  -2.817  -0.751  0.00  0.00    -0.117 SA
BRANCH   7   8
ATOM      8  C   UNL d   1       1.424  -4.323  -0.138  0.00  0.00     0.118 C 
BRANCH   8   9
ATOM      9  C   UNL d   1       2.192  -5.601  -0.387  0.00  0.00    -0.049 A 
ATOM     10  C   UNL d   1       3.394  -5.871   0.286  0.00  0.00     0.008 A 
ATOM     11  C   UNL d   1       4.028  -7.112   0.149  0.00  0.00     0.007 A 
ATOM     12  C   UNL d   1       3.470  -8.110  -0.660  0.00  0.00    -0.062 A 
ATOM     13  C   UNL d   1       2.288  -7.838  -1.350  0.00  0.00     0.007 A 
ATOM     14  C   UNL d   1       4.138  -9.453  -0.769  0.00  0.00     0.048 C 
ATOM     15  C   UNL d   1       1.655  -6.596  -1.215  0.00  0.00     0.008 A 
ENDBRANCH   8   9
ENDBRANCH   7   8
ENDBRANCH   2   7
BRANCH   1  16
ATOM     16  C   UNL d   1       0.927  -0.395  -2.340  0.00  0.00    -0.022 A 
ATOM     17  C   UNL d   1       0.099  -1.029  -3.275  0.00  0.00     0.012 A 
ATOM     18  C   UNL d   1       0.217  -0.728  -4.634  0.00  0.00     0.001 A 
ATOM     19  C   UNL d   1       1.163   0.201  -5.066  0.00  0.00     0.000 A 
ATOM     20  C   UNL d   1       2.010   0.814  -4.144  0.00  0.00     0.001 A 
ATOM     21  C   UNL d   1       1.899   0.513  -2.785  0.00  0.00     0.012 A 
ENDBRANCH   1  16
TORSDOF 4
