REMARK  5 active torsions:
REMARK  status: ('A' for Active; 'I' for Inactive)
REMARK    1  A    between atoms: N_2  and  C_1 
REMARK    2  A    between atoms: C_5  and  C_4 
REMARK    3  A    between atoms: O_7  and  C_5 
REMARK    4  A    between atoms: C_10  and  O_7 
REMARK    5  A    between atoms: C_12  and  C_8 
ROOT
ATOM      1  C   UNL d   1      -0.776  -2.430   0.154  0.00  0.00     0.322 C 
ATOM      2  O   UNL d   1      -0.252  -1.419   0.606  0.00  0.00    -0.257 OA
ENDROOT
BRANCH   1   3
ATOM      3  C   UNL d   1      -0.084  -3.615  -0.310  0.00  0.00     0.153 A 
ATOM      4  O   UNL d   1      -0.816  -4.643  -0.859  0.00  0.00    -0.282 OA
ATOM      5  C   UNL d   1       0.072  -5.578  -1.278  0.00  0.00     0.215 A 
ATOM      6  C   UNL d   1       1.364  -5.214  -0.988  0.00  0.00     0.066 A 
ATOM      7  C   UNL d   1       1.264  -3.942  -0.362  0.00  0.00     0.048 A 
BRANCH   5   8
ATOM      8  N   UNL d   1      -0.479  -6.734  -1.913  0.00  0.00    -0.090 N 
ATOM      9  O   UNL d   1       0.324  -7.629  -2.210  0.00  0.00    -0.530 OA
ATOM     10  O   UNL d   1      -1.700  -6.761  -2.114  0.00  0.00    -0.530 OA
ENDBRANCH   5   8
ENDBRANCH   1   3
BRANCH   1  11
ATOM     11  O   UNL d   1      -2.147  -2.623  -0.008  0.00  0.00    -0.272 OA
BRANCH  11  12
ATOM     12  C   UNL d   1      -2.996  -1.502  -0.036  0.00  0.00     0.093 A 
ATOM     13  C   UNL d   1      -2.914  -0.503  -1.020  0.00  0.00     0.043 A 
ATOM     14  C   UNL d   1      -3.919   0.475  -1.062  0.00  0.00     0.018 A 
ATOM     15  C   UNL d   1      -4.975   0.453  -0.145  0.00  0.00     0.001 A 
ATOM     16  C   UNL d   1      -5.044  -0.548   0.822  0.00  0.00     0.003 A 
ATOM     17  C   UNL d   1      -4.058  -1.531   0.875  0.00  0.00     0.038 A 
BRANCH  13  18
ATOM     18  C   UNL d   1      -1.848  -0.513  -2.066  0.00  0.00     0.158 C 
ATOM     19  O   UNL d   1      -1.325  -1.571  -2.413  0.00  0.00    -0.293 OA
ATOM     20  C   UNL d   1      -1.429   0.782  -2.712  0.00  0.00     0.097 C 
ENDBRANCH  13  18
ENDBRANCH  11  12
ENDBRANCH   1  11
TORSDOF 5
