REMARK  6 active torsions:
REMARK  status: ('A' for Active; 'I' for Inactive)
REMARK    1  A    between atoms: C_5  and  C_1 
REMARK    2  A    between atoms: N_8  and  N_2 
REMARK    3  A    between atoms: C_4  and  O_10 
REMARK    4  A    between atoms: C_9  and  C_5 
REMARK    5  A    between atoms: C_17  and  N_8 
REMARK    6  A    between atoms: O_10  and  C_18 
ROOT
ATOM      1  C   UNL d   1       1.123   0.080   0.125  0.00  0.00     0.179 C 
ATOM      2  N   UNL d   1       2.214  -0.546  -0.226  0.00  0.00    -0.287 N 
ATOM      3  HN  UNL d   1       2.591  -0.422  -1.165  1.00  0.00     0.188 HD
ATOM      4  C   UNL d   1       0.617  -0.087   1.461  0.00  0.00     0.123 C 
ATOM      5  N   UNL d   1       0.280  -0.235   2.564  0.00  0.00    -0.190 NA
ENDROOT
BRANCH   1   6
ATOM      6  C   UNL d   1       0.411   0.956  -0.867  0.00  0.00     0.220 C 
ATOM      7  O   UNL d   1      -0.808   1.015  -0.823  0.00  0.00    -0.284 OA
BRANCH   6   8
ATOM      8  C   UNL d   1       1.180   1.690  -1.895  0.00  0.00     0.017 A 
ATOM      9  C   UNL d   1       0.581   1.913  -3.139  0.00  0.00     0.018 A 
ATOM     10  C   UNL d   1       1.302   2.531  -4.166  0.00  0.00     0.038 A 
ATOM     11  C   UNL d   1       2.599   2.987  -3.934  0.00  0.00     0.078 A 
ATOM     12  C   UNL d   1       3.187   2.771  -2.684  0.00  0.00     0.038 A 
ATOM     13  C   UNL d   1       2.483   2.133  -1.661  0.00  0.00     0.018 A 
BRANCH  11  14
ATOM     14  O   UNL d   1       3.412   3.598  -4.836  0.00  0.00    -0.255 OA
BRANCH  14  15
ATOM     15  C   UNL d   1       2.856   4.376  -5.887  0.00  0.00     0.530 C 
ATOM     16  F   UNL d   1       1.526   4.577  -5.787  0.00  0.00    -0.144 F 
ATOM     17  F   UNL d   1       3.456   5.587  -5.880  0.00  0.00    -0.144 F 
ATOM     18  F   UNL d   1       3.121   3.780  -7.069  0.00  0.00    -0.144 F 
ENDBRANCH  14  15
ENDBRANCH  11  14
ENDBRANCH   6   8
ENDBRANCH   1   6
BRANCH   2  19
ATOM     19  N   UNL d   1       2.848  -1.364   0.657  0.00  0.00    -0.300 N 
ATOM     20  H   UNL d   1       2.635  -1.387   1.656  0.00  0.00     0.187 HD
BRANCH  19  21
ATOM     21  C   UNL d   1       4.083  -1.945   0.313  0.00  0.00     0.048 A 
ATOM     22  C   UNL d   1       4.725  -1.702  -0.909  0.00  0.00     0.032 A 
ATOM     23  C   UNL d   1       5.935  -2.333  -1.222  0.00  0.00     0.026 A 
ATOM     24  C   UNL d   1       6.497  -3.238  -0.326  0.00  0.00     0.034 A 
ATOM     25  C   UNL d   1       5.854  -3.527   0.873  0.00  0.00     0.026 A 
ATOM     26 CL   UNL d   1       7.988  -4.008  -0.703  0.00  0.00    -0.084 Cl
ATOM     27  C   UNL d   1       4.651  -2.886   1.186  0.00  0.00     0.032 A 
ENDBRANCH  19  21
ENDBRANCH   2  19
TORSDOF 6
