REMARK  5 active torsions:
REMARK  status: ('A' for Active; 'I' for Inactive)
REMARK    1  A    between atoms: C_2  and  C_1 
REMARK       I    between atoms: N_5  and  C_1 
REMARK    2  A    between atoms: S_6  and  C_3 
REMARK    3  A    between atoms: C_4  and  C_7 
REMARK    4  A    between atoms: C_12  and  N_5 
REMARK    5  A    between atoms: C_15  and  S_6 
ROOT
ATOM      1  C   UNL d   1       0.134  -1.147  -0.425  0.00  0.00     0.066 A 
ATOM      2  C   UNL d   1      -0.538  -0.759  -1.587  0.00  0.00     0.090 A 
ATOM      3  N   UNL d   1      -1.048  -1.670  -2.467  0.00  0.00    -0.359 N 
ATOM      4  HN  UNL d   1      -1.508  -1.366  -3.325  1.00  0.00     0.166 HD
ATOM      5  C   UNL d   1       0.208  -2.523  -0.145  0.00  0.00     0.021 A 
ATOM      6  C   UNL d   1      -0.929  -2.982  -2.176  0.00  0.00     0.089 A 
ATOM      7  C   UNL d   1      -0.316  -3.454  -1.035  0.00  0.00     0.018 A 
ENDROOT
BRANCH   1   8
ATOM      8  C   UNL d   1       0.644  -0.183   0.588  0.00  0.00     0.259 C 
ATOM      9  N   UNL d   1       1.777  -0.471   1.324  0.00  0.00    -0.323 N 
ATOM     10  H   UNL d   1       1.774  -0.006   2.226  0.00  0.00     0.169 HD
ATOM     11  O   UNL d   1      -0.033   0.787   0.919  0.00  0.00    -0.267 OA
BRANCH   9  12
ATOM     12  C   UNL d   1       2.870  -1.294   1.024  0.00  0.00     0.036 A 
ATOM     13  C   UNL d   1       3.494  -1.953   2.087  0.00  0.00     0.055 A 
ATOM     14  C   UNL d   1       4.563  -2.823   1.848  0.00  0.00     0.058 A 
ATOM     15 CL   UNL d   1       5.205  -3.691   3.196  0.00  0.00    -0.082 Cl
ATOM     16  C   UNL d   1       5.054  -2.982   0.548  0.00  0.00     0.055 A 
ATOM     17  C   UNL d   1       4.462  -2.281  -0.506  0.00  0.00     0.028 A 
ATOM     18 CL   UNL d   1       6.381  -4.025   0.181  0.00  0.00    -0.083 Cl
ATOM     19  C   UNL d   1       3.361  -1.450  -0.273  0.00  0.00     0.031 A 
ENDBRANCH   9  12
ENDBRANCH   1   8
BRANCH   2  20
ATOM     20  S   UNL d   1      -0.783   0.929  -2.111  0.00  0.00    -0.072 SA
BRANCH  20  21
ATOM     21  C   UNL d   1      -2.296   1.351  -1.248  0.00  0.00     0.007 A 
ATOM     22  C   UNL d   1      -2.328   2.538  -0.508  0.00  0.00     0.035 A 
ATOM     23  C   UNL d   1      -3.487   2.921   0.195  0.00  0.00     0.049 A 
ATOM     24  C   UNL d   1      -4.616   2.094   0.141  0.00  0.00     0.016 A 
ATOM     25  C   UNL d   1      -4.595   0.914  -0.601  0.00  0.00     0.002 A 
ATOM     26  C   UNL d   1      -3.445   0.552  -1.305  0.00  0.00     0.019 A 
BRANCH  23  27
ATOM     27  C   UNL d   1      -3.508   4.188   1.008  0.00  0.00     0.417 C 
ATOM     28  F   UNL d   1      -2.434   4.999   0.799  0.00  0.00    -0.166 F 
ATOM     29  F   UNL d   1      -4.607   4.955   0.744  0.00  0.00    -0.166 F 
ATOM     30  F   UNL d   1      -3.541   3.946   2.350  0.00  0.00    -0.166 F 
ENDBRANCH  23  27
ENDBRANCH  20  21
ENDBRANCH   2  20
TORSDOF 5
