REMARK  3 active torsions:
REMARK  status: ('A' for Active; 'I' for Inactive)
REMARK    1  A    between atoms: N_5  and  C_1 
REMARK    2  A    between atoms: N_8  and  C_2 
REMARK    3  A    between atoms: C_9  and  C_14 
REMARK       I    between atoms: N_18  and  C_9 
ROOT
ATOM      1  N   UNL d   1       0.394  -2.546   0.206  0.00  0.00    -0.364 N 
ATOM      2  C   UNL d   1       0.656  -3.388  -0.974  0.00  0.00     0.125 C 
ATOM      3  C   UNL d   1       1.345  -2.828   1.298  0.00  0.00     0.125 C 
ATOM      4  C   UNL d   1       1.251  -5.277   0.630  0.00  0.00     0.081 C 
ATOM      5  C   UNL d   1       0.427  -4.852  -0.595  0.00  0.00     0.034 C 
ATOM      6  C   UNL d   1       1.096  -4.263   1.775  0.00  0.00     0.034 C 
ENDROOT
BRANCH   1   7
ATOM      7  C   UNL d   1      -0.054  -1.259   0.030  0.00  0.00     0.157 A 
ATOM      8  C   UNL d   1      -0.054  -0.340  -1.020  0.00  0.00     0.219 A 
ATOM      9  N   UNL d   1      -0.759   0.810  -0.717  0.00  0.00    -0.330 N 
ATOM     10  C   UNL d   1      -1.206   0.606   0.498  0.00  0.00     0.186 A 
ATOM     11  HN  UNL d   1      -0.899   1.632  -1.305  1.00  0.00     0.168 HD
ATOM     12  N   UNL d   1      -0.818  -0.614   0.991  0.00  0.00    -0.330 N 
ATOM     13  C   UNL d   1      -1.277  -1.103   2.268  0.00  0.00     0.158 C 
BRANCH   8  14
ATOM     14  N   UNL d   1       0.570  -0.443  -2.311  0.00  0.00    -0.094 N 
ATOM     15  O   UNL d   1       1.768  -0.758  -2.340  0.00  0.00    -0.530 OA
ATOM     16  O   UNL d   1      -0.145  -0.235  -3.303  0.00  0.00    -0.530 OA
ENDBRANCH   8  14
ENDBRANCH   1   7
BRANCH   4  17
ATOM     17  C   UNL d   1       2.725  -5.497   0.298  0.00  0.00     0.219 C 
ATOM     18  O   UNL d   1       3.651  -4.948   0.881  0.00  0.00    -0.273 OA
ATOM     19  N   UNL d   1       2.978  -6.407  -0.686  0.00  0.00    -0.370 N 
ATOM     20  H   UNL d   1       2.275  -7.036  -1.048  0.00  0.00     0.159 HD
ATOM     21  H   UNL d   1       3.950  -6.621  -0.870  0.00  0.00     0.159 HD
ENDBRANCH   4  17
TORSDOF 3
