REMARK  3 active torsions:
REMARK  status: ('A' for Active; 'I' for Inactive)
REMARK    1  A    between atoms: O_2  and  C_1 
REMARK    2  A    between atoms: C_3  and  O_2 
REMARK    3  A    between atoms: N_12  and  C_8 
ROOT
ATOM      1  C   UNL d   1       0.390  -0.954  -0.035  0.00  0.00     0.169 A 
ATOM      2  N   UNL d   1       1.067  -0.102   0.777  0.00  0.00    -0.345 N 
ATOM      3  HN  UNL d   1       1.909  -0.390   1.275  1.00  0.00     0.167 HD
ATOM      4  C   UNL d   1      -0.771  -0.619  -0.751  0.00  0.00     0.058 A 
ATOM      5  C   UNL d   1       0.570   1.145   0.891  0.00  0.00     0.090 A 
ATOM      6  C   UNL d   1      -1.262   0.673  -0.565  0.00  0.00     0.029 A 
ATOM      7  C   UNL d   1      -0.575   1.576   0.244  0.00  0.00     0.019 A 
ENDROOT
BRANCH   1   8
ATOM      8  O   UNL d   1       0.879  -2.250  -0.214  0.00  0.00    -0.290 OA
BRANCH   8   9
ATOM      9  C   UNL d   1       2.226  -2.447  -0.006  0.00  0.00     0.099 A 
ATOM     10  C   UNL d   1       2.642  -3.554   0.743  0.00  0.00     0.069 A 
ATOM     11  C   UNL d   1       4.002  -3.784   0.965  0.00  0.00     0.050 A 
ATOM     12 CL   UNL d   1       1.502  -4.667   1.409  0.00  0.00    -0.081 Cl
ATOM     13  C   UNL d   1       4.944  -2.911   0.423  0.00  0.00     0.035 A 
ATOM     14  C   UNL d   1       4.545  -1.829  -0.360  0.00  0.00     0.026 A 
ATOM     15 CL   UNL d   1       6.619  -3.172   0.716  0.00  0.00    -0.084 Cl
ATOM     16  C   UNL d   1       3.186  -1.608  -0.589  0.00  0.00     0.041 A 
ENDBRANCH   8   9
ENDBRANCH   1   8
BRANCH   4  17
ATOM     17  N   UNL d   1      -1.538  -1.565  -1.448  0.00  0.00    -0.299 NA
ATOM     18  H   UNL d   1      -1.007  -2.392  -1.715  0.00  0.00     0.124 HD
ATOM     19  H   UNL d   1      -2.095  -1.184  -2.205  0.00  0.00     0.124 HD
ENDBRANCH   4  17
TORSDOF 3
