REMARK  6 active torsions:
REMARK  status: ('A' for Active; 'I' for Inactive)
REMARK    1  A    between atoms: C_10  and  C_1 
REMARK    2  A    between atoms: N_7  and  C_2 
REMARK    3  A    between atoms: S_3  and  N_7 
REMARK    4  A    between atoms: C_11  and  S_3 
REMARK    5  A    between atoms: C_8  and  C_5 
REMARK    6  A    between atoms: C_9  and  C_14 
REMARK       I    between atoms: N_27  and  C_10 
ROOT
ATOM      1  C   UNL d   1      -0.056   1.308   0.131  0.00  0.00     0.100 A 
ATOM      2  C   UNL d   1       1.271   0.909   0.108  0.00  0.00     0.066 A 
ATOM      3  S   UNL d   1      -1.109  -0.041   0.165  0.00  0.00    -0.082 SA
ATOM      4  C   UNL d   1       0.173  -1.163   0.135  0.00  0.00     0.018 A 
ATOM      5  C   UNL d   1       1.397  -0.522   0.159  0.00  0.00     0.051 A 
ENDROOT
BRANCH   2   6
ATOM      6  N   UNL d   1       2.362   1.772  -0.073  0.00  0.00    -0.279 N 
ATOM      7  H   UNL d   1       2.732   1.900  -1.014  0.00  0.00     0.179 HD
BRANCH   6   8
ATOM      8  S   UNL d   1       3.495   2.161   1.102  0.00  0.00     0.263 S 
ATOM      9  O   UNL d   1       3.643   1.045   2.014  0.00  0.00    -0.200 OA
ATOM     10  O   UNL d   1       4.640   2.698   0.399  0.00  0.00    -0.200 OA
BRANCH   8  11
ATOM     11  C   UNL d   1       2.714   3.502   1.970  0.00  0.00     0.079 A 
ATOM     12  C   UNL d   1       2.032   3.244   3.162  0.00  0.00     0.026 A 
ATOM     13  C   UNL d   1       1.418   4.295   3.847  0.00  0.00     0.018 A 
ATOM     14  C   UNL d   1       1.484   5.609   3.353  0.00  0.00     0.048 A 
ATOM     15  C   UNL d   1       2.201   5.857   2.170  0.00  0.00     0.018 A 
ATOM     16  C   UNL d   1       2.822   4.809   1.483  0.00  0.00     0.026 A 
BRANCH  14  17
ATOM     17  C   UNL d   1       0.795   6.745   4.072  0.00  0.00     0.417 C 
ATOM     18  F   UNL d   1       0.115   6.352   5.186  0.00  0.00    -0.166 F 
ATOM     19  F   UNL d   1       1.666   7.706   4.489  0.00  0.00    -0.166 F 
ATOM     20  F   UNL d   1      -0.117   7.384   3.288  0.00  0.00    -0.166 F 
ENDBRANCH  14  17
ENDBRANCH   8  11
ENDBRANCH   6   8
ENDBRANCH   2   6
BRANCH   1  21
ATOM     21  C   UNL d   1      -0.601   2.654   0.104  0.00  0.00     0.258 C 
ATOM     22  O   UNL d   1       0.067   3.680  -0.001  0.00  0.00    -0.267 OA
ATOM     23  N   UNL d   1      -1.961   2.773   0.200  0.00  0.00    -0.365 N 
ATOM     24  H   UNL d   1      -2.564   1.966   0.272  0.00  0.00     0.159 HD
ATOM     25  H   UNL d   1      -2.361   3.700   0.193  0.00  0.00     0.159 HD
ENDBRANCH   1  21
BRANCH   4  26
ATOM     26  C   UNL d   1      -0.066  -2.649   0.069  0.00  0.00    -0.012 A 
ATOM     27  C   UNL d   1       0.931  -3.600   0.126  0.00  0.00     0.062 A 
ATOM     28  S   UNL d   1       0.321  -5.199   0.014  0.00  0.00    -0.113 SA
ATOM     29  C   UNL d   1      -1.286  -4.638  -0.126  0.00  0.00     0.050 A 
ATOM     30  C   UNL d   1      -1.354  -3.263  -0.080  0.00  0.00     0.020 A 
ENDBRANCH   4  26
TORSDOF 6
