REMARK  4 active torsions:
REMARK  status: ('A' for Active; 'I' for Inactive)
REMARK    1  A    between atoms: C_6  and  C_1 
REMARK    2  A    between atoms: C_9  and  C_3 
REMARK    3  A    between atoms: S_10  and  C_5 
REMARK    4  A    between atoms: O_14  and  C_6 
ROOT
ATOM      1  C   UNL d   1       1.323  -1.287  -0.019  0.00  0.00     0.094 A 
ATOM      2  C   UNL d   1      -0.679  -0.070  -0.073  0.00  0.00     0.081 A 
ATOM      3  C   UNL d   1      -0.068  -1.389  -0.044  0.00  0.00     0.020 A 
ATOM      4  S   UNL d   1       1.841   0.349  -0.073  0.00  0.00    -0.075 SA
ATOM      5  C   UNL d   1       0.247   0.954  -0.062  0.00  0.00     0.063 A 
ATOM      6  C   UNL d   1      -2.092   0.177  -0.089  0.00  0.00     0.102 C 
ATOM      7  N   UNL d   1      -3.236   0.381  -0.100  0.00  0.00    -0.191 NA
ENDROOT
BRANCH   3   8
ATOM      8  C   UNL d   1      -0.778  -2.685  -0.032  0.00  0.00    -0.023 A 
ATOM      9  C   UNL d   1      -0.328  -3.775  -0.793  0.00  0.00     0.013 A 
ATOM     10  C   UNL d   1      -0.990  -5.008  -0.749  0.00  0.00     0.007 A 
ATOM     11  C   UNL d   1      -2.152  -5.165   0.009  0.00  0.00    -0.062 A 
ATOM     12  C   UNL d   1      -2.631  -4.076   0.739  0.00  0.00     0.007 A 
ATOM     13  C   UNL d   1      -2.853  -6.490   0.047  0.00  0.00     0.048 C 
ATOM     14  C   UNL d   1      -1.939  -2.858   0.735  0.00  0.00     0.013 A 
ENDBRANCH   3   8
BRANCH   5  15
ATOM     15  S   UNL d   1      -0.021   2.696   0.042  0.00  0.00    -0.126 SA
ATOM     16  C   UNL d   1      -0.931   3.042  -1.479  0.00  0.00     0.096 C 
ENDBRANCH   5  15
BRANCH   1  17
ATOM     17  C   UNL d   1       2.333  -2.326   0.109  0.00  0.00     0.300 C 
ATOM     18  O   UNL d   1       2.221  -3.356   0.766  0.00  0.00    -0.259 OA
BRANCH  17  19
ATOM     19  O   UNL d   1       3.423  -2.041  -0.668  0.00  0.00    -0.322 OA
ATOM     20  C   UNL d   1       4.411  -3.072  -0.689  0.00  0.00     0.213 C 
ENDBRANCH  17  19
ENDBRANCH   1  17
TORSDOF 4
