REMARK  10 active torsions:
REMARK  status: ('A' for Active; 'I' for Inactive)
REMARK    1  A    between atoms: C_4  and  S_1 
REMARK    2  A    between atoms: C_5  and  S_1 
REMARK    3  A    between atoms: S_2  and  C_7 
REMARK    4  A    between atoms: C_15  and  S_2 
REMARK    5  A    between atoms: S_3  and  C_6 
REMARK    6  A    between atoms: C_14  and  S_3 
REMARK    7  A    between atoms: C_6  and  C_4 
REMARK    8  A    between atoms: C_7  and  C_5 
REMARK    9  A    between atoms: C_17  and  C_14 
REMARK   10  A    between atoms: C_16  and  C_15 
ROOT
ATOM      1  S   UNL d   1       1.045  -0.008  -0.107  0.00  0.00     0.146 S 
ATOM      2  O   UNL d   1       0.504   1.251  -0.592  0.00  0.00    -0.228 OA
ATOM      3  O   UNL d   1       2.477  -0.223  -0.048  0.00  0.00    -0.228 OA
ENDROOT
BRANCH   1   4
ATOM      4  C   UNL d   1       0.360  -1.288  -1.130  0.00  0.00     0.155 C 
BRANCH   4   5
ATOM      5  C   UNL d   1      -1.153  -1.243  -1.185  0.00  0.00     0.155 C 
BRANCH   5   6
ATOM      6  S   UNL d   1      -1.752  -2.581  -2.188  0.00  0.00     0.149 S 
ATOM      7  O   UNL d   1      -1.229  -2.366  -3.522  0.00  0.00    -0.228 OA
ATOM      8  O   UNL d   1      -1.450  -3.792  -1.445  0.00  0.00    -0.228 OA
BRANCH   6   9
ATOM      9  C   UNL d   1      -3.525  -2.316  -2.196  0.00  0.00     0.178 C 
BRANCH   9  10
ATOM     10  C   UNL d   1      -4.182  -3.389  -3.025  0.00  0.00    -0.044 A 
ATOM     11  C   UNL d   1      -4.621  -4.582  -2.429  0.00  0.00     0.010 A 
ATOM     12  C   UNL d   1      -5.220  -5.581  -3.201  0.00  0.00     0.024 A 
ATOM     13  C   UNL d   1      -5.380  -5.396  -4.572  0.00  0.00     0.034 A 
ATOM     14  C   UNL d   1      -4.945  -4.221  -5.179  0.00  0.00     0.024 A 
ATOM     15 CL   UNL d   1      -6.114  -6.629  -5.522  0.00  0.00    -0.084 Cl
ATOM     16  C   UNL d   1      -4.347  -3.221  -4.408  0.00  0.00     0.010 A 
ENDBRANCH   9  10
ENDBRANCH   6   9
ENDBRANCH   5   6
ENDBRANCH   4   5
ENDBRANCH   1   4
BRANCH   1  17
ATOM     17  C   UNL d   1       0.404  -0.264   1.525  0.00  0.00     0.155 C 
BRANCH  17  18
ATOM     18  C   UNL d   1       0.800  -1.596   2.134  0.00  0.00     0.155 C 
BRANCH  18  19
ATOM     19  S   UNL d   1       0.056  -1.738   3.752  0.00  0.00     0.149 S 
ATOM     20  O   UNL d   1       0.584  -0.649   4.548  0.00  0.00    -0.228 OA
ATOM     21  O   UNL d   1      -1.369  -1.873   3.510  0.00  0.00    -0.228 OA
BRANCH  19  22
ATOM     22  C   UNL d   1       0.695  -3.290   4.385  0.00  0.00     0.178 C 
BRANCH  22  23
ATOM     23  C   UNL d   1       0.135  -3.557   5.763  0.00  0.00    -0.044 A 
ATOM     24  C   UNL d   1      -1.082  -4.240   5.918  0.00  0.00     0.010 A 
ATOM     25  C   UNL d   1      -1.589  -4.519   7.191  0.00  0.00     0.024 A 
ATOM     26  C   UNL d   1      -0.885  -4.114   8.322  0.00  0.00     0.034 A 
ATOM     27  C   UNL d   1       0.318  -3.426   8.190  0.00  0.00     0.024 A 
ATOM     28 CL   UNL d   1      -1.505  -4.467   9.888  0.00  0.00    -0.084 Cl
ATOM     29  C   UNL d   1       0.826  -3.147   6.915  0.00  0.00     0.010 A 
ENDBRANCH  22  23
ENDBRANCH  19  22
ENDBRANCH  18  19
ENDBRANCH  17  18
ENDBRANCH   1  17
TORSDOF 10
