REMARK  4 active torsions:
REMARK  status: ('A' for Active; 'I' for Inactive)
REMARK    1  A    between atoms: C_5  and  C_1 
REMARK    2  A    between atoms: C_8  and  C_4 
REMARK       I    between atoms: N_10  and  C_5 
REMARK       I    between atoms: C_9  and  N_11 
REMARK    3  A    between atoms: C_13  and  C_9 
REMARK    4  A    between atoms: N_11  and  N_10 
ROOT
ATOM      1  C   UNL d   1       2.251   1.704   0.108  0.00  0.00     0.287 C 
ATOM      2  N   UNL d   1       2.276   3.080   0.181  0.00  0.00    -0.262 N 
ATOM      3  O   UNL d   1       1.239   1.082  -0.214  0.00  0.00    -0.264 OA
ATOM      4  H   UNL d   1       3.129   3.598   0.395  0.00  0.00     0.190 HD
ENDROOT
BRANCH   1   5
ATOM      5  C   UNL d   1       3.518   1.047   0.444  0.00  0.00     0.110 A 
ATOM      6  N   UNL d   1       4.661   1.746   0.855  0.00  0.00    -0.345 N 
ATOM      7  C   UNL d   1       5.646   0.902   1.121  0.00  0.00     0.091 A 
ATOM      8  HN  UNL d   1       4.725   2.760   0.938  1.00  0.00     0.167 HD
ATOM      9  S   UNL d   1       5.262  -0.759   0.855  0.00  0.00    -0.080 SA
ATOM     10  C   UNL d   1       3.681  -0.325   0.391  0.00  0.00     0.087 A 
BRANCH   7  11
ATOM     11  C   UNL d   1       6.933   1.346   1.620  0.00  0.00     0.038 A 
ATOM     12  S   UNL d   1       8.247   0.280   1.940  0.00  0.00    -0.099 SA
ATOM     13  C   UNL d   1       9.252   1.544   2.491  0.00  0.00     0.050 A 
ATOM     14  C   UNL d   1       8.620   2.764   2.427  0.00  0.00     0.008 A 
ATOM     15  C   UNL d   1       7.291   2.651   1.919  0.00  0.00     0.022 A 
ENDBRANCH   7  11
ENDBRANCH   1   5
BRANCH   2  16
ATOM     16  N   UNL d   1       1.130   3.801  -0.191  0.00  0.00    -0.263 N 
ATOM     17  C   UNL d   1       1.169   5.178  -0.133  0.00  0.00     0.270 C 
ATOM     18  O   UNL d   1       2.165   5.804   0.221  0.00  0.00    -0.266 OA
ATOM     19  H   UNL d   1       0.273   3.262  -0.302  0.00  0.00     0.190 HD
BRANCH  17  20
ATOM     20  C   UNL d   1      -0.079   5.899  -0.505  0.00  0.00     0.033 A 
ATOM     21  C   UNL d   1      -0.332   7.142   0.093  0.00  0.00     0.019 A 
ATOM     22  C   UNL d   1      -1.464   7.881  -0.263  0.00  0.00     0.025 A 
ATOM     23  C   UNL d   1      -2.338   7.385  -1.228  0.00  0.00     0.034 A 
ATOM     24  C   UNL d   1      -2.095   6.151  -1.832  0.00  0.00     0.025 A 
ATOM     25 CL   UNL d   1      -3.714   8.308  -1.689  0.00  0.00    -0.084 Cl
ATOM     26  C   UNL d   1      -0.966   5.404  -1.472  0.00  0.00     0.019 A 
ENDBRANCH  17  20
ENDBRANCH   2  16
TORSDOF 4
