REMARK  6 active torsions:
REMARK  status: ('A' for Active; 'I' for Inactive)
REMARK    1  A    between atoms: C_8  and  C_1 
REMARK    2  A    between atoms: C_7  and  C_2 
REMARK    3  A    between atoms: C_9  and  N_3 
REMARK    4  A    between atoms: O_11  and  C_7 
REMARK    5  A    between atoms: O_12  and  C_8 
REMARK    6  A    between atoms: O_13  and  C_8 
ROOT
ATOM      1  C   UNL d   1       0.936  -0.802  -0.034  0.00  0.00     0.106 A 
ATOM      2  C   UNL d   1      -0.384  -1.226   0.131  0.00  0.00     0.086 A 
ATOM      3  N   UNL d   1       0.890   0.590  -0.072  0.00  0.00    -0.255 N 
ATOM      4  N   UNL d   1      -0.388   1.047   0.044  0.00  0.00    -0.304 N 
ATOM      5  HN  UNL d   1      -0.699   2.018   0.067  1.00  0.00     0.186 HD
ATOM      6  C   UNL d   1      -1.139  -0.044   0.119  0.00  0.00     0.127 A 
ENDROOT
BRANCH   3   7
ATOM      7  C   UNL d   1       1.934   1.557  -0.181  0.00  0.00     0.056 A 
ATOM      8  C   UNL d   1       3.082   1.348  -0.953  0.00  0.00     0.031 A 
ATOM      9  C   UNL d   1       4.110   2.295  -0.958  0.00  0.00     0.002 A 
ATOM     10  C   UNL d   1       3.986   3.471  -0.220  0.00  0.00     0.000 A 
ATOM     11  C   UNL d   1       2.817   3.719   0.495  0.00  0.00     0.002 A 
ATOM     12  C   UNL d   1       1.789   2.775   0.504  0.00  0.00     0.031 A 
ENDBRANCH   3   7
BRANCH   1  13
ATOM     13  C   UNL d   1       2.198  -1.591  -0.015  0.00  0.00     0.312 C 
BRANCH  13  14
ATOM     14  O   UNL d   1       2.529  -1.728   1.362  0.00  0.00    -0.360 OA
ATOM     15  C   UNL d   1       3.872  -2.152   1.544  0.00  0.00     0.205 C 
ENDBRANCH  13  14
BRANCH  13  16
ATOM     16  O   UNL d   1       1.998  -2.868  -0.617  0.00  0.00    -0.360 OA
ATOM     17  C   UNL d   1       1.774  -2.835  -2.017  0.00  0.00     0.205 C 
ENDBRANCH  13  16
ENDBRANCH   1  13
BRANCH   2  18
ATOM     18  C   UNL d   1      -0.889  -2.581   0.291  0.00  0.00     0.296 C 
ATOM     19  O   UNL d   1      -0.279  -3.496   0.824  0.00  0.00    -0.259 OA
BRANCH  18  20
ATOM     20  O   UNL d   1      -2.139  -2.711  -0.246  0.00  0.00    -0.322 OA
ATOM     21  C   UNL d   1      -2.631  -4.051  -0.232  0.00  0.00     0.213 C 
ENDBRANCH  18  20
ENDBRANCH   2  18
TORSDOF 6
