REMARK  5 active torsions:
REMARK  status: ('A' for Active; 'I' for Inactive)
REMARK    1  A    between atoms: N_2  and  C_1 
REMARK    2  A    between atoms: N_3  and  C_1 
REMARK    3  A    between atoms: C_5  and  N_2 
REMARK    4  A    between atoms: C_7  and  N_3 
REMARK    5  A    between atoms: O_14  and  C_13 
ROOT
ATOM      1  C   UNL d   1       1.002  -0.275   0.354  0.00  0.00     0.172 C 
ATOM      2  S   UNL d   1       2.402  -0.876   1.048  0.00  0.00    -0.041 SA
ENDROOT
BRANCH   1   3
ATOM      3  N   UNL d   1       0.421   0.942   0.670  0.00  0.00    -0.362 N 
ATOM      4  H   UNL d   1      -0.572   0.999   0.479  0.00  0.00     0.162 HD
BRANCH   3   5
ATOM      5  C   UNL d   1       0.997   2.006   1.496  0.00  0.00     0.085 C 
ATOM      6  C   UNL d   1       0.831   1.764   3.006  0.00  0.00     0.034 C 
ATOM      7  C   UNL d   1       1.448   2.903   3.857  0.00  0.00    -0.045 C 
ATOM      8  C   UNL d   1       1.109   2.673   5.341  0.00  0.00     0.015 C 
ATOM      9  C   UNL d   1       2.986   2.912   3.729  0.00  0.00     0.015 C 
ATOM     10  C   UNL d   1       0.857   4.261   3.410  0.00  0.00     0.013 C 
ATOM     11  C   UNL d   1       0.975   4.510   1.897  0.00  0.00    -0.016 C 
ATOM     12  C   UNL d   1       0.365   3.349   1.105  0.00  0.00     0.029 C 
ATOM     13  C   UNL d   1       0.309   5.830   1.512  0.00  0.00     0.010 C 
ENDBRANCH   3   5
ENDBRANCH   1   3
BRANCH   1  14
ATOM     14  N   UNL d   1       0.312  -0.845  -0.713  0.00  0.00    -0.333 N 
ATOM     15  H   UNL d   1       0.106  -0.173  -1.442  0.00  0.00     0.168 HD
BRANCH  14  16
ATOM     16  C   UNL d   1       0.354  -2.196  -1.118  0.00  0.00     0.036 A 
ATOM     17  C   UNL d   1       0.302  -3.231  -0.179  0.00  0.00     0.066 A 
ATOM     18  C   UNL d   1       0.315  -4.563  -0.591  0.00  0.00     0.070 A 
ATOM     19  C   UNL d   1       0.381  -4.855  -1.955  0.00  0.00     0.037 A 
ATOM     20  C   UNL d   1       0.407  -3.828  -2.899  0.00  0.00     0.005 A 
ATOM     21  C   UNL d   1       0.372  -2.495  -2.482  0.00  0.00     0.029 A 
BRANCH  18  22
ATOM     22  O   UNL d   1       0.258  -5.651   0.237  0.00  0.00    -0.356 OA
ATOM     23  C   UNL d   1       0.195  -5.379   1.634  0.00  0.00     0.210 C 
ENDBRANCH  18  22
ENDBRANCH  14  16
ENDBRANCH   1  14
TORSDOF 5
