REMARK  3 active torsions:
REMARK  status: ('A' for Active; 'I' for Inactive)
REMARK    1  A    between atoms: S_12  and  C_3 
REMARK    2  A    between atoms: C_7  and  C_4 
REMARK    3  A    between atoms: O_14  and  C_7 
ROOT
ATOM      1  C   UNL d   1       0.092  -0.796   0.052  0.00  0.00     0.041 A 
ATOM      2  C   UNL d   1       0.443   0.615  -0.032  0.00  0.00    -0.018 A 
ATOM      3  C   UNL d   1       1.209  -1.611   0.085  0.00  0.00     0.056 A 
ATOM      4  C   UNL d   1       1.817   0.814  -0.084  0.00  0.00     0.088 A 
ATOM      5  S   UNL d   1       2.647  -0.681  -0.031  0.00  0.00    -0.076 SA
ATOM      6  C   UNL d   1      -1.311  -1.198   0.137  0.00  0.00     0.162 C 
ATOM      7  C   UNL d   1      -0.617   1.704  -0.045  0.00  0.00     0.050 C 
ATOM      8  C   UNL d   1      -2.032   1.191   0.348  0.00  0.00    -0.037 C 
ATOM      9  C   UNL d   1      -2.304  -0.158  -0.343  0.00  0.00     0.093 C 
ATOM     10  O   UNL d   1      -1.702  -2.274   0.574  0.00  0.00    -0.292 OA
ATOM     11  C   UNL d   1      -3.100   2.198  -0.110  0.00  0.00     0.015 C 
ATOM     12  C   UNL d   1      -2.151   1.038   1.881  0.00  0.00     0.015 C 
ENDROOT
BRANCH   4  13
ATOM     13  C   UNL d   1       2.548   2.081  -0.164  0.00  0.00     0.300 C 
ATOM     14  O   UNL d   1       2.023   3.187  -0.240  0.00  0.00    -0.259 OA
BRANCH  13  15
ATOM     15  O   UNL d   1       3.898   1.884  -0.134  0.00  0.00    -0.322 OA
ATOM     16  C   UNL d   1       4.684   3.074  -0.181  0.00  0.00     0.213 C 
ENDBRANCH  13  15
ENDBRANCH   4  13
BRANCH   3  17
ATOM     17  S   UNL d   1       1.389  -3.356   0.270  0.00  0.00    -0.126 SA
ATOM     18  C   UNL d   1       0.147  -4.069  -0.826  0.00  0.00     0.096 C 
ENDBRANCH   3  17
TORSDOF 3
