REMARK  4 active torsions:
REMARK  status: ('A' for Active; 'I' for Inactive)
REMARK    1  A    between atoms: C_4  and  N_1 
REMARK    2  A    between atoms: C_2  and  C_3 
REMARK    3  A    between atoms: C_3  and  O_9 
REMARK    4  A    between atoms: O_9  and  C_12 
ROOT
ATOM      1  O   UNL d   1      -1.897  -1.253  -4.691  0.00  0.00    -0.347 OA
ENDROOT
BRANCH   1   2
ATOM      2  C   UNL d   1      -1.475  -2.301  -5.567  0.00  0.00     0.217 C 
BRANCH   2   3
ATOM      3  C   UNL d   1      -2.386  -2.355  -6.769  0.00  0.00     0.009 A 
ATOM      4  C   UNL d   1      -2.159  -1.521  -7.881  0.00  0.00     0.044 A 
ATOM      5 CL   UNL d   1      -0.873  -0.363  -7.916  0.00  0.00    -0.084 Cl
ATOM      6  C   UNL d   1      -2.965  -1.601  -9.022  0.00  0.00     0.024 A 
ATOM      7  C   UNL d   1      -4.024  -2.501  -9.069  0.00  0.00     0.003 A 
ATOM      8  C   UNL d   1      -4.287  -3.310  -7.966  0.00  0.00     0.024 A 
ATOM      9  C   UNL d   1      -3.482  -3.233  -6.824  0.00  0.00     0.044 A 
ATOM     10 CL   UNL d   1      -3.899  -4.272  -5.505  0.00  0.00    -0.084 Cl
ENDBRANCH   2   3
ENDBRANCH   1   2
BRANCH   1  11
ATOM     11  C   UNL d   1      -0.932  -0.776  -3.844  0.00  0.00     0.069 A 
ATOM     12  C   UNL d   1       0.224  -1.469  -3.476  0.00  0.00     0.039 A 
ATOM     13  C   UNL d   1       1.189  -0.857  -2.670  0.00  0.00     0.039 A 
ATOM     14  C   UNL d   1       0.979   0.448  -2.210  0.00  0.00     0.103 A 
ATOM     15  C   UNL d   1      -0.205   1.128  -2.525  0.00  0.00     0.039 A 
ATOM     16  C   UNL d   1      -1.158   0.508  -3.337  0.00  0.00     0.039 A 
BRANCH  14  17
ATOM     17  N   UNL d   1       2.016   1.107  -1.409  0.00  0.00    -0.116 N 
ATOM     18  O   UNL d   1       1.795   2.263  -1.019  0.00  0.00    -0.532 OA
ATOM     19  O   UNL d   1       3.055   0.473  -1.177  0.00  0.00    -0.532 OA
ENDBRANCH  14  17
ENDBRANCH   1  11
TORSDOF 4
