REMARK  5 active torsions:
REMARK  status: ('A' for Active; 'I' for Inactive)
REMARK    1  A    between atoms: C_7  and  C_1 
REMARK    2  A    between atoms: C_4  and  C_6 
REMARK       I    between atoms: N_16  and  C_7 
REMARK    3  A    between atoms: C_10  and  C_20 
REMARK    4  A    between atoms: C_21  and  N_16 
REMARK    5  A    between atoms: C_20  and  C_21 
ROOT
ATOM      1  C   UNL d   1      -1.889   0.087  -0.006  0.00  0.00     0.054 A 
ATOM      2  N   UNL d   1       0.258   0.989   0.650  0.00  0.00    -0.355 N 
ATOM      3  HN  UNL d   1       0.802   1.716   1.115  1.00  0.00     0.166 HD
ATOM      4  C   UNL d   1      -1.104   1.066   0.611  0.00  0.00     0.021 A 
ATOM      5  C   UNL d   1       0.883  -0.068   0.062  0.00  0.00     0.117 A 
ATOM      6  C   UNL d   1      -1.236  -0.997  -0.605  0.00  0.00     0.021 A 
ATOM      7  C   UNL d   1       0.157  -1.078  -0.569  0.00  0.00     0.035 A 
ATOM      8  C   UNL d   1      -1.688   2.268   1.298  0.00  0.00     0.069 C 
ENDROOT
BRANCH   1   9
ATOM      9  C   UNL d   1      -3.371   0.206  -0.069  0.00  0.00     0.253 C 
ATOM     10  O   UNL d   1      -3.906   1.301  -0.191  0.00  0.00    -0.268 OA
ATOM     11  N   UNL d   1      -4.090  -0.969   0.014  0.00  0.00    -0.356 N 
ATOM     12  H   UNL d   1      -3.626  -1.859   0.121  0.00  0.00     0.162 HD
BRANCH  11  13
ATOM     13  C   UNL d   1      -5.545  -0.968  -0.032  0.00  0.00     0.128 C 
BRANCH  13  14
ATOM     14  C   UNL d   1      -6.113  -0.841  -1.450  0.00  0.00     0.066 C 
BRANCH  14  15
ATOM     15  C   UNL d   1      -5.789  -2.035  -2.306  0.00  0.00    -0.016 A 
ATOM     16  S   UNL d   1      -6.811  -3.410  -2.299  0.00  0.00    -0.106 SA
ATOM     17  C   UNL d   1      -5.831  -4.221  -3.441  0.00  0.00     0.050 A 
ATOM     18  C   UNL d   1      -4.745  -3.465  -3.821  0.00  0.00     0.008 A 
ATOM     19  C   UNL d   1      -4.723  -2.200  -3.168  0.00  0.00     0.015 A 
ENDBRANCH  14  15
ENDBRANCH  13  14
ENDBRANCH  11  13
ENDBRANCH   1   9
BRANCH   5  20
ATOM     20  C   UNL d   1       2.405  -0.149   0.078  0.00  0.00     0.432 C 
ATOM     21  F   UNL d   1       3.021   0.888   0.711  0.00  0.00    -0.165 F 
ATOM     22  F   UNL d   1       2.857  -1.282   0.693  0.00  0.00    -0.165 F 
ATOM     23  F   UNL d   1       2.935  -0.185  -1.180  0.00  0.00    -0.165 F 
ENDBRANCH   5  20
TORSDOF 5
