REMARK  2 active torsions:
REMARK  status: ('A' for Active; 'I' for Inactive)
REMARK    1  A    between atoms: N_2  and  S_1 
REMARK    2  A    between atoms: C_3  and  S_1 
ROOT
ATOM      1  S   UNL d   1       1.045  -0.199  -0.074  0.00  0.00     0.260 S 
ATOM      2  O   UNL d   1       0.201  -1.335   0.234  0.00  0.00    -0.200 OA
ATOM      3  O   UNL d   1       2.487  -0.281   0.040  0.00  0.00    -0.200 OA
ENDROOT
BRANCH   1   4
ATOM      4  N   UNL d   1       0.557   1.112   0.867  0.00  0.00    -0.307 N 
ATOM      5  C   UNL d   1      -0.839   1.274   1.286  0.00  0.00     0.135 C 
ATOM      6  C   UNL d   1      -1.276   2.596   0.688  0.00  0.00     0.022 C 
ATOM      7  C   UNL d   1      -0.004   3.417   0.562  0.00  0.00     0.022 C 
ATOM      8  C   UNL d   1       1.161   2.434   0.635  0.00  0.00     0.135 C 
ENDBRANCH   1   4
BRANCH   1   9
ATOM      9  C   UNL d   1       0.681   0.294  -1.746  0.00  0.00     0.079 A 
ATOM     10  C   UNL d   1       1.727   0.443  -2.663  0.00  0.00     0.026 A 
ATOM     11  C   UNL d   1       1.459   0.899  -3.954  0.00  0.00     0.008 A 
ATOM     12  C   UNL d   1       0.152   1.223  -4.335  0.00  0.00    -0.062 A 
ATOM     13  C   UNL d   1      -0.893   1.042  -3.418  0.00  0.00     0.008 A 
ATOM     14  C   UNL d   1      -0.110   1.789  -5.700  0.00  0.00     0.048 C 
ATOM     15  C   UNL d   1      -0.633   0.555  -2.134  0.00  0.00     0.026 A 
ENDBRANCH   1   9
TORSDOF 2
