REMARK  11 active torsions:
REMARK  status: ('A' for Active; 'I' for Inactive)
REMARK    1  A    between atoms: C_23  and  C_4 
REMARK    2  A    between atoms: C_5  and  C_11 
REMARK       I    between atoms: N_9  and  C_5 
REMARK    3  A    between atoms: C_11  and  N_7 
REMARK    4  A    between atoms: N_8  and  C_22 
REMARK    5  A    between atoms: C_19  and  N_9 
REMARK    6  A    between atoms: C_22  and  C_24 
REMARK    7  A    between atoms: C_24  and  C_23 
REMARK    8  A    between atoms: C_35  and  C_32 
REMARK    9  A    between atoms: O_38  and  C_32 
REMARK   10  A    between atoms: C_33  and  C_34 
REMARK   11  A    between atoms: O_39  and  C_33 
ROOT
ATOM      1  C   UNL d   2       1.026  -1.634  -1.855  0.00  0.00     0.088 C 
ATOM      2  C   UNL d   2       0.393  -1.033  -0.838  0.00  0.00     0.088 C 
ENDROOT
BRANCH   1   3
ATOM      3  C   UNL d   2       0.183  -2.279  -2.883  0.00  0.00     0.165 C 
ATOM      4  O   UNL d   2      -1.029  -2.357  -2.829  0.00  0.00    -0.647 OA
BRANCH   3   5
ATOM      5  O   UNL d   2       0.907  -2.796  -3.894  0.00  0.00    -0.773 OA
ATOM      6  H   UNL d   2       1.871  -2.654  -3.871  0.00  0.00     0.167 HD
ENDBRANCH   3   5
ENDBRANCH   1   3
BRANCH   2   7
ATOM      7  C   UNL d   2       0.963  -0.309   0.309  0.00  0.00     0.165 C 
ATOM      8  O   UNL d   2       0.240   0.253   1.116  0.00  0.00    -0.647 OA
BRANCH   7   9
ATOM      9  O   UNL d   2       2.300  -0.295   0.410  0.00  0.00    -0.773 OA
ATOM     10  H   UNL d   2       2.803  -0.818  -0.232  0.00  0.00     0.167 HD
ENDBRANCH   7   9
ENDBRANCH   2   7
TORSDOF 11
