REMARK  3 active torsions:
REMARK  status: ('A' for Active; 'I' for Inactive)
REMARK    1  A    between atoms: C_3  and  N_1 
REMARK       I    between atoms: C_2  and  N_4 
REMARK    2  A    between atoms: C_9  and  C_2 
REMARK    3  A    between atoms: N_5  and  C_6 
ROOT
ATOM      1  C   UNL d   1      -4.614   5.276  -5.709  0.00  0.00     0.227 C 
ATOM      2  N   UNL d   1      -4.403   4.608  -4.508  0.00  0.00    -0.350 N 
ATOM      3  N   UNL d   1      -1.938   3.010  -3.988  0.00  0.00    -0.366 N 
ATOM      4  C   UNL d   1      -3.288   5.088  -3.656  0.00  0.00     0.145 C 
ATOM      5  C   UNL d   1      -1.912   4.487  -4.004  0.00  0.00     0.144 C 
ATOM      6  O   UNL d   1      -3.848   6.203  -6.012  0.00  0.00    -0.273 OA
ATOM      7  C   UNL d   1      -4.122   2.102  -4.702  0.00  0.00     0.040 C 
ATOM      8  C   UNL d   1      -4.907   3.292  -4.128  0.00  0.00     0.127 C 
ATOM      9  C   UNL d   1      -2.671   2.387  -5.084  0.00  0.00     0.126 C 
ENDROOT
BRANCH   3  10
ATOM     10  C   UNL d   1      -1.277   2.313  -2.999  0.00  0.00     0.103 A 
ATOM     11  C   UNL d   1      -1.246   0.914  -2.963  0.00  0.00     0.051 A 
ATOM     12  C   UNL d   1      -0.526   0.231  -1.975  0.00  0.00     0.041 A 
ATOM     13  C   UNL d   1       0.156   0.970  -1.020  0.00  0.00     0.118 A 
ATOM     14  C   UNL d   1       0.080   2.346  -1.083  0.00  0.00     0.125 A 
ATOM     15  N   UNL d   1      -0.622   3.010  -2.040  0.00  0.00    -0.350 N 
ATOM     16  HN  UNL d   1      -0.655   4.029  -2.035  1.00  0.00     0.166 HD
BRANCH  13  17
ATOM     17  N   UNL d   1       0.933   0.317   0.023  0.00  0.00    -0.114 N 
ATOM     18  O   UNL d   1       1.522   1.041   0.841  0.00  0.00    -0.532 OA
ATOM     19  O   UNL d   1       0.962  -0.926   0.035  0.00  0.00    -0.532 OA
ENDBRANCH  13  17
ENDBRANCH   3  10
BRANCH   1  20
ATOM     20  C   UNL d   1      -5.841   4.995  -6.635  0.00  0.00     0.030 C 
ATOM     21  C   UNL d   1      -7.110   5.560  -5.981  0.00  0.00     0.025 C 
ATOM     22  C   UNL d   1      -5.608   5.766  -7.962  0.00  0.00     0.025 C 
ATOM     23  C   UNL d   1      -6.062   3.535  -7.045  0.00  0.00     0.025 C 
ENDBRANCH   1  20
TORSDOF 3
