REMARK  3 active torsions:
REMARK  status: ('A' for Active; 'I' for Inactive)
REMARK    1  A    between atoms: C_9  and  C_4 
REMARK    2  A    between atoms: S_14  and  C_6 
REMARK       I    between atoms: N_13  and  C_9 
REMARK    3  A    between atoms: C_16  and  N_13 
ROOT
ATOM      1  S   UNL d   1      -1.132  -2.350   0.351  0.00  0.00     0.267 S 
ATOM      2  C   UNL d   1      -1.779  -0.756   0.339  0.00  0.00     0.116 C 
ATOM      3  C   UNL d   1      -0.830   0.319   0.180  0.00  0.00     0.024 C 
ATOM      4  C   UNL d   1      -1.494   1.503  -0.127  0.00  0.00     0.086 C 
ATOM      5  N   UNL d   1       0.260  -2.242  -0.606  0.00  0.00    -0.275 N 
ATOM      6  C   UNL d   1      -3.094  -0.349   0.355  0.00  0.00     0.066 C 
ATOM      7  S   UNL d   1      -3.177   1.358   0.164  0.00  0.00    -0.075 SA
ATOM      8  C   UNL d   1       0.635   0.113   0.094  0.00  0.00     0.005 C 
ATOM      9  C   UNL d   1       1.154  -1.141  -0.315  0.00  0.00     0.056 C 
ATOM     10  O   UNL d   1      -2.101  -3.173  -0.344  0.00  0.00    -0.200 OA
ATOM     11  O   UNL d   1      -0.777  -2.580   1.732  0.00  0.00    -0.200 OA
ATOM     12  C   UNL d   1       0.720  -3.463  -1.270  0.00  0.00     0.170 C 
ATOM     13  C   UNL d   1       1.538   1.144   0.404  0.00  0.00     0.014 C 
ATOM     14  C   UNL d   1       2.536  -1.270  -0.535  0.00  0.00     0.031 C 
ATOM     15  C   UNL d   1       2.905   1.006   0.159  0.00  0.00     0.001 C 
ATOM     16  C   UNL d   1       3.402  -0.196  -0.322  0.00  0.00     0.002 C 
ENDROOT
BRANCH   4  17
ATOM     17  C   UNL d   1      -0.957   2.724  -0.724  0.00  0.00     0.264 C 
ATOM     18  N   UNL d   1      -1.748   3.869  -0.649  0.00  0.00    -0.322 N 
ATOM     19  H   UNL d   1      -2.733   3.703  -0.492  0.00  0.00     0.169 HD
ATOM     20  O   UNL d   1       0.108   2.718  -1.341  0.00  0.00    -0.267 OA
BRANCH  18  21
ATOM     21  C   UNL d   1      -1.367   5.033  -1.348  0.00  0.00     0.035 A 
ATOM     22  C   UNL d   1      -2.311   5.674  -2.148  0.00  0.00     0.031 A 
ATOM     23  C   UNL d   1      -1.893   6.666  -3.041  0.00  0.00     0.026 A 
ATOM     24  C   UNL d   1      -0.551   7.050  -3.084  0.00  0.00     0.034 A 
ATOM     25  C   UNL d   1       0.372   6.488  -2.208  0.00  0.00     0.026 A 
ATOM     26 CL   UNL d   1      -0.024   8.198  -4.251  0.00  0.00    -0.084 Cl
ATOM     27  C   UNL d   1      -0.039   5.483  -1.336  0.00  0.00     0.031 A 
ENDBRANCH  18  21
ENDBRANCH   4  17
BRANCH   6  28
ATOM     28  S   UNL d   1      -4.615  -1.232   0.407  0.00  0.00    -0.126 SA
ATOM     29  C   UNL d   1      -4.397  -2.418   1.744  0.00  0.00     0.096 C 
ENDBRANCH   6  28
TORSDOF 3
