REMARK  5 active torsions:
REMARK  status: ('A' for Active; 'I' for Inactive)
REMARK    1  A    between atoms: C_3  and  C_1 
REMARK    2  A    between atoms: N_2  and  C_3 
REMARK    3  A    between atoms: N_4  and  N_2 
REMARK    4  A    between atoms: C_10  and  N_2 
REMARK       I    between atoms: C_5  and  N_4 
REMARK    5  A    between atoms: C_6  and  C_5 
ROOT
ATOM      1  N   UNL d   1      -1.724   3.170   0.297  0.00  0.00    -0.285 N 
ENDROOT
BRANCH   1   2
ATOM      2  C   UNL d   1      -0.724   2.468  -0.514  0.00  0.00     0.193 C 
BRANCH   2   3
ATOM      3  C   UNL d   1      -1.140   2.561  -1.960  0.00  0.00     0.022 A 
ATOM      4  C   UNL d   1      -2.059   1.679  -2.542  0.00  0.00     0.045 A 
ATOM      5 CL   UNL d   1      -2.610   0.258  -1.724  0.00  0.00    -0.084 Cl
ATOM      6  C   UNL d   1      -2.560   1.917  -3.828  0.00  0.00     0.024 A 
ATOM      7  C   UNL d   1      -2.146   3.035  -4.552  0.00  0.00     0.005 A 
ATOM      8  C   UNL d   1      -1.202   3.897  -4.003  0.00  0.00     0.043 A 
ATOM      9  C   UNL d   1      -0.707   3.652  -2.725  0.00  0.00     0.126 A 
ATOM     10  F   UNL d   1       0.202   4.502  -2.224  0.00  0.00    -0.205 F 
ENDBRANCH   2   3
ENDBRANCH   1   2
BRANCH   1  11
ATOM     11  N   UNL d   1      -2.401   2.458   1.304  0.00  0.00    -0.263 N 
ATOM     12  C   UNL d   1      -3.781   2.368   1.226  0.00  0.00     0.270 C 
ATOM     13  O   UNL d   1      -4.481   2.714   0.277  0.00  0.00    -0.266 OA
ATOM     14  H   UNL d   1      -1.897   2.308   2.172  0.00  0.00     0.190 HD
BRANCH  12  15
ATOM     15  C   UNL d   1      -4.459   1.819   2.416  0.00  0.00     0.033 A 
ATOM     16  C   UNL d   1      -4.209   0.510   2.836  0.00  0.00     0.019 A 
ATOM     17  C   UNL d   1      -4.988  -0.044   3.857  0.00  0.00     0.025 A 
ATOM     18  C   UNL d   1      -5.999   0.712   4.454  0.00  0.00     0.034 A 
ATOM     19  C   UNL d   1      -6.231   2.028   4.054  0.00  0.00     0.025 A 
ATOM     20 CL   UNL d   1      -6.992   0.003   5.667  0.00  0.00    -0.084 Cl
ATOM     21  C   UNL d   1      -5.464   2.582   3.026  0.00  0.00     0.019 A 
ENDBRANCH  12  15
ENDBRANCH   1  11
BRANCH   1  22
ATOM     22  C   UNL d   1      -1.608   4.547   0.521  0.00  0.00     0.051 A 
ATOM     23  C   UNL d   1      -2.690   5.382   0.200  0.00  0.00     0.031 A 
ATOM     24  C   UNL d   1      -2.609   6.768   0.339  0.00  0.00     0.002 A 
ATOM     25  C   UNL d   1      -1.435   7.345   0.809  0.00  0.00     0.000 A 
ATOM     26  C   UNL d   1      -0.348   6.535   1.137  0.00  0.00     0.002 A 
ATOM     27  C   UNL d   1      -0.434   5.146   0.993  0.00  0.00     0.031 A 
ENDBRANCH   1  22
TORSDOF 5
