REMARK  3 active torsions:
REMARK  status: ('A' for Active; 'I' for Inactive)
REMARK    1  A    between atoms: N_7  and  C_3 
REMARK    2  A    between atoms: C_8  and  C_4 
REMARK    3  A    between atoms: C_10  and  N_7 
ROOT
ATOM      1  N   UNL d   1       1.313  -0.593   0.553  0.00  0.00    -0.333 N 
ATOM      2  HN  UNL d   1       2.086  -1.064   1.023  1.00  0.00     0.168 HD
ATOM      3  C   UNL d   1       0.278  -1.210   0.030  0.00  0.00     0.149 A 
ATOM      4  C   UNL d   1       1.222   0.779   0.385  0.00  0.00     0.086 A 
ATOM      5  S   UNL d   1      -0.881  -0.163  -0.696  0.00  0.00    -0.063 SA
ATOM      6  C   UNL d   1       0.097   1.188  -0.306  0.00  0.00     0.086 A 
ENDROOT
BRANCH   3   7
ATOM      7  N   UNL d   1       0.088  -2.551   0.049  0.00  0.00    -0.337 N 
ATOM      8  H   UNL d   1      -0.785  -2.906  -0.323  0.00  0.00     0.168 HD
BRANCH   7   9
ATOM      9  C   UNL d   1       1.135  -3.493  -0.020  0.00  0.00     0.034 A 
ATOM     10  C   UNL d   1       0.954  -4.760   0.551  0.00  0.00     0.031 A 
ATOM     11  C   UNL d   1       1.973  -5.718   0.501  0.00  0.00     0.026 A 
ATOM     12  C   UNL d   1       3.177  -5.418  -0.133  0.00  0.00     0.034 A 
ATOM     13  C   UNL d   1       3.376  -4.167  -0.705  0.00  0.00     0.026 A 
ATOM     14 CL   UNL d   1       4.422  -6.602  -0.216  0.00  0.00    -0.084 Cl
ATOM     15  C   UNL d   1       2.362  -3.209  -0.639  0.00  0.00     0.031 A 
ENDBRANCH   7   9
ENDBRANCH   3   7
BRANCH   4  16
ATOM     16  C   UNL d   1       2.247   1.685   0.905  0.00  0.00     0.172 C 
ATOM     17  O   UNL d   1       2.172   2.902   0.734  0.00  0.00    -0.291 OA
ATOM     18  C   UNL d   1       3.412   1.101   1.668  0.00  0.00     0.098 C 
ENDBRANCH   4  16
TORSDOF 3
