REMARK  9 active torsions:
REMARK  status: ('A' for Active; 'I' for Inactive)
REMARK    1  A    between atoms: C_6  and  S_1 
REMARK    2  A    between atoms: C_10  and  S_1 
REMARK    3  A    between atoms: C_2  and  C_7 
REMARK    4  A    between atoms: C_4  and  C_3 
REMARK       I    between atoms: N_8  and  C_4 
REMARK    5  A    between atoms: C_5  and  S_24 
REMARK    6  A    between atoms: C_25  and  N_8 
REMARK    7  A    between atoms: C_26  and  C_10 
REMARK    8  A    between atoms: C_12  and  C_25 
REMARK    9  A    between atoms: S_24  and  C_26 
ROOT
ATOM      1  C   UNL d   1       1.522  -3.829  -3.833  0.00  0.00     0.065 A 
ATOM      2  C   UNL d   1       1.803  -4.802  -2.872  0.00  0.00     0.085 A 
ATOM      3  N   UNL d   1       1.806  -6.128  -3.172  0.00  0.00    -0.360 N 
ATOM      4  HN  UNL d   1       1.984  -6.831  -2.454  1.00  0.00     0.166 HD
ATOM      5  C   UNL d   1       1.327  -4.231  -5.162  0.00  0.00     0.021 A 
ATOM      6  C   UNL d   1       1.562  -6.485  -4.456  0.00  0.00     0.089 A 
ATOM      7  C   UNL d   1       1.347  -5.582  -5.481  0.00  0.00     0.018 A 
ENDROOT
BRANCH   2   8
ATOM      8  S   UNL d   1       2.331  -4.380  -1.214  0.00  0.00    -0.110 SA
BRANCH   8   9
ATOM      9  C   UNL d   1       2.037  -5.927  -0.284  0.00  0.00     0.096 C 
BRANCH   9  10
ATOM     10  C   UNL d   1       3.142  -6.969  -0.430  0.00  0.00     0.156 C 
BRANCH  10  11
ATOM     11  S   UNL d   1       2.923  -8.211   0.834  0.00  0.00     0.176 S 
ATOM     12  O   UNL d   1       3.330  -7.627   2.097  0.00  0.00    -0.223 OA
ATOM     13  O   UNL d   1       1.604  -8.794   0.680  0.00  0.00    -0.223 OA
BRANCH  11  14
ATOM     14  C   UNL d   1       4.080  -9.513   0.459  0.00  0.00     0.060 A 
ATOM     15  C   UNL d   1       5.052  -9.882   1.399  0.00  0.00     0.039 A 
ATOM     16  C   UNL d   1       5.886 -10.987   1.153  0.00  0.00     0.049 A 
ATOM     17  C   UNL d   1       5.733 -11.698  -0.050  0.00  0.00     0.016 A 
ATOM     18  C   UNL d   1       4.760 -11.326  -0.981  0.00  0.00     0.002 A 
ATOM     19  C   UNL d   1       3.926 -10.239  -0.726  0.00  0.00     0.023 A 
BRANCH  16  20
ATOM     20  C   UNL d   1       6.923 -11.436   2.157  0.00  0.00     0.417 C 
ATOM     21  F   UNL d   1       6.902 -10.731   3.321  0.00  0.00    -0.166 F 
ATOM     22  F   UNL d   1       6.773 -12.744   2.510  0.00  0.00    -0.166 F 
ATOM     23  F   UNL d   1       8.191 -11.324   1.674  0.00  0.00    -0.166 F 
ENDBRANCH  16  20
ENDBRANCH  11  14
ENDBRANCH  10  11
ENDBRANCH   9  10
ENDBRANCH   8   9
ENDBRANCH   2   8
BRANCH   1  24
ATOM     24  C   UNL d   1       1.371  -2.382  -3.561  0.00  0.00     0.254 C 
ATOM     25  N   UNL d   1       0.494  -2.045  -2.554  0.00  0.00    -0.352 N 
ATOM     26  H   UNL d   1      -0.017  -2.765  -2.062  0.00  0.00     0.163 HD
ATOM     27  O   UNL d   1       1.915  -1.565  -4.293  0.00  0.00    -0.268 OA
BRANCH  25  28
ATOM     28  C   UNL d   1       0.063  -0.673  -2.393  0.00  0.00     0.169 C 
BRANCH  28  29
ATOM     29  C   UNL d   1      -0.780  -0.563  -1.163  0.00  0.00     0.000 A 
ATOM     30  S   UNL d   1      -2.476  -0.349  -1.292  0.00  0.00    -0.105 SA
ATOM     31  C   UNL d   1      -2.661  -0.253   0.405  0.00  0.00     0.050 A 
ATOM     32  C   UNL d   1      -1.462  -0.404   1.063  0.00  0.00     0.008 A 
ATOM     33  C   UNL d   1      -0.377  -0.589   0.158  0.00  0.00     0.017 A 
ENDBRANCH  28  29
ENDBRANCH  25  28
ENDBRANCH   1  24
TORSDOF 9
