REMARK  3 active torsions:
REMARK  status: ('A' for Active; 'I' for Inactive)
REMARK    1  A    between atoms: C_4  and  C_1 
REMARK    2  A    between atoms: C_14  and  C_8 
REMARK    3  A    between atoms: C_9  and  C_13 
REMARK       I    between atoms: N_21  and  C_9 
ROOT
ATOM      1  N   UNL d   1      -4.609  -1.324   1.098  0.00  0.00    -0.341 N 
ATOM      2  HN  UNL d   1      -3.984  -1.554   1.871  1.00  0.00     0.167 HD
ATOM      3  C   UNL d   1      -4.195  -0.577   0.060  0.00  0.00     0.123 A 
ATOM      4  C   UNL d   1      -5.888  -1.756   1.074  0.00  0.00     0.045 A 
ATOM      5  N   UNL d   1      -4.950  -0.224  -0.995  0.00  0.00    -0.351 N 
ATOM      6  HN  UNL d   1      -4.583   0.342  -1.760  1.00  0.00     0.166 HD
ATOM      7  C   UNL d   1      -6.739  -1.435   0.031  0.00  0.00     0.047 A 
ATOM      8  C   UNL d   1      -6.217  -0.664  -0.980  0.00  0.00     0.092 A 
ENDROOT
BRANCH   4   9
ATOM      9  C   UNL d   1      -6.331  -2.547   2.244  0.00  0.00    -0.009 A 
ATOM     10  C   UNL d   1      -5.754  -2.342   3.511  0.00  0.00     0.014 A 
ATOM     11  C   UNL d   1      -6.203  -3.038   4.639  0.00  0.00     0.018 A 
ATOM     12  C   UNL d   1      -7.248  -3.959   4.527  0.00  0.00     0.031 A 
ATOM     13  C   UNL d   1      -7.807  -4.213   3.274  0.00  0.00     0.018 A 
ATOM     14  C   UNL d   1      -7.348  -3.517   2.148  0.00  0.00     0.014 A 
BRANCH  12  15
ATOM     15  C   UNL d   1      -7.715  -4.654   5.754  0.00  0.00     0.249 C 
ATOM     16  O   UNL d   1      -6.979  -4.810   6.721  0.00  0.00    -0.268 OA
ATOM     17  N   UNL d   1      -9.014  -5.071   5.787  0.00  0.00    -0.366 N 
ATOM     18  H   UNL d   1      -9.705  -4.770   5.117  0.00  0.00     0.159 HD
ATOM     19  H   UNL d   1      -9.342  -5.432   6.675  0.00  0.00     0.159 HD
ENDBRANCH  12  15
ENDBRANCH   4   9
BRANCH   3  20
ATOM     20  C   UNL d   1      -2.817  -0.075   0.059  0.00  0.00     0.050 A 
ATOM     21  S   UNL d   1      -1.746  -0.394   1.369  0.00  0.00    -0.079 SA
ATOM     22  C   UNL d   1      -0.486   0.461   0.632  0.00  0.00     0.052 A 
ATOM     23 BR   UNL d   1       1.211   0.649   1.403  0.00  0.00    -0.043 Br
ATOM     24  C   UNL d   1      -0.829   1.000  -0.580  0.00  0.00     0.028 A 
ATOM     25  C   UNL d   1      -2.180   0.688  -0.911  0.00  0.00     0.025 A 
ENDBRANCH   3  20
TORSDOF 3
