REMARK  10 active torsions:
REMARK  status: ('A' for Active; 'I' for Inactive)
REMARK    1  A    between atoms: C_3  and  C_1 
REMARK    2  A    between atoms: C_6  and  C_1 
REMARK    3  A    between atoms: C_2  and  C_3 
REMARK    4  A    between atoms: N_10  and  C_4 
REMARK    5  A    between atoms: N_11  and  C_4 
REMARK    6  A    between atoms: N_7  and  C_6 
REMARK    7  A    between atoms: C_22  and  N_10 
REMARK    8  A    between atoms: C_23  and  N_11 
REMARK    9  A    between atoms: C_20  and  C_23 
REMARK   10  A    between atoms: C_21  and  C_22 
ROOT
ATOM      1  C   UNL d   1       0.954   0.086  -0.021  0.00  0.00     0.110 C 
ATOM      2  C   UNL d   1       0.313  -1.056  -0.417  0.00  0.00     0.079 C 
ENDROOT
BRANCH   2   3
ATOM      3  N   UNL d   1       1.004  -2.241  -0.717  0.00  0.00    -0.278 NA
ATOM      4  H   UNL d   1       1.897  -2.072  -1.182  0.00  0.00     0.129 HD
BRANCH   3   5
ATOM      5  C   UNL d   1       1.221  -3.242   0.342  0.00  0.00     0.133 C 
BRANCH   5   6
ATOM      6  C   UNL d   1       0.721  -4.606  -0.030  0.00  0.00    -0.030 A 
ATOM      7  C   UNL d   1      -0.629  -4.835  -0.276  0.00  0.00     0.096 A 
ATOM      8  N   UNL d   1      -1.170  -6.053  -0.517  0.00  0.00    -0.375 N 
ATOM      9  C   UNL d   1      -0.328  -7.107  -0.502  0.00  0.00     0.087 A 
ATOM     10  HN  UNL d   1      -2.167  -6.169  -0.700  1.00  0.00     0.164 HD
ATOM     11  C   UNL d   1       1.032  -6.997  -0.267  0.00  0.00     0.018 A 
ATOM     12  C   UNL d   1       1.561  -5.731  -0.030  0.00  0.00     0.011 A 
ENDBRANCH   5   6
ENDBRANCH   3   5
ENDBRANCH   2   3
BRANCH   2  13
ATOM     13  N   UNL d   1      -1.069  -1.185  -0.559  0.00  0.00    -0.278 NA
ATOM     14  H   UNL d   1      -1.572  -0.563   0.073  0.00  0.00     0.129 HD
BRANCH  13  15
ATOM     15  C   UNL d   1      -1.658  -1.002  -1.900  0.00  0.00     0.133 C 
BRANCH  15  16
ATOM     16  C   UNL d   1      -2.897  -1.831  -2.087  0.00  0.00    -0.030 A 
ATOM     17  C   UNL d   1      -4.150  -1.363  -1.701  0.00  0.00     0.096 A 
ATOM     18  N   UNL d   1      -5.306  -2.052  -1.858  0.00  0.00    -0.375 N 
ATOM     19  C   UNL d   1      -5.212  -3.276  -2.421  0.00  0.00     0.087 A 
ATOM     20  HN  UNL d   1      -6.203  -1.665  -1.564  1.00  0.00     0.164 HD
ATOM     21  C   UNL d   1      -4.019  -3.834  -2.847  0.00  0.00     0.018 A 
ATOM     22  C   UNL d   1      -2.849  -3.097  -2.679  0.00  0.00     0.011 A 
ENDBRANCH  15  16
ENDBRANCH  13  15
ENDBRANCH   2  13
BRANCH   1  23
ATOM     23  C   UNL d   1       0.272   1.384   0.291  0.00  0.00     0.206 C 
ATOM     24  O   UNL d   1      -0.805   1.686  -0.204  0.00  0.00    -0.286 OA
BRANCH  23  25
ATOM     25  C   UNL d   1       0.993   2.265   1.212  0.00  0.00     0.047 A 
ATOM     26  C   UNL d   1       0.973   3.655   1.191  0.00  0.00     0.063 A 
ATOM     27  O   UNL d   1       1.771   4.159   2.175  0.00  0.00    -0.326 OA
ATOM     28  C   UNL d   1       0.329   4.685   0.346  0.00  0.00     0.077 C 
ATOM     29  C   UNL d   1       2.292   3.111   2.852  0.00  0.00     0.143 A 
ATOM     30  C   UNL d   1       1.832   1.930   2.324  0.00  0.00     0.042 A 
ENDBRANCH  23  25
ENDBRANCH   1  23
BRANCH   1  31
ATOM     31  C   UNL d   1       2.474   0.086  -0.021  0.00  0.00    -0.030 C 
BRANCH  31  32
ATOM     32  N   UNL d   1       3.735   0.086  -0.021  0.00  0.00    -0.365 N 
ATOM     33  HN2 UNL d   1       2.715   0.086  -0.021  1.00  0.00     0.165 HD
ATOM     34  HN1 UNL d   1       4.755   0.086  -0.021  1.00  0.00     0.165 HD
ENDBRANCH  31  32
ENDBRANCH   1  31
TORSDOF 10
