REMARK  5 active torsions:
REMARK  status: ('A' for Active; 'I' for Inactive)
REMARK    1  A    between atoms: C_6  and  C_1 
REMARK    2  A    between atoms: C_9  and  C_3 
REMARK    3  A    between atoms: S_10  and  C_5 
REMARK    4  A    between atoms: O_14  and  C_6 
REMARK    5  A    between atoms: C_19  and  S_10 
ROOT
ATOM      1  C   UNL d   1       1.294  -1.276   0.073  0.00  0.00     0.094 A 
ATOM      2  C   UNL d   1      -0.714  -0.074  -0.054  0.00  0.00     0.081 A 
ATOM      3  C   UNL d   1      -0.096  -1.387   0.016  0.00  0.00     0.020 A 
ATOM      4  S   UNL d   1       1.800   0.364   0.051  0.00  0.00    -0.075 SA
ATOM      5  C   UNL d   1       0.203   0.956  -0.010  0.00  0.00     0.063 A 
ATOM      6  C   UNL d   1      -2.128   0.160  -0.167  0.00  0.00     0.102 C 
ATOM      7  N   UNL d   1      -3.270   0.348  -0.208  0.00  0.00    -0.191 NA
ENDROOT
BRANCH   3   8
ATOM      8  C   UNL d   1      -0.796  -2.687   0.001  0.00  0.00    -0.023 A 
ATOM      9  C   UNL d   1      -0.342  -3.757  -0.788  0.00  0.00     0.014 A 
ATOM     10  C   UNL d   1      -0.995  -4.995  -0.768  0.00  0.00     0.024 A 
ATOM     11  C   UNL d   1      -2.142  -5.162   0.002  0.00  0.00     0.034 A 
ATOM     12  C   UNL d   1      -2.633  -4.104   0.760  0.00  0.00     0.024 A 
ATOM     13 CL   UNL d   1      -2.952  -6.678   0.018  0.00  0.00    -0.084 Cl
ATOM     14  C   UNL d   1      -1.953  -2.880   0.773  0.00  0.00     0.014 A 
ENDBRANCH   3   8
BRANCH   5  15
ATOM     15  S   UNL d   1      -0.086   2.697  -0.091  0.00  0.00    -0.121 SA
BRANCH  15  16
ATOM     16  C   UNL d   1      -0.954   3.008   1.479  0.00  0.00     0.075 C 
ATOM     17  C   UNL d   1      -1.255   4.491   1.620  0.00  0.00     0.016 C 
ENDBRANCH  15  16
ENDBRANCH   5  15
BRANCH   1  18
ATOM     18  C   UNL d   1       2.305  -2.317   0.196  0.00  0.00     0.300 C 
ATOM     19  O   UNL d   1       2.184  -3.356   0.834  0.00  0.00    -0.259 OA
BRANCH  18  20
ATOM     20  O   UNL d   1       3.396  -2.022  -0.575  0.00  0.00    -0.322 OA
ATOM     21  C   UNL d   1       4.379  -3.058  -0.618  0.00  0.00     0.213 C 
ENDBRANCH  18  20
ENDBRANCH   1  18
TORSDOF 5
