REMARK  4 active torsions:
REMARK  status: ('A' for Active; 'I' for Inactive)
REMARK    1  A    between atoms: C_6  and  C_1 
REMARK    2  A    between atoms: S_10  and  C_3 
REMARK    3  A    between atoms: S_7  and  C_6 
REMARK    4  A    between atoms: C_11  and  S_7 
ROOT
ATOM      1  C   UNL d   1      -1.817  -0.521   0.468  0.00  0.00     0.070 A 
ATOM      2  S   UNL d   1      -2.828   0.867   0.497  0.00  0.00    -0.077 SA
ATOM      3  C   UNL d   1      -1.531   1.945   0.223  0.00  0.00     0.052 A 
ATOM      4  C   UNL d   1      -0.486  -0.156   0.282  0.00  0.00    -0.024 A 
ATOM      5  C   UNL d   1      -0.332   1.267   0.155  0.00  0.00    -0.005 A 
ATOM      6  C   UNL d   1       0.961   1.852  -0.014  0.00  0.00     0.010 C 
ATOM      7  C   UNL d   1       2.076   1.105  -0.011  0.00  0.00    -0.025 C 
ATOM      8  C   UNL d   1       0.694  -1.089   0.174  0.00  0.00     0.045 C 
ATOM      9  C   UNL d   1       2.072  -0.390   0.161  0.00  0.00     0.032 C 
ENDROOT
BRANCH   1  10
ATOM     10  C   UNL d   1      -2.344  -1.870   0.677  0.00  0.00     0.231 C 
ATOM     11  O   UNL d   1      -1.673  -2.796   1.126  0.00  0.00    -0.279 OA
BRANCH  10  12
ATOM     12  S   UNL d   1      -3.973  -2.167   0.061  0.00  0.00    -0.047 SA
BRANCH  12  13
ATOM     13  C   UNL d   1      -4.857  -2.995   1.373  0.00  0.00     0.008 A 
ATOM     14  C   UNL d   1      -6.239  -2.753   1.460  0.00  0.00     0.021 A 
ATOM     15  C   UNL d   1      -7.035  -3.432   2.389  0.00  0.00     0.025 A 
ATOM     16  C   UNL d   1      -6.456  -4.364   3.243  0.00  0.00     0.034 A 
ATOM     17  C   UNL d   1      -5.088  -4.611   3.180  0.00  0.00     0.025 A 
ATOM     18 CL   UNL d   1      -7.436  -5.229   4.360  0.00  0.00    -0.084 Cl
ATOM     19  C   UNL d   1      -4.293  -3.933   2.244  0.00  0.00     0.021 A 
ENDBRANCH  12  13
ENDBRANCH  10  12
ENDBRANCH   1  10
BRANCH   3  20
ATOM     20  S   UNL d   1      -1.797   3.685   0.120  0.00  0.00    -0.126 SA
ATOM     21  C   UNL d   1      -2.660   3.797  -1.465  0.00  0.00     0.096 C 
ENDBRANCH   3  20
TORSDOF 4
