REMARK  5 active torsions:
REMARK  status: ('A' for Active; 'I' for Inactive)
REMARK    1  A    between atoms: C_12  and  C_2 
REMARK    2  A    between atoms: N_13  and  C_6 
REMARK    3  A    between atoms: C_14  and  N_13 
REMARK    4  A    between atoms: C_18  and  C_14 
REMARK    5  A    between atoms: C_15  and  C_18 
ROOT
ATOM      1  C   UNL d   1       0.249   0.960   0.016  0.00  0.00     0.053 A 
ATOM      2  C   UNL d   1      -0.991   1.737  -0.000  0.00  0.00    -0.003 A 
ATOM      3  C   UNL d   1      -2.106   0.915  -0.046  0.00  0.00     0.065 A 
ATOM      4  C   UNL d   1      -0.046  -0.399  -0.061  0.00  0.00     0.089 A 
ATOM      5  S   UNL d   1      -1.711  -0.743  -0.071  0.00  0.00    -0.082 SA
ATOM      6  C   UNL d   1       1.637   1.261   0.079  0.00  0.00     0.116 A 
ATOM      7  N   UNL d   1       0.826  -1.423  -0.122  0.00  0.00    -0.346 N 
ATOM      8  HN  UNL d   1       0.550  -2.404  -0.172  1.00  0.00     0.167 HD
ATOM      9  N   UNL d   1       2.528   0.253  -0.027  0.00  0.00    -0.338 N 
ATOM     10  HN  UNL d   1       3.528   0.452  -0.044  1.00  0.00     0.168 HD
ATOM     11  C   UNL d   1       2.089  -1.009  -0.108  0.00  0.00     0.182 A 
ENDROOT
BRANCH   6  12
ATOM     12  N   UNL d   1       2.147   2.537   0.327  0.00  0.00    -0.375 N 
ATOM     13  H   UNL d   1       1.437   3.244   0.468  0.00  0.00     0.161 HD
BRANCH  12  14
ATOM     14  C   UNL d   1       3.273   2.950  -0.510  0.00  0.00     0.126 C 
BRANCH  14  15
ATOM     15  C   UNL d   1       3.809   4.292   0.003  0.00  0.00     0.058 C 
BRANCH  15  16
ATOM     16  C   UNL d   1       5.072   4.750  -0.687  0.00  0.00    -0.057 A 
ATOM     17  C   UNL d   1       5.024   5.641  -1.767  0.00  0.00     0.007 A 
ATOM     18  C   UNL d   1       6.201   6.093  -2.362  0.00  0.00     0.001 A 
ATOM     19  C   UNL d   1       7.438   5.651  -1.896  0.00  0.00     0.000 A 
ATOM     20  C   UNL d   1       7.496   4.750  -0.835  0.00  0.00     0.001 A 
ATOM     21  C   UNL d   1       6.320   4.298  -0.237  0.00  0.00     0.007 A 
ENDBRANCH  15  16
ENDBRANCH  14  15
ENDBRANCH  12  14
ENDBRANCH   6  12
BRANCH   2  22
ATOM     22  C   UNL d   1      -1.179   3.191  -0.005  0.00  0.00    -0.024 A 
ATOM     23  C   UNL d   1      -0.388   4.014  -0.818  0.00  0.00     0.012 A 
ATOM     24  C   UNL d   1      -0.491   5.406  -0.743  0.00  0.00     0.001 A 
ATOM     25  C   UNL d   1      -1.445   5.990   0.087  0.00  0.00     0.000 A 
ATOM     26  C   UNL d   1      -2.299   5.184   0.836  0.00  0.00     0.001 A 
ATOM     27  C   UNL d   1      -2.159   3.794   0.800  0.00  0.00     0.012 A 
ENDBRANCH   2  22
TORSDOF 5
