REMARK  4 active torsions:
REMARK  status: ('A' for Active; 'I' for Inactive)
REMARK    1  A    between atoms: S_8  and  C_2 
REMARK    2  A    between atoms: S_11  and  C_3 
REMARK    3  A    between atoms: C_16  and  S_8 
REMARK    4  A    between atoms: C_15  and  C_16 
ROOT
ATOM      1  N   UNL d   1       0.457   0.512   0.110  0.00  0.00    -0.310 N 
ATOM      2  C   UNL d   1       0.914  -0.780   0.043  0.00  0.00     0.163 A 
ATOM      3  C   UNL d   1      -0.907   0.407   0.050  0.00  0.00     0.160 A 
ATOM      4  N   UNL d   1      -0.103  -1.610  -0.025  0.00  0.00    -0.278 N 
ATOM      5  HN  UNL d   1      -0.047  -2.627  -0.071  1.00  0.00     0.189 HD
ATOM      6  N   UNL d   1      -1.255  -0.858  -0.022  0.00  0.00    -0.278 N 
ATOM      7  HN  UNL d   1      -2.208  -1.219  -0.067  1.00  0.00     0.189 HD
ATOM      8  C   UNL d   1       1.223   1.726   0.227  0.00  0.00     0.160 C 
ENDROOT
BRANCH   2   9
ATOM      9  S   UNL d   1       2.584  -1.230   0.030  0.00  0.00    -0.088 SA
BRANCH   9  10
ATOM     10  C   UNL d   1       2.458  -3.049   0.053  0.00  0.00     0.121 C 
BRANCH  10  11
ATOM     11  C   UNL d   1       3.792  -3.776   0.009  0.00  0.00    -0.047 A 
ATOM     12  C   UNL d   1       4.934  -3.317   0.686  0.00  0.00     0.033 A 
ATOM     13  C   UNL d   1       6.140  -4.029   0.641  0.00  0.00     0.056 A 
ATOM     14 CL   UNL d   1       7.500  -3.359   1.472  0.00  0.00    -0.083 Cl
ATOM     15  C   UNL d   1       6.212  -5.238  -0.057  0.00  0.00     0.055 A 
ATOM     16  C   UNL d   1       5.075  -5.729  -0.700  0.00  0.00     0.026 A 
ATOM     17 CL   UNL d   1       7.663  -6.171  -0.154  0.00  0.00    -0.083 Cl
ATOM     18  C   UNL d   1       3.877  -5.007  -0.665  0.00  0.00     0.010 A 
ENDBRANCH  10  11
ENDBRANCH   9  10
ENDBRANCH   2   9
BRANCH   3  19
ATOM     19  S   UNL d   1      -2.022   1.730   0.060  0.00  0.00    -0.105 SA
ATOM     20  H   UNL d   1      -1.180   2.769   0.084  0.00  0.00     0.110 HD
ENDBRANCH   3  19
TORSDOF 4
