REMARK  2 active torsions:
REMARK  status: ('A' for Active; 'I' for Inactive)
REMARK    1  A    between atoms: C_3  and  C_1 
REMARK    2  A    between atoms: C_4  and  C_5 
ROOT
ATOM      1  C   UNL d   1       1.504  -0.623   0.279  0.00  0.00     0.020 C 
ATOM      2  S   UNL d   1      -1.103   0.053   0.085  0.00  0.00    -0.159 SA
ATOM      3  C   UNL d   1       0.098   1.411   0.239  0.00  0.00     0.087 C 
ATOM      4  C   UNL d   1       1.385   0.797  -0.303  0.00  0.00     0.027 C 
ATOM      5  C   UNL d   1       0.147  -1.270  -0.041  0.00  0.00     0.081 C 
ENDROOT
BRANCH   1   6
ATOM      6  C   UNL d   1       1.837  -0.714   1.793  0.00  0.00     0.113 C 
ATOM      7  S   UNL d   1       3.185   0.421   2.311  0.00  0.00    -0.152 SA
ATOM      8  C   UNL d   1       4.332  -0.820   2.969  0.00  0.00     0.085 C 
ATOM      9  C   UNL d   1       4.118  -2.116   2.219  0.00  0.00     0.085 C 
ATOM     10  S   UNL d   1       2.337  -2.425   2.228  0.00  0.00    -0.152 SA
ENDBRANCH   1   6
BRANCH   3  11
ATOM     11  C   UNL d   1      -0.279   2.667  -0.490  0.00  0.00    -0.004 A 
ATOM     12  S   UNL d   1       0.185   4.180   0.188  0.00  0.00    -0.105 SA
ATOM     13  C   UNL d   1      -0.479   5.054  -1.117  0.00  0.00     0.050 A 
ATOM     14  C   UNL d   1      -1.050   4.222  -2.056  0.00  0.00     0.008 A 
ATOM     15  C   UNL d   1      -0.932   2.848  -1.696  0.00  0.00     0.016 A 
ENDBRANCH   3  11
TORSDOF 2
