REMARK  4 active torsions:
REMARK  status: ('A' for Active; 'I' for Inactive)
REMARK    1  A    between atoms: C_4  and  N_1 
REMARK    2  A    between atoms: C_2  and  C_7 
REMARK       I    between atoms: N_6  and  C_2 
REMARK       I    between atoms: C_3  and  N_5 
REMARK    3  A    between atoms: C_9  and  C_3 
REMARK    4  A    between atoms: N_5  and  N_6 
ROOT
ATOM      1  C   UNL d   1       0.085   2.443   4.162  0.00  0.00     0.270 C 
ATOM      2  N   UNL d   1      -0.561   2.944   5.273  0.00  0.00    -0.263 N 
ATOM      3  O   UNL d   1      -0.487   1.700   3.365  0.00  0.00    -0.266 OA
ATOM      4  H   UNL d   1      -0.159   3.545   5.987  0.00  0.00     0.190 HD
ENDROOT
BRANCH   2   5
ATOM      5  N   UNL d   1      -1.898   2.582   5.474  0.00  0.00    -0.263 N 
ATOM      6  C   UNL d   1      -2.491   2.938   6.668  0.00  0.00     0.270 C 
ATOM      7  O   UNL d   1      -1.899   3.590   7.527  0.00  0.00    -0.266 OA
ATOM      8  H   UNL d   1      -2.278   1.897   4.822  0.00  0.00     0.190 HD
BRANCH   6   9
ATOM      9  C   UNL d   1      -3.888   2.478   6.890  0.00  0.00     0.035 A 
ATOM     10  C   UNL d   1      -4.341   2.356   8.210  0.00  0.00     0.041 A 
ATOM     11  C   UNL d   1      -5.651   1.952   8.459  0.00  0.00     0.035 A 
ATOM     12 CL   UNL d   1      -6.204   1.796  10.081  0.00  0.00    -0.084 Cl
ATOM     13  C   UNL d   1      -6.520   1.676   7.405  0.00  0.00     0.024 A 
ATOM     14  C   UNL d   1      -6.077   1.807   6.088  0.00  0.00     0.003 A 
ATOM     15  C   UNL d   1      -4.764   2.208   5.828  0.00  0.00     0.017 A 
ENDBRANCH   6   9
ENDBRANCH   2   5
BRANCH   1  16
ATOM     16  C   UNL d   1       1.513   2.827   3.942  0.00  0.00     0.036 A 
ATOM     17  C   UNL d   1       2.145   2.341   2.785  0.00  0.00     0.053 A 
ATOM     18  C   UNL d   1       3.484   2.664   2.528  0.00  0.00     0.103 A 
ATOM     19  C   UNL d   1       4.205   3.471   3.416  0.00  0.00     0.036 A 
ATOM     20  C   UNL d   1       3.579   3.956   4.564  0.00  0.00     0.003 A 
ATOM     21  C   UNL d   1       2.241   3.637   4.827  0.00  0.00     0.017 A 
BRANCH  18  22
ATOM     22  N   UNL d   1       4.139   2.153   1.317  0.00  0.00    -0.116 N 
ATOM     23  O   UNL d   1       3.455   1.489   0.527  0.00  0.00    -0.532 OA
ATOM     24  O   UNL d   1       5.339   2.419   1.157  0.00  0.00    -0.532 OA
ENDBRANCH  18  22
ENDBRANCH   1  16
TORSDOF 4
