REMARK  2 active torsions:
REMARK  status: ('A' for Active; 'I' for Inactive)
REMARK    1  A    between atoms: C_11  and  N_2 
REMARK    2  A    between atoms: C_13  and  C_10 
ROOT
ATOM      1  C   UNL d   1      -0.405   0.436   0.114  0.00  0.00     0.122 A 
ATOM      2  N   UNL d   1       1.937   0.984   0.002  0.00  0.00    -0.218 N 
ATOM      3  C   UNL d   1       0.617   1.489   0.146  0.00  0.00     0.295 A 
ATOM      4  C   UNL d   1      -0.019  -0.878   0.044  0.00  0.00     0.062 A 
ATOM      5  N   UNL d   1       2.291  -0.369  -0.032  0.00  0.00    -0.294 N 
ATOM      6  HN  UNL d   1       3.271  -0.645  -0.083  1.00  0.00     0.187 HD
ATOM      7  N   UNL d   1      -1.791   0.620   0.119  0.00  0.00    -0.349 N 
ATOM      8  HN  UNL d   1      -2.263   1.523   0.172  1.00  0.00     0.166 HD
ATOM      9  C   UNL d   1       1.354  -1.269   0.004  0.00  0.00     0.042 A 
ATOM     10  S   UNL d   1      -1.350  -1.919  -0.006  0.00  0.00    -0.073 SA
ATOM     11  C   UNL d   1      -2.394  -0.552   0.046  0.00  0.00     0.048 A 
ATOM     12  O   UNL d   1       0.337   2.679   0.243  0.00  0.00    -0.264 OA
ATOM     13  C   UNL d   1       1.730  -2.727   0.001  0.00  0.00     0.071 C 
ATOM     14  C   UNL d   1      -3.866  -0.779   0.007  0.00  0.00     0.076 C 
ENDROOT
BRANCH   2  15
ATOM     15  C   UNL d   1       3.070   1.837  -0.051  0.00  0.00     0.075 A 
ATOM     16  C   UNL d   1       3.945   1.819  -1.153  0.00  0.00     0.076 A 
ATOM     17  C   UNL d   1       5.123   2.596  -1.099  0.00  0.00     0.018 A 
ATOM     18  C   UNL d   1       5.426   3.371   0.019  0.00  0.00     0.001 A 
ATOM     19  C   UNL d   1       4.545   3.398   1.096  0.00  0.00     0.002 A 
ATOM     20  C   UNL d   1       3.369   2.645   1.057  0.00  0.00     0.032 A 
BRANCH  16  21
ATOM     21  C   UNL d   1       3.664   1.079  -2.439  0.00  0.00     0.419 C 
ATOM     22  F   UNL d   1       2.465   0.443  -2.531  0.00  0.00    -0.166 F 
ATOM     23  F   UNL d   1       3.686   1.928  -3.511  0.00  0.00    -0.166 F 
ATOM     24  F   UNL d   1       4.612   0.137  -2.712  0.00  0.00    -0.166 F 
ENDBRANCH  16  21
ENDBRANCH   2  15
TORSDOF 2
