REMARK  4 active torsions:
REMARK  status: ('A' for Active; 'I' for Inactive)
REMARK    1  A    between atoms: N_2  and  C_1 
REMARK    2  A    between atoms: N_3  and  C_5 
REMARK    3  A    between atoms: N_7  and  C_6 
REMARK    4  A    between atoms: N_8  and  N_7 
ROOT
ATOM      1  C   UNL d   1      -0.085   2.841   1.079  0.00  0.00     0.128 A 
ATOM      2  C   UNL d   1      -0.858   3.947   1.466  0.00  0.00     0.074 A 
ATOM      3  C   UNL d   1      -0.315   5.220   1.291  0.00  0.00     0.105 A 
ATOM      4  C   UNL d   1       1.168   2.964   0.458  0.00  0.00     0.060 A 
ATOM      5  C   UNL d   1       1.725   4.252   0.400  0.00  0.00     0.030 A 
ATOM      6  C   UNL d   1       0.999   5.373   0.829  0.00  0.00     0.038 A 
ENDROOT
BRANCH   4   7
ATOM      7  N   UNL d   1       1.731   1.892  -0.296  0.00  0.00    -0.204 NA
ATOM      8  H   UNL d   1       1.224   1.856  -1.188  0.00  0.00     0.153 HD
BRANCH   7   9
ATOM      9  N   UNL d   1       3.086   1.873  -0.421  0.00  0.00    -0.325 N 
ATOM     10  C   UNL d   1       3.620   1.048  -1.281  0.00  0.00    -0.001 C 
ATOM     11  C   UNL d   1       2.903   0.114  -2.240  0.00  0.00     0.053 C 
ATOM     12  C   UNL d   1       5.128   0.963  -1.331  0.00  0.00     0.053 C 
ATOM     13  C   UNL d   1       3.349  -1.327  -1.985  0.00  0.00     0.006 C 
ATOM     14  C   UNL d   1       4.869  -1.490  -1.882  0.00  0.00     0.001 C 
ATOM     15  C   UNL d   1       5.516  -0.463  -0.950  0.00  0.00     0.006 C 
ATOM     16  HN  UNL d   1       3.671   2.488   0.145  1.00  0.00     0.180 HD
ENDBRANCH   7   9
ENDBRANCH   4   7
BRANCH   1  17
ATOM     17  N   UNL d   1      -0.582   1.530   1.460  0.00  0.00    -0.114 N 
ATOM     18  O   UNL d   1      -0.738   1.322   2.671  0.00  0.00    -0.532 OA
ATOM     19  O   UNL d   1      -0.877   0.753   0.540  0.00  0.00    -0.532 OA
ENDBRANCH   1  17
BRANCH   3  20
ATOM     20  N   UNL d   1      -1.142   6.405   1.554  0.00  0.00    -0.116 N 
ATOM     21  O   UNL d   1      -2.330   6.218   1.850  0.00  0.00    -0.532 OA
ATOM     22  O   UNL d   1      -0.611   7.516   1.429  0.00  0.00    -0.532 OA
ENDBRANCH   3  20
TORSDOF 4
