REMARK  5 active torsions:
REMARK  status: ('A' for Active; 'I' for Inactive)
REMARK    1  A    between atoms: C_8  and  N_1 
REMARK    2  A    between atoms: S_11  and  C_2 
REMARK    3  A    between atoms: C_21  and  S_11 
REMARK    4  A    between atoms: O_19  and  C_16 
REMARK    5  A    between atoms: C_24  and  C_21 
ROOT
ATOM      1  N   UNL d   1       1.269  -1.404  -0.049  0.00  0.00    -0.277 N 
ATOM      2  C   UNL d   1       2.413  -0.592  -0.124  0.00  0.00     0.155 A 
ATOM      3  N   UNL d   1       2.463   0.702  -0.093  0.00  0.00    -0.303 N 
ATOM      4  HN  UNL d   1       3.360   1.181  -0.166  1.00  0.00     0.171 HD
ATOM      5  C   UNL d   1       0.019  -0.672  -0.003  0.00  0.00     0.130 A 
ATOM      6  C   UNL d   1       1.317   1.419   0.038  0.00  0.00     0.261 A 
ATOM      7  C   UNL d   1       0.031   0.719   0.011  0.00  0.00     0.077 A 
ATOM      8  N   UNL d   1      -1.181  -1.315   0.028  0.00  0.00    -0.351 N 
ATOM      9  HN  UNL d   1      -1.212  -2.334   0.074  1.00  0.00     0.166 HD
ATOM     10  O   UNL d   1       1.313   2.640   0.167  0.00  0.00    -0.267 OA
ATOM     11  C   UNL d   1      -1.169   1.448  -0.002  0.00  0.00     0.022 A 
ATOM     12  C   UNL d   1      -2.333  -0.604  -0.002  0.00  0.00     0.090 A 
ATOM     13  C   UNL d   1      -2.377   0.773  -0.028  0.00  0.00     0.018 A 
ENDROOT
BRANCH   1  14
ATOM     14  C   UNL d   1       1.288  -2.852  -0.090  0.00  0.00     0.043 A 
ATOM     15  C   UNL d   1       2.287  -3.618   0.535  0.00  0.00     0.033 A 
ATOM     16  C   UNL d   1       2.357  -5.015   0.405  0.00  0.00     0.039 A 
ATOM     17  C   UNL d   1       1.359  -5.709  -0.266  0.00  0.00     0.068 A 
ATOM     18  C   UNL d   1       0.307  -4.990  -0.817  0.00  0.00     0.039 A 
ATOM     19  C   UNL d   1       0.291  -3.589  -0.758  0.00  0.00     0.033 A 
BRANCH  17  20
ATOM     20  O   UNL d   1       1.288  -7.062  -0.433  0.00  0.00    -0.356 OA
ATOM     21  C   UNL d   1       2.409  -7.818   0.006  0.00  0.00     0.210 C 
ENDBRANCH  17  20
ENDBRANCH   1  14
BRANCH   2  22
ATOM     22  S   UNL d   1       4.065  -1.232  -0.281  0.00  0.00    -0.093 SA
BRANCH  22  23
ATOM     23  C   UNL d   1       4.161  -1.517  -2.066  0.00  0.00     0.082 C 
BRANCH  23  24
ATOM     24  C   UNL d   1       5.459  -2.276  -2.353  0.00  0.00     0.006 C 
ATOM     25  C   UNL d   1       5.714  -2.434  -3.843  0.00  0.00     0.006 C 
ENDBRANCH  23  24
ENDBRANCH  22  23
ENDBRANCH   2  22
TORSDOF 5
