REMARK  3 active torsions:
REMARK  status: ('A' for Active; 'I' for Inactive)
REMARK    1  A    between atoms: C_4  and  C_1 
REMARK    2  A    between atoms: N_3  and  C_2 
REMARK    3  A    between atoms: O_13  and  C_4 
ROOT
ATOM      1  C   UNL d   1       0.130   1.361   0.095  0.00  0.00     0.107 A 
ATOM      2  C   UNL d   1       1.401   0.808  -0.009  0.00  0.00     0.062 A 
ATOM      3  S   UNL d   1      -1.076   0.133   0.165  0.00  0.00    -0.094 SA
ATOM      4  C   UNL d   1       1.349  -0.619  -0.153  0.00  0.00     0.039 A 
ATOM      5  C   UNL d   1       0.067  -1.110  -0.061  0.00  0.00     0.053 A 
ENDROOT
BRANCH   2   6
ATOM      6  N   UNL d   1       2.642   1.525   0.019  0.00  0.00    -0.331 N 
ATOM      7  C   UNL d   1       2.897   2.727   0.651  0.00  0.00     0.096 A 
ATOM      8  C   UNL d   1       4.199   3.103   0.405  0.00  0.00     0.019 A 
ATOM      9  C   UNL d   1       4.788   2.079  -0.363  0.00  0.00     0.019 A 
ATOM     10  C   UNL d   1       3.831   1.104  -0.546  0.00  0.00     0.096 A 
ENDBRANCH   2   6
BRANCH   1  11
ATOM     11  C   UNL d   1      -0.334   2.736   0.082  0.00  0.00     0.302 C 
ATOM     12  O   UNL d   1      -1.319   3.174   0.668  0.00  0.00    -0.259 OA
BRANCH  11  13
ATOM     13  O   UNL d   1       0.460   3.484  -0.736  0.00  0.00    -0.322 OA
ATOM     14  C   UNL d   1       0.124   4.870  -0.801  0.00  0.00     0.213 C 
ENDBRANCH  11  13
ENDBRANCH   1  11
TORSDOF 3
