REMARK  2 active torsions:
REMARK  status: ('A' for Active; 'I' for Inactive)
REMARK    1  A    between atoms: C_3  and  N_1 
REMARK    2  A    between atoms: N_2  and  C_4 
ROOT
ATOM      1  C   UNL d   1      -0.266  -1.034  -0.287  0.00  0.00     0.118 A 
ATOM      2  C   UNL d   1      -1.268  -3.588  -0.580  0.00  0.00     0.103 A 
ATOM      3  N   UNL d   1      -1.897  -2.740   0.261  0.00  0.00    -0.350 N 
ATOM      4  HN  UNL d   1      -2.719  -3.035   0.788  1.00  0.00     0.166 HD
ATOM      5  C   UNL d   1      -1.397  -1.478   0.383  0.00  0.00     0.125 A 
ATOM      6  C   UNL d   1       0.403  -1.914  -1.126  0.00  0.00     0.041 A 
ATOM      7  C   UNL d   1      -0.111  -3.197  -1.269  0.00  0.00     0.051 A 
ENDROOT
BRANCH   2   8
ATOM      8  N   UNL d   1      -1.712  -4.887  -0.764  0.00  0.00    -0.362 N 
ATOM      9  C   UNL d   1      -2.551  -5.519   0.265  0.00  0.00     0.156 C 
ATOM     10  C   UNL d   1      -2.482  -7.053   0.018  0.00  0.00     0.136 C 
ATOM     11  C   UNL d   1      -3.354  -7.833   0.988  0.00  0.00     0.041 C 
ATOM     12  O   UNL d   1      -2.906  -7.397  -1.324  0.00  0.00    -0.378 OA
ATOM     13  C   UNL d   1      -2.100  -6.715  -2.308  0.00  0.00     0.136 C 
ATOM     14  C   UNL d   1      -2.205  -5.190  -2.119  0.00  0.00     0.156 C 
ATOM     15  C   UNL d   1      -2.562  -7.130  -3.694  0.00  0.00     0.041 C 
ENDBRANCH   2   8
BRANCH   1  16
ATOM     16  N   UNL d   1       0.215   0.326  -0.113  0.00  0.00    -0.114 N 
ATOM     17  O   UNL d   1      -0.434   1.076   0.631  0.00  0.00    -0.532 OA
ATOM     18  O   UNL d   1       1.243   0.661  -0.719  0.00  0.00    -0.532 OA
ENDBRANCH   1  16
TORSDOF 2
