REMARK  2 active torsions:
REMARK  status: ('A' for Active; 'I' for Inactive)
REMARK    1  A    between atoms: C_6  and  C_1 
REMARK    2  A    between atoms: C_7  and  C_2 
REMARK       I    between atoms: N_11  and  C_6 
REMARK       I    between atoms: N_10  and  C_7 
ROOT
ATOM      1  C   UNL d   1       0.443   1.283  -0.012  0.00  0.00     0.079 A 
ATOM      2  C   UNL d   1       0.442  -1.204   0.012  0.00  0.00     0.079 A 
ATOM      3  S   UNL d   1       1.613   0.040  -0.011  0.00  0.00    -0.078 SA
ATOM      4  C   UNL d   1      -0.851  -0.687   0.003  0.00  0.00    -0.032 A 
ATOM      5  C   UNL d   1      -0.850   0.768   0.010  0.00  0.00    -0.032 A 
ATOM      6  C   UNL d   1      -2.077  -1.556  -0.004  0.00  0.00     0.050 C 
ATOM      7  C   UNL d   1      -2.073   1.640   0.036  0.00  0.00     0.050 C 
ENDROOT
BRANCH   1   8
ATOM      8  C   UNL d   1       0.846   2.688  -0.033  0.00  0.00     0.256 C 
ATOM      9  O   UNL d   1       0.069   3.641  -0.029  0.00  0.00    -0.267 OA
ATOM     10  N   UNL d   1       2.188   2.952  -0.062  0.00  0.00    -0.365 N 
ATOM     11  H   UNL d   1       2.878   2.216  -0.078  0.00  0.00     0.159 HD
ATOM     12  H   UNL d   1       2.478   3.919  -0.088  0.00  0.00     0.159 HD
ENDBRANCH   1   8
BRANCH   2  13
ATOM     13  C   UNL d   1       0.847  -2.608   0.038  0.00  0.00     0.256 C 
ATOM     14  O   UNL d   1       0.071  -3.562   0.069  0.00  0.00    -0.267 OA
ATOM     15  N   UNL d   1       2.190  -2.869   0.029  0.00  0.00    -0.365 N 
ATOM     16  H   UNL d   1       2.877  -2.130   0.014  0.00  0.00     0.159 HD
ATOM     17  H   UNL d   1       2.485  -3.834   0.057  0.00  0.00     0.159 HD
ENDBRANCH   2  13
TORSDOF 2
