REMARK  5 active torsions:
REMARK  status: ('A' for Active; 'I' for Inactive)
REMARK    1  A    between atoms: C_5  and  C_1 
REMARK    2  A    between atoms: O_4  and  C_2 
REMARK    3  A    between atoms: C_3  and  O_4 
REMARK    4  A    between atoms: C_9  and  C_3 
REMARK    5  A    between atoms: O_14  and  C_5 
ROOT
ATOM      1  O   UNL d   1       2.006   1.762  -1.037  0.00  0.00    -0.273 OA
ENDROOT
BRANCH   1   2
ATOM      2  C   UNL d   1       2.477   2.830  -0.329  0.00  0.00     0.298 C 
ATOM      3  O   UNL d   1       2.129   3.206   0.773  0.00  0.00    -0.259 OA
BRANCH   2   4
ATOM      4  C   UNL d   1       3.540   3.499  -1.164  0.00  0.00     0.040 A 
ATOM      5  C   UNL d   1       3.951   4.801  -0.848  0.00  0.00     0.019 A 
ATOM      6  C   UNL d   1       4.888   5.466  -1.656  0.00  0.00     0.025 A 
ATOM      7  C   UNL d   1       5.429   4.825  -2.770  0.00  0.00     0.034 A 
ATOM      8  C   UNL d   1       5.064   3.515  -3.069  0.00  0.00     0.025 A 
ATOM      9 CL   UNL d   1       6.542   5.652  -3.789  0.00  0.00    -0.084 Cl
ATOM     10  C   UNL d   1       4.128   2.853  -2.266  0.00  0.00     0.019 A 
ENDBRANCH   2   4
ENDBRANCH   1   2
BRANCH   1  11
ATOM     11  C   UNL d   1       1.089   0.938  -0.477  0.00  0.00     0.103 A 
ATOM     12  C   UNL d   1      -0.280   1.163  -0.473  0.00  0.00     0.114 A 
ATOM     13  S   UNL d   1      -1.108  -0.251   0.106  0.00  0.00    -0.093 SA
ATOM     14  C   UNL d   1       0.318  -1.163   0.192  0.00  0.00     0.053 A 
ATOM     15  C   UNL d   1       1.427  -0.398  -0.086  0.00  0.00     0.046 A 
BRANCH  12  16
ATOM     16  C   UNL d   1      -1.073   2.297  -0.932  0.00  0.00     0.302 C 
ATOM     17  O   UNL d   1      -0.655   3.312  -1.483  0.00  0.00    -0.259 OA
BRANCH  16  18
ATOM     18  O   UNL d   1      -2.391   2.011  -0.731  0.00  0.00    -0.322 OA
ATOM     19  C   UNL d   1      -3.442   2.789  -1.306  0.00  0.00     0.213 C 
ENDBRANCH  16  18
ENDBRANCH  12  16
ENDBRANCH   1  11
TORSDOF 5
