REMARK  11 active torsions:
REMARK  status: ('A' for Active; 'I' for Inactive)
REMARK    1  A    between atoms: C_2  and  C_1 
REMARK    2  A    between atoms: C_4  and  C_1 
REMARK    3  A    between atoms: C_5  and  C_1 
REMARK    4  A    between atoms: C_3  and  C_2 
REMARK    5  A    between atoms: C_10  and  C_2 
REMARK    6  A    between atoms: C_7  and  C_3 
REMARK    7  A    between atoms: O_15  and  C_4 
REMARK    8  A    between atoms: O_14  and  C_5 
REMARK    9  A    between atoms: C_6  and  C_7 
REMARK   10  A    between atoms: C_19  and  O_14 
REMARK   11  A    between atoms: C_18  and  O_15 
ROOT
ATOM      1  C   UNL d   1       0.451   0.233   1.014  0.00  0.00     0.049 C 
ENDROOT
BRANCH   1   2
ATOM      2  C   UNL d   1       0.893  -0.190  -0.415  0.00  0.00     0.194 C 
BRANCH   2   3
ATOM      3  C   UNL d   1       0.789   0.974  -1.374  0.00  0.00     0.273 C 
ATOM      4  O   UNL d   1       1.614   1.873  -1.466  0.00  0.00    -0.264 OA
BRANCH   3   5
ATOM      5  O   UNL d   1      -0.355   0.907  -2.111  0.00  0.00    -0.321 OA
BRANCH   5   6
ATOM      6  C   UNL d   1      -0.535   1.955  -3.080  0.00  0.00     0.174 C 
ATOM      7  C   UNL d   1       0.101   1.566  -4.403  0.00  0.00     0.034 C 
ENDBRANCH   5   6
ENDBRANCH   3   5
ENDBRANCH   2   3
BRANCH   2   8
ATOM      8  C   UNL d   1       2.345  -0.638  -0.427  0.00  0.00     0.273 C 
ATOM      9  O   UNL d   1       3.203  -0.265   0.359  0.00  0.00    -0.264 OA
BRANCH   8  10
ATOM     10  O   UNL d   1       2.574  -1.451  -1.502  0.00  0.00    -0.321 OA
BRANCH  10  11
ATOM     11  C   UNL d   1       3.953  -1.714  -1.808  0.00  0.00     0.174 C 
ATOM     12  C   UNL d   1       4.305  -3.154  -1.494  0.00  0.00     0.034 C 
ENDBRANCH  10  11
ENDBRANCH   8  10
ENDBRANCH   2   8
ENDBRANCH   1   2
BRANCH   1  13
ATOM     13  C   UNL d   1      -0.984   0.800   1.123  0.00  0.00     0.089 C 
BRANCH  13  14
ATOM     14  C   UNL d   1      -2.092  -0.194   0.850  0.00  0.00     0.131 C 
ATOM     15  O   UNL d   1      -2.005  -1.105   0.035  0.00  0.00    -0.298 OA
BRANCH  14  16
ATOM     16  C   UNL d   1      -3.364   0.032   1.610  0.00  0.00     0.055 A 
ATOM     17  C   UNL d   1      -3.969  -1.105   2.398  0.00  0.00     0.013 A 
ATOM     18  C   UNL d   1      -4.657  -0.605   1.160  0.00  0.00     0.013 A 
ENDBRANCH  14  16
ENDBRANCH  13  14
ENDBRANCH   1  13
BRANCH   1  19
ATOM     19  C   UNL d   1       0.675  -0.821   2.102  0.00  0.00    -0.052 A 
ATOM     20  C   UNL d   1       1.020  -0.400   3.398  0.00  0.00     0.007 A 
ATOM     21  C   UNL d   1       1.291  -1.327   4.405  0.00  0.00     0.001 A 
ATOM     22  C   UNL d   1       1.222  -2.690   4.133  0.00  0.00     0.000 A 
ATOM     23  C   UNL d   1       0.859  -3.124   2.861  0.00  0.00     0.001 A 
ATOM     24  C   UNL d   1       0.572  -2.198   1.856  0.00  0.00     0.007 A 
ENDBRANCH   1  19
TORSDOF 11
