REMARK  5 active torsions:
REMARK  status: ('A' for Active; 'I' for Inactive)
REMARK    1  A    between atoms: C_2  and  N_1 
REMARK    2  A    between atoms: O_5  and  C_3 
REMARK    3  A    between atoms: C_8  and  O_5 
REMARK    4  A    between atoms: S_11  and  C_10 
REMARK    5  A    between atoms: C_14  and  S_11 
ROOT
ATOM      1  C   UNL d   1       0.263   0.888   0.856  0.00  0.00     0.136 A 
ATOM      2  C   UNL d   1       0.750   2.200   0.823  0.00  0.00     0.113 A 
ATOM      3  C   UNL d   1      -0.035   3.229   1.359  0.00  0.00     0.058 A 
ATOM      4  C   UNL d   1      -0.996   0.596   1.398  0.00  0.00     0.040 A 
ATOM      5  C   UNL d   1      -1.302   2.953   1.886  0.00  0.00     0.008 A 
ATOM      6  C   UNL d   1      -1.772   1.634   1.917  0.00  0.00     0.021 A 
ENDROOT
BRANCH   5   7
ATOM      7  S   UNL d   1      -2.258   4.256   2.629  0.00  0.00    -0.091 SA
BRANCH   7   8
ATOM      8  C   UNL d   1      -3.387   4.799   1.355  0.00  0.00     0.005 A 
ATOM      9  C   UNL d   1      -3.771   4.027   0.252  0.00  0.00     0.020 A 
ATOM     10  C   UNL d   1      -4.710   4.511  -0.668  0.00  0.00     0.025 A 
ATOM     11  C   UNL d   1      -5.272   5.772  -0.490  0.00  0.00     0.034 A 
ATOM     12  C   UNL d   1      -4.901   6.556   0.597  0.00  0.00     0.025 A 
ATOM     13 CL   UNL d   1      -6.434   6.359  -1.613  0.00  0.00    -0.084 Cl
ATOM     14  C   UNL d   1      -3.964   6.069   1.515  0.00  0.00     0.020 A 
ENDBRANCH   7   8
ENDBRANCH   5   7
BRANCH   2  15
ATOM     15  O   UNL d   1       2.072   2.439   0.385  0.00  0.00    -0.277 OA
BRANCH  15  16
ATOM     16  C   UNL d   1       2.405   3.622  -0.281  0.00  0.00     0.260 C 
ATOM     17  O   UNL d   1       1.628   4.494  -0.641  0.00  0.00    -0.265 OA
ATOM     18  C   UNL d   1       3.887   3.664  -0.510  0.00  0.00     0.126 C 
ENDBRANCH  15  16
ENDBRANCH   2  15
BRANCH   1  19
ATOM     19  N   UNL d   1       1.063  -0.212   0.356  0.00  0.00    -0.113 N 
ATOM     20  O   UNL d   1       1.508  -0.119  -0.797  0.00  0.00    -0.532 OA
ATOM     21  O   UNL d   1       1.211  -1.188   1.109  0.00  0.00    -0.532 OA
ENDBRANCH   1  19
TORSDOF 5
