REMARK  4 active torsions:
REMARK  status: ('A' for Active; 'I' for Inactive)
REMARK    1  A    between atoms: C_4  and  C_1 
REMARK    2  A    between atoms: O_8  and  C_4 
REMARK    3  A    between atoms: C_12  and  O_8 
REMARK    4  A    between atoms: C_19  and  C_13 
ROOT
ATOM      1  N   UNL d   1       9.603   0.719  -4.118  0.00  0.00    -0.197 NA
ATOM      2  C   UNL d   1       9.630  -0.155  -3.355  0.00  0.00     0.063 C 
ATOM      3  C   UNL d   1       9.676  -1.270  -2.388  0.00  0.00     0.162 C 
ENDROOT
BRANCH   3   4
ATOM      4  C   UNL d   1       8.364  -1.427  -1.651  0.00  0.00    -0.045 A 
ATOM      5  C   UNL d   1       7.337  -2.226  -2.176  0.00  0.00     0.011 A 
ATOM      6  C   UNL d   1       6.061  -2.200  -1.604  0.00  0.00     0.038 A 
ATOM      7  C   UNL d   1       5.812  -1.375  -0.507  0.00  0.00     0.079 A 
ATOM      8  C   UNL d   1       6.855  -0.680   0.101  0.00  0.00     0.038 A 
ATOM      9  C   UNL d   1       8.122  -0.689  -0.484  0.00  0.00     0.011 A 
BRANCH   7  10
ATOM     10  O   UNL d   1       4.466  -1.268  -0.095  0.00  0.00    -0.275 OA
BRANCH  10  11
ATOM     11  C   UNL d   1       3.957  -0.006   0.240  0.00  0.00     0.307 C 
ATOM     12  O   UNL d   1       4.649   0.990   0.428  0.00  0.00    -0.258 OA
BRANCH  11  13
ATOM     13  C   UNL d   1       2.502  -0.007   0.277  0.00  0.00     0.103 A 
ATOM     14  S   UNL d   1       1.746   1.495   0.634  0.00  0.00    -0.082 SA
ATOM     15  C   UNL d   1       0.170   0.883   0.374  0.00  0.00     0.018 A 
ATOM     16  C   UNL d   1      -1.036   1.609   0.461  0.00  0.00     0.020 A 
ATOM     17  C   UNL d   1       0.198  -0.472   0.044  0.00  0.00     0.004 A 
ATOM     18  C   UNL d   1      -2.238   0.962   0.175  0.00  0.00     0.001 A 
ATOM     19  C   UNL d   1      -2.244  -0.377  -0.184  0.00  0.00     0.001 A 
ATOM     20  C   UNL d   1      -1.046  -1.098  -0.241  0.00  0.00     0.014 A 
ATOM     21  C   UNL d   1       1.552  -0.986   0.055  0.00  0.00     0.068 A 
ATOM     22 CL   UNL d   1       1.859  -2.655  -0.234  0.00  0.00    -0.082 Cl
ENDBRANCH  11  13
ENDBRANCH  10  11
ENDBRANCH   7  10
ENDBRANCH   3   4
TORSDOF 4
