REMARK  6 active torsions:
REMARK  status: ('A' for Active; 'I' for Inactive)
REMARK    1  A    between atoms: C_2  and  N_1 
REMARK    2  A    between atoms: S_11  and  C_7 
REMARK    3  A    between atoms: C_10  and  C_13 
REMARK    4  A    between atoms: O_15  and  C_10 
REMARK    5  A    between atoms: C_14  and  S_11 
REMARK    6  A    between atoms: C_13  and  C_14 
ROOT
ATOM      1  C   UNL d   1       0.713   1.301   1.155  0.00  0.00     0.118 A 
ATOM      2  N   UNL d   1      -0.045   3.155   2.496  0.00  0.00    -0.358 N 
ATOM      3  HN  UNL d   1       0.154   4.019   3.000  1.00  0.00     0.166 HD
ATOM      4  C   UNL d   1      -1.302   2.654   2.437  0.00  0.00     0.069 A 
ATOM      5  C   UNL d   1       0.939   2.470   1.862  0.00  0.00     0.124 A 
ATOM      6  C   UNL d   1      -0.585   0.792   1.095  0.00  0.00     0.040 A 
ATOM      7  C   UNL d   1      -1.607   1.478   1.755  0.00  0.00     0.039 A 
ENDROOT
BRANCH   4   8
ATOM      8  S   UNL d   1      -2.592   3.531   3.300  0.00  0.00    -0.112 SA
BRANCH   8   9
ATOM      9  C   UNL d   1      -1.891   5.219   3.279  0.00  0.00     0.084 C 
BRANCH   9  10
ATOM     10  C   UNL d   1      -2.806   6.198   4.020  0.00  0.00     0.047 C 
BRANCH  10  11
ATOM     11  C   UNL d   1      -2.309   7.662   3.998  0.00  0.00     0.051 C 
ATOM     12  C   UNL d   1      -2.223   8.239   2.582  0.00  0.00     0.045 C 
ATOM     13  C   UNL d   1      -3.246   8.534   4.842  0.00  0.00     0.045 C 
BRANCH  11  14
ATOM     14  O   UNL d   1      -1.020   7.743   4.609  0.00  0.00    -0.391 OA
ATOM     15  H   UNL d   1      -0.353   7.411   3.986  0.00  0.00     0.210 HD
ENDBRANCH  11  14
ENDBRANCH  10  11
ENDBRANCH   9  10
ENDBRANCH   8   9
ENDBRANCH   4   8
BRANCH   1  16
ATOM     16  N   UNL d   1       1.822   0.631   0.491  0.00  0.00    -0.114 N 
ATOM     17  O   UNL d   1       2.946   1.140   0.591  0.00  0.00    -0.532 OA
ATOM     18  O   UNL d   1       1.571  -0.407  -0.138  0.00  0.00    -0.532 OA
ENDBRANCH   1  16
TORSDOF 6
