REMARK  4 active torsions:
REMARK  status: ('A' for Active; 'I' for Inactive)
REMARK       I    between atoms: C_2  and  N_1 
REMARK    1  A    between atoms: C_9  and  C_2 
REMARK       I    between atoms: C_3  and  N_4 
REMARK    2  A    between atoms: C_12  and  C_3 
REMARK    3  A    between atoms: N_4  and  C_13 
REMARK    4  A    between atoms: C_14  and  C_12 
ROOT
ATOM      1  N   UNL d   1       1.398  -0.056   0.201  0.00  0.00    -0.352 N 
ATOM      2  C   UNL d   1       2.453  -0.049   1.117  0.00  0.00     0.224 C 
ATOM      3  C   UNL d   1       0.719  -1.237  -0.319  0.00  0.00     0.127 C 
ATOM      4  C   UNL d   1       0.798   1.214  -0.198  0.00  0.00     0.127 C 
ATOM      5  O   UNL d   1       2.917   1.023   1.527  0.00  0.00    -0.273 OA
ATOM      6  C   UNL d   1      -0.648   1.274   0.281  0.00  0.00     0.045 C 
ATOM      7  C   UNL d   1      -0.751  -1.240   0.110  0.00  0.00     0.045 C 
ATOM      8  C   UNL d   1      -1.457   0.078  -0.257  0.00  0.00     0.087 C 
ENDROOT
BRANCH   8   9
ATOM      9  N   UNL d   1      -1.672   0.177  -1.701  0.00  0.00    -0.356 N 
ATOM     10  C   UNL d   1      -2.426   1.191  -2.256  0.00  0.00     0.222 C 
ATOM     11  O   UNL d   1      -2.956   2.083  -1.593  0.00  0.00    -0.273 OA
ATOM     12  H   UNL d   1      -1.513  -0.642  -2.276  0.00  0.00     0.162 HD
BRANCH  10  13
ATOM     13  C   UNL d   1      -2.541   1.133  -3.764  0.00  0.00     0.141 C 
BRANCH  13  14
ATOM     14  C   UNL d   1      -3.789   0.436  -4.241  0.00  0.00    -0.050 A 
ATOM     15  C   UNL d   1      -5.054   0.891  -3.842  0.00  0.00     0.007 A 
ATOM     16  C   UNL d   1      -6.212   0.299  -4.345  0.00  0.00     0.001 A 
ATOM     17  C   UNL d   1      -6.118  -0.752  -5.254  0.00  0.00     0.000 A 
ATOM     18  C   UNL d   1      -4.866  -1.224  -5.646  0.00  0.00     0.001 A 
ATOM     19  C   UNL d   1      -3.706  -0.634  -5.143  0.00  0.00     0.007 A 
ENDBRANCH  13  14
ENDBRANCH  10  13
ENDBRANCH   8   9
BRANCH   2  20
ATOM     20  C   UNL d   1       3.026  -1.409   1.595  0.00  0.00     0.078 C 
ATOM     21  C   UNL d   1       2.148  -2.313   2.504  0.00  0.00     0.014 C 
ATOM     22  C   UNL d   1       3.397  -2.628   3.341  0.00  0.00     0.002 C 
ATOM     23  C   UNL d   1       4.033  -1.348   2.786  0.00  0.00     0.014 C 
ENDBRANCH   2  20
TORSDOF 4
