REMARK  3 active torsions:
REMARK  status: ('A' for Active; 'I' for Inactive)
REMARK    1  A    between atoms: N_5  and  C_1 
REMARK    2  A    between atoms: C_8  and  C_3 
REMARK    3  A    between atoms: C_13  and  N_5 
ROOT
ATOM      1  C   UNL d   1      -1.083  -1.315   0.193  0.00  0.00     0.013 C 
ATOM      2  C   UNL d   1       0.259  -1.305   0.272  0.00  0.00     0.075 C 
ATOM      3  C   UNL d   1      -1.062   1.174  -0.397  0.00  0.00     0.031 C 
ATOM      4  C   UNL d   1       1.023  -0.041   0.339  0.00  0.00     0.151 C 
ATOM      5  C   UNL d   1      -1.867  -0.017   0.172  0.00  0.00     0.067 C 
ATOM      6  C   UNL d   1       0.267   1.269   0.362  0.00  0.00     0.092 C 
ATOM      7  O   UNL d   1       2.250  -0.079   0.414  0.00  0.00    -0.293 OA
ENDROOT
BRANCH   1   8
ATOM      8  N   UNL d   1      -1.835  -2.482   0.165  0.00  0.00    -0.359 N 
ATOM      9  H   UNL d   1      -2.792  -2.360   0.492  0.00  0.00     0.166 HD
BRANCH   8  10
ATOM     10  C   UNL d   1      -1.805  -3.451  -0.873  0.00  0.00     0.032 A 
ATOM     11  C   UNL d   1      -0.935  -3.388  -1.968  0.00  0.00     0.029 A 
ATOM     12  C   UNL d   1      -0.925  -4.393  -2.940  0.00  0.00     0.002 A 
ATOM     13  C   UNL d   1      -1.779  -5.486  -2.823  0.00  0.00     0.000 A 
ATOM     14  C   UNL d   1      -2.633  -5.580  -1.729  0.00  0.00     0.002 A 
ATOM     15  C   UNL d   1      -2.639  -4.574  -0.757  0.00  0.00     0.029 A 
ENDBRANCH   8  10
ENDBRANCH   1   8
BRANCH   3  16
ATOM     16  C   UNL d   1      -0.963   1.151  -1.926  0.00  0.00    -0.053 A 
ATOM     17  C   UNL d   1      -2.144   1.248  -2.686  0.00  0.00     0.009 A 
ATOM     18  C   UNL d   1      -2.111   1.249  -4.084  0.00  0.00     0.024 A 
ATOM     19  C   UNL d   1      -0.892   1.165  -4.747  0.00  0.00     0.034 A 
ATOM     20  C   UNL d   1       0.291   1.082  -4.021  0.00  0.00     0.024 A 
ATOM     21 CL   UNL d   1      -0.844   1.176  -6.466  0.00  0.00    -0.084 Cl
ATOM     22  C   UNL d   1       0.255   1.078  -2.622  0.00  0.00     0.009 A 
ENDBRANCH   3  16
TORSDOF 3
