REMARK  4 active torsions:
REMARK  status: ('A' for Active; 'I' for Inactive)
REMARK    1  A    between atoms: C_2  and  S_1 
REMARK    2  A    between atoms: C_10  and  S_1 
REMARK    3  A    between atoms: N_13  and  C_5 
REMARK    4  A    between atoms: N_16  and  C_6 
ROOT
ATOM      1  C   UNL d   1       0.404   0.435  -1.680  0.00  0.00     0.117 A 
ATOM      2  N   UNL d   1       0.706   0.567  -4.029  0.00  0.00    -0.322 N 
ATOM      3  HN  UNL d   1       1.251   0.368  -4.868  1.00  0.00     0.169 HD
ATOM      4  C   UNL d   1       1.135   0.179  -2.814  0.00  0.00     0.103 A 
ATOM      5  C   UNL d   1      -0.458   1.222  -4.101  0.00  0.00     0.155 A 
ATOM      6  N   UNL d   1      -1.205   1.556  -3.046  0.00  0.00    -0.341 N 
ATOM      7  HN  UNL d   1      -2.071   2.086  -3.147  1.00  0.00     0.167 HD
ATOM      8  C   UNL d   1      -0.753   1.156  -1.842  0.00  0.00     0.117 A 
ENDROOT
BRANCH   1   9
ATOM      9  S   UNL d   1       0.931  -0.021  -0.084  0.00  0.00     0.211 S 
ATOM     10  O   UNL d   1       0.229   0.838   0.855  0.00  0.00    -0.217 OA
ATOM     11  O   UNL d   1       2.384  -0.040  -0.073  0.00  0.00    -0.217 OA
BRANCH   9  12
ATOM     12  C   UNL d   1       0.363  -1.681   0.217  0.00  0.00     0.064 A 
ATOM     13  C   UNL d   1       1.151  -2.768  -0.176  0.00  0.00     0.025 A 
ATOM     14  C   UNL d   1       0.728  -4.067   0.118  0.00  0.00     0.025 A 
ATOM     15  C   UNL d   1      -0.468  -4.271   0.807  0.00  0.00     0.034 A 
ATOM     16  C   UNL d   1      -1.251  -3.186   1.205  0.00  0.00     0.025 A 
ATOM     17 CL   UNL d   1      -0.976  -5.871   1.182  0.00  0.00    -0.084 Cl
ATOM     18  C   UNL d   1      -0.834  -1.885   0.915  0.00  0.00     0.025 A 
ENDBRANCH   9  12
ENDBRANCH   1   9
BRANCH   4  19
ATOM     19  N   UNL d   1       2.311  -0.565  -2.823  0.00  0.00    -0.287 NA
ATOM     20  H   UNL d   1       2.704  -0.536  -3.761  0.00  0.00     0.125 HD
ATOM     21  H   UNL d   1       2.979  -0.255  -2.114  0.00  0.00     0.125 HD
ENDBRANCH   4  19
BRANCH   5  22
ATOM     22  N   UNL d   1      -0.912   1.600  -5.345  0.00  0.00    -0.274 NA
ATOM     23  H   UNL d   1      -1.555   2.375  -5.269  0.00  0.00     0.127 HD
ATOM     24  H   UNL d   1      -0.146   1.687  -5.997  0.00  0.00     0.127 HD
ENDBRANCH   5  22
TORSDOF 4
