REMARK  2 active torsions:
REMARK  status: ('A' for Active; 'I' for Inactive)
REMARK    1  A    between atoms: S_11  and  C_1 
REMARK    2  A    between atoms: C_13  and  S_11 
ROOT
ATOM      1  C   UNL d   1      -0.984  -1.489  -0.028  0.00  0.00     0.089 A 
ATOM      2  C   UNL d   1       0.241  -0.782  -0.011  0.00  0.00     0.038 A 
ATOM      3  C   UNL d   1       0.092   0.602   0.005  0.00  0.00     0.088 A 
ATOM      4  S   UNL d   1       1.565   1.451   0.015  0.00  0.00    -0.083 SA
ATOM      5  N   UNL d   1      -2.159  -0.819  -0.022  0.00  0.00    -0.346 N 
ATOM      6  HN  UNL d   1      -3.047  -1.322  -0.032  1.00  0.00     0.167 HD
ATOM      7  C   UNL d   1       1.665  -1.130  -0.004  0.00  0.00    -0.040 A 
ATOM      8  C   UNL d   1       2.458   0.007   0.005  0.00  0.00     0.059 A 
ATOM      9  N   UNL d   1      -1.057   1.298   0.011  0.00  0.00    -0.346 N 
ATOM     10  HN  UNL d   1      -1.100   2.317   0.024  1.00  0.00     0.167 HD
ATOM     11  C   UNL d   1      -2.131   0.517  -0.001  0.00  0.00     0.182 A 
ATOM     12  C   UNL d   1       2.300  -2.485  -0.005  0.00  0.00     0.049 C 
ENDROOT
BRANCH   1  13
ATOM     13  S   UNL d   1      -1.005  -3.258  -0.074  0.00  0.00    -0.072 SA
BRANCH  13  14
ATOM     14  C   UNL d   1      -2.720  -3.710  -0.036  0.00  0.00     0.007 A 
ATOM     15  C   UNL d   1      -3.432  -3.875  -1.230  0.00  0.00     0.020 A 
ATOM     16  C   UNL d   1      -4.745  -4.354  -1.208  0.00  0.00     0.025 A 
ATOM     17  C   UNL d   1      -5.344  -4.675   0.009  0.00  0.00     0.034 A 
ATOM     18  C   UNL d   1      -4.645  -4.515   1.203  0.00  0.00     0.025 A 
ATOM     19 CL   UNL d   1      -6.951  -5.289   0.035  0.00  0.00    -0.084 Cl
ATOM     20  C   UNL d   1      -3.332  -4.034   1.180  0.00  0.00     0.020 A 
ENDBRANCH  13  14
ENDBRANCH   1  13
TORSDOF 2
