REMARK  7 active torsions:
REMARK  status: ('A' for Active; 'I' for Inactive)
REMARK    1  A    between atoms: N_2  and  C_1 
REMARK    2  A    between atoms: C_3  and  C_1 
REMARK    3  A    between atoms: C_4  and  C_1 
REMARK    4  A    between atoms: N_7  and  C_1 
REMARK       I    between atoms: C_5  and  N_2 
REMARK    5  A    between atoms: C_6  and  C_5 
REMARK    6  A    between atoms: C_16  and  N_7 
REMARK    7  A    between atoms: O_21  and  C_9 
ROOT
ATOM      1  C   UNL d   1       0.771  -0.231   0.096  0.00  0.00     0.306 C 
ENDROOT
BRANCH   1   2
ATOM      2  N   UNL d   1       0.355   0.806  -0.903  0.00  0.00    -0.315 N 
ATOM      3  C   UNL d   1       0.488   2.163  -0.723  0.00  0.00     0.256 C 
ATOM      4  O   UNL d   1       1.070   2.615   0.243  0.00  0.00    -0.267 OA
ATOM      5  H   UNL d   1      -0.083   0.455  -1.742  0.00  0.00     0.165 HD
BRANCH   3   6
ATOM      6  C   UNL d   1      -0.161   3.044  -1.743  0.00  0.00     0.065 A 
ATOM      7  C   UNL d   1       0.331   4.330  -2.011  0.00  0.00     0.084 A 
ATOM      8  C   UNL d   1      -0.404   5.217  -2.810  0.00  0.00     0.038 A 
ATOM      9  C   UNL d   1      -1.593   4.810  -3.411  0.00  0.00     0.003 A 
ATOM     10  C   UNL d   1      -2.059   3.515  -3.207  0.00  0.00     0.001 A 
ATOM     11  C   UNL d   1      -1.359   2.640  -2.365  0.00  0.00     0.020 A 
BRANCH   7  12
ATOM     12  O   UNL d   1       1.502   4.845  -1.517  0.00  0.00    -0.355 OA
ATOM     13  C   UNL d   1       2.649   4.107  -1.946  0.00  0.00     0.210 C 
ENDBRANCH   7  12
ENDBRANCH   3   6
ENDBRANCH   1   2
BRANCH   1  14
ATOM     14  C   UNL d   1      -0.080  -1.530  -0.143  0.00  0.00     0.441 C 
ATOM     15  F   UNL d   1      -0.933  -1.319  -1.197  0.00  0.00    -0.166 F 
ATOM     16  F   UNL d   1       0.669  -2.600  -0.503  0.00  0.00    -0.166 F 
ATOM     17  F   UNL d   1      -0.866  -1.922   0.878  0.00  0.00    -0.166 F 
ENDBRANCH   1  14
BRANCH   1  18
ATOM     18  C   UNL d   1       0.487   0.170   1.595  0.00  0.00     0.441 C 
ATOM     19  F   UNL d   1      -0.640   0.908   1.729  0.00  0.00    -0.166 F 
ATOM     20  F   UNL d   1       0.371  -0.892   2.428  0.00  0.00    -0.166 F 
ATOM     21  F   UNL d   1       1.522   0.893   2.108  0.00  0.00    -0.166 F 
ENDBRANCH   1  18
BRANCH   1  22
ATOM     22  N   UNL d   1       2.246  -0.424  -0.083  0.00  0.00    -0.349 N 
ATOM     23  H   UNL d   1       2.766   0.176   0.564  0.00  0.00     0.162 HD
BRANCH  22  24
ATOM     24  C   UNL d   1       2.977  -0.727  -1.214  0.00  0.00     0.030 A 
ATOM     25  C   UNL d   1       2.444  -0.987  -2.475  0.00  0.00     0.029 A 
ATOM     26  C   UNL d   1       3.271  -1.296  -3.566  0.00  0.00     0.009 A 
ATOM     27  C   UNL d   1       4.654  -1.411  -3.407  0.00  0.00    -0.062 A 
ATOM     28  C   UNL d   1       5.195  -1.221  -2.138  0.00  0.00     0.009 A 
ATOM     29  C   UNL d   1       5.536  -1.688  -4.587  0.00  0.00     0.048 C 
ATOM     30  C   UNL d   1       4.364  -0.891  -1.062  0.00  0.00     0.029 A 
ENDBRANCH  22  24
ENDBRANCH   1  22
TORSDOF 7
