REMARK  5 active torsions:
REMARK  status: ('A' for Active; 'I' for Inactive)
REMARK    1  A    between atoms: C_5  and  C_1 
REMARK    2  A    between atoms: N_10  and  C_2 
REMARK    3  A    between atoms: N_6  and  C_11 
REMARK       I    between atoms: C_9  and  N_10 
REMARK       I    between atoms: N_14  and  C_9 
REMARK    4  A    between atoms: N_16  and  N_14 
REMARK    5  A    between atoms: C_15  and  N_16 
ROOT
ATOM      1  C   UNL d   1       1.438  -3.021   0.193  0.00  0.00     0.339 C 
ATOM      2  N   UNL d   1       0.225  -2.388   0.233  0.00  0.00    -0.303 N 
ATOM      3  N   UNL d   1       2.522  -2.278   0.636  0.00  0.00    -0.248 N 
ATOM      4  O   UNL d   1       1.456  -4.209  -0.124  0.00  0.00    -0.245 OA
ATOM      5  H   UNL d   1      -0.564  -3.023   0.212  0.00  0.00     0.171 HD
ATOM      6  H   UNL d   1       2.297  -1.463   1.209  0.00  0.00     0.192 HD
ENDROOT
BRANCH   2   7
ATOM      7  C   UNL d   1      -0.057  -1.053   0.012  0.00  0.00     0.097 C 
ATOM      8  C   UNL d   1       0.464  -0.129  -0.946  0.00  0.00     0.097 C 
ATOM      9  N   UNL d   1      -0.131   1.069  -0.812  0.00  0.00    -0.258 N 
ATOM     10  O   UNL d   1      -1.139   0.894   0.112  0.00  0.00    -0.240 OA
ATOM     11  HN  UNL d   1       0.114   1.932  -1.296  1.00  0.00     0.195 HD
ATOM     12  C   UNL d   1      -1.147  -0.396   0.536  0.00  0.00     0.101 C 
ATOM     13  C   UNL d   1      -2.263  -0.782   1.419  0.00  0.00     0.081 C 
BRANCH   8  14
ATOM     14  C   UNL d   1       1.265  -0.400  -2.136  0.00  0.00     0.038 A 
ATOM     15  C   UNL d   1       0.731  -1.198  -3.172  0.00  0.00     0.048 A 
ATOM     16 CL   UNL d   1      -0.835  -1.945  -3.079  0.00  0.00    -0.083 Cl
ATOM     17  C   UNL d   1       1.427  -1.387  -4.371  0.00  0.00     0.025 A 
ATOM     18  C   UNL d   1       2.660  -0.772  -4.564  0.00  0.00     0.003 A 
ATOM     19  C   UNL d   1       3.198   0.024  -3.555  0.00  0.00     0.025 A 
ATOM     20  C   UNL d   1       2.510   0.210  -2.346  0.00  0.00     0.048 A 
ATOM     21 CL   UNL d   1       3.262   1.216  -1.156  0.00  0.00    -0.083 Cl
ENDBRANCH   8  14
ENDBRANCH   2   7
BRANCH   3  22
ATOM     22  N   UNL d   1       3.729  -2.920   1.145  0.00  0.00    -0.277 N 
ATOM     23  C   UNL d   1       3.927  -4.345   0.877  0.00  0.00     0.179 C 
BRANCH  22  24
ATOM     24  C   UNL d   1       4.128  -2.401   2.399  0.00  0.00     0.121 A 
ATOM     25  N   UNL d   1       3.472  -1.302   2.876  0.00  0.00    -0.349 N 
ATOM     26  C   UNL d   1       3.894  -0.742   4.045  0.00  0.00     0.125 A 
ATOM     27  HN  UNL d   1       2.680  -0.909   2.368  1.00  0.00     0.167 HD
ATOM     28  C   UNL d   1       4.946  -1.231   4.793  0.00  0.00     0.118 A 
ATOM     29  C   UNL d   1       5.619  -2.357   4.326  0.00  0.00     0.041 A 
ATOM     30  C   UNL d   1       5.205  -2.935   3.121  0.00  0.00     0.052 A 
BRANCH  28  31
ATOM     31  N   UNL d   1       5.348  -0.580   6.033  0.00  0.00    -0.114 N 
ATOM     32  O   UNL d   1       4.685   0.401   6.406  0.00  0.00    -0.532 OA
ATOM     33  O   UNL d   1       6.327  -1.041   6.634  0.00  0.00    -0.532 OA
ENDBRANCH  28  31
ENDBRANCH  22  24
ENDBRANCH   3  22
TORSDOF 5
