REMARK  14 active torsions:
REMARK  status: ('A' for Active; 'I' for Inactive)
REMARK    1  A    between atoms: N_2  and  C_1 
REMARK    2  A    between atoms: C_4  and  C_1 
REMARK    3  A    between atoms: C_5  and  C_1 
REMARK    4  A    between atoms: N_9  and  C_1 
REMARK       I    between atoms: C_6  and  N_2 
REMARK    5  A    between atoms: C_3  and  C_11 
REMARK    6  A    between atoms: C_7  and  C_3 
REMARK    7  A    between atoms: C_10  and  C_3 
REMARK    8  A    between atoms: O_24  and  C_3 
REMARK    9  A    between atoms: C_8  and  C_6 
REMARK   10  A    between atoms: C_25  and  N_9 
REMARK   11  A    between atoms: O_28  and  C_10 
REMARK   12  A    between atoms: O_32  and  C_13 
REMARK   13  A    between atoms: C_34  and  O_28 
REMARK   14  A    between atoms: C_35  and  O_32 
ROOT
ATOM      1  C   UNL d   1       1.220  -0.294   0.212  0.00  0.00     0.306 C 
ENDROOT
BRANCH   1   2
ATOM      2  N   UNL d   1       0.623   0.954  -0.313  0.00  0.00    -0.315 N 
ATOM      3  C   UNL d   1      -0.734   1.182  -0.190  0.00  0.00     0.256 C 
ATOM      4  O   UNL d   1      -1.443   0.289   0.268  0.00  0.00    -0.267 OA
ATOM      5  H   UNL d   1       1.280   1.718  -0.332  0.00  0.00     0.165 HD
BRANCH   3   6
ATOM      6  C   UNL d   1      -1.283   2.538  -0.570  0.00  0.00     0.065 A 
ATOM      7  C   UNL d   1      -2.673   2.800  -0.504  0.00  0.00     0.084 A 
ATOM      8  C   UNL d   1      -3.169   4.045  -0.913  0.00  0.00     0.038 A 
ATOM      9  C   UNL d   1      -2.304   5.041  -1.364  0.00  0.00     0.003 A 
ATOM     10  C   UNL d   1      -0.936   4.803  -1.407  0.00  0.00     0.001 A 
ATOM     11  C   UNL d   1      -0.427   3.562  -1.014  0.00  0.00     0.020 A 
BRANCH   7  12
ATOM     12  O   UNL d   1      -3.511   1.782  -0.142  0.00  0.00    -0.350 OA
BRANCH  12  13
ATOM     13  C   UNL d   1      -4.717   2.084   0.557  0.00  0.00     0.171 C 
ATOM     14  C   UNL d   1      -5.909   1.919  -0.370  0.00  0.00     0.034 C 
ENDBRANCH  12  13
ENDBRANCH   7  12
ENDBRANCH   3   6
ENDBRANCH   1   2
BRANCH   1  15
ATOM     15  C   UNL d   1       0.784  -1.642  -0.470  0.00  0.00     0.441 C 
ATOM     16  F   UNL d   1      -0.552  -1.811  -0.554  0.00  0.00    -0.166 F 
ATOM     17  F   UNL d   1       1.223  -1.765  -1.744  0.00  0.00    -0.166 F 
ATOM     18  F   UNL d   1       1.271  -2.725   0.192  0.00  0.00    -0.166 F 
ENDBRANCH   1  15
BRANCH   1  19
ATOM     19  C   UNL d   1       0.855  -0.552   1.743  0.00  0.00     0.441 C 
ATOM     20  F   UNL d   1       0.227   0.498   2.327  0.00  0.00    -0.166 F 
ATOM     21  F   UNL d   1       0.143  -1.663   2.013  0.00  0.00    -0.166 F 
ATOM     22  F   UNL d   1       2.028  -0.674   2.448  0.00  0.00    -0.166 F 
ENDBRANCH   1  19
BRANCH   1  23
ATOM     23  N   UNL d   1       2.703   0.091   0.142  0.00  0.00    -0.349 N 
ATOM     24  H   UNL d   1       3.110  -0.064   1.072  0.00  0.00     0.162 HD
BRANCH  23  25
ATOM     25  C   UNL d   1       3.674  -0.123  -0.823  0.00  0.00     0.030 C 
ATOM     26  C   UNL d   1       5.017   0.064  -0.448  0.00  0.00     0.030 C 
ATOM     27  C   UNL d   1       6.101  -0.164  -1.321  0.00  0.00     0.013 C 
ATOM     28  C   UNL d   1       5.895  -0.615  -2.624  0.00  0.00    -0.005 C 
ATOM     29  C   UNL d   1       4.553  -0.666  -3.046  0.00  0.00     0.013 C 
ATOM     30  C   UNL d   1       3.474  -0.379  -2.172  0.00  0.00     0.030 C 
BRANCH  28  31
ATOM     31  C   UNL d   1       7.038  -0.984  -3.595  0.00  0.00     0.271 C 
BRANCH  31  32
ATOM     32  C   UNL d   1       7.541   0.223  -4.422  0.00  0.00     0.432 C 
ATOM     33  F   UNL d   1       8.889   0.359  -4.424  0.00  0.00    -0.167 F 
ATOM     34  F   UNL d   1       7.189   0.063  -5.730  0.00  0.00    -0.167 F 
ATOM     35  F   UNL d   1       7.031   1.409  -4.023  0.00  0.00    -0.167 F 
ENDBRANCH  31  32
BRANCH  31  36
ATOM     36  C   UNL d   1       8.317  -1.567  -2.958  0.00  0.00     0.308 C 
ATOM     37  O   UNL d   1       8.743  -1.337  -1.840  0.00  0.00    -0.261 OA
BRANCH  36  38
ATOM     38  O   UNL d   1       8.991  -2.349  -3.869  0.00  0.00    -0.319 OA
BRANCH  38  39
ATOM     39  C   UNL d   1      10.239  -2.914  -3.427  0.00  0.00     0.174 C 
ATOM     40  C   UNL d   1      11.383  -1.954  -3.701  0.00  0.00     0.034 C 
ENDBRANCH  38  39
ENDBRANCH  36  38
ENDBRANCH  31  36
BRANCH  31  41
ATOM     41  O   UNL d   1       6.488  -2.030  -4.460  0.00  0.00    -0.368 OA
ATOM     42  H   UNL d   1       7.041  -2.053  -5.264  0.00  0.00     0.212 HD
ENDBRANCH  31  41
ENDBRANCH  28  31
ENDBRANCH  23  25
ENDBRANCH   1  23
TORSDOF 14
