REMARK  4 active torsions:
REMARK  status: ('A' for Active; 'I' for Inactive)
REMARK    1  A    between atoms: C_8  and  C_1 
REMARK    2  A    between atoms: C_9  and  C_2 
REMARK    3  A    between atoms: C_10  and  O_12 
REMARK    4  A    between atoms: O_12  and  C_11 
ROOT
ATOM      1  C   UNL d   1      -0.161   1.016   0.041  0.00  0.00     0.177 A 
ATOM      2  C   UNL d   1      -0.076  -1.111  -0.023  0.00  0.00     0.177 A 
ATOM      3  O   UNL d   1      -0.960  -0.078  -0.145  0.00  0.00    -0.272 OA
ATOM      4  N   UNL d   1       1.096   0.688   0.252  0.00  0.00    -0.277 N 
ATOM      5  HN  UNL d   1       1.875   1.327   0.414  1.00  0.00     0.189 HD
ATOM      6  N   UNL d   1       1.153  -0.693   0.210  0.00  0.00    -0.277 N 
ATOM      7  HN  UNL d   1       1.981  -1.275   0.334  1.00  0.00     0.189 HD
ENDROOT
BRANCH   1   8
ATOM      8  C   UNL d   1      -0.815   2.313  -0.078  0.00  0.00     0.050 A 
ATOM      9  C   UNL d   1      -0.117   3.495  -0.385  0.00  0.00     0.092 A 
ATOM     10  C   UNL d   1      -0.799   4.720  -0.432  0.00  0.00     0.038 A 
ATOM     11  C   UNL d   1      -2.173   4.781  -0.197  0.00  0.00     0.003 A 
ATOM     12  C   UNL d   1      -2.878   3.617   0.095  0.00  0.00     0.001 A 
ATOM     13  C   UNL d   1      -2.204   2.397   0.147  0.00  0.00     0.018 A 
BRANCH   9  14
ATOM     14  O   UNL d   1       1.245   3.569  -0.487  0.00  0.00    -0.254 OA
BRANCH  14  15
ATOM     15  C   UNL d   1       1.814   2.979  -1.654  0.00  0.00     0.530 C 
ATOM     16  F   UNL d   1       0.987   2.118  -2.285  0.00  0.00    -0.144 F 
ATOM     17  F   UNL d   1       2.146   3.958  -2.526  0.00  0.00    -0.144 F 
ATOM     18  F   UNL d   1       2.948   2.331  -1.311  0.00  0.00    -0.144 F 
ENDBRANCH  14  15
ENDBRANCH   9  14
ENDBRANCH   1   8
BRANCH   2  19
ATOM     19  C   UNL d   1      -0.603  -2.456  -0.163  0.00  0.00     0.055 A 
ATOM     20  C   UNL d   1      -1.969  -2.720  -0.330  0.00  0.00     0.131 A 
ATOM     21  F   UNL d   1      -2.862  -1.720  -0.373  0.00  0.00    -0.205 F 
ATOM     22  C   UNL d   1      -2.454  -4.019  -0.443  0.00  0.00     0.043 A 
ATOM     23  C   UNL d   1      -1.574  -5.095  -0.397  0.00  0.00     0.003 A 
ATOM     24  C   UNL d   1      -0.208  -4.862  -0.238  0.00  0.00     0.001 A 
ATOM     25  C   UNL d   1       0.274  -3.553  -0.121  0.00  0.00     0.019 A 
ENDBRANCH   2  19
TORSDOF 4
