REMARK  11 active torsions:
REMARK  status: ('A' for Active; 'I' for Inactive)
REMARK    1  A    between atoms: C_4  and  C_1 
REMARK    2  A    between atoms: C_5  and  C_1 
REMARK    3  A    between atoms: O_12  and  N_2 
REMARK    4  A    between atoms: O_17  and  C_10 
REMARK    5  A    between atoms: O_18  and  C_11 
REMARK    6  A    between atoms: C_19  and  O_18 
REMARK    7  A    between atoms: C_21  and  C_19 
REMARK    8  A    between atoms: C_24  and  C_21 
REMARK    9  A    between atoms: C_22  and  C_23 
REMARK   10  A    between atoms: C_23  and  C_25 
REMARK   11  A    between atoms: C_25  and  C_24 
ROOT
ATOM      1  C   UNL d   1       2.553   0.034   0.062  0.00  0.00    -0.007 A 
ATOM      2  C   UNL d   1       3.223   1.267   0.062  0.00  0.00     0.016 A 
ATOM      3  C   UNL d   1       3.316  -1.137   0.122  0.00  0.00     0.016 A 
ATOM      4  C   UNL d   1       5.369   0.157   0.242  0.00  0.00     0.068 A 
ATOM      5  C   UNL d   1       4.619   1.329   0.175  0.00  0.00     0.037 A 
ATOM      6  C   UNL d   1       4.715  -1.073   0.183  0.00  0.00     0.037 A 
ENDROOT
BRANCH   1   7
ATOM      7  C   UNL d   1       1.045  -0.007   0.036  0.00  0.00     0.074 C 
ATOM      8  N   UNL d   1       0.308  -0.887  -0.583  0.00  0.00    -0.268 N 
ATOM      9  HN  UNL d   1      -0.710  -0.899  -0.514  1.00  0.00     0.194 HD
BRANCH   8  10
ATOM     10  O   UNL d   1       1.021  -1.811  -1.344  0.00  0.00    -0.289 OA
ATOM     11  H   UNL d   1       0.311  -2.383  -1.690  0.00  0.00     0.244 HD
ENDBRANCH   8  10
BRANCH   7  12
ATOM     12  C   UNL d   1       0.285   1.067   0.770  0.00  0.00    -0.007 A 
ATOM     13  C   UNL d   1       0.755   1.637   1.960  0.00  0.00     0.016 A 
ATOM     14  C   UNL d   1       0.039   2.664   2.586  0.00  0.00     0.037 A 
ATOM     15  C   UNL d   1      -1.172   3.109   2.051  0.00  0.00     0.068 A 
ATOM     16  C   UNL d   1      -1.656   2.517   0.880  0.00  0.00     0.037 A 
ATOM     17  C   UNL d   1      -0.935   1.508   0.241  0.00  0.00     0.016 A 
BRANCH  15  18
ATOM     18  O   UNL d   1      -1.968   4.090   2.567  0.00  0.00    -0.356 OA
ATOM     19  C   UNL d   1      -1.513   4.729   3.755  0.00  0.00     0.210 C 
ENDBRANCH  15  18
ENDBRANCH   7  12
ENDBRANCH   1   7
BRANCH   4  20
ATOM     20  O   UNL d   1       6.734   0.099   0.315  0.00  0.00    -0.351 OA
BRANCH  20  21
ATOM     21  C   UNL d   1       7.362   1.181   1.004  0.00  0.00     0.175 C 
BRANCH  21  22
ATOM     22  C   UNL d   1       8.869   0.927   1.029  0.00  0.00     0.027 C 
BRANCH  22  23
ATOM     23  C   UNL d   1       9.601   2.037   1.780  0.00  0.00     0.002 C 
BRANCH  23  24
ATOM     24  C   UNL d   1      11.114   1.823   1.779  0.00  0.00     0.000 C 
BRANCH  24  25
ATOM     25  C   UNL d   1      11.822   2.946   2.539  0.00  0.00    -0.000 C 
BRANCH  25  26
ATOM     26  C   UNL d   1      13.337   2.751   2.548  0.00  0.00    -0.005 C 
ATOM     27  C   UNL d   1      14.032   3.870   3.308  0.00  0.00     0.005 C 
ENDBRANCH  25  26
ENDBRANCH  24  25
ENDBRANCH  23  24
ENDBRANCH  22  23
ENDBRANCH  21  22
ENDBRANCH  20  21
ENDBRANCH   4  20
TORSDOF 11
