REMARK  7 active torsions:
REMARK  status: ('A' for Active; 'I' for Inactive)
REMARK    1  A    between atoms: C_3  and  N_1 
REMARK    2  A    between atoms: S_11  and  C_2 
REMARK    3  A    between atoms: O_19  and  C_4 
REMARK    4  A    between atoms: C_10  and  C_5 
REMARK    5  A    between atoms: C_14  and  S_11 
REMARK    6  A    between atoms: C_12  and  C_14 
REMARK    7  A    between atoms: C_13  and  C_12 
ROOT
ATOM      1  N   UNL d   1      -0.293  -1.297  -0.108  0.00  0.00    -0.254 N 
ATOM      2  C   UNL d   1       0.943  -0.695  -0.385  0.00  0.00     0.169 C 
ATOM      3  C   UNL d   1      -1.185  -0.244  -0.270  0.00  0.00     0.245 C 
ATOM      4  N   UNL d   1       0.791   0.601  -0.541  0.00  0.00    -0.276 N 
ATOM      5  HN  UNL d   1       1.539   1.277  -0.699  1.00  0.00     0.189 HD
ATOM      6  N   UNL d   1      -0.543   0.884  -0.453  0.00  0.00    -0.263 N 
ATOM      7  HN  UNL d   1      -0.965   1.811  -0.519  1.00  0.00     0.190 HD
ENDROOT
BRANCH   1   8
ATOM      8  C   UNL d   1      -0.600  -2.674   0.184  0.00  0.00     0.060 A 
ATOM      9  C   UNL d   1      -1.585  -3.092   1.119  0.00  0.00     0.075 A 
ATOM     10  C   UNL d   1      -1.790  -4.484   1.309  0.00  0.00     0.018 A 
ATOM     11  C   UNL d   1      -1.036  -5.440   0.632  0.00  0.00     0.001 A 
ATOM     12  C   UNL d   1      -0.086  -5.026  -0.278  0.00  0.00     0.002 A 
ATOM     13  C   UNL d   1       0.117  -3.663  -0.512  0.00  0.00     0.031 A 
BRANCH   9  14
ATOM     14  C   UNL d   1      -2.463  -2.210   1.988  0.00  0.00     0.419 C 
ATOM     15  F   UNL d   1      -1.957  -0.985   2.245  0.00  0.00    -0.166 F 
ATOM     16  F   UNL d   1      -3.683  -2.028   1.408  0.00  0.00    -0.166 F 
ATOM     17  F   UNL d   1      -2.716  -2.761   3.209  0.00  0.00    -0.166 F 
ENDBRANCH   9  14
ENDBRANCH   1   8
BRANCH   2  18
ATOM     18  S   UNL d   1       2.502  -1.472  -0.405  0.00  0.00    -0.085 SA
BRANCH  18  19
ATOM     19  C   UNL d   1       3.617  -0.159  -1.027  0.00  0.00     0.161 C 
BRANCH  19  20
ATOM     20  C   UNL d   1       4.869  -0.752  -1.692  0.00  0.00     0.144 C 
ATOM     21  O   UNL d   1       4.909  -1.927  -2.067  0.00  0.00    -0.296 OA
BRANCH  20  22
ATOM     22  C   UNL d   1       6.114   0.158  -1.877  0.00  0.00     0.010 C 
ATOM     23  C   UNL d   1       6.946   0.110  -0.590  0.00  0.00     0.022 C 
ATOM     24  C   UNL d   1       6.967  -0.386  -3.042  0.00  0.00     0.022 C 
ATOM     25  C   UNL d   1       5.747   1.610  -2.206  0.00  0.00     0.022 C 
ENDBRANCH  20  22
ENDBRANCH  19  20
ENDBRANCH  18  19
ENDBRANCH   2  18
BRANCH   3  26
ATOM     26  O   UNL d   1      -2.506  -0.314  -0.341  0.00  0.00    -0.331 OA
ATOM     27  H   UNL d   1      -2.781  -1.219  -0.558  0.00  0.00     0.221 HD
ENDBRANCH   3  26
TORSDOF 7
