REMARK  4 active torsions:
REMARK  status: ('A' for Active; 'I' for Inactive)
REMARK    1  A    between atoms: N_6  and  C_2 
REMARK    2  A    between atoms: C_7  and  C_3 
REMARK    3  A    between atoms: C_9  and  C_4 
REMARK    4  A    between atoms: O_16  and  C_9 
ROOT
ATOM      1  C   UNL d   1      -0.671   0.012  -0.035  0.00  0.00     0.091 A 
ATOM      2  C   UNL d   1       0.266   1.047   0.011  0.00  0.00     0.095 A 
ATOM      3  C   UNL d   1      -0.087  -1.314  -0.022  0.00  0.00     0.028 A 
ATOM      4  C   UNL d   1       1.297  -1.257  -0.024  0.00  0.00     0.095 A 
ATOM      5  S   UNL d   1       1.850   0.359  -0.014  0.00  0.00    -0.064 SA
ATOM      6  C   UNL d   1      -2.087   0.257  -0.027  0.00  0.00     0.103 C 
ATOM      7  N   UNL d   1      -3.225   0.478  -0.001  0.00  0.00    -0.191 NA
ENDROOT
BRANCH   2   8
ATOM      8  N   UNL d   1       0.074   2.410   0.069  0.00  0.00    -0.374 N 
ATOM      9  C   UNL d   1       1.150   3.403   0.066  0.00  0.00     0.123 C 
ATOM     10  C   UNL d   1       0.614   4.521   0.953  0.00  0.00     0.021 C 
ATOM     11  C   UNL d   1      -0.870   4.520   0.647  0.00  0.00     0.021 C 
ATOM     12  C   UNL d   1      -1.197   3.044   0.435  0.00  0.00     0.123 C 
ENDBRANCH   2   8
BRANCH   3  13
ATOM     13  C   UNL d   1      -0.875  -2.616   0.007  0.00  0.00     0.018 A 
ATOM     14  S   UNL d   1      -2.399  -2.840  -0.747  0.00  0.00    -0.101 SA
ATOM     15  C   UNL d   1      -2.514  -4.458  -0.224  0.00  0.00     0.050 A 
ATOM     16  C   UNL d   1      -1.419  -4.836   0.515  0.00  0.00     0.008 A 
ATOM     17  C   UNL d   1      -0.475  -3.773   0.650  0.00  0.00     0.020 A 
ENDBRANCH   3  13
BRANCH   4  18
ATOM     18  C   UNL d   1       2.267  -2.334  -0.150  0.00  0.00     0.300 C 
ATOM     19  O   UNL d   1       2.095  -3.377  -0.770  0.00  0.00    -0.259 OA
BRANCH  18  20
ATOM     20  O   UNL d   1       3.403  -2.063   0.561  0.00  0.00    -0.322 OA
ATOM     21  C   UNL d   1       4.368  -3.117   0.532  0.00  0.00     0.213 C 
ENDBRANCH  18  20
ENDBRANCH   4  18
TORSDOF 4
