REMARK  5 active torsions:
REMARK  status: ('A' for Active; 'I' for Inactive)
REMARK    1  A    between atoms: C_2  and  N_1 
REMARK    2  A    between atoms: C_18  and  C_3 
REMARK    3  A    between atoms: C_17  and  C_4 
REMARK    4  A    between atoms: C_8  and  O_15 
REMARK    5  A    between atoms: O_15  and  C_10 
ROOT
ATOM      1  C   UNL d   1      -0.724  -6.854  -2.337  0.00  0.00    -0.051 A 
ATOM      2  C   UNL d   1      -0.055  -6.524  -4.675  0.00  0.00    -0.051 A 
ATOM      3  C   UNL d   1      -0.152  -7.334  -3.526  0.00  0.00     0.015 A 
ATOM      4  C   UNL d   1      -1.184  -4.739  -3.464  0.00  0.00     0.079 A 
ATOM      5  C   UNL d   1      -0.582  -5.220  -4.629  0.00  0.00     0.044 A 
ATOM      6  C   UNL d   1      -1.242  -5.554  -2.329  0.00  0.00     0.044 A 
ENDROOT
BRANCH   4   7
ATOM      7  O   UNL d   1      -1.596  -3.417  -3.456  0.00  0.00    -0.294 OA
BRANCH   7   8
ATOM      8  C   UNL d   1      -2.704  -3.109  -2.681  0.00  0.00     0.148 A 
ATOM      9  C   UNL d   1      -2.733  -1.880  -2.034  0.00  0.00     0.059 A 
ATOM     10  C   UNL d   1      -3.826  -1.591  -1.210  0.00  0.00     0.041 A 
ATOM     11  C   UNL d   1      -4.840  -2.550  -1.075  0.00  0.00     0.118 A 
ATOM     12  C   UNL d   1      -4.735  -3.738  -1.770  0.00  0.00     0.126 A 
ATOM     13  N   UNL d   1      -3.699  -4.024  -2.587  0.00  0.00    -0.344 N 
ATOM     14  HN  UNL d   1      -3.667  -4.896  -3.114  1.00  0.00     0.167 HD
BRANCH  11  15
ATOM     15  N   UNL d   1      -5.990  -2.321  -0.221  0.00  0.00    -0.114 N 
ATOM     16  O   UNL d   1      -6.846  -3.221  -0.146  0.00  0.00    -0.532 OA
ATOM     17  O   UNL d   1      -6.055  -1.244   0.385  0.00  0.00    -0.532 OA
ENDBRANCH  11  15
ENDBRANCH   7   8
ENDBRANCH   4   7
BRANCH   2  18
ATOM     18  C   UNL d   1       0.705  -7.043  -5.887  0.00  0.00     0.010 C 
ATOM     19  C   UNL d   1      -0.105  -6.999  -7.184  0.00  0.00     0.015 C 
ATOM     20  C   UNL d   1       2.030  -6.293  -6.056  0.00  0.00     0.015 C 
ENDBRANCH   2  18
BRANCH   1  21
ATOM     21  C   UNL d   1      -0.677  -7.674  -1.058  0.00  0.00     0.010 C 
ATOM     22  C   UNL d   1       0.180  -6.955  -0.008  0.00  0.00     0.015 C 
ATOM     23  C   UNL d   1      -2.062  -7.980  -0.481  0.00  0.00     0.015 C 
ENDBRANCH   1  21
TORSDOF 5
