REMARK  3 active torsions:
REMARK  status: ('A' for Active; 'I' for Inactive)
REMARK    1  A    between atoms: C_9  and  N_1 
REMARK    2  A    between atoms: S_2  and  C_8 
REMARK    3  A    between atoms: N_12  and  S_2 
ROOT
ATOM      1  C   UNL d   1       4.450  -2.916  -0.123  0.00  0.00     0.074 A 
ATOM      2  C   UNL d   1       2.091  -1.428  -0.045  0.00  0.00     0.056 A 
ATOM      3  C   UNL d   1       4.282  -1.943   0.865  0.00  0.00     0.027 A 
ATOM      4  C   UNL d   1       3.478  -3.108  -1.109  0.00  0.00     0.027 A 
ATOM      5  C   UNL d   1       3.107  -1.188   0.895  0.00  0.00     0.033 A 
ATOM      6  C   UNL d   1       2.297  -2.364  -1.067  0.00  0.00     0.033 A 
ENDROOT
BRANCH   2   7
ATOM      7  N   UNL d   1       0.876  -0.691   0.039  0.00  0.00    -0.261 N 
ATOM      8  N   UNL d   1       0.888   0.556   0.580  0.00  0.00    -0.298 N 
ATOM      9  C   UNL d   1      -0.321   1.060   0.319  0.00  0.00     0.024 C 
ATOM     10  HN  UNL d   1       1.654   1.010   1.079  1.00  0.00     0.187 HD
ATOM     11  C   UNL d   1      -0.651   2.464   0.659  0.00  0.00     0.070 C 
ATOM     12  C   UNL d   1      -1.169   0.095  -0.252  0.00  0.00     0.052 C 
ATOM     13  C   UNL d   1      -0.405  -1.050  -0.361  0.00  0.00     0.032 C 
ATOM     14  C   UNL d   1      -0.859  -2.415  -0.731  0.00  0.00     0.070 C 
ENDBRANCH   2   7
BRANCH   1  15
ATOM     15  S   UNL d   1       5.920  -3.897  -0.154  0.00  0.00     0.239 S 
ATOM     16  O   UNL d   1       6.139  -4.389  -1.492  0.00  0.00    -0.206 OA
ATOM     17  O   UNL d   1       6.953  -3.241   0.616  0.00  0.00    -0.206 OA
BRANCH  15  18
ATOM     18  N   UNL d   1       5.447  -5.231   0.756  0.00  0.00    -0.225 NA
ATOM     19  H   UNL d   1       5.466  -6.072   0.178  0.00  0.00     0.136 HD
ATOM     20  H   UNL d   1       6.016  -5.295   1.600  0.00  0.00     0.136 HD
ENDBRANCH  15  18
ENDBRANCH   1  15
TORSDOF 3
