REMARK  7 active torsions:
REMARK  status: ('A' for Active; 'I' for Inactive)
REMARK    1  A    between atoms: O_9  and  C_3 
REMARK    2  A    between atoms: O_17  and  C_4 
REMARK    3  A    between atoms: S_10  and  C_5 
REMARK    4  A    between atoms: C_18  and  O_9 
REMARK    5  A    between atoms: C_13  and  S_10 
REMARK    6  A    between atoms: C_11  and  C_13 
REMARK    7  A    between atoms: C_12  and  C_11 
ROOT
ATOM      1  N   UNL d   1      -0.577   1.273   0.365  0.00  0.00    -0.315 N 
ATOM      2  HN  UNL d   1      -1.007   2.189   0.490  1.00  0.00     0.170 HD
ATOM      3  C   UNL d   1      -0.793  -1.106   0.034  0.00  0.00     0.149 A 
ATOM      4  C   UNL d   1      -1.315   0.155   0.262  0.00  0.00     0.178 A 
ATOM      5  C   UNL d   1       0.748   1.124   0.295  0.00  0.00     0.146 A 
ATOM      6  N   UNL d   1       1.371  -0.053   0.141  0.00  0.00    -0.338 N 
ATOM      7  HN  UNL d   1       2.389  -0.116   0.119  1.00  0.00     0.168 HD
ATOM      8  C   UNL d   1       0.594  -1.155   0.016  0.00  0.00     0.045 A 
ATOM      9  C   UNL d   1       1.328  -2.462  -0.076  0.00  0.00     0.071 C 
ENDROOT
BRANCH   5  10
ATOM     10  S   UNL d   1       1.734   2.580   0.537  0.00  0.00    -0.086 SA
BRANCH  10  11
ATOM     11  C   UNL d   1       3.391   1.856   0.393  0.00  0.00     0.166 C 
BRANCH  11  12
ATOM     12  C   UNL d   1       4.438   2.909   0.688  0.00  0.00     0.169 C 
ATOM     13  O   UNL d   1       4.982   3.531  -0.221  0.00  0.00    -0.291 OA
BRANCH  12  14
ATOM     14  C   UNL d   1       4.824   3.209   2.106  0.00  0.00     0.011 A 
ATOM     15  C   UNL d   1       4.305   2.515   3.207  0.00  0.00     0.017 A 
ATOM     16  C   UNL d   1       4.682   2.870   4.508  0.00  0.00     0.025 A 
ATOM     17  C   UNL d   1       5.579   3.917   4.713  0.00  0.00     0.034 A 
ATOM     18  C   UNL d   1       6.117   4.603   3.629  0.00  0.00     0.025 A 
ATOM     19 CL   UNL d   1       6.009   4.372   6.315  0.00  0.00    -0.084 Cl
ATOM     20  C   UNL d   1       5.744   4.247   2.330  0.00  0.00     0.017 A 
ENDBRANCH  12  14
ENDBRANCH  11  12
ENDBRANCH  10  11
ENDBRANCH   5  10
BRANCH   4  21
ATOM     21  O   UNL d   1      -2.642   0.394   0.471  0.00  0.00    -0.344 OA
ATOM     22  H   UNL d   1      -3.074  -0.443   0.694  0.00  0.00     0.219 HD
ENDBRANCH   4  21
BRANCH   3  23
ATOM     23  O   UNL d   1      -1.460  -2.298  -0.054  0.00  0.00    -0.304 OA
BRANCH  23  24
ATOM     24  C   UNL d   1      -2.696  -2.388  -0.645  0.00  0.00     0.076 A 
ATOM     25  C   UNL d   1      -3.131  -1.605  -1.716  0.00  0.00     0.039 A 
ATOM     26  C   UNL d   1      -4.455  -1.708  -2.157  0.00  0.00     0.026 A 
ATOM     27  C   UNL d   1      -5.317  -2.630  -1.565  0.00  0.00     0.034 A 
ATOM     28  C   UNL d   1      -4.860  -3.474  -0.556  0.00  0.00     0.026 A 
ATOM     29 CL   UNL d   1      -6.957  -2.719  -2.074  0.00  0.00    -0.084 Cl
ATOM     30  C   UNL d   1      -3.547  -3.356  -0.100  0.00  0.00     0.039 A 
ENDBRANCH  23  24
ENDBRANCH   3  23
TORSDOF 7
