REMARK  6 active torsions:
REMARK  status: ('A' for Active; 'I' for Inactive)
REMARK    1  A    between atoms: C_3  and  S_1 
REMARK    2  A    between atoms: C_4  and  S_1 
REMARK    3  A    between atoms: C_2  and  C_5 
REMARK    4  A    between atoms: C_8  and  C_3 
REMARK       I    between atoms: N_14  and  C_8 
REMARK    5  A    between atoms: N_11  and  N_14 
REMARK    6  A    between atoms: C_22  and  C_21 
ROOT
ATOM      1  S   UNL d   1       1.069   0.062   0.017  0.00  0.00     0.199 S 
ATOM      2  O   UNL d   1       2.527   0.107   0.059  0.00  0.00    -0.221 OA
ATOM      3  O   UNL d   1       0.328   1.143  -0.610  0.00  0.00    -0.221 OA
ENDROOT
BRANCH   1   4
ATOM      4  C   UNL d   1       0.528  -0.072   1.679  0.00  0.00     0.251 C 
BRANCH   4   5
ATOM      5  C   UNL d   1       0.964  -1.327   2.372  0.00  0.00     0.250 C 
ATOM      6  N   UNL d   1       2.332  -1.535   2.518  0.00  0.00    -0.270 N 
ATOM      7  H   UNL d   1       3.033  -0.917   2.111  0.00  0.00     0.190 HD
ATOM      8  O   UNL d   1       0.114  -2.055   2.894  0.00  0.00    -0.271 OA
BRANCH   6   9
ATOM      9  N   UNL d   1       2.717  -2.582   3.307  0.00  0.00    -0.308 N 
ATOM     10  C   UNL d   1       3.976  -2.785   3.522  0.00  0.00     0.118 C 
ATOM     11  HN  UNL d   1       2.018  -3.196   3.724  1.00  0.00     0.186 HD
BRANCH  10  12
ATOM     12  C   UNL d   1       4.412  -3.879   4.429  0.00  0.00    -0.019 A 
ATOM     13  C   UNL d   1       3.464  -4.699   5.056  0.00  0.00     0.013 A 
ATOM     14  C   UNL d   1       3.870  -5.692   5.949  0.00  0.00     0.001 A 
ATOM     15  C   UNL d   1       5.227  -5.874   6.219  0.00  0.00     0.000 A 
ATOM     16  C   UNL d   1       6.175  -5.068   5.587  0.00  0.00     0.001 A 
ATOM     17  C   UNL d   1       5.772  -4.070   4.691  0.00  0.00     0.013 A 
ENDBRANCH  10  12
ENDBRANCH   6   9
ENDBRANCH   4   5
ENDBRANCH   1   4
BRANCH   1  18
ATOM     18  C   UNL d   1       0.623  -1.431  -0.830  0.00  0.00     0.128 A 
ATOM     19  N   UNL d   1      -0.121  -2.288  -0.099  0.00  0.00    -0.356 N 
ATOM     20  C   UNL d   1      -0.253  -3.540  -0.587  0.00  0.00     0.105 A 
ATOM     21  HN  UNL d   1      -0.561  -2.004   0.776  1.00  0.00     0.166 HD
ATOM     22  C   UNL d   1       0.308  -3.962  -1.785  0.00  0.00     0.063 A 
ATOM     23  C   UNL d   1       1.010  -3.016  -2.549  0.00  0.00     0.020 A 
ATOM     24  C   UNL d   1       1.181  -1.722  -2.064  0.00  0.00     0.042 A 
BRANCH  22  25
ATOM     25  C   UNL d   1       0.203  -5.395  -2.212  0.00  0.00     0.418 C 
ATOM     26  F   UNL d   1      -0.477  -6.180  -1.334  0.00  0.00    -0.166 F 
ATOM     27  F   UNL d   1      -0.426  -5.538  -3.410  0.00  0.00    -0.166 F 
ATOM     28  F   UNL d   1       1.426  -5.976  -2.361  0.00  0.00    -0.166 F 
ENDBRANCH  22  25
ENDBRANCH   1  18
TORSDOF 6
