REMARK  4 active torsions:
REMARK  status: ('A' for Active; 'I' for Inactive)
REMARK    1  A    between atoms: C_4  and  C_1 
REMARK    2  A    between atoms: C_3  and  C_2 
REMARK    3  A    between atoms: C_14  and  C_7 
REMARK    4  A    between atoms: N_9  and  C_8 
ROOT
ATOM      1  C   UNL d   1      -1.322  -0.924  -0.072  0.00  0.00     0.135 A 
ATOM      2  C   UNL d   1       0.003  -1.326  -0.029  0.00  0.00     0.079 A 
ATOM      3  O   UNL d   1      -1.323   0.448  -0.093  0.00  0.00    -0.235 OA
ATOM      4  N   UNL d   1      -0.039   0.937  -0.014  0.00  0.00    -0.264 N 
ATOM      5  HN  UNL d   1       0.244   1.917  -0.003  1.00  0.00     0.194 HD
ATOM      6  C   UNL d   1       0.762  -0.132   0.044  0.00  0.00     0.046 A 
ATOM      7  C   UNL d   1       2.229   0.074   0.102  0.00  0.00     0.071 C 
ENDROOT
BRANCH   2   8
ATOM      8  C   UNL d   1       0.504  -2.721  -0.051  0.00  0.00     0.187 A 
ATOM      9  N   UNL d   1       1.655  -3.099   0.463  0.00  0.00    -0.318 N 
ATOM     10  C   UNL d   1       1.630  -4.463   0.301  0.00  0.00     0.145 A 
ATOM     11  HN  UNL d   1       2.385  -2.522   0.880  1.00  0.00     0.169 HD
ATOM     12  N   UNL d   1       0.570  -4.917  -0.379  0.00  0.00    -0.241 N 
ATOM     13  O   UNL d   1      -0.190  -3.772  -0.590  0.00  0.00    -0.217 OA
ATOM     14  HN  UNL d   1       0.368  -5.872  -0.672  1.00  0.00     0.196 HD
BRANCH  10  15
ATOM     15  C   UNL d   1       2.648  -5.378   0.903  0.00  0.00     0.053 A 
ATOM     16  S   UNL d   1       3.882  -4.856   1.964  0.00  0.00    -0.062 SA
ATOM     17  C   UNL d   1       4.406  -6.452   2.226  0.00  0.00     0.144 A 
ATOM     18  C   UNL d   1       3.705  -7.373   1.479  0.00  0.00     0.045 A 
ATOM     19  C   UNL d   1       2.676  -6.746   0.712  0.00  0.00     0.026 A 
BRANCH  17  20
ATOM     20  N   UNL d   1       5.474  -6.732   3.151  0.00  0.00    -0.108 N 
ATOM     21  O   UNL d   1       5.809  -7.921   3.255  0.00  0.00    -0.531 OA
ATOM     22  O   UNL d   1       5.971  -5.790   3.779  0.00  0.00    -0.531 OA
ENDBRANCH  17  20
ENDBRANCH  10  15
ENDBRANCH   2   8
BRANCH   1  23
ATOM     23  C   UNL d   1      -2.556  -1.655  -0.025  0.00  0.00     0.083 A 
ATOM     24  C   UNL d   1      -3.774  -1.390  -0.643  0.00  0.00     0.043 A 
ATOM     25  N   UNL d   1      -4.787  -2.298  -0.342  0.00  0.00    -0.298 N 
ATOM     26  C   UNL d   1      -4.125  -0.279  -1.563  0.00  0.00     0.071 C 
ATOM     27  N   UNL d   1      -4.393  -3.220   0.517  0.00  0.00    -0.269 N 
ATOM     28  HN  UNL d   1      -5.726  -2.256  -0.740  1.00  0.00     0.187 HD
ATOM     29  S   UNL d   1      -2.813  -3.014   1.000  0.00  0.00     0.006 SA
ATOM     30  HN  UNL d   1      -4.991  -3.976   0.848  1.00  0.00     0.195 HD
ENDBRANCH   1  23
TORSDOF 4
