REMARK  3 active torsions:
REMARK  status: ('A' for Active; 'I' for Inactive)
REMARK    1  A    between atoms: C_8  and  C_5 
REMARK       I    between atoms: N_15  and  C_8 
REMARK    2  A    between atoms: N_11  and  N_15 
REMARK    3  A    between atoms: C_14  and  C_19 
ROOT
ATOM      1  C   UNL d   1       0.770   2.906   0.051  0.00  0.00     0.287 C 
ATOM      2  N   UNL d   1      -0.343   3.731   0.041  0.00  0.00    -0.265 N 
ATOM      3  O   UNL d   1       0.733   1.722   0.392  0.00  0.00    -0.264 OA
ATOM      4  H   UNL d   1      -0.326   4.664  -0.351  0.00  0.00     0.190 HD
ENDROOT
BRANCH   1   5
ATOM      5  C   UNL d   1       2.059   3.491  -0.446  0.00  0.00     0.116 C 
ATOM      6  N   UNL d   1       2.453   4.815  -0.354  0.00  0.00    -0.297 N 
ATOM      7  C   UNL d   1       3.650   5.144  -0.982  0.00  0.00     0.158 A 
ATOM      8  C   UNL d   1       1.907   5.887   0.341  0.00  0.00     0.107 A 
ATOM      9  N   UNL d   1       4.486   4.362  -1.569  0.00  0.00    -0.303 N 
ATOM     10  S   UNL d   1       3.955   6.885  -0.838  0.00  0.00    -0.064 SA
ATOM     11  C   UNL d   1       4.196   3.018  -1.552  0.00  0.00     0.249 C 
ATOM     12  HN  UNL d   1       5.324   4.723  -2.026  1.00  0.00     0.171 HD
ATOM     13  O   UNL d   1       4.970   2.156  -1.952  0.00  0.00    -0.268 OA
ATOM     14  C   UNL d   1       2.873   2.592  -1.030  0.00  0.00     0.110 C 
ATOM     15  C   UNL d   1       2.557   7.055   0.196  0.00  0.00     0.071 A 
ENDBRANCH   1   5
BRANCH   2  16
ATOM     16  N   UNL d   1      -1.543   3.164   0.359  0.00  0.00    -0.308 N 
ATOM     17  C   UNL d   1      -2.597   3.914   0.393  0.00  0.00     0.120 C 
ATOM     18  HN  UNL d   1      -1.608   2.167   0.567  1.00  0.00     0.186 HD
BRANCH  17  19
ATOM     19  C   UNL d   1      -3.926   3.314   0.680  0.00  0.00     0.002 A 
ATOM     20  C   UNL d   1      -5.087   4.087   0.804  0.00  0.00     0.045 A 
ATOM     21 CL   UNL d   1      -5.088   5.806   0.648  0.00  0.00    -0.083 Cl
ATOM     22  C   UNL d   1      -6.316   3.464   1.069  0.00  0.00     0.024 A 
ATOM     23  C   UNL d   1      -6.392   2.077   1.205  0.00  0.00     0.002 A 
ATOM     24  C   UNL d   1      -5.242   1.303   1.078  0.00  0.00     0.001 A 
ATOM     25  C   UNL d   1      -4.016   1.918   0.818  0.00  0.00     0.014 A 
ENDBRANCH  17  19
ENDBRANCH   2  16
TORSDOF 3
