REMARK  4 active torsions:
REMARK  status: ('A' for Active; 'I' for Inactive)
REMARK    1  A    between atoms: C_3  and  C_1 
REMARK    2  A    between atoms: C_4  and  C_2 
REMARK    3  A    between atoms: C_8  and  C_3 
REMARK    4  A    between atoms: C_7  and  C_4 
ROOT
ATOM      1  C   UNL d   1       1.497  -0.150   0.360  0.00  0.00     0.029 A 
ATOM      2  C   UNL d   1       0.680  -1.270   0.140  0.00  0.00     0.029 A 
ATOM      3  C   UNL d   1       0.904   1.130   0.413  0.00  0.00     0.016 A 
ATOM      4  C   UNL d   1      -0.716  -1.089   0.039  0.00  0.00     0.016 A 
ATOM      5  C   UNL d   1      -0.478   1.290   0.299  0.00  0.00     0.001 A 
ATOM      6  C   UNL d   1      -1.291   0.178   0.127  0.00  0.00     0.001 A 
ENDROOT
BRANCH   1   7
ATOM      7  C   UNL d   1       2.979  -0.230   0.432  0.00  0.00     0.193 C 
ATOM      8  O   UNL d   1       3.573  -1.032  -0.276  0.00  0.00    -0.287 OA
BRANCH   7   9
ATOM      9  C   UNL d   1       3.766   0.656   1.344  0.00  0.00     0.015 A 
ATOM     10  C   UNL d   1       5.073   0.991   0.968  0.00  0.00     0.015 A 
ATOM     11  C   UNL d   1       5.849   1.824   1.779  0.00  0.00     0.001 A 
ATOM     12  C   UNL d   1       5.327   2.318   2.973  0.00  0.00     0.000 A 
ATOM     13  C   UNL d   1       4.035   1.972   3.365  0.00  0.00     0.001 A 
ATOM     14  C   UNL d   1       3.256   1.135   2.558  0.00  0.00     0.015 A 
ENDBRANCH   7   9
ENDBRANCH   1   7
BRANCH   2  15
ATOM     15  C   UNL d   1       1.136  -2.627  -0.233  0.00  0.00     0.193 C 
ATOM     16  O   UNL d   1       0.778  -3.019  -1.347  0.00  0.00    -0.287 OA
BRANCH  15  17
ATOM     17  C   UNL d   1       1.816  -3.595   0.676  0.00  0.00     0.015 A 
ATOM     18  C   UNL d   1       1.778  -4.952   0.301  0.00  0.00     0.015 A 
ATOM     19  C   UNL d   1       2.409  -5.932   1.067  0.00  0.00     0.001 A 
ATOM     20  C   UNL d   1       3.103  -5.567   2.217  0.00  0.00     0.000 A 
ATOM     21  C   UNL d   1       3.139  -4.229   2.608  0.00  0.00     0.001 A 
ATOM     22  C   UNL d   1       2.481  -3.245   1.854  0.00  0.00     0.015 A 
ENDBRANCH  15  17
ENDBRANCH   2  15
TORSDOF 4
