REMARK  2 active torsions:
REMARK  status: ('A' for Active; 'I' for Inactive)
REMARK    1  A    between atoms: C_9  and  C_5 
REMARK    2  A    between atoms: C_10  and  C_7 
ROOT
ATOM      1  O   UNL d   1       0.506   1.630   0.113  0.00  0.00    -0.333 OA
ATOM      2  C   UNL d   1       2.067  -0.333   0.063  0.00  0.00     0.252 C 
ATOM      3  C   UNL d   1      -0.537   0.742   0.043  0.00  0.00     0.103 A 
ATOM      4  N   UNL d   1       0.977  -1.155   0.062  0.00  0.00    -0.323 N 
ATOM      5  C   UNL d   1       1.778   1.125  -0.322  0.00  0.00     0.224 C 
ATOM      6  C   UNL d   1      -0.319  -0.646   0.000  0.00  0.00     0.069 A 
ATOM      7  C   UNL d   1      -1.852   1.250   0.070  0.00  0.00    -0.019 A 
ATOM      8  O   UNL d   1       3.196  -0.771   0.271  0.00  0.00    -0.270 OA
ATOM      9  C   UNL d   1      -1.387  -1.538  -0.051  0.00  0.00     0.032 A 
ATOM     10  C   UNL d   1      -2.916   0.332   0.011  0.00  0.00     0.010 A 
ATOM     11  C   UNL d   1      -2.689  -1.046  -0.060  0.00  0.00     0.003 A 
ATOM     12  H   UNL d   1       1.144  -2.143   0.203  0.00  0.00     0.169 HD
ENDROOT
BRANCH   5  13
ATOM     13  C   UNL d   1       1.933   1.343  -1.853  0.00  0.00     0.016 C 
ATOM     14  C   UNL d   1       1.635   2.797  -2.235  0.00  0.00     0.012 C 
ATOM     15  C   UNL d   1       3.329   0.966  -2.363  0.00  0.00     0.012 C 
ENDBRANCH   5  13
BRANCH   7  16
ATOM     16  C   UNL d   1      -2.145   2.747   0.144  0.00  0.00     0.013 C 
ATOM     17  C   UNL d   1      -2.946   3.221  -1.075  0.00  0.00     0.015 C 
ATOM     18  C   UNL d   1      -2.883   3.136   1.433  0.00  0.00     0.015 C 
ENDBRANCH   7  16
TORSDOF 2
