REMARK  3 active torsions:
REMARK  status: ('A' for Active; 'I' for Inactive)
REMARK    1  A    between atoms: C_7  and  C_3 
REMARK    2  A    between atoms: C_8  and  C_4 
REMARK    3  A    between atoms: C_9  and  C_5 
ROOT
ATOM      1  N   UNL d   1      -1.247   0.265   0.073  0.00  0.00    -0.333 N 
ATOM      2  HN  UNL d   1      -2.211   0.596   0.094  1.00  0.00     0.168 HD
ATOM      3  C   UNL d   1      -0.799  -1.039   0.050  0.00  0.00     0.079 A 
ATOM      4  C   UNL d   1       0.584  -1.058  -0.011  0.00  0.00     0.115 A 
ATOM      5  C   UNL d   1      -0.142   0.985   0.063  0.00  0.00     0.159 A 
ATOM      6  O   UNL d   1       1.012   0.245   0.021  0.00  0.00    -0.290 OA
ENDROOT
BRANCH   3   7
ATOM      7  C   UNL d   1      -1.694  -2.182   0.044  0.00  0.00    -0.006 A 
ATOM      8  C   UNL d   1      -2.892  -2.114  -0.679  0.00  0.00     0.014 A 
ATOM      9  C   UNL d   1      -3.722  -3.233  -0.781  0.00  0.00     0.001 A 
ATOM     10  C   UNL d   1      -3.367  -4.427  -0.158  0.00  0.00     0.000 A 
ATOM     11  C   UNL d   1      -2.201  -4.495   0.600  0.00  0.00     0.001 A 
ATOM     12  C   UNL d   1      -1.379  -3.372   0.716  0.00  0.00     0.014 A 
ENDBRANCH   3   7
BRANCH   4  13
ATOM     13  C   UNL d   1       1.620  -2.077  -0.108  0.00  0.00     0.000 A 
ATOM     14  C   UNL d   1       1.432  -3.218  -0.904  0.00  0.00     0.014 A 
ATOM     15  C   UNL d   1       2.360  -4.261  -0.894  0.00  0.00     0.001 A 
ATOM     16  C   UNL d   1       3.507  -4.161  -0.111  0.00  0.00     0.000 A 
ATOM     17  C   UNL d   1       3.734  -3.013   0.644  0.00  0.00     0.001 A 
ATOM     18  C   UNL d   1       2.797  -1.974   0.645  0.00  0.00     0.014 A 
ENDBRANCH   4  13
BRANCH   5  19
ATOM     19  C   UNL d   1       0.002   2.440   0.086  0.00  0.00     0.015 A 
ATOM     20  C   UNL d   1      -1.143   3.246   0.196  0.00  0.00     0.016 A 
ATOM     21  C   UNL d   1      -1.044   4.640   0.216  0.00  0.00     0.001 A 
ATOM     22  C   UNL d   1       0.205   5.248   0.125  0.00  0.00     0.000 A 
ATOM     23  C   UNL d   1       1.353   4.465   0.015  0.00  0.00     0.001 A 
ATOM     24  C   UNL d   1       1.253   3.071  -0.004  0.00  0.00     0.016 A 
ENDBRANCH   5  19
TORSDOF 3
