REMARK  4 active torsions:
REMARK  status: ('A' for Active; 'I' for Inactive)
REMARK    1  A    between atoms: O_10  and  C_3 
REMARK    2  A    between atoms: C_9  and  C_4 
REMARK    3  A    between atoms: O_16  and  C_5 
REMARK    4  A    between atoms: C_17  and  O_10 
ROOT
ATOM      1  N   UNL d   1      -0.660   1.112  -0.233  0.00  0.00    -0.320 N 
ATOM      2  HN  UNL d   1      -1.119   2.004  -0.420  1.00  0.00     0.169 HD
ATOM      3  C   UNL d   1       1.364  -0.203  -0.015  0.00  0.00     0.148 A 
ATOM      4  C   UNL d   1      -1.351  -0.003   0.034  0.00  0.00     0.118 A 
ATOM      5  C   UNL d   1       0.675   0.978  -0.239  0.00  0.00     0.178 A 
ATOM      6  N   UNL d   1      -0.783  -1.193   0.317  0.00  0.00    -0.343 N 
ATOM      7  HN  UNL d   1      -1.359  -2.010   0.520  1.00  0.00     0.167 HD
ATOM      8  C   UNL d   1       0.567  -1.281   0.326  0.00  0.00     0.045 A 
ATOM      9  C   UNL d   1       1.080  -2.634   0.717  0.00  0.00     0.071 C 
ENDROOT
BRANCH   3  10
ATOM     10  O   UNL d   1       2.733  -0.128  -0.050  0.00  0.00    -0.304 OA
BRANCH  10  11
ATOM     11  C   UNL d   1       3.467  -1.168  -0.567  0.00  0.00     0.076 A 
ATOM     12  C   UNL d   1       3.082  -1.935  -1.669  0.00  0.00     0.039 A 
ATOM     13  C   UNL d   1       3.854  -3.038  -2.047  0.00  0.00     0.026 A 
ATOM     14  C   UNL d   1       5.034  -3.330  -1.361  0.00  0.00     0.034 A 
ATOM     15  C   UNL d   1       5.464  -2.512  -0.318  0.00  0.00     0.026 A 
ATOM     16 CL   UNL d   1       5.956  -4.715  -1.796  0.00  0.00    -0.084 Cl
ATOM     17  C   UNL d   1       4.681  -1.426   0.075  0.00  0.00     0.039 A 
ENDBRANCH  10  11
ENDBRANCH   3  10
BRANCH   5  18
ATOM     18  O   UNL d   1       1.351   2.146  -0.482  0.00  0.00    -0.344 OA
ATOM     19  H   UNL d   1       2.297   1.941  -0.392  0.00  0.00     0.219 HD
ENDBRANCH   5  18
BRANCH   4  20
ATOM     20  C   UNL d   1      -2.825   0.055   0.009  0.00  0.00     0.011 A 
ATOM     21  C   UNL d   1      -3.515   1.266  -0.182  0.00  0.00     0.039 A 
ATOM     22  C   UNL d   1      -4.912   1.302  -0.214  0.00  0.00     0.036 A 
ATOM     23 CL   UNL d   1      -5.721   2.802  -0.451  0.00  0.00    -0.084 Cl
ATOM     24  C   UNL d   1      -5.657   0.138  -0.059  0.00  0.00     0.047 A 
ATOM     25  C   UNL d   1      -4.993  -1.067   0.132  0.00  0.00     0.036 A 
ATOM     26  C   UNL d   1      -3.600  -1.112   0.168  0.00  0.00     0.039 A 
ATOM     27 CL   UNL d   1      -5.898  -2.519   0.322  0.00  0.00    -0.084 Cl
ENDBRANCH   4  20
TORSDOF 4
