REMARK  3 active torsions:
REMARK  status: ('A' for Active; 'I' for Inactive)
REMARK    1  A    between atoms: C_2  and  S_1 
REMARK    2  A    between atoms: C_3  and  S_1 
REMARK    3  A    between atoms: C_4  and  C_3 
ROOT
ATOM      1  C   UNL d   1       0.519  -1.094  -1.388  0.00  0.00     0.188 C 
ENDROOT
BRANCH   1   2
ATOM      2  S   UNL d   1       1.008   0.004  -0.073  0.00  0.00     0.186 S 
ATOM      3  O   UNL d   1       0.282  -0.358   1.127  0.00  0.00    -0.222 OA
ATOM      4  O   UNL d   1       2.455   0.127  -0.044  0.00  0.00    -0.222 OA
BRANCH   2   5
ATOM      5  C   UNL d   1       0.429   1.633  -0.496  0.00  0.00     0.100 A 
ATOM      6  S   UNL d   1      -1.263   1.834  -0.653  0.00  0.00    -0.090 SA
ATOM      7  C   UNL d   1      -1.105   3.520  -0.897  0.00  0.00     0.051 A 
ATOM      8  C   UNL d   1       0.212   3.922  -0.893  0.00  0.00     0.009 A 
ATOM      9  C   UNL d   1       1.099   2.829  -0.675  0.00  0.00     0.031 A 
ENDBRANCH   2   5
ENDBRANCH   1   2
BRANCH   1  10
ATOM     10  C   UNL d   1       1.025  -0.655  -2.736  0.00  0.00    -0.005 A 
ATOM     11  C   UNL d   1       0.114  -0.374  -3.761  0.00  0.00     0.124 A 
ATOM     12  C   UNL d   1       0.534  -0.005  -5.036  0.00  0.00     0.061 A 
ATOM     13  F   UNL d   1      -1.201  -0.477  -3.526  0.00  0.00    -0.205 F 
ATOM     14  C   UNL d   1       1.895   0.088  -5.300  0.00  0.00     0.013 A 
ATOM     15  C   UNL d   1       2.828  -0.204  -4.306  0.00  0.00     0.020 A 
ATOM     16 BR   UNL d   1       2.486   0.604  -7.019  0.00  0.00    -0.051 Br
ATOM     17  C   UNL d   1       2.394  -0.589  -3.034  0.00  0.00     0.012 A 
ENDBRANCH   1  10
TORSDOF 3
