REMARK  8 active torsions:
REMARK  status: ('A' for Active; 'I' for Inactive)
REMARK    1  A    between atoms: S_16  and  C_3 
REMARK    2  A    between atoms: C_7  and  O_17 
REMARK    3  A    between atoms: C_9  and  O_24 
REMARK       I    between atoms: N_14  and  C_9 
REMARK    4  A    between atoms: C_22  and  N_14 
REMARK    5  A    between atoms: C_31  and  S_16 
REMARK    6  A    between atoms: O_17  and  C_23 
REMARK    7  A    between atoms: O_24  and  C_32 
REMARK    8  A    between atoms: C_32  and  C_31 
ROOT
ATOM      1  C   UNL d   1       0.995  -0.631  -1.339  0.00  0.00     0.042 A 
ATOM      2  C   UNL d   1       1.081   0.770  -0.981  0.00  0.00    -0.014 A 
ATOM      3  C   UNL d   1       1.154  -1.458  -0.243  0.00  0.00     0.057 A 
ATOM      4  C   UNL d   1       1.225   0.935   0.385  0.00  0.00     0.093 A 
ATOM      5  S   UNL d   1       1.278  -0.558   1.208  0.00  0.00    -0.071 SA
ATOM      6  C   UNL d   1       0.807  -1.040  -2.731  0.00  0.00     0.162 C 
ATOM      7  C   UNL d   1       1.346   2.191   1.063  0.00  0.00     0.107 C 
ATOM      8  N   UNL d   1       1.440   3.217   1.586  0.00  0.00    -0.191 NA
ATOM      9  C   UNL d   1       1.054   1.871  -2.019  0.00  0.00     0.050 C 
ATOM     10  C   UNL d   1       0.555   1.391  -3.411  0.00  0.00    -0.037 C 
ATOM     11  C   UNL d   1       1.175   0.017  -3.759  0.00  0.00     0.093 C 
ATOM     12  O   UNL d   1       0.367  -2.135  -3.065  0.00  0.00    -0.292 OA
ATOM     13  C   UNL d   1       0.983   2.407  -4.487  0.00  0.00     0.015 C 
ATOM     14  C   UNL d   1      -0.985   1.305  -3.425  0.00  0.00     0.015 C 
ENDROOT
BRANCH   3  15
ATOM     15  S   UNL d   1       1.348  -3.210  -0.207  0.00  0.00    -0.119 SA
BRANCH  15  16
ATOM     16  C   UNL d   1      -0.376  -3.732  -0.036  0.00  0.00     0.107 C 
BRANCH  16  17
ATOM     17  C   UNL d   1      -0.500  -5.255   0.048  0.00  0.00     0.191 C 
BRANCH  17  18
ATOM     18  O   UNL d   1      -1.907  -5.549   0.063  0.00  0.00    -0.303 OA
BRANCH  18  19
ATOM     19  C   UNL d   1      -2.477  -5.736   1.276  0.00  0.00     0.365 C 
ATOM     20  N   UNL d   1      -3.719  -5.172   1.412  0.00  0.00    -0.303 N 
ATOM     21  H   UNL d   1      -4.073  -5.297   2.350  0.00  0.00     0.171 HD
ATOM     22  O   UNL d   1      -1.923  -6.288   2.218  0.00  0.00    -0.238 OA
BRANCH  20  23
ATOM     23  C   UNL d   1      -4.359  -4.209   0.599  0.00  0.00     0.037 A 
ATOM     24  C   UNL d   1      -4.006  -3.911  -0.716  0.00  0.00     0.032 A 
ATOM     25  C   UNL d   1      -4.599  -2.847  -1.409  0.00  0.00     0.039 A 
ATOM     26  C   UNL d   1      -5.608  -2.103  -0.817  0.00  0.00     0.078 A 
ATOM     27  C   UNL d   1      -5.991  -2.417   0.492  0.00  0.00     0.039 A 
ATOM     28  C   UNL d   1      -5.380  -3.464   1.191  0.00  0.00     0.032 A 
BRANCH  26  29
ATOM     29  O   UNL d   1      -6.307  -1.077  -1.373  0.00  0.00    -0.255 OA
BRANCH  29  30
ATOM     30  C   UNL d   1      -6.176  -0.808  -2.759  0.00  0.00     0.530 C 
ATOM     31  F   UNL d   1      -6.016  -1.921  -3.504  0.00  0.00    -0.144 F 
ATOM     32  F   UNL d   1      -7.304  -0.194  -3.180  0.00  0.00    -0.144 F 
ATOM     33  F   UNL d   1      -5.136   0.028  -2.975  0.00  0.00    -0.144 F 
ENDBRANCH  29  30
ENDBRANCH  26  29
ENDBRANCH  20  23
ENDBRANCH  18  19
ENDBRANCH  17  18
ENDBRANCH  16  17
ENDBRANCH  15  16
ENDBRANCH   3  15
TORSDOF 8
