REMARK  4 active torsions:
REMARK  status: ('A' for Active; 'I' for Inactive)
REMARK    1  A    between atoms: C_2  and  C_1 
REMARK    2  A    between atoms: C_9  and  C_3 
REMARK    3  A    between atoms: S_16  and  C_4 
REMARK       I    between atoms: N_12  and  C_9 
REMARK    4  A    between atoms: C_14  and  C_10 
ROOT
ATOM      1  C   UNL d   1       1.409  -0.703   0.043  0.00  0.00     0.023 A 
ATOM      2  C   UNL d   1       0.032   1.203  -0.014  0.00  0.00     0.074 A 
ATOM      3  C   UNL d   1       0.162  -1.277  -0.141  0.00  0.00     0.054 A 
ATOM      4  C   UNL d   1       1.313   0.724   0.163  0.00  0.00     0.040 A 
ATOM      5  S   UNL d   1      -1.059  -0.074  -0.312  0.00  0.00    -0.077 SA
ENDROOT
BRANCH   1   6
ATOM      6  C   UNL d   1       2.731  -1.433   0.052  0.00  0.00     0.086 A 
ATOM      7  N   UNL d   1       2.890  -2.632  -0.466  0.00  0.00    -0.349 N 
ATOM      8  C   UNL d   1       4.227  -2.996  -0.448  0.00  0.00     0.050 A 
ATOM      9  HN  UNL d   1       2.135  -3.213  -0.830  1.00  0.00     0.166 HD
ATOM     10  C   UNL d   1       5.066  -2.088   0.166  0.00  0.00     0.082 A 
ATOM     11  S   UNL d   1       4.174  -0.723   0.677  0.00  0.00    -0.081 SA
BRANCH   8  12
ATOM     12  C   UNL d   1       4.691  -4.222  -1.084  0.00  0.00    -0.009 A 
ATOM     13  C   UNL d   1       4.039  -4.695  -2.233  0.00  0.00     0.015 A 
ATOM     14  C   UNL d   1       4.485  -5.853  -2.878  0.00  0.00     0.024 A 
ATOM     15  C   UNL d   1       5.581  -6.548  -2.372  0.00  0.00     0.034 A 
ATOM     16  C   UNL d   1       6.235  -6.095  -1.228  0.00  0.00     0.024 A 
ATOM     17 CL   UNL d   1       6.131  -7.975  -3.159  0.00  0.00    -0.084 Cl
ATOM     18  C   UNL d   1       5.792  -4.935  -0.587  0.00  0.00     0.015 A 
ENDBRANCH   8  12
ENDBRANCH   1   6
BRANCH   3  19
ATOM     19  S   UNL d   1      -0.313  -2.973  -0.263  0.00  0.00    -0.126 SA
ATOM     20  C   UNL d   1       0.169  -3.605   1.361  0.00  0.00     0.096 C 
ENDBRANCH   3  19
BRANCH   2  21
ATOM     21  C   UNL d   1      -0.340   2.608  -0.153  0.00  0.00     0.260 C 
ATOM     22  N   UNL d   1      -1.498   3.091   0.462  0.00  0.00    -0.347 N 
ATOM     23  C   UNL d   1      -1.986   4.422   0.100  0.00  0.00     0.126 C 
ATOM     24  C   UNL d   1      -2.228   2.431   1.546  0.00  0.00     0.126 C 
ATOM     25  C   UNL d   1      -2.042   5.344   1.313  0.00  0.00     0.020 C 
ATOM     26  C   UNL d   1      -2.849   4.709   2.445  0.00  0.00     0.003 C 
ATOM     27  C   UNL d   1      -2.301   3.325   2.782  0.00  0.00     0.020 C 
ATOM     28  O   UNL d   1       0.381   3.368  -0.801  0.00  0.00    -0.267 OA
ENDBRANCH   2  21
TORSDOF 4
