REMARK  9 active torsions:
REMARK  status: ('A' for Active; 'I' for Inactive)
REMARK    1  A    between atoms: C_7  and  C_1 
REMARK    2  A    between atoms: C_12  and  C_2 
REMARK    3  A    between atoms: N_5  and  C_6 
REMARK    4  A    between atoms: C_8  and  C_13 
REMARK    5  A    between atoms: O_25  and  C_12 
REMARK    6  A    between atoms: C_14  and  O_28 
REMARK    7  A    between atoms: C_33  and  O_25 
REMARK    8  A    between atoms: O_28  and  C_34 
REMARK    9  A    between atoms: C_34  and  C_33 
ROOT
ATOM      1  C   UNL d   1       0.350  -2.748  -0.349  0.00  0.00     0.298 C 
ATOM      2  O   UNL d   1      -0.507  -3.535   0.028  0.00  0.00    -0.259 OA
ENDROOT
BRANCH   1   3
ATOM      3  C   UNL d   1       0.030  -1.436  -0.876  0.00  0.00     0.100 A 
ATOM      4  C   UNL d   1      -1.058  -0.571  -0.525  0.00  0.00     0.087 A 
ATOM      5  N   UNL d   1      -1.001   0.542  -1.273  0.00  0.00    -0.259 N 
ATOM      6  O   UNL d   1       0.065   0.406  -2.125  0.00  0.00    -0.241 OA
ATOM      7  HN  UNL d   1      -1.633   1.341  -1.218  1.00  0.00     0.195 HD
ATOM      8  C   UNL d   1       0.702  -0.766  -1.881  0.00  0.00     0.091 A 
ATOM      9  C   UNL d   1       1.874  -1.030  -2.742  0.00  0.00     0.080 C 
BRANCH   4  10
ATOM     10  C   UNL d   1      -2.112  -0.743   0.489  0.00  0.00     0.037 A 
ATOM     11  C   UNL d   1      -1.816  -1.195   1.795  0.00  0.00     0.048 A 
ATOM     12 CL   UNL d   1      -0.201  -1.391   2.403  0.00  0.00    -0.083 Cl
ATOM     13  C   UNL d   1      -2.832  -1.425   2.736  0.00  0.00     0.025 A 
ATOM     14  C   UNL d   1      -4.152  -1.117   2.438  0.00  0.00     0.003 A 
ATOM     15  C   UNL d   1      -4.463  -0.596   1.188  0.00  0.00     0.025 A 
ATOM     16  C   UNL d   1      -3.464  -0.436   0.212  0.00  0.00     0.048 A 
ATOM     17 CL   UNL d   1      -4.029   0.133  -1.328  0.00  0.00    -0.083 Cl
ENDBRANCH   4  10
ENDBRANCH   1   3
BRANCH   1  18
ATOM     18  O   UNL d   1       1.687  -3.012  -0.386  0.00  0.00    -0.315 OA
BRANCH  18  19
ATOM     19  C   UNL d   1       2.058  -4.396  -0.213  0.00  0.00     0.205 C 
BRANCH  19  20
ATOM     20  C   UNL d   1       1.585  -5.161  -1.445  0.00  0.00     0.202 C 
BRANCH  20  21
ATOM     21  O   UNL d   1       1.845  -6.560  -1.377  0.00  0.00    -0.346 OA
BRANCH  21  22
ATOM     22  C   UNL d   1       1.312  -7.249  -2.441  0.00  0.00     0.101 A 
ATOM     23  C   UNL d   1       1.985  -8.358  -2.956  0.00  0.00     0.137 A 
ATOM     24  C   UNL d   1       1.487  -9.091  -4.045  0.00  0.00     0.055 A 
ATOM     25  C   UNL d   1       0.274  -8.714  -4.642  0.00  0.00     0.050 A 
ATOM     26  C   UNL d   1      -0.429  -7.631  -4.103  0.00  0.00     0.019 A 
ATOM     27  C   UNL d   1       0.073  -6.923  -3.009  0.00  0.00     0.040 A 
BRANCH  23  28
ATOM     28  N   UNL d   1       3.248  -8.779  -2.377  0.00  0.00    -0.113 N 
ATOM     29  O   UNL d   1       3.303  -9.934  -1.935  0.00  0.00    -0.532 OA
ATOM     30  O   UNL d   1       4.194  -7.977  -2.423  0.00  0.00    -0.532 OA
ENDBRANCH  23  28
BRANCH  25  31
ATOM     31  C   UNL d   1      -0.299  -9.438  -5.834  0.00  0.00     0.417 C 
ATOM     32  F   UNL d   1       0.488 -10.453  -6.281  0.00  0.00    -0.166 F 
ATOM     33  F   UNL d   1      -1.515  -9.985  -5.568  0.00  0.00    -0.166 F 
ATOM     34  F   UNL d   1      -0.484  -8.607  -6.895  0.00  0.00    -0.166 F 
ENDBRANCH  25  31
ENDBRANCH  21  22
ENDBRANCH  20  21
ENDBRANCH  19  20
ENDBRANCH  18  19
ENDBRANCH   1  18
TORSDOF 9
