REMARK  4 active torsions:
REMARK  status: ('A' for Active; 'I' for Inactive)
REMARK    1  A    between atoms: S_6  and  C_1 
REMARK    2  A    between atoms: C_7  and  C_5 
REMARK    3  A    between atoms: O_13  and  C_7 
REMARK    4  A    between atoms: C_17  and  O_13 
ROOT
ATOM      1  C   UNL d   1       1.913   0.807  -0.034  0.00  0.00     0.086 A 
ATOM      2  C   UNL d   1       0.539   0.662  -0.028  0.00  0.00     0.044 A 
ATOM      3  C   UNL d   1       0.156  -0.739   0.004  0.00  0.00    -0.019 A 
ATOM      4  S   UNL d   1       2.722  -0.686   0.048  0.00  0.00    -0.073 SA
ATOM      5  C   UNL d   1       1.263  -1.583   0.016  0.00  0.00     0.088 A 
ATOM      6  C   UNL d   1      -0.464   1.730  -0.014  0.00  0.00     0.162 C 
ATOM      7  O   UNL d   1      -0.181   2.915  -0.182  0.00  0.00    -0.292 OA
ATOM      8  C   UNL d   1      -1.296  -1.146   0.027  0.00  0.00     0.042 C 
ATOM      9  C   UNL d   1      -1.891   1.304   0.290  0.00  0.00     0.084 C 
ATOM     10  C   UNL d   1      -2.229  -0.012  -0.403  0.00  0.00     0.012 C 
ENDROOT
BRANCH   5  11
ATOM     11  C   UNL d   1       1.364  -3.036  -0.022  0.00  0.00     0.300 C 
ATOM     12  O   UNL d   1       2.381  -3.689  -0.214  0.00  0.00    -0.259 OA
BRANCH  11  13
ATOM     13  O   UNL d   1       0.122  -3.586   0.098  0.00  0.00    -0.317 OA
BRANCH  13  14
ATOM     14  C   UNL d   1      -0.012  -4.934  -0.374  0.00  0.00     0.174 C 
ATOM     15  C   UNL d   1      -0.245  -4.891  -1.875  0.00  0.00     0.034 C 
ENDBRANCH  13  14
ENDBRANCH  11  13
ENDBRANCH   5  11
BRANCH   1  16
ATOM     16  S   UNL d   1       2.775   2.335  -0.051  0.00  0.00     0.053 S 
ATOM     17  O   UNL d   1       4.215   2.036   0.254  0.00  0.00    -0.253 OA
ATOM     18  C   UNL d   1       2.702   2.612  -1.844  0.00  0.00     0.133 C 
ENDBRANCH   1  16
TORSDOF 4
