REMARK  5 active torsions:
REMARK  status: ('A' for Active; 'I' for Inactive)
REMARK    1  A    between atoms: O_4  and  S_1 
REMARK    2  A    between atoms: C_6  and  S_1 
REMARK    3  A    between atoms: C_5  and  C_2 
REMARK    4  A    between atoms: C_3  and  O_4 
REMARK    5  A    between atoms: O_15  and  C_5 
ROOT
ATOM      1  S   UNL d   1       1.098  -0.017   0.031  0.00  0.00     0.302 S 
ATOM      2  O   UNL d   1       0.585   1.107   0.791  0.00  0.00    -0.193 OA
ATOM      3  O   UNL d   1       2.523  -0.275  -0.048  0.00  0.00    -0.193 OA
ENDROOT
BRANCH   1   4
ATOM      4  O   UNL d   1       0.502   0.105  -1.490  0.00  0.00    -0.232 OA
BRANCH   4   5
ATOM      5  C   UNL d   1       0.847   1.133  -2.354  0.00  0.00     0.089 C 
ATOM      6  C   UNL d   1       0.359   1.264  -3.604  0.00  0.00     0.058 C 
ATOM      7  C   UNL d   1       0.883   2.429  -4.390  0.00  0.00     0.121 C 
ATOM      8  S   UNL d   1       2.301   3.052  -3.447  0.00  0.00    -0.158 SA
ATOM      9  C   UNL d   1       1.834   2.182  -1.925  0.00  0.00     0.141 C 
BRANCH   6  10
ATOM     10  C   UNL d   1      -0.614   0.411  -4.311  0.00  0.00     0.292 C 
ATOM     11  O   UNL d   1      -0.973   0.633  -5.456  0.00  0.00    -0.260 OA
BRANCH  10  12
ATOM     12  O   UNL d   1      -1.051  -0.614  -3.537  0.00  0.00    -0.323 OA
ATOM     13  C   UNL d   1      -2.009  -1.461  -4.171  0.00  0.00     0.213 C 
ENDBRANCH  10  12
ENDBRANCH   6  10
ENDBRANCH   4   5
ENDBRANCH   1   4
BRANCH   1  14
ATOM     14  C   UNL d   1       0.357  -1.485   0.699  0.00  0.00     0.086 A 
ATOM     15  C   UNL d   1       0.048  -2.560  -0.136  0.00  0.00     0.026 A 
ATOM     16  C   UNL d   1      -0.613  -3.671   0.397  0.00  0.00     0.008 A 
ATOM     17  C   UNL d   1      -0.966  -3.711   1.754  0.00  0.00    -0.062 A 
ATOM     18  C   UNL d   1      -0.634  -2.629   2.580  0.00  0.00     0.008 A 
ATOM     19  C   UNL d   1      -1.705  -4.896   2.307  0.00  0.00     0.048 C 
ATOM     20  C   UNL d   1       0.027  -1.516   2.057  0.00  0.00     0.026 A 
ENDBRANCH   1  14
TORSDOF 5
