REMARK  7 active torsions:
REMARK  status: ('A' for Active; 'I' for Inactive)
REMARK    1  A    between atoms: O_17  and  C_1 
REMARK    2  A    between atoms: C_21  and  C_3 
REMARK    3  A    between atoms: C_6  and  C_23 
REMARK       I    between atoms: N_8  and  C_6 
REMARK    4  A    between atoms: O_22  and  C_7 
REMARK    5  A    between atoms: C_9  and  N_8 
REMARK    6  A    between atoms: S_15  and  C_21 
REMARK    7  A    between atoms: C_23  and  S_15 
ROOT
ATOM      1  S   UNL d   1      -2.175  -2.194   1.049  0.00  0.00    -0.155 SA
ENDROOT
BRANCH   1   2
ATOM      2  C   UNL d   1      -0.488  -2.422   0.391  0.00  0.00     0.114 C 
BRANCH   2   3
ATOM      3  C   UNL d   1       0.349  -1.163   0.395  0.00  0.00    -0.024 A 
ATOM      4  C   UNL d   1       0.752  -0.483  -0.775  0.00  0.00     0.077 A 
ATOM      5  C   UNL d   1       1.629   0.632  -0.709  0.00  0.00     0.123 A 
ATOM      6 CL   UNL d   1       0.100  -0.987  -2.308  0.00  0.00    -0.081 Cl
ATOM      7  C   UNL d   1       2.035   1.118   0.545  0.00  0.00     0.103 A 
ATOM      8  C   UNL d   1       1.589   0.469   1.703  0.00  0.00     0.040 A 
ATOM      9  C   UNL d   1       0.776  -0.660   1.633  0.00  0.00     0.012 A 
BRANCH   5  10
ATOM     10  O   UNL d   1       1.997   1.323  -1.838  0.00  0.00    -0.351 OA
ATOM     11  C   UNL d   1       2.766   0.558  -2.770  0.00  0.00     0.210 C 
ENDBRANCH   5  10
BRANCH   7  12
ATOM     12  O   UNL d   1       2.823   2.197   0.843  0.00  0.00    -0.353 OA
ATOM     13  C   UNL d   1       3.581   2.808  -0.189  0.00  0.00     0.210 C 
ENDBRANCH   7  12
ENDBRANCH   2   3
ENDBRANCH   1   2
BRANCH   1  14
ATOM     14  C   UNL d   1      -2.930  -1.379  -0.395  0.00  0.00     0.177 C 
BRANCH  14  15
ATOM     15  C   UNL d   1      -4.438  -1.178  -0.295  0.00  0.00     0.231 C 
ATOM     16  N   UNL d   1      -5.006  -1.466   0.929  0.00  0.00    -0.326 N 
ATOM     17  H   UNL d   1      -4.361  -1.841   1.620  0.00  0.00     0.169 HD
ATOM     18  O   UNL d   1      -5.045  -0.748  -1.277  0.00  0.00    -0.272 OA
BRANCH  16  19
ATOM     19  C   UNL d   1      -6.339  -1.252   1.335  0.00  0.00     0.036 A 
ATOM     20  C   UNL d   1      -7.336  -0.737   0.500  0.00  0.00     0.056 A 
ATOM     21  C   UNL d   1      -8.619  -0.492   0.999  0.00  0.00     0.074 A 
ATOM     22 CL   UNL d   1      -9.823   0.163  -0.044  0.00  0.00    -0.081 Cl
ATOM     23  C   UNL d   1      -8.912  -0.768   2.332  0.00  0.00     0.138 A 
ATOM     24  C   UNL d   1      -7.940  -1.303   3.167  0.00  0.00     0.046 A 
ATOM     25  F   UNL d   1     -10.131  -0.520   2.833  0.00  0.00    -0.204 F 
ATOM     26  C   UNL d   1      -6.657  -1.549   2.669  0.00  0.00     0.032 A 
ENDBRANCH  16  19
ENDBRANCH  14  15
ENDBRANCH   1  14
TORSDOF 7
