REMARK  6 active torsions:
REMARK  status: ('A' for Active; 'I' for Inactive)
REMARK    1  A    between atoms: C_2  and  C_1 
REMARK    2  A    between atoms: O_8  and  C_2 
REMARK    3  A    between atoms: N_4  and  O_8 
REMARK    4  A    between atoms: C_11  and  C_7 
REMARK    5  A    between atoms: N_19  and  C_7 
REMARK    6  A    between atoms: C_12  and  C_13 
ROOT
ATOM      1  N   UNL d   1       2.337   3.084   0.302  0.00  0.00    -0.246 N 
ATOM      2  HN  UNL d   1       1.405   3.364   0.605  1.00  0.00     0.196 HD
ATOM      3  C   UNL d   1       3.271   3.923  -0.040  0.00  0.00     0.109 C 
ENDROOT
BRANCH   3   4
ATOM      4  C   UNL d   1       2.945   5.386   0.017  0.00  0.00     0.004 A 
ATOM      5  C   UNL d   1       1.928   5.848   0.854  0.00  0.00     0.015 A 
ATOM      6  C   UNL d   1       1.619   7.214   0.903  0.00  0.00     0.009 A 
ATOM      7  C   UNL d   1       2.302   8.155   0.108  0.00  0.00    -0.051 A 
ATOM      8  C   UNL d   1       3.327   7.668  -0.722  0.00  0.00     0.009 A 
ATOM      9  C   UNL d   1       3.645   6.303  -0.771  0.00  0.00     0.015 A 
BRANCH   7  10
ATOM     10  C   UNL d   1       1.892   9.639   0.134  0.00  0.00    -0.024 C 
ATOM     11  C   UNL d   1       2.716  10.526  -0.828  0.00  0.00     0.019 C 
ATOM     12  C   UNL d   1       0.410   9.771  -0.284  0.00  0.00     0.019 C 
ATOM     13  C   UNL d   1       2.065  10.222   1.553  0.00  0.00     0.019 C 
ENDBRANCH   7  10
ENDBRANCH   3   4
BRANCH   3  14
ATOM     14  N   UNL d   1       4.534   3.542  -0.431  0.00  0.00    -0.286 NA
ATOM     15  H   UNL d   1       4.750   2.581  -0.189  0.00  0.00     0.125 HD
ATOM     16  H   UNL d   1       5.282   4.180  -0.181  0.00  0.00     0.125 HD
ENDBRANCH   3  14
BRANCH   1  17
ATOM     17  O   UNL d   1       2.763   1.741   0.205  0.00  0.00    -0.193 OA
BRANCH  17  18
ATOM     18  C   UNL d   1       1.715   0.893   0.493  0.00  0.00     0.323 C 
ATOM     19  O   UNL d   1       0.574   1.259   0.768  0.00  0.00    -0.257 OA
BRANCH  18  20
ATOM     20  C   UNL d   1       2.147  -0.498   0.450  0.00  0.00     0.103 A 
ATOM     21  C   UNL d   1       3.363  -1.091   0.155  0.00  0.00     0.057 A 
ATOM     22  C   UNL d   1       3.319  -2.517   0.257  0.00  0.00     0.032 A 
ATOM     23 CL   UNL d   1       4.826  -0.314  -0.289  0.00  0.00    -0.083 Cl
ATOM     24  C   UNL d   1       2.075  -2.978   0.621  0.00  0.00     0.052 A 
ATOM     25  S   UNL d   1       0.967  -1.703   0.835  0.00  0.00    -0.094 SA
ENDBRANCH  18  20
ENDBRANCH  17  18
ENDBRANCH   1  17
TORSDOF 6
