REMARK  0 active torsions:
REMARK  status: ('A' for Active; 'I' for Inactive)
ROOT
ATOM      1  N   UNL d   1      -2.783  -0.572  -0.030  0.00  0.00    -0.299 N 
ATOM      2  C   UNL d   1      -1.909  -1.609  -0.006  0.00  0.00     0.117 A 
ATOM      3  C   UNL d   1      -2.140   0.635  -0.040  0.00  0.00     0.260 A 
ATOM      4  C   UNL d   1      -0.567  -1.043  -0.008  0.00  0.00     0.024 A 
ATOM      5  C   UNL d   1      -0.709   0.336  -0.029  0.00  0.00     0.046 A 
ATOM      6  N   UNL d   1      -2.203  -2.849   0.017  0.00  0.00    -0.375 N 
ATOM      7  HN  UNL d   1      -1.463  -3.551   0.039  1.00  0.00     0.161 HD
ATOM      8  O   UNL d   1      -2.610   1.757  -0.047  0.00  0.00    -0.267 OA
ATOM      9  C   UNL d   1      -4.204  -0.724  -0.002  0.00  0.00     0.135 A 
ATOM     10  C   UNL d   1      -3.606  -3.259   0.011  0.00  0.00     0.123 A 
ATOM     11  C   UNL d   1       0.677  -1.643   0.010  0.00  0.00     0.016 A 
ATOM     12  C   UNL d   1       0.377   1.189  -0.030  0.00  0.00     0.018 A 
ATOM     13  C   UNL d   1      -4.670  -2.166  -0.003  0.00  0.00     0.040 A 
ATOM     14  C   UNL d   1       1.646   0.605  -0.011  0.00  0.00     0.001 A 
ATOM     15  C   UNL d   1       1.795  -0.799   0.008  0.00  0.00     0.001 A 
ENDROOT
TORSDOF 0
