REMARK  2 active torsions:
REMARK  status: ('A' for Active; 'I' for Inactive)
REMARK    1  A    between atoms: C_2  and  C_1 
REMARK       I    between atoms: N_8  and  C_2 
REMARK    2  A    between atoms: C_13  and  N_8 
ROOT
ATOM      1  C   UNL d   1       3.907   2.155  -1.645  0.00  0.00     0.294 A 
ATOM      2  C   UNL d   1       2.876   2.839  -0.875  0.00  0.00     0.050 A 
ATOM      3  O   UNL d   1       5.107   2.621  -1.184  0.00  0.00    -0.313 OA
ATOM      4  C   UNL d   1       3.479   3.712   0.003  0.00  0.00    -0.018 A 
ATOM      5  C   UNL d   1       1.504   2.680  -0.954  0.00  0.00     0.048 A 
ATOM      6  C   UNL d   1       0.702   3.437  -0.096  0.00  0.00     0.036 A 
ATOM      7  C   UNL d   1       4.944   3.593  -0.129  0.00  0.00     0.218 A 
ATOM      8  O   UNL d   1       3.738   1.337  -2.525  0.00  0.00    -0.259 OA
ATOM      9  C   UNL d   1       2.708   4.505   0.832  0.00  0.00     0.012 A 
ATOM     10  C   UNL d   1       1.312   4.371   0.770  0.00  0.00     0.030 A 
ENDROOT
BRANCH   6  11
ATOM     11  N   UNL d   1      -0.704   3.307  -0.037  0.00  0.00    -0.321 N 
ATOM     12  C   UNL d   1      -1.458   2.278  -0.585  0.00  0.00     0.281 C 
ATOM     13  O   UNL d   1      -0.990   1.317  -1.190  0.00  0.00    -0.265 OA
ATOM     14  H   UNL d   1      -1.208   3.970   0.542  0.00  0.00     0.169 HD
BRANCH  12  15
ATOM     15  C   UNL d   1      -2.881   2.383  -0.360  0.00  0.00     0.167 A 
ATOM     16  O   UNL d   1      -3.398   3.474   0.274  0.00  0.00    -0.233 OA
ATOM     17  N   UNL d   1      -4.777   3.344   0.361  0.00  0.00    -0.272 N 
ATOM     18  C   UNL d   1      -5.061   2.175  -0.220  0.00  0.00     0.117 A 
ATOM     19  HN  UNL d   1      -5.434   4.002   0.780  1.00  0.00     0.194 HD
ATOM     20  C   UNL d   1      -3.908   1.527  -0.686  0.00  0.00     0.064 A 
ENDBRANCH  12  15
ENDBRANCH   6  11
TORSDOF 2
