REMARK  6 active torsions:
REMARK  status: ('A' for Active; 'I' for Inactive)
REMARK    1  A    between atoms: C_7  and  C_1 
REMARK    2  A    between atoms: C_11  and  N_2 
REMARK    3  A    between atoms: C_12  and  C_6 
REMARK       I    between atoms: N_9  and  C_7 
REMARK       I    between atoms: C_8  and  N_10 
REMARK    4  A    between atoms: C_13  and  C_8 
REMARK    5  A    between atoms: N_10  and  N_9 
REMARK    6  A    between atoms: C_16  and  C_11 
ROOT
ATOM      1  C   UNL d   1      -0.224  -1.008  -0.187  0.00  0.00     0.122 C 
ATOM      2  N   UNL d   1       0.967  -0.333  -0.076  0.00  0.00    -0.282 N 
ATOM      3  N   UNL d   1       0.837   1.006  -0.167  0.00  0.00    -0.301 N 
ATOM      4  HN  UNL d   1       1.579   1.695  -0.289  1.00  0.00     0.187 HD
ATOM      5  C   UNL d   1      -1.179  -0.004  -0.056  0.00  0.00     0.064 C 
ATOM      6  C   UNL d   1      -0.476   1.232  -0.061  0.00  0.00     0.036 C 
ENDROOT
BRANCH   1   7
ATOM      7  C   UNL d   1      -0.439  -2.452  -0.253  0.00  0.00     0.288 C 
ATOM      8  N   UNL d   1       0.471  -3.184  -1.026  0.00  0.00    -0.262 N 
ATOM      9  H   UNL d   1       1.141  -2.729  -1.620  0.00  0.00     0.190 HD
ATOM     10  O   UNL d   1      -1.380  -3.009   0.301  0.00  0.00    -0.264 OA
BRANCH   8  11
ATOM     11  N   UNL d   1       0.313  -4.582  -1.065  0.00  0.00    -0.267 N 
ATOM     12  C   UNL d   1       0.728  -5.509  -1.983  0.00  0.00     0.243 C 
ATOM     13  O   UNL d   1       0.203  -6.628  -1.873  0.00  0.00    -0.271 OA
ATOM     14  H   UNL d   1      -0.466  -4.919  -0.491  0.00  0.00     0.190 HD
BRANCH  12  15
ATOM     15  C   UNL d   1       1.887  -5.321  -2.997  0.00  0.00     0.032 C 
ATOM     16  C   UNL d   1       3.221  -5.554  -2.269  0.00  0.00     0.025 C 
ATOM     17  C   UNL d   1       1.755  -6.414  -4.093  0.00  0.00     0.025 C 
ATOM     18  C   UNL d   1       1.918  -3.983  -3.739  0.00  0.00     0.025 C 
ENDBRANCH  12  15
ENDBRANCH   8  11
ENDBRANCH   1   7
BRANCH   2  19
ATOM     19  C   UNL d   1       2.286  -0.844   0.281  0.00  0.00     0.188 C 
BRANCH  19  20
ATOM     20  C   UNL d   1       2.401  -1.013   1.774  0.00  0.00    -0.038 A 
ATOM     21  C   UNL d   1       2.127  -2.249   2.375  0.00  0.00     0.009 A 
ATOM     22  C   UNL d   1       2.173  -2.383   3.763  0.00  0.00     0.001 A 
ATOM     23  C   UNL d   1       2.494  -1.287   4.562  0.00  0.00     0.000 A 
ATOM     24  C   UNL d   1       2.768  -0.053   3.976  0.00  0.00     0.001 A 
ATOM     25  C   UNL d   1       2.718   0.085   2.590  0.00  0.00     0.009 A 
ENDBRANCH  19  20
ENDBRANCH   2  19
BRANCH   6  26
ATOM     26  C   UNL d   1      -0.972   2.676   0.008  0.00  0.00    -0.007 C 
ATOM     27  C   UNL d   1      -2.508   2.775   0.029  0.00  0.00     0.021 C 
ATOM     28  C   UNL d   1      -0.437   3.378   1.278  0.00  0.00     0.021 C 
ATOM     29  C   UNL d   1      -0.460   3.463  -1.220  0.00  0.00     0.021 C 
ENDBRANCH   6  26
TORSDOF 6
