REMARK  4 active torsions:
REMARK  status: ('A' for Active; 'I' for Inactive)
REMARK       I    between atoms: C_2  and  N_5 
REMARK    1  A    between atoms: C_10  and  C_2 
REMARK    2  A    between atoms: N_5  and  C_14 
REMARK    3  A    between atoms: C_13  and  N_6 
REMARK    4  A    between atoms: C_15  and  C_13 
ROOT
ATOM      1  C   UNL d   1      -4.098  -3.655   3.351  0.00  0.00     0.035 A 
ATOM      2  C   UNL d   1      -2.998  -1.240   2.358  0.00  0.00    -0.030 A 
ATOM      3  C   UNL d   1      -2.893  -3.647   2.646  0.00  0.00     0.030 A 
ATOM      4  C   UNL d   1      -4.741  -2.431   3.575  0.00  0.00     0.030 A 
ATOM      5  C   UNL d   1      -4.196  -1.232   3.084  0.00  0.00     0.011 A 
ATOM      6  C   UNL d   1      -2.350  -2.460   2.156  0.00  0.00     0.011 A 
ENDROOT
BRANCH   1   7
ATOM      7  N   UNL d   1      -4.706  -4.847   3.824  0.00  0.00    -0.323 N 
ATOM      8  C   UNL d   1      -4.200  -6.127   3.668  0.00  0.00     0.256 C 
ATOM      9  O   UNL d   1      -3.114  -6.418   3.169  0.00  0.00    -0.267 OA
ATOM     10  H   UNL d   1      -5.572  -4.732   4.335  0.00  0.00     0.169 HD
BRANCH   8  11
ATOM     11  C   UNL d   1      -5.024  -7.269   4.153  0.00  0.00     0.032 A 
ATOM     12  C   UNL d   1      -6.418  -7.230   4.258  0.00  0.00     0.017 A 
ATOM     13  C   UNL d   1      -7.118  -8.383   4.632  0.00  0.00     0.001 A 
ATOM     14  C   UNL d   1      -6.435  -9.573   4.896  0.00  0.00     0.000 A 
ATOM     15  C   UNL d   1      -5.048  -9.617   4.794  0.00  0.00     0.001 A 
ATOM     16  C   UNL d   1      -4.348  -8.472   4.426  0.00  0.00     0.017 A 
ENDBRANCH   8  11
ENDBRANCH   1   7
BRANCH   2  17
ATOM     17  C   UNL d   1      -2.403   0.017   1.766  0.00  0.00     0.311 C 
BRANCH  17  18
ATOM     18  N   UNL d   1      -1.943   1.008   2.753  0.00  0.00     0.094 N 
ATOM     19  C   UNL d   1      -0.931   0.513   3.702  0.00  0.00     0.287 C 
ATOM     20  C   UNL d   1       0.408   0.137   3.094  0.00  0.00     0.170 C 
ATOM     21  S   UNL d   1       1.114   1.508   2.219  0.00  0.00     0.147 S 
ATOM     22  C   UNL d   1      -0.243   2.123   1.253  0.00  0.00     0.170 C 
ATOM     23  O   UNL d   1       2.104   0.983   1.297  0.00  0.00    -0.228 OA
ATOM     24  O   UNL d   1       1.477   2.528   3.183  0.00  0.00    -0.228 OA
ATOM     25  C   UNL d   1      -1.493   2.255   2.109  0.00  0.00     0.287 C 
ENDBRANCH  17  18
ENDBRANCH   2  17
TORSDOF 4
