REMARK  5 active torsions:
REMARK  status: ('A' for Active; 'I' for Inactive)
REMARK    1  A    between atoms: C_8  and  C_1 
REMARK    2  A    between atoms: N_7  and  C_2 
REMARK    3  A    between atoms: S_3  and  N_7 
REMARK    4  A    between atoms: C_9  and  S_3 
REMARK    5  A    between atoms: C_12  and  C_6 
REMARK       I    between atoms: N_16  and  C_8 
ROOT
ATOM      1  C   UNL d   1      -0.034   1.272  -0.011  0.00  0.00     0.100 A 
ATOM      2  C   UNL d   1       1.294   0.883  -0.013  0.00  0.00     0.066 A 
ATOM      3  S   UNL d   1      -1.077  -0.084  -0.059  0.00  0.00    -0.082 SA
ATOM      4  C   UNL d   1       1.429  -0.542   0.019  0.00  0.00     0.051 A 
ATOM      5  C   UNL d   1       0.214  -1.206   0.020  0.00  0.00     0.018 A 
ENDROOT
BRANCH   2   6
ATOM      6  N   UNL d   1       2.393   1.758   0.003  0.00  0.00    -0.279 N 
ATOM      7  H   UNL d   1       2.968   1.779   0.846  0.00  0.00     0.179 HD
BRANCH   6   8
ATOM      8  S   UNL d   1       3.393   1.948  -1.350  0.00  0.00     0.263 S 
ATOM      9  O   UNL d   1       4.577   2.644  -0.889  0.00  0.00    -0.200 OA
ATOM     10  O   UNL d   1       3.496   0.675  -2.033  0.00  0.00    -0.200 OA
BRANCH   8  11
ATOM     11  C   UNL d   1       2.490   3.075  -2.384  0.00  0.00     0.080 A 
ATOM     12  C   UNL d   1       2.045   4.295  -1.864  0.00  0.00     0.028 A 
ATOM     13  C   UNL d   1       1.321   5.166  -2.681  0.00  0.00     0.044 A 
ATOM     14  C   UNL d   1       1.065   4.818  -4.003  0.00  0.00     0.116 A 
ATOM     15  C   UNL d   1       1.517   3.611  -4.529  0.00  0.00     0.044 A 
ATOM     16  F   UNL d   1       0.371   5.657  -4.784  0.00  0.00    -0.206 F 
ATOM     17  C   UNL d   1       2.232   2.730  -3.717  0.00  0.00     0.028 A 
ENDBRANCH   8  11
ENDBRANCH   6   8
ENDBRANCH   2   6
BRANCH   1  18
ATOM     18  C   UNL d   1      -0.584   2.614   0.056  0.00  0.00     0.258 C 
ATOM     19  O   UNL d   1       0.022   3.605   0.453  0.00  0.00    -0.267 OA
ATOM     20  N   UNL d   1      -1.880   2.762  -0.364  0.00  0.00    -0.365 N 
ATOM     21  H   UNL d   1      -2.418   1.983  -0.717  0.00  0.00     0.159 HD
ATOM     22  H   UNL d   1      -2.290   3.683  -0.335  0.00  0.00     0.159 HD
ENDBRANCH   1  18
BRANCH   5  23
ATOM     23  C   UNL d   1      -0.066  -2.652   0.039  0.00  0.00    -0.019 A 
ATOM     24  C   UNL d   1       0.777  -3.547  -0.636  0.00  0.00     0.013 A 
ATOM     25  C   UNL d   1       0.509  -4.920  -0.639  0.00  0.00     0.001 A 
ATOM     26  C   UNL d   1      -0.604  -5.419   0.034  0.00  0.00     0.000 A 
ATOM     27  C   UNL d   1      -1.447  -4.548   0.717  0.00  0.00     0.001 A 
ATOM     28  C   UNL d   1      -1.177  -3.178   0.723  0.00  0.00     0.013 A 
ENDBRANCH   5  23
TORSDOF 5
