REMARK  6 active torsions:
REMARK  status: ('A' for Active; 'I' for Inactive)
REMARK    1  A    between atoms: O_19  and  C_1 
REMARK    2  A    between atoms: C_3  and  O_14 
REMARK    3  A    between atoms: C_4  and  C_3 
REMARK    4  A    between atoms: C_16  and  C_5 
REMARK    5  A    between atoms: O_14  and  N_7 
REMARK    6  A    between atoms: O_20  and  C_9 
ROOT
ATOM      1  C   UNL d   1       0.121   1.190   0.305  0.00  0.00     0.124 A 
ATOM      2  C   UNL d   1      -0.543  -0.065   0.343  0.00  0.00     0.081 A 
ATOM      3  C   UNL d   1       0.161  -1.244   0.044  0.00  0.00     0.006 A 
ATOM      4  C   UNL d   1       1.504   1.232   0.043  0.00  0.00     0.103 A 
ATOM      5  C   UNL d   1       1.532  -1.185  -0.220  0.00  0.00     0.017 A 
ATOM      6  C   UNL d   1       2.192   0.039  -0.207  0.00  0.00     0.040 A 
ATOM      7 CL   UNL d   1      -2.204  -0.167   0.854  0.00  0.00    -0.080 Cl
ENDROOT
BRANCH   3   8
ATOM      8  C   UNL d   1      -0.498  -2.571  -0.020  0.00  0.00     0.127 C 
ATOM      9  N   UNL d   1       0.191  -3.644  -0.251  0.00  0.00    -0.268 N 
ATOM     10  HN  UNL d   1       1.204  -3.674  -0.370  1.00  0.00     0.194 HD
BRANCH   9  11
ATOM     11  O   UNL d   1      -0.662  -4.763  -0.314  0.00  0.00    -0.195 OA
BRANCH  11  12
ATOM     12  C   UNL d   1       0.074  -5.901  -0.564  0.00  0.00     0.322 C 
ATOM     13  O   UNL d   1       1.299  -5.954  -0.637  0.00  0.00    -0.257 OA
BRANCH  12  14
ATOM     14  C   UNL d   1      -0.787  -7.065  -0.742  0.00  0.00     0.082 A 
ATOM     15  S   UNL d   1      -2.498  -6.978  -0.699  0.00  0.00    -0.096 SA
ATOM     16  C   UNL d   1      -2.664  -8.653  -0.999  0.00  0.00     0.050 A 
ATOM     17  C   UNL d   1      -1.443  -9.277  -1.127  0.00  0.00     0.009 A 
ATOM     18  C   UNL d   1      -0.364  -8.361  -0.981  0.00  0.00     0.026 A 
ENDBRANCH  12  14
ENDBRANCH  11  12
ENDBRANCH   9  11
ENDBRANCH   3   8
BRANCH   1  19
ATOM     19  O   UNL d   1      -0.517   2.360   0.641  0.00  0.00    -0.351 OA
ATOM     20  C   UNL d   1      -1.635   2.696  -0.183  0.00  0.00     0.210 C 
ENDBRANCH   1  19
BRANCH   4  21
ATOM     21  O   UNL d   1       2.349   2.309   0.006  0.00  0.00    -0.353 OA
ATOM     22  C   UNL d   1       1.817   3.622   0.064  0.00  0.00     0.210 C 
ENDBRANCH   4  21
TORSDOF 6
