REMARK  5 active torsions:
REMARK  status: ('A' for Active; 'I' for Inactive)
REMARK    1  A    between atoms: C_3  and  N_1 
REMARK    2  A    between atoms: O_6  and  C_2 
REMARK    3  A    between atoms: C_7  and  C_3 
REMARK    4  A    between atoms: C_8  and  C_3 
REMARK    5  A    between atoms: C_9  and  O_6 
ROOT
ATOM      1  C   UNL d   1       0.716   2.110   0.607  0.00  0.00     0.289 C 
ENDROOT
BRANCH   1   2
ATOM      2  N   UNL d   1       0.324   0.996  -0.288  0.00  0.00     0.106 N 
ATOM      3  C   UNL d   1      -1.136   0.711  -0.232  0.00  0.00     0.307 C 
ATOM      4  C   UNL d   1      -0.791  -0.799  -0.271  0.00  0.00     0.185 C 
ATOM      5  C   UNL d   1       0.557  -0.331   0.345  0.00  0.00     0.307 C 
BRANCH   4   6
ATOM      6  O   UNL d   1      -0.692  -1.442  -1.566  0.00  0.00    -0.342 OA
BRANCH   6   7
ATOM      7  C   UNL d   1      -1.837  -1.713  -2.272  0.00  0.00     0.069 A 
ATOM      8  C   UNL d   1      -3.136  -1.554  -1.792  0.00  0.00     0.037 A 
ATOM      9  C   UNL d   1      -4.227  -1.876  -2.607  0.00  0.00     0.003 A 
ATOM     10  C   UNL d   1      -4.021  -2.358  -3.899  0.00  0.00     0.000 A 
ATOM     11  C   UNL d   1      -2.724  -2.518  -4.380  0.00  0.00     0.003 A 
ATOM     12  C   UNL d   1      -1.636  -2.196  -3.567  0.00  0.00     0.037 A 
ENDBRANCH   6   7
ENDBRANCH   4   6
ENDBRANCH   1   2
BRANCH   1  13
ATOM     13  C   UNL d   1       2.233   2.328   0.578  0.00  0.00    -0.021 A 
ATOM     14  C   UNL d   1       2.898   2.624  -0.627  0.00  0.00     0.010 A 
ATOM     15  C   UNL d   1       4.266   2.903  -0.642  0.00  0.00     0.001 A 
ATOM     16  C   UNL d   1       4.994   2.877   0.542  0.00  0.00     0.000 A 
ATOM     17  C   UNL d   1       4.360   2.561   1.741  0.00  0.00     0.001 A 
ATOM     18  C   UNL d   1       2.988   2.289   1.762  0.00  0.00     0.010 A 
ENDBRANCH   1  13
BRANCH   1  19
ATOM     19  C   UNL d   1      -0.013   3.425   0.287  0.00  0.00    -0.021 A 
ATOM     20  C   UNL d   1      -0.290   4.337   1.320  0.00  0.00     0.010 A 
ATOM     21  C   UNL d   1      -0.960   5.533   1.055  0.00  0.00     0.001 A 
ATOM     22  C   UNL d   1      -1.358   5.837  -0.247  0.00  0.00     0.000 A 
ATOM     23  C   UNL d   1      -1.071   4.957  -1.286  0.00  0.00     0.001 A 
ATOM     24  C   UNL d   1      -0.395   3.766  -1.023  0.00  0.00     0.010 A 
ENDBRANCH   1  19
TORSDOF 5
