REMARK  2 active torsions:
REMARK  status: ('A' for Active; 'I' for Inactive)
REMARK    1  A    between atoms: C_2  and  C_1 
REMARK       I    between atoms: N_11  and  C_2 
REMARK    2  A    between atoms: C_14  and  N_11 
ROOT
ATOM      1  C   UNL d   1      -0.306  -2.644   0.610  0.00  0.00     0.266 C 
ATOM      2  N   UNL d   1       0.766  -3.298   0.012  0.00  0.00    -0.322 N 
ATOM      3  O   UNL d   1      -0.176  -1.661   1.331  0.00  0.00    -0.267 OA
ATOM      4  H   UNL d   1       0.542  -4.039  -0.639  0.00  0.00     0.169 HD
ENDROOT
BRANCH   2   5
ATOM      5  C   UNL d   1       2.130  -2.930   0.100  0.00  0.00     0.036 A 
ATOM      6  C   UNL d   1       2.616  -1.978   1.000  0.00  0.00     0.048 A 
ATOM      7  C   UNL d   1       3.955  -1.636   0.928  0.00  0.00     0.050 A 
ATOM      8  C   UNL d   1       4.679  -0.658   1.730  0.00  0.00     0.294 A 
ATOM      9  C   UNL d   1       4.822  -2.200   0.019  0.00  0.00    -0.018 A 
ATOM     10  O   UNL d   1       5.964  -0.648   1.260  0.00  0.00    -0.313 OA
ATOM     11  O   UNL d   1       4.235   0.013   2.638  0.00  0.00    -0.259 OA
ATOM     12  C   UNL d   1       6.150  -1.572   0.166  0.00  0.00     0.218 A 
ATOM     13  C   UNL d   1       4.379  -3.178  -0.851  0.00  0.00     0.012 A 
ATOM     14  C   UNL d   1       3.027  -3.549  -0.799  0.00  0.00     0.030 A 
ENDBRANCH   2   5
BRANCH   1  15
ATOM     15  C   UNL d   1      -1.622  -3.162   0.293  0.00  0.00     0.110 A 
ATOM     16  C   UNL d   1      -2.878  -2.616   0.546  0.00  0.00     0.043 A 
ATOM     17  N   UNL d   1      -3.945  -3.397   0.108  0.00  0.00    -0.296 N 
ATOM     18  C   UNL d   1      -3.218  -1.324   1.200  0.00  0.00     0.071 C 
ATOM     19  N   UNL d   1      -3.541  -4.517  -0.463  0.00  0.00    -0.061 NA
ATOM     20  HN  UNL d   1      -4.925  -3.135   0.217  1.00  0.00     0.183 HD
ATOM     21  S   UNL d   1      -1.882  -4.665  -0.490  0.00  0.00     0.007 SA
ENDBRANCH   1  15
TORSDOF 2
