REMARK  2 active torsions:
REMARK  status: ('A' for Active; 'I' for Inactive)
REMARK    1  A    between atoms: C_9  and  N_5 
REMARK    2  A    between atoms: N_7  and  C_10 
ROOT
ATOM      1  N   UNL d   1      -3.513   2.668   0.029  0.00  0.00    -0.284 N 
ATOM      2  HN  UNL d   1      -2.609   3.138   0.078  1.00  0.00     0.188 HD
ATOM      3  N   UNL d   1      -3.649   1.428  -0.024  0.00  0.00    -0.284 N 
ATOM      4  HN  UNL d   1      -4.556   0.964  -0.073  1.00  0.00     0.188 HD
ENDROOT
BRANCH   1   5
ATOM      5  C   UNL d   1      -4.748   3.345   0.014  0.00  0.00     0.120 A 
ATOM      6  N   UNL d   1      -5.845   2.740   0.537  0.00  0.00    -0.341 N 
ATOM      7  C   UNL d   1      -7.007   3.416   0.553  0.00  0.00     0.043 A 
ATOM      8  HN  UNL d   1      -5.789   1.792   0.911  1.00  0.00     0.167 HD
ATOM      9  C   UNL d   1      -8.141   2.816   1.087  0.00  0.00     0.030 A 
ATOM     10  C   UNL d   1      -7.129   4.729   0.051  0.00  0.00    -0.009 A 
ATOM     11  C   UNL d   1      -9.373   3.477   1.136  0.00  0.00     0.002 A 
ATOM     12  C   UNL d   1      -9.484   4.771   0.641  0.00  0.00     0.001 A 
ATOM     13  C   UNL d   1      -8.365   5.398   0.097  0.00  0.00     0.013 A 
ATOM     14  C   UNL d   1      -5.987   5.333  -0.483  0.00  0.00     0.017 A 
ATOM     15  C   UNL d   1      -4.784   4.635  -0.498  0.00  0.00     0.051 A 
ENDBRANCH   1   5
BRANCH   3  16
ATOM     16  C   UNL d   1      -2.422   0.733  -0.009  0.00  0.00     0.120 A 
ATOM     17  N   UNL d   1      -1.252   1.420   0.041  0.00  0.00    -0.341 N 
ATOM     18  C   UNL d   1      -0.097   0.730   0.048  0.00  0.00     0.043 A 
ATOM     19  HN  UNL d   1      -1.249   2.439   0.072  1.00  0.00     0.167 HD
ATOM     20  C   UNL d   1      -0.056  -0.680  -0.002  0.00  0.00    -0.009 A 
ATOM     21  C   UNL d   1       1.110   1.414   0.107  0.00  0.00     0.030 A 
ATOM     22  C   UNL d   1      -1.271  -1.369  -0.055  0.00  0.00     0.017 A 
ATOM     23  C   UNL d   1       1.177  -1.358   0.003  0.00  0.00     0.013 A 
ATOM     24  C   UNL d   1      -2.464  -0.654  -0.057  0.00  0.00     0.051 A 
ATOM     25  C   UNL d   1       2.372  -0.644   0.061  0.00  0.00     0.001 A 
ATOM     26  C   UNL d   1       2.338   0.745   0.114  0.00  0.00     0.002 A 
ENDBRANCH   3  16
TORSDOF 2
