REMARK  12 active torsions:
REMARK  status: ('A' for Active; 'I' for Inactive)
REMARK    1  A    between atoms: C_19  and  C_11 
REMARK    2  A    between atoms: C_20  and  C_12 
REMARK    3  A    between atoms: C_21  and  C_13 
REMARK    4  A    between atoms: C_22  and  C_14 
REMARK    5  A    between atoms: O_52  and  C_35 
REMARK    6  A    between atoms: O_51  and  C_36 
REMARK    7  A    between atoms: O_53  and  C_37 
REMARK    8  A    between atoms: O_54  and  C_38 
REMARK    9  A    between atoms: O_56  and  C_43 
REMARK   10  A    between atoms: O_57  and  C_44 
REMARK   11  A    between atoms: O_55  and  C_45 
REMARK   12  A    between atoms: O_58  and  C_46 
ROOT
ATOM      1  C   UNL d   1       2.775   1.227  -0.061  0.00  0.00     0.046 A 
ATOM      2  C   UNL d   1      -2.873   1.014   0.055  0.00  0.00     0.046 A 
ATOM      3  C   UNL d   1      -1.248   2.877   0.091  0.00  0.00     0.046 A 
ATOM      4  C   UNL d   1       1.013   2.964   0.003  0.00  0.00     0.046 A 
ATOM      5  C   UNL d   1       1.249  -2.812   0.071  0.00  0.00     0.046 A 
ATOM      6  C   UNL d   1      -1.043  -2.899   0.079  0.00  0.00     0.046 A 
ATOM      7  N   UNL d   1      -2.001  -0.063   0.087  0.00  0.00    -0.355 N 
ATOM      8  HN  UNL d   1      -0.983  -0.030   0.130  1.00  0.00     0.166 HD
ATOM      9  N   UNL d   1       1.989   0.086  -0.038  0.00  0.00    -0.355 N 
ATOM     10  HN  UNL d   1       0.970   0.040  -0.030  1.00  0.00     0.166 HD
ATOM     11  C   UNL d   1       2.378   2.521  -0.043  0.00  0.00     0.028 A 
ATOM     12  C   UNL d   1      -2.575   2.334   0.068  0.00  0.00     0.028 A 
ATOM     13  C   UNL d   1       2.525  -2.387   0.021  0.00  0.00     0.028 A 
ATOM     14  C   UNL d   1      -2.347  -2.571   0.056  0.00  0.00     0.028 A 
ATOM     15  C   UNL d   1       2.826  -0.920  -0.028  0.00  0.00     0.046 A 
ATOM     16  C   UNL d   1      -2.758  -1.130   0.051  0.00  0.00     0.046 A 
ATOM     17  N   UNL d   1       0.075  -2.103   0.089  0.00  0.00    -0.355 N 
ATOM     18  N   UNL d   1      -0.088   2.125   0.025  0.00  0.00    -0.355 N 
ATOM     19  C   UNL d   1      -4.216   0.477  -0.012  0.00  0.00     0.033 A 
ATOM     20  C   UNL d   1       4.157   0.793  -0.076  0.00  0.00     0.033 A 
ATOM     21  C   UNL d   1      -0.864   4.208   0.141  0.00  0.00     0.033 A 
ATOM     22  C   UNL d   1      -0.515  -4.261   0.093  0.00  0.00     0.033 A 
ATOM     23  C   UNL d   1       0.825  -4.210   0.100  0.00  0.00     0.033 A 
ATOM     24  C   UNL d   1       0.531   4.262   0.049  0.00  0.00     0.033 A 
ATOM     25  C   UNL d   1       4.244  -0.532  -0.064  0.00  0.00     0.033 A 
ATOM     26  C   UNL d   1      -4.202  -0.849  -0.005  0.00  0.00     0.033 A 
ATOM     27  H   UNL d   1       0.037  -1.089   0.048  0.00  0.00     0.166 HD
ATOM     28  H   UNL d   1      -0.051   1.113  -0.010  0.00  0.00     0.166 HD
ENDROOT
BRANCH  11  29
ATOM     29  C   UNL d   1       3.452   3.558   0.034  0.00  0.00    -0.019 A 
ATOM     30  C   UNL d   1       3.847   4.018   1.300  0.00  0.00     0.052 A 
ATOM     31  C   UNL d   1       4.820   5.015   1.446  0.00  0.00     0.102 A 
ATOM     32  C   UNL d   1       5.410   5.558   0.289  0.00  0.00     0.101 A 
ATOM     33  C   UNL d   1       5.009   5.090  -0.975  0.00  0.00     0.040 A 
ATOM     34  C   UNL d   1       4.035   4.102  -1.110  0.00  0.00     0.015 A 
BRANCH  31  35
ATOM     35  O   UNL d   1       5.218   5.481   2.671  0.00  0.00    -0.353 OA
ATOM     36  C   UNL d   1       4.576   4.962   3.829  0.00  0.00     0.210 C 
ENDBRANCH  31  35
BRANCH  32  37
ATOM     37  O   UNL d   1       6.366   6.537   0.197  0.00  0.00    -0.353 OA
ATOM     38  C   UNL d   1       6.868   7.117   1.391  0.00  0.00     0.210 C 
ENDBRANCH  32  37
ENDBRANCH  11  29
BRANCH  12  39
ATOM     39  C   UNL d   1      -3.722   3.291  -0.026  0.00  0.00    -0.019 A 
ATOM     40  C   UNL d   1      -4.120   3.744  -1.292  0.00  0.00     0.052 A 
ATOM     41  C   UNL d   1      -5.158   4.676  -1.442  0.00  0.00     0.102 A 
ATOM     42  C   UNL d   1      -5.804   5.160  -0.289  0.00  0.00     0.101 A 
ATOM     43  C   UNL d   1      -5.398   4.702   0.976  0.00  0.00     0.040 A 
ATOM     44  C   UNL d   1      -4.362   3.775   1.115  0.00  0.00     0.015 A 
BRANCH  41  45
ATOM     45  O   UNL d   1      -5.565   5.133  -2.666  0.00  0.00    -0.353 OA
ATOM     46  C   UNL d   1      -4.878   4.667  -3.821  0.00  0.00     0.210 C 
ENDBRANCH  41  45
BRANCH  42  47
ATOM     47  O   UNL d   1      -6.824   6.073  -0.201  0.00  0.00    -0.353 OA
ATOM     48  C   UNL d   1      -7.343   6.638  -1.395  0.00  0.00     0.210 C 
ENDBRANCH  42  47
ENDBRANCH  12  39
BRANCH  13  49
ATOM     49  C   UNL d   1       3.620  -3.381   0.021  0.00  0.00    -0.019 A 
ATOM     50  C   UNL d   1       4.162  -3.829   1.237  0.00  0.00     0.052 A 
ATOM     51  C   UNL d   1       5.182  -4.793   1.270  0.00  0.00     0.102 A 
ATOM     52  C   UNL d   1       5.662  -5.315   0.055  0.00  0.00     0.101 A 
ATOM     53  C   UNL d   1       5.110  -4.865  -1.156  0.00  0.00     0.040 A 
ATOM     54  C   UNL d   1       4.100  -3.905  -1.179  0.00  0.00     0.015 A 
BRANCH  51  55
ATOM     55  O   UNL d   1       5.729  -5.253   2.438  0.00  0.00    -0.353 OA
ATOM     56  C   UNL d   1       5.260  -4.715   3.667  0.00  0.00     0.210 C 
ENDBRANCH  51  55
BRANCH  52  57
ATOM     57  O   UNL d   1       6.645  -6.249  -0.149  0.00  0.00    -0.353 OA
ATOM     58  C   UNL d   1       7.299  -6.819   0.973  0.00  0.00     0.210 C 
ENDBRANCH  52  57
ENDBRANCH  13  49
BRANCH  14  59
ATOM     59  C   UNL d   1      -3.374  -3.634   0.036  0.00  0.00    -0.019 A 
ATOM     60  C   UNL d   1      -3.830  -4.193   1.241  0.00  0.00     0.052 A 
ATOM     61  C   UNL d   1      -4.827  -5.181   1.254  0.00  0.00     0.102 A 
ATOM     62  C   UNL d   1      -5.373  -5.610   0.029  0.00  0.00     0.101 A 
ATOM     63  C   UNL d   1      -4.907  -5.048  -1.170  0.00  0.00     0.040 A 
ATOM     64  C   UNL d   1      -3.912  -4.073  -1.174  0.00  0.00     0.015 A 
BRANCH  61  65
ATOM     65  O   UNL d   1      -5.295  -5.744   2.409  0.00  0.00    -0.353 OA
ATOM     66  C   UNL d   1      -4.726  -5.336   3.646  0.00  0.00     0.210 C 
ENDBRANCH  61  65
BRANCH  62  67
ATOM     67  O   UNL d   1      -6.347  -6.549  -0.193  0.00  0.00    -0.353 OA
ATOM     68  C   UNL d   1      -6.941  -7.203   0.918  0.00  0.00     0.210 C 
ENDBRANCH  62  67
ENDBRANCH  14  59
TORSDOF 12
