REMARK  3 active torsions:
REMARK  status: ('A' for Active; 'I' for Inactive)
REMARK    1  A    between atoms: N_15  and  C_10 
REMARK    2  A    between atoms: N_12  and  N_15 
REMARK    3  A    between atoms: C_14  and  C_17 
ROOT
ATOM      1  C   UNL d   1       0.133  -0.585  -0.007  0.00  0.00     0.136 A 
ATOM      2  C   UNL d   1       0.211   0.810  -0.006  0.00  0.00     0.039 A 
ATOM      3  N   UNL d   1       1.427  -1.029  -0.013  0.00  0.00    -0.280 N 
ATOM      4  N   UNL d   1       2.345  -0.043  -0.015  0.00  0.00    -0.301 N 
ATOM      5  HN  UNL d   1       3.361  -0.132  -0.020  1.00  0.00     0.187 HD
ATOM      6  C   UNL d   1       1.614   1.081  -0.010  0.00  0.00     0.036 A 
ATOM      7  N   UNL d   1      -0.977  -1.358  -0.002  0.00  0.00    -0.326 N 
ATOM      8  HN  UNL d   1      -0.944  -2.378  -0.003  1.00  0.00     0.169 HD
ATOM      9  C   UNL d   1      -1.003   1.523   0.002  0.00  0.00    -0.042 A 
ATOM     10  C   UNL d   1      -2.130  -0.662   0.007  0.00  0.00     0.121 A 
ATOM     11  C   UNL d   1      -2.167   0.736   0.007  0.00  0.00     0.057 A 
ATOM     12  C   UNL d   1       1.880  -2.397  -0.012  0.00  0.00     0.179 C 
ATOM     13  C   UNL d   1       2.347   2.372  -0.007  0.00  0.00     0.070 C 
ATOM     14  C   UNL d   1      -1.198   3.012   0.005  0.00  0.00     0.049 C 
ENDROOT
BRANCH  10  15
ATOM     15  N   UNL d   1      -3.343  -1.382   0.024  0.00  0.00    -0.286 N 
ATOM     16  H   UNL d   1      -3.244  -2.389   0.020  0.00  0.00     0.188 HD
BRANCH  15  17
ATOM     17  N   UNL d   1      -4.508  -0.701   0.029  0.00  0.00    -0.309 N 
ATOM     18  C   UNL d   1      -5.617  -1.363   0.085  0.00  0.00     0.120 C 
ATOM     19  HN  UNL d   1      -4.513   0.319  -0.012  1.00  0.00     0.186 HD
BRANCH  18  20
ATOM     20  C   UNL d   1      -6.899  -0.612   0.087  0.00  0.00     0.002 A 
ATOM     21  C   UNL d   1      -8.143  -1.246   0.149  0.00  0.00     0.045 A 
ATOM     22 CL   UNL d   1      -8.316  -2.960   0.254  0.00  0.00    -0.083 Cl
ATOM     23  C   UNL d   1      -9.315  -0.477   0.129  0.00  0.00     0.024 A 
ATOM     24  C   UNL d   1      -9.253   0.916   0.051  0.00  0.00     0.002 A 
ATOM     25  C   UNL d   1      -8.018   1.553  -0.003  0.00  0.00     0.001 A 
ATOM     26  C   UNL d   1      -6.848   0.793   0.017  0.00  0.00     0.014 A 
ENDBRANCH  18  20
ENDBRANCH  15  17
ENDBRANCH  10  15
TORSDOF 3
