REMARK  1 active torsions:
REMARK  status: ('A' for Active; 'I' for Inactive)
REMARK    1  A    between atoms: C_6  and  N_1 
ROOT
ATOM      1  C   UNL d   1      -2.867  -4.401  -2.052  0.00  0.00     0.289 A 
ATOM      2  S   UNL d   1      -2.897  -2.674  -2.448  0.00  0.00    -0.027 SA
ATOM      3  N   UNL d   1      -1.848  -4.652  -1.161  0.00  0.00    -0.316 N 
ATOM      4  C   UNL d   1      -1.515  -2.361  -1.383  0.00  0.00     0.039 A 
ATOM      5  C   UNL d   1       0.205  -1.175  -0.236  0.00  0.00     0.104 A 
ATOM      6  C   UNL d   1      -1.092  -3.547  -0.781  0.00  0.00     0.052 A 
ATOM      7  C   UNL d   1      -0.881  -1.158  -1.125  0.00  0.00     0.057 A 
ATOM      8  O   UNL d   1      -3.638  -5.228  -2.509  0.00  0.00    -0.260 OA
ATOM      9  C   UNL d   1      -0.024  -3.579   0.099  0.00  0.00     0.033 A 
ATOM     10  C   UNL d   1       0.634  -2.376   0.373  0.00  0.00     0.038 A 
ATOM     11  H   UNL d   1      -1.690  -5.592  -0.830  0.00  0.00     0.170 HD
ENDROOT
BRANCH   5  12
ATOM     12  N   UNL d   1       0.910   0.078   0.064  0.00  0.00    -0.116 N 
ATOM     13  O   UNL d   1       0.507   1.111  -0.487  0.00  0.00    -0.532 OA
ATOM     14  O   UNL d   1       1.866   0.025   0.851  0.00  0.00    -0.532 OA
ENDBRANCH   5  12
TORSDOF 1
