REMARK  9 active torsions:
REMARK  status: ('A' for Active; 'I' for Inactive)
REMARK    1  A    between atoms: N_5  and  C_1 
REMARK    2  A    between atoms: C_8  and  C_3 
REMARK    3  A    between atoms: C_13  and  N_4 
REMARK    4  A    between atoms: C_9  and  C_8 
REMARK    5  A    between atoms: C_10  and  C_8 
REMARK    6  A    between atoms: O_18  and  C_9 
REMARK    7  A    between atoms: O_17  and  C_10 
REMARK    8  A    between atoms: C_23  and  O_17 
REMARK    9  A    between atoms: C_24  and  O_18 
ROOT
ATOM      1  C   UNL d   1       2.432  -0.611  -0.157  0.00  0.00     0.179 A 
ATOM      2  C   UNL d   1       2.468   0.861  -0.119  0.00  0.00     0.286 A 
ATOM      3  C   UNL d   1       1.339  -1.397  -0.068  0.00  0.00     0.016 A 
ATOM      4  N   UNL d   1       1.224   1.488  -0.042  0.00  0.00    -0.276 N 
ATOM      5  C   UNL d   1       0.034  -0.673   0.058  0.00  0.00     0.002 A 
ATOM      6  C   UNL d   1      -0.004   0.745   0.006  0.00  0.00     0.054 A 
ATOM      7  O   UNL d   1       3.547   1.453  -0.126  0.00  0.00    -0.265 OA
ATOM      8  C   UNL d   1      -1.259   1.388  -0.066  0.00  0.00     0.031 A 
ATOM      9  C   UNL d   1      -1.192  -1.362   0.155  0.00  0.00     0.014 A 
ATOM     10  C   UNL d   1      -2.418  -0.698   0.147  0.00  0.00     0.001 A 
ATOM     11  C   UNL d   1      -2.453   0.677   0.011  0.00  0.00     0.002 A 
ENDROOT
BRANCH   3  12
ATOM     12  C   UNL d   1       1.391  -2.934  -0.200  0.00  0.00     0.221 C 
BRANCH  12  13
ATOM     13  C   UNL d   1       0.830  -3.632   1.032  0.00  0.00     0.277 C 
ATOM     14  O   UNL d   1      -0.125  -4.397   1.042  0.00  0.00    -0.264 OA
BRANCH  13  15
ATOM     15  O   UNL d   1       1.521  -3.262   2.150  0.00  0.00    -0.321 OA
BRANCH  15  16
ATOM     16  C   UNL d   1       1.067  -3.850   3.382  0.00  0.00     0.174 C 
ATOM     17  C   UNL d   1      -0.065  -3.029   3.973  0.00  0.00     0.034 C 
ENDBRANCH  15  16
ENDBRANCH  13  15
ENDBRANCH  12  13
BRANCH  12  18
ATOM     18  C   UNL d   1       0.745  -3.366  -1.513  0.00  0.00     0.277 C 
ATOM     19  O   UNL d   1       0.440  -2.595  -2.417  0.00  0.00    -0.264 OA
BRANCH  18  20
ATOM     20  O   UNL d   1       0.587  -4.715  -1.577  0.00  0.00    -0.321 OA
BRANCH  20  21
ATOM     21  C   UNL d   1      -0.304  -5.203  -2.591  0.00  0.00     0.174 C 
ATOM     22  C   UNL d   1       0.467  -5.939  -3.667  0.00  0.00     0.034 C 
ENDBRANCH  20  21
ENDBRANCH  18  20
ENDBRANCH  12  18
ENDBRANCH   3  12
BRANCH   1  23
ATOM     23  N   UNL d   1       3.713  -1.227  -0.343  0.00  0.00    -0.109 N 
ATOM     24  O   UNL d   1       4.083  -1.406  -1.512  0.00  0.00    -0.532 OA
ATOM     25  O   UNL d   1       4.296  -1.631   0.670  0.00  0.00    -0.532 OA
ENDBRANCH   1  23
BRANCH   4  26
ATOM     26  C   UNL d   1       1.194   2.916   0.041  0.00  0.00     0.043 A 
ATOM     27  C   UNL d   1       1.827   3.686  -0.941  0.00  0.00     0.030 A 
ATOM     28  C   UNL d   1       1.842   5.080  -0.853  0.00  0.00     0.002 A 
ATOM     29  C   UNL d   1       1.241   5.715   0.232  0.00  0.00     0.000 A 
ATOM     30  C   UNL d   1       0.624   4.960   1.228  0.00  0.00     0.002 A 
ATOM     31  C   UNL d   1       0.602   3.565   1.136  0.00  0.00     0.030 A 
ENDBRANCH   4  26
TORSDOF 9
