REMARK  6 active torsions:
REMARK  status: ('A' for Active; 'I' for Inactive)
REMARK    1  A    between atoms: S_2  and  C_1 
REMARK    2  A    between atoms: N_8  and  S_2 
REMARK    3  A    between atoms: C_7  and  C_4 
REMARK    4  A    between atoms: O_14  and  C_7 
REMARK    5  A    between atoms: C_13  and  N_8 
REMARK    6  A    between atoms: C_15  and  C_13 
ROOT
ATOM      1  S   UNL d   1       0.319   2.845   0.052  0.00  0.00     0.274 S 
ATOM      2  O   UNL d   1      -0.429   3.388   1.163  0.00  0.00    -0.199 OA
ATOM      3  O   UNL d   1       1.759   2.883  -0.008  0.00  0.00    -0.199 OA
ENDROOT
BRANCH   1   4
ATOM      4  C   UNL d   1      -0.059   1.093   0.048  0.00  0.00     0.151 A 
ATOM      5  N   UNL d   1      -1.320   0.516   0.073  0.00  0.00    -0.336 N 
ATOM      6  C   UNL d   1      -1.224  -0.872   0.007  0.00  0.00     0.111 A 
ATOM      7  C   UNL d   1      -2.591   1.201   0.182  0.00  0.00     0.157 C 
ATOM      8  C   UNL d   1       0.127  -1.173   0.043  0.00  0.00     0.039 A 
ATOM      9  C   UNL d   1       0.843   0.035   0.063  0.00  0.00     0.046 A 
BRANCH   6  10
ATOM     10  C   UNL d   1      -2.347  -1.791  -0.069  0.00  0.00     0.309 C 
ATOM     11  O   UNL d   1      -3.525  -1.475  -0.173  0.00  0.00    -0.258 OA
BRANCH  10  12
ATOM     12  O   UNL d   1      -1.893  -3.075  -0.022  0.00  0.00    -0.321 OA
ATOM     13  C   UNL d   1      -2.920  -4.064  -0.092  0.00  0.00     0.213 C 
ENDBRANCH  10  12
ENDBRANCH   6  10
ENDBRANCH   1   4
BRANCH   1  14
ATOM     14  N   UNL d   1      -0.250   3.498  -1.385  0.00  0.00    -0.310 N 
ATOM     15  H   UNL d   1      -0.073   2.911  -2.198  0.00  0.00     0.172 HD
BRANCH  14  16
ATOM     16  C   UNL d   1      -1.538   4.182  -1.347  0.00  0.00     0.170 C 
BRANCH  16  17
ATOM     17  C   UNL d   1      -1.960   4.713  -2.691  0.00  0.00    -0.040 A 
ATOM     18  C   UNL d   1      -3.106   4.202  -3.321  0.00  0.00     0.009 A 
ATOM     19  C   UNL d   1      -3.538   4.729  -4.536  0.00  0.00     0.001 A 
ATOM     20  C   UNL d   1      -2.826   5.766  -5.135  0.00  0.00     0.000 A 
ATOM     21  C   UNL d   1      -1.680   6.273  -4.522  0.00  0.00     0.001 A 
ATOM     22  C   UNL d   1      -1.246   5.748  -3.305  0.00  0.00     0.009 A 
ENDBRANCH  16  17
ENDBRANCH  14  16
ENDBRANCH   1  14
TORSDOF 6
