REMARK  3 active torsions:
REMARK  status: ('A' for Active; 'I' for Inactive)
REMARK    1  A    between atoms: C_8  and  C_4 
REMARK    2  A    between atoms: S_11  and  C_5 
REMARK    3  A    between atoms: O_14  and  C_12 
ROOT
ATOM      1  C   UNL d   1       1.721  -0.410   0.683  0.00  0.00     0.108 A 
ATOM      2  N   UNL d   1      -0.276  -0.201  -0.389  0.00  0.00    -0.297 N 
ATOM      3  HN  UNL d   1      -1.147  -0.395  -0.884  1.00  0.00     0.187 HD
ATOM      4  C   UNL d   1       0.605  -1.089   0.107  0.00  0.00     0.082 A 
ATOM      5  C   UNL d   1       1.444   0.932   0.565  0.00  0.00     0.107 A 
ATOM      6  N   UNL d   1       0.247   0.997  -0.087  0.00  0.00    -0.292 N 
ATOM      7  C   UNL d   1       2.881  -1.001   1.256  0.00  0.00     0.104 C 
ATOM      8  N   UNL d   1       3.822  -1.478   1.743  0.00  0.00    -0.191 NA
ATOM      9  H   UNL d   1      -0.262   1.834  -0.352  0.00  0.00     0.187 HD
ENDROOT
BRANCH   4  10
ATOM     10  C   UNL d   1       0.347  -2.533   0.003  0.00  0.00    -0.004 A 
ATOM     11  C   UNL d   1      -0.377  -3.040  -1.091  0.00  0.00     0.050 A 
ATOM     12  C   UNL d   1      -0.635  -4.409  -1.206  0.00  0.00     0.069 A 
ATOM     13  C   UNL d   1      -0.166  -5.280  -0.220  0.00  0.00     0.037 A 
ATOM     14  C   UNL d   1       0.544  -4.793   0.874  0.00  0.00     0.004 A 
ATOM     15  C   UNL d   1       0.791  -3.425   0.990  0.00  0.00     0.014 A 
BRANCH  12  16
ATOM     16  O   UNL d   1      -1.324  -5.019  -2.218  0.00  0.00    -0.356 OA
ATOM     17  C   UNL d   1      -1.835  -4.177  -3.244  0.00  0.00     0.210 C 
ENDBRANCH  12  16
ENDBRANCH   4  10
BRANCH   5  18
ATOM     18  S   UNL d   1       2.184   2.436   0.999  0.00  0.00    -0.114 SA
ATOM     19  C   UNL d   1       3.676   1.966   1.897  0.00  0.00     0.097 C 
ENDBRANCH   5  18
TORSDOF 3
