REMARK  5 active torsions:
REMARK  status: ('A' for Active; 'I' for Inactive)
REMARK    1  A    between atoms: C_3  and  C_1 
REMARK    2  A    between atoms: C_2  and  C_9 
REMARK    3  A    between atoms: N_14  and  C_4 
REMARK    4  A    between atoms: O_13  and  C_10 
REMARK    5  A    between atoms: C_20  and  O_13 
ROOT
ATOM      1  C   UNL d   1       0.572  -8.288   5.037  0.00  0.00     0.070 C 
ATOM      2  C   UNL d   1      -0.590  -8.904   4.740  0.00  0.00     0.108 C 
ATOM      3  C   UNL d   1       0.583  -6.966   5.589  0.00  0.00     0.101 C 
ATOM      4  N   UNL d   1       0.622  -5.886   6.019  0.00  0.00    -0.191 NA
ENDROOT
BRANCH   1   5
ATOM      5  C   UNL d   1       1.890  -8.918   4.731  0.00  0.00    -0.014 A 
ATOM      6  C   UNL d   1       2.977  -8.113   4.348  0.00  0.00     0.016 A 
ATOM      7  C   UNL d   1       4.246  -8.658   4.139  0.00  0.00     0.038 A 
ATOM      8  C   UNL d   1       4.453 -10.032   4.259  0.00  0.00     0.077 A 
ATOM      9  C   UNL d   1       3.392 -10.847   4.653  0.00  0.00     0.038 A 
ATOM     10  C   UNL d   1       2.122 -10.296   4.889  0.00  0.00     0.016 A 
BRANCH   8  11
ATOM     11  O   UNL d   1       5.679 -10.640   4.088  0.00  0.00    -0.294 OA
BRANCH  11  12
ATOM     12  C   UNL d   1       6.538 -10.099   3.140  0.00  0.00     0.147 A 
ATOM     13  C   UNL d   1       7.897 -10.137   3.417  0.00  0.00     0.057 A 
ATOM     14  C   UNL d   1       8.769  -9.543   2.507  0.00  0.00     0.022 A 
ATOM     15  C   UNL d   1       8.262  -8.937   1.350  0.00  0.00     0.063 A 
ATOM     16  C   UNL d   1       6.893  -8.995   1.145  0.00  0.00     0.106 A 
ATOM     17  N   UNL d   1       6.026  -9.573   2.005  0.00  0.00    -0.346 N 
ATOM     18  HN  UNL d   1       5.027  -9.612   1.806  1.00  0.00     0.167 HD
BRANCH  15  19
ATOM     19  C   UNL d   1       9.148  -8.239   0.364  0.00  0.00     0.418 C 
ATOM     20  F   UNL d   1       8.468  -7.648  -0.656  0.00  0.00    -0.166 F 
ATOM     21  F   UNL d   1      10.043  -9.081  -0.222  0.00  0.00    -0.166 F 
ATOM     22  F   UNL d   1       9.886  -7.251   0.939  0.00  0.00    -0.166 F 
ENDBRANCH  15  19
ENDBRANCH  11  12
ENDBRANCH   8  11
ENDBRANCH   1   5
BRANCH   2  23
ATOM     23  N   UNL d   1      -1.929  -8.566   4.946  0.00  0.00    -0.397 N 
ATOM     24  C   UNL d   1      -2.415  -7.612   5.947  0.00  0.00     0.148 C 
ATOM     25  C   UNL d   1      -3.000  -9.153   4.136  0.00  0.00     0.148 C 
ENDBRANCH   2  23
TORSDOF 5
