REMARK  6 active torsions:
REMARK  status: ('A' for Active; 'I' for Inactive)
REMARK       I    between atoms: N_7  and  C_1 
REMARK       I    between atoms: N_8  and  C_1 
REMARK    1  A    between atoms: C_2  and  N_9 
REMARK    2  A    between atoms: C_3  and  C_4 
REMARK    3  A    between atoms: C_12  and  N_8 
REMARK    4  A    between atoms: C_30  and  C_25 
REMARK    5  A    between atoms: C_31  and  C_30 
REMARK    6  A    between atoms: C_32  and  C_31 
ROOT
ATOM      1  C   UNL d   1       0.817   0.100   0.281  0.00  0.00     0.323 C 
ATOM      2  N   UNL d   1       0.036  -0.814   0.988  0.00  0.00    -0.332 N 
ATOM      3  N   UNL d   1       0.150   0.675  -0.790  0.00  0.00    -0.308 N 
ATOM      4  N   UNL d   1      -1.249  -3.164   2.197  0.00  0.00    -0.364 N 
ATOM      5  O   UNL d   1       1.996   0.300   0.553  0.00  0.00    -0.247 OA
ATOM      6  C   UNL d   1       0.697  -1.620   2.030  0.00  0.00     0.147 C 
ATOM      7  C   UNL d   1       0.223  -3.086   2.152  0.00  0.00     0.144 C 
ATOM      8  C   UNL d   1      -2.180  -1.768   0.380  0.00  0.00     0.040 C 
ATOM      9  C   UNL d   1      -1.417  -0.665   1.100  0.00  0.00     0.129 C 
ATOM     10  C   UNL d   1      -1.887  -3.184   0.877  0.00  0.00     0.126 C 
ATOM     11  H   UNL d   1      -0.512   0.043  -1.206  0.00  0.00     0.170 HD
ENDROOT
BRANCH   3  12
ATOM     12  C   UNL d   1       0.772   1.602  -1.656  0.00  0.00     0.042 C 
ATOM     13  C   UNL d   1       0.637   1.471  -3.048  0.00  0.00    -0.035 C 
ATOM     14  C   UNL d   1       1.457   2.259  -3.874  0.00  0.00     0.016 C 
ATOM     15  C   UNL d   1      -0.222   0.422  -3.697  0.00  0.00     0.050 C 
ATOM     16  C   UNL d   1       2.335   3.212  -3.337  0.00  0.00    -0.058 C 
ATOM     17  C   UNL d   1       2.317   3.445  -1.961  0.00  0.00     0.009 C 
ATOM     18  C   UNL d   1       1.557   2.631  -1.126  0.00  0.00     0.031 C 
BRANCH  16  19
ATOM     19  C   UNL d   1       3.335   3.914  -4.225  0.00  0.00     0.038 C 
BRANCH  19  20
ATOM     20  C   UNL d   1       4.795   3.692  -3.795  0.00  0.00     0.004 C 
BRANCH  20  21
ATOM     21  C   UNL d   1       5.213   2.217  -3.773  0.00  0.00    -0.004 C 
ATOM     22  C   UNL d   1       6.662   2.056  -3.338  0.00  0.00     0.005 C 
ENDBRANCH  20  21
ENDBRANCH  19  20
ENDBRANCH  16  19
ENDBRANCH   3  12
BRANCH   4  23
ATOM     23  C   UNL d   1      -1.829  -3.985   3.166  0.00  0.00     0.125 A 
ATOM     24  N   UNL d   1      -1.092  -4.999   3.680  0.00  0.00    -0.350 N 
ATOM     25  C   UNL d   1      -1.642  -5.800   4.629  0.00  0.00     0.106 A 
ATOM     26  HN  UNL d   1      -0.137  -5.159   3.358  1.00  0.00     0.166 HD
ATOM     27  C   UNL d   1      -2.928  -5.656   5.116  0.00  0.00     0.065 A 
ATOM     28  C   UNL d   1      -3.684  -4.605   4.607  0.00  0.00     0.045 A 
ATOM     29  C   UNL d   1      -3.140  -3.759   3.640  0.00  0.00     0.078 A 
ATOM     30 CL   UNL d   1      -4.118  -2.419   3.152  0.00  0.00    -0.080 Cl
BRANCH  27  31
ATOM     31  C   UNL d   1      -3.460  -6.590   6.156  0.00  0.00     0.418 C 
ATOM     32  F   UNL d   1      -4.752  -6.336   6.498  0.00  0.00    -0.166 F 
ATOM     33  F   UNL d   1      -3.431  -7.890   5.752  0.00  0.00    -0.166 F 
ATOM     34  F   UNL d   1      -2.751  -6.541   7.317  0.00  0.00    -0.166 F 
ENDBRANCH  27  31
ENDBRANCH   4  23
TORSDOF 6
