REMARK  3 active torsions:
REMARK  status: ('A' for Active; 'I' for Inactive)
REMARK    1  A    between atoms: S_6  and  C_2 
REMARK    2  A    between atoms: C_7  and  C_3 
REMARK    3  A    between atoms: C_10  and  S_6 
ROOT
ATOM      1  S   UNL d   1      -1.017   0.041  -0.084  0.00  0.00    -0.081 SA
ATOM      2  C   UNL d   1       0.166   1.272  -0.073  0.00  0.00     0.047 A 
ATOM      3  C   UNL d   1       0.161  -1.207   0.016  0.00  0.00     0.033 A 
ATOM      4  C   UNL d   1       1.438  -0.672  -0.012  0.00  0.00     0.023 A 
ATOM      5  C   UNL d   1       1.440   0.754  -0.039  0.00  0.00     0.028 A 
ENDROOT
BRANCH   2   6
ATOM      6  S   UNL d   1      -0.258   2.978  -0.023  0.00  0.00    -0.083 SA
BRANCH   6   7
ATOM      7  C   UNL d   1      -0.316   3.295  -1.777  0.00  0.00     0.006 A 
ATOM      8  C   UNL d   1      -1.515   3.143  -2.483  0.00  0.00     0.020 A 
ATOM      9  C   UNL d   1      -1.575   3.450  -3.846  0.00  0.00     0.025 A 
ATOM     10  C   UNL d   1      -0.437   3.915  -4.501  0.00  0.00     0.034 A 
ATOM     11  C   UNL d   1       0.760   4.075  -3.807  0.00  0.00     0.025 A 
ATOM     12 CL   UNL d   1      -0.513   4.304  -6.175  0.00  0.00    -0.084 Cl
ATOM     13  C   UNL d   1       0.820   3.768  -2.444  0.00  0.00     0.020 A 
ENDBRANCH   6   7
ENDBRANCH   2   6
BRANCH   3  14
ATOM     14  C   UNL d   1      -0.226  -2.621   0.114  0.00  0.00     0.049 A 
ATOM     15  N   UNL d   1       0.667  -3.485  -0.434  0.00  0.00    -0.365 N 
ATOM     16  C   UNL d   1       0.391  -4.804  -0.336  0.00  0.00     0.088 A 
ATOM     17  HN  UNL d   1       1.511  -3.153  -0.900  1.00  0.00     0.165 HD
ATOM     18  C   UNL d   1      -0.725  -5.317   0.300  0.00  0.00     0.017 A 
ATOM     19  C   UNL d   1      -1.624  -4.422   0.866  0.00  0.00     0.004 A 
ATOM     20  C   UNL d   1      -1.375  -3.054   0.770  0.00  0.00     0.031 A 
ENDBRANCH   3  14
TORSDOF 3
