REMARK  4 active torsions:
REMARK  status: ('A' for Active; 'I' for Inactive)
REMARK    1  A    between atoms: C_6  and  C_1 
REMARK    2  A    between atoms: N_7  and  C_3 
REMARK    3  A    between atoms: O_9  and  C_6 
REMARK    4  A    between atoms: C_12  and  O_9 
ROOT
ATOM      1  C   UNL d   1      -2.479  -0.120  -0.044  0.00  0.00     0.136 A 
ATOM      2  N   UNL d   1      -1.652   0.984  -0.055  0.00  0.00    -0.349 N 
ATOM      3  C   UNL d   1      -1.648  -1.221  -0.051  0.00  0.00     0.071 A 
ATOM      4  C   UNL d   1      -0.297  -0.781  -0.042  0.00  0.00     0.019 A 
ATOM      5  C   UNL d   1      -0.328   0.612  -0.039  0.00  0.00     0.045 A 
ATOM      6  C   UNL d   1       0.955  -1.428  -0.022  0.00  0.00     0.016 A 
ATOM      7  C   UNL d   1       0.830   1.397  -0.016  0.00  0.00     0.030 A 
ATOM      8  C   UNL d   1       2.124  -0.660  -0.003  0.00  0.00     0.001 A 
ATOM      9  C   UNL d   1       2.059   0.731   0.000  0.00  0.00     0.002 A 
ATOM     10  H   UNL d   1      -1.989   1.937  -0.038  0.00  0.00     0.166 HD
ENDROOT
BRANCH   1  11
ATOM     11  C   UNL d   1      -3.910   0.023   0.029  0.00  0.00     0.312 C 
ATOM     12  O   UNL d   1      -4.491   1.096   0.115  0.00  0.00    -0.258 OA
BRANCH  11  13
ATOM     13  O   UNL d   1      -4.507  -1.202   0.095  0.00  0.00    -0.317 OA
BRANCH  13  14
ATOM     14  C   UNL d   1      -5.818  -1.216   0.667  0.00  0.00     0.175 C 
ATOM     15  C   UNL d   1      -5.667  -1.333   2.173  0.00  0.00     0.034 C 
ENDBRANCH  13  14
ENDBRANCH  11  13
ENDBRANCH   1  11
BRANCH   3  16
ATOM     16  N   UNL d   1      -2.046  -2.505  -0.036  0.00  0.00    -0.396 N 
ATOM     17  H   UNL d   1      -3.031  -2.758  -0.026  0.00  0.00     0.156 HD
ATOM     18  H   UNL d   1      -1.401  -3.285  -0.013  0.00  0.00     0.156 HD
ENDBRANCH   3  16
TORSDOF 4
