REMARK  4 active torsions:
REMARK  status: ('A' for Active; 'I' for Inactive)
REMARK    1  A    between atoms: C_7  and  C_4 
REMARK    2  A    between atoms: C_5  and  C_6 
REMARK       I    between atoms: C_6  and  N_11 
REMARK    3  A    between atoms: C_10  and  C_7 
REMARK       I    between atoms: N_12  and  C_10 
REMARK    4  A    between atoms: N_11  and  N_12 
ROOT
ATOM      1  C   UNL d   1       2.510   0.414   2.701  0.00  0.00     0.237 C 
ATOM      2  N   UNL d   1       2.196   1.753   2.799  0.00  0.00    -0.267 N 
ATOM      3  O   UNL d   1       3.603  -0.043   3.040  0.00  0.00    -0.272 OA
ATOM      4  H   UNL d   1       1.258   2.130   2.675  0.00  0.00     0.190 HD
ENDROOT
BRANCH   1   5
ATOM      5  C   UNL d   1       1.417  -0.456   2.138  0.00  0.00     0.129 C 
BRANCH   5   6
ATOM      6  C   UNL d   1       1.653  -0.717   0.649  0.00  0.00     0.153 C 
ATOM      7  C   UNL d   1       1.564   0.571  -0.159  0.00  0.00     0.236 C 
ATOM      8  N   UNL d   1       0.334   1.161  -0.291  0.00  0.00    -0.325 N 
ATOM      9  O   UNL d   1       2.566   1.153  -0.574  0.00  0.00    -0.272 OA
ATOM     10  C   UNL d   1      -0.902   0.521  -0.111  0.00  0.00     0.051 A 
ATOM     11  H   UNL d   1       0.351   2.102  -0.669  0.00  0.00     0.169 HD
ATOM     12  C   UNL d   1      -1.007  -0.874   0.018  0.00  0.00     0.028 A 
ATOM     13  C   UNL d   1      -2.054   1.312  -0.104  0.00  0.00     0.031 A 
ATOM     14  S   UNL d   1       0.432  -1.928   0.019  0.00  0.00    -0.113 SA
ATOM     15  C   UNL d   1      -2.271  -1.463   0.120  0.00  0.00     0.021 A 
ATOM     16  C   UNL d   1      -3.418  -0.668   0.138  0.00  0.00     0.002 A 
ATOM     17  C   UNL d   1      -3.308   0.718   0.038  0.00  0.00     0.002 A 
ENDBRANCH   5   6
ENDBRANCH   1   5
BRANCH   2  18
ATOM     18  N   UNL d   1       3.124   2.613   3.396  0.00  0.00    -0.263 N 
ATOM     19  C   UNL d   1       2.759   3.916   3.647  0.00  0.00     0.271 C 
ATOM     20  O   UNL d   1       1.642   4.335   3.340  0.00  0.00    -0.266 OA
ATOM     21  H   UNL d   1       4.048   2.223   3.595  0.00  0.00     0.190 HD
BRANCH  19  22
ATOM     22  C   UNL d   1       3.730   4.805   4.364  0.00  0.00     0.055 A 
ATOM     23  C   UNL d   1       5.104   4.568   4.535  0.00  0.00     0.049 A 
ATOM     24 CL   UNL d   1       5.951   3.224   3.856  0.00  0.00    -0.083 Cl
ATOM     25  C   UNL d   1       5.888   5.468   5.275  0.00  0.00     0.025 A 
ATOM     26  C   UNL d   1       5.323   6.612   5.839  0.00  0.00     0.002 A 
ATOM     27  C   UNL d   1       3.970   6.870   5.661  0.00  0.00     0.001 A 
ATOM     28  C   UNL d   1       3.183   5.976   4.930  0.00  0.00     0.019 A 
ENDBRANCH  19  22
ENDBRANCH   2  18
TORSDOF 4
