REMARK  6 active torsions:
REMARK  status: ('A' for Active; 'I' for Inactive)
REMARK    1  A    between atoms: C_9  and  C_5 
REMARK    2  A    between atoms: N_7  and  C_10 
REMARK    3  A    between atoms: N_8  and  C_15 
REMARK       I    between atoms: N_14  and  C_9 
REMARK    4  A    between atoms: C_23  and  N_14 
REMARK    5  A    between atoms: O_27  and  N_17 
REMARK    6  A    between atoms: C_26  and  C_23 
ROOT
ATOM      1  C   UNL d   1       0.516  -0.278   0.481  0.00  0.00     0.004 A 
ATOM      2  C   UNL d   1       1.034   1.030   0.328  0.00  0.00     0.008 A 
ATOM      3  C   UNL d   1      -1.315   1.208   0.462  0.00  0.00     0.007 A 
ATOM      4  C   UNL d   1      -0.937  -0.145   0.644  0.00  0.00    -0.011 A 
ATOM      5  C   UNL d   1       1.423  -1.342   0.385  0.00  0.00     0.046 A 
ATOM      6  C   UNL d   1      -0.078   1.995   0.297  0.00  0.00     0.076 A 
ATOM      7  C   UNL d   1       3.261   0.291   0.098  0.00  0.00     0.104 A 
ATOM      8  C   UNL d   1       2.372   1.353   0.165  0.00  0.00     0.050 A 
ATOM      9  C   UNL d   1       2.796  -1.034   0.178  0.00  0.00     0.054 A 
ATOM     10  C   UNL d   1      -2.634   1.639   0.447  0.00  0.00     0.050 A 
ATOM     11  C   UNL d   1      -3.621   0.680   0.674  0.00  0.00     0.103 A 
ATOM     12  C   UNL d   1      -1.930  -1.067   0.949  0.00  0.00     0.016 A 
ATOM     13  N   UNL d   1       0.142   3.262   0.143  0.00  0.00    -0.268 N 
ATOM     14  HN  UNL d   1       1.074   3.661   0.034  1.00  0.00     0.194 HD
ATOM     15  C   UNL d   1      -3.276  -0.655   0.961  0.00  0.00     0.037 A 
ENDROOT
BRANCH   5  16
ATOM     16  C   UNL d   1       1.061  -2.800   0.329  0.00  0.00     0.253 C 
ATOM     17  N   UNL d   1       2.078  -3.656   0.709  0.00  0.00    -0.349 N 
ATOM     18  H   UNL d   1       2.788  -3.285   1.324  0.00  0.00     0.163 HD
ATOM     19  O   UNL d   1      -0.024  -3.162  -0.096  0.00  0.00    -0.268 OA
BRANCH  17  20
ATOM     20  C   UNL d   1       2.061  -5.114   0.665  0.00  0.00     0.114 C 
ATOM     21  C   UNL d   1       1.547  -5.713  -0.645  0.00  0.00     0.037 C 
BRANCH  20  22
ATOM     22  C   UNL d   1       1.456  -5.648   1.943  0.00  0.00    -0.036 A 
ATOM     23  C   UNL d   1       0.073  -5.811   2.097  0.00  0.00     0.009 A 
ATOM     24  C   UNL d   1      -0.462  -6.179   3.332  0.00  0.00     0.001 A 
ATOM     25  C   UNL d   1       0.375  -6.385   4.428  0.00  0.00     0.000 A 
ATOM     26  C   UNL d   1       1.752  -6.243   4.286  0.00  0.00     0.001 A 
ATOM     27  C   UNL d   1       2.290  -5.880   3.052  0.00  0.00     0.009 A 
ENDBRANCH  20  22
ENDBRANCH  17  20
ENDBRANCH   5  16
BRANCH   7  28
ATOM     28  N   UNL d   1       4.692   0.544  -0.088  0.00  0.00    -0.116 N 
ATOM     29  O   UNL d   1       5.058   1.716  -0.229  0.00  0.00    -0.532 OA
ATOM     30  O   UNL d   1       5.453  -0.437  -0.079  0.00  0.00    -0.532 OA
ENDBRANCH   7  28
BRANCH  13  31
ATOM     31  O   UNL d   1      -1.022   4.024   0.143  0.00  0.00    -0.289 OA
ATOM     32  H   UNL d   1      -0.683   4.926  -0.011  0.00  0.00     0.244 HD
ENDBRANCH  13  31
BRANCH  11  33
ATOM     33  N   UNL d   1      -5.035   1.075   0.592  0.00  0.00    -0.116 N 
ATOM     34  O   UNL d   1      -5.293   2.222   0.201  0.00  0.00    -0.532 OA
ATOM     35  O   UNL d   1      -5.887   0.233   0.910  0.00  0.00    -0.532 OA
ENDBRANCH  11  33
TORSDOF 6
