REMARK  5 active torsions:
REMARK  status: ('A' for Active; 'I' for Inactive)
REMARK    1  A    between atoms: C_2  and  S_1 
REMARK    2  A    between atoms: C_4  and  S_1 
REMARK    3  A    between atoms: C_3  and  N_13 
REMARK    4  A    between atoms: C_12  and  C_4 
REMARK    5  A    between atoms: N_13  and  C_9 
ROOT
ATOM      1  C   UNL d   1       0.541  -0.029   1.538  0.00  0.00     0.155 C 
ATOM      2  C   UNL d   1      -0.150   1.031   1.989  0.00  0.00     0.140 C 
ATOM      3  C   UNL d   1       0.963  -0.158   0.193  0.00  0.00     0.113 C 
ATOM      4  N   UNL d   1       1.314  -0.219  -0.910  0.00  0.00    -0.191 NA
ENDROOT
BRANCH   1   5
ATOM      5  S   UNL d   1       0.853  -1.359   2.610  0.00  0.00     0.192 S 
ATOM      6  O   UNL d   1       0.906  -2.579   1.817  0.00  0.00    -0.222 OA
ATOM      7  O   UNL d   1      -0.063  -1.324   3.740  0.00  0.00    -0.222 OA
BRANCH   5   8
ATOM      8  C   UNL d   1       2.500  -1.112   3.225  0.00  0.00     0.211 C 
BRANCH   8   9
ATOM      9  C   UNL d   1       2.600   0.080   4.090  0.00  0.00     0.066 A 
ATOM     10  O   UNL d   1       3.006   1.233   3.487  0.00  0.00    -0.326 OA
ATOM     11  C   UNL d   1       3.135   2.169   4.463  0.00  0.00     0.142 A 
ATOM     12  C   UNL d   1       2.817   1.633   5.688  0.00  0.00     0.027 A 
ATOM     13  C   UNL d   1       2.460   0.284   5.449  0.00  0.00     0.035 A 
ENDBRANCH   8   9
ENDBRANCH   5   8
ENDBRANCH   1   5
BRANCH   2  14
ATOM     14  N   UNL d   1      -0.655   2.107   1.290  0.00  0.00    -0.200 N 
ATOM     15  H   UNL d   1      -0.858   2.017   0.303  0.00  0.00     0.183 HD
BRANCH  14  16
ATOM     16  C   UNL d   1      -1.327   3.190   1.857  0.00  0.00     0.682 A 
ATOM     17  N   UNL d   1      -1.026   3.558   3.112  0.00  0.00    -0.196 N 
ATOM     18  C   UNL d   1      -1.659   4.630   3.620  0.00  0.00     0.024 A 
ATOM     19  HN  UNL d   1      -0.339   3.042   3.662  1.00  0.00     0.184 HD
ATOM     20  C   UNL d   1      -1.256   5.065   4.994  0.00  0.00     0.068 C 
ATOM     21  C   UNL d   1      -2.632   5.310   2.920  0.00  0.00     0.050 A 
ATOM     22  C   UNL d   1      -2.900   4.853   1.645  0.00  0.00     0.024 A 
ATOM     23  N   UNL d   1      -2.234   3.816   1.092  0.00  0.00    -0.196 N 
ATOM     24  C   UNL d   1      -3.976   5.508   0.829  0.00  0.00     0.068 C 
ATOM     25  HN  UNL d   1      -2.414   3.521   0.132  1.00  0.00     0.184 HD
ENDBRANCH  14  16
ENDBRANCH   2  14
TORSDOF 5
