REMARK  5 active torsions:
REMARK  status: ('A' for Active; 'I' for Inactive)
REMARK    1  A    between atoms: C_4  and  C_1 
REMARK    2  A    between atoms: N_5  and  N_2 
REMARK    3  A    between atoms: O_7  and  C_4 
REMARK    4  A    between atoms: C_8  and  N_5 
REMARK    5  A    between atoms: C_10  and  O_7 
ROOT
ATOM      1  C   UNL d   1       0.988  -0.043  -0.018  0.00  0.00     0.097 C 
ATOM      2  N   UNL d   1       0.330   0.284  -1.095  0.00  0.00    -0.299 N 
ATOM      3  HN  UNL d   1      -0.689   0.232  -1.119  1.00  0.00     0.186 HD
ATOM      4  C   UNL d   1       2.480  -0.024   0.173  0.00  0.00     0.076 C 
ENDROOT
BRANCH   2   5
ATOM      5  N   UNL d   1       1.032   0.695  -2.184  0.00  0.00    -0.301 N 
ATOM      6  H   UNL d   1       1.893   0.201  -2.414  0.00  0.00     0.187 HD
BRANCH   5   7
ATOM      7  C   UNL d   1       0.295   1.003  -3.353  0.00  0.00     0.048 A 
ATOM      8  C   UNL d   1      -1.091   1.210  -3.341  0.00  0.00     0.031 A 
ATOM      9  C   UNL d   1      -1.775   1.575  -4.507  0.00  0.00     0.002 A 
ATOM     10  C   UNL d   1      -1.072   1.762  -5.695  0.00  0.00     0.000 A 
ATOM     11  C   UNL d   1       0.310   1.600  -5.717  0.00  0.00     0.002 A 
ATOM     12  C   UNL d   1       0.990   1.233  -4.550  0.00  0.00     0.031 A 
ENDBRANCH   5   7
ENDBRANCH   2   5
BRANCH   1  13
ATOM     13  C   UNL d   1       0.191  -0.567   1.167  0.00  0.00     0.306 C 
ATOM     14  O   UNL d   1       0.621  -1.461   1.876  0.00  0.00    -0.258 OA
BRANCH  13  15
ATOM     15  O   UNL d   1      -1.005   0.046   1.243  0.00  0.00    -0.317 OA
BRANCH  15  16
ATOM     16  C   UNL d   1      -1.972  -0.599   2.079  0.00  0.00     0.175 C 
ATOM     17  C   UNL d   1      -2.688  -1.664   1.267  0.00  0.00     0.034 C 
ENDBRANCH  15  16
ENDBRANCH  13  15
ENDBRANCH   1  13
TORSDOF 5
