REMARK  3 active torsions:
REMARK  status: ('A' for Active; 'I' for Inactive)
REMARK    1  A    between atoms: C_7  and  C_3 
REMARK    2  A    between atoms: C_12  and  N_4 
REMARK    3  A    between atoms: C_15  and  C_8 
ROOT
ATOM      1  N   UNL d   1       1.233  -0.679   0.002  0.00  0.00    -0.288 N 
ATOM      2  HN  UNL d   1       2.105  -1.208   0.024  1.00  0.00     0.188 HD
ATOM      3  C   UNL d   1       1.243   0.623  -0.109  0.00  0.00     0.125 C 
ATOM      4  N   UNL d   1       0.017  -1.318   0.087  0.00  0.00    -0.267 N 
ATOM      5  C   UNL d   1      -0.042   1.442  -0.033  0.00  0.00     0.203 C 
ATOM      6  C   UNL d   1      -1.302   0.692  -0.053  0.00  0.00     0.076 C 
ATOM      7  C   UNL d   1      -1.180  -0.634   0.023  0.00  0.00     0.120 C 
ATOM      8  O   UNL d   1      -0.055   2.653   0.115  0.00  0.00    -0.286 OA
ENDROOT
BRANCH   3   9
ATOM      9  C   UNL d   1       2.527   1.336  -0.315  0.00  0.00     0.067 A 
ATOM     10  N   UNL d   1       2.458   2.498  -0.985  0.00  0.00    -0.340 N 
ATOM     11  C   UNL d   1       3.607   3.158  -1.187  0.00  0.00     0.116 A 
ATOM     12  HN  UNL d   1       1.568   2.864  -1.325  1.00  0.00     0.167 HD
ATOM     13  N   UNL d   1       4.814   2.700  -0.802  0.00  0.00    -0.352 N 
ATOM     14  C   UNL d   1       4.837   1.515  -0.164  0.00  0.00     0.092 A 
ATOM     15  HN  UNL d   1       5.668   3.226  -0.985  1.00  0.00     0.166 HD
ATOM     16  C   UNL d   1       3.711   0.779   0.113  0.00  0.00     0.049 A 
BRANCH  11  17
ATOM     17  C   UNL d   1       3.524   4.462  -1.873  0.00  0.00     0.008 A 
ATOM     18  C   UNL d   1       2.275   5.024  -2.216  0.00  0.00     0.017 A 
ATOM     19  C   UNL d   1       2.178   6.249  -2.883  0.00  0.00     0.025 A 
ATOM     20  C   UNL d   1       3.334   6.942  -3.218  0.00  0.00     0.034 A 
ATOM     21  C   UNL d   1       4.583   6.427  -2.881  0.00  0.00     0.025 A 
ATOM     22 CL   UNL d   1       3.222   8.440  -4.056  0.00  0.00    -0.084 Cl
ATOM     23  C   UNL d   1       4.674   5.199  -2.213  0.00  0.00     0.017 A 
ENDBRANCH  11  17
ENDBRANCH   3   9
BRANCH   4  24
ATOM     24  C   UNL d   1       0.097  -2.745   0.188  0.00  0.00     0.056 A 
ATOM     25  C   UNL d   1       1.208  -3.354   0.804  0.00  0.00     0.033 A 
ATOM     26  C   UNL d   1       1.297  -4.743   0.943  0.00  0.00     0.026 A 
ATOM     27  C   UNL d   1       0.279  -5.552   0.449  0.00  0.00     0.034 A 
ATOM     28  C   UNL d   1      -0.822  -4.983  -0.182  0.00  0.00     0.026 A 
ATOM     29 CL   UNL d   1       0.383  -7.260   0.616  0.00  0.00    -0.084 Cl
ATOM     30  C   UNL d   1      -0.910  -3.592  -0.312  0.00  0.00     0.033 A 
ENDBRANCH   4  24
TORSDOF 3
