REMARK  7 active torsions:
REMARK  status: ('A' for Active; 'I' for Inactive)
REMARK    1  A    between atoms: C_9  and  C_1 
REMARK    2  A    between atoms: C_8  and  C_2 
REMARK    3  A    between atoms: N_6  and  C_12 
REMARK    4  A    between atoms: O_20  and  C_9 
REMARK    5  A    between atoms: N_15  and  N_10 
REMARK    6  A    between atoms: C_19  and  N_15 
REMARK    7  A    between atoms: C_24  and  O_20 
ROOT
ATOM      1  C   UNL d   1      -1.427   2.203  -0.023  0.00  0.00     0.058 C 
ATOM      2  N   UNL d   1      -0.878   3.388  -0.010  0.00  0.00    -0.302 N 
ATOM      3  HN  UNL d   1      -1.447   4.235  -0.020  1.00  0.00     0.186 HD
ATOM      4  C   UNL d   1      -0.626   0.914  -0.019  0.00  0.00     0.072 C 
ENDROOT
BRANCH   1   5
ATOM      5  C   UNL d   1      -2.867   2.107  -0.031  0.00  0.00     0.124 A 
ATOM      6  C   UNL d   1      -3.874   3.045   0.009  0.00  0.00     0.079 A 
ATOM      7  C   UNL d   1      -5.078   2.290   0.049  0.00  0.00     0.132 A 
ATOM      8  N   UNL d   1      -4.805   0.976  -0.011  0.00  0.00    -0.255 N 
ATOM      9  O   UNL d   1      -3.436   0.871  -0.057  0.00  0.00    -0.235 OA
ATOM     10  HN  UNL d   1      -5.479   0.211  -0.019  1.00  0.00     0.195 HD
BRANCH   7  11
ATOM     11  C   UNL d   1      -6.441   2.793   0.209  0.00  0.00     0.311 C 
ATOM     12  O   UNL d   1      -6.702   3.985   0.332  0.00  0.00    -0.258 OA
BRANCH  11  13
ATOM     13  O   UNL d   1      -7.362   1.788   0.301  0.00  0.00    -0.317 OA
BRANCH  13  14
ATOM     14  C   UNL d   1      -8.619   2.135   0.893  0.00  0.00     0.175 C 
ATOM     15  C   UNL d   1      -8.491   1.986   2.399  0.00  0.00     0.034 C 
ENDBRANCH  13  14
ENDBRANCH  11  13
ENDBRANCH   7  11
ENDBRANCH   1   5
BRANCH   2  16
ATOM     16  N   UNL d   1       0.482   3.450   0.019  0.00  0.00    -0.301 N 
ATOM     17  H   UNL d   1       1.041   2.687  -0.357  0.00  0.00     0.187 HD
BRANCH  16  18
ATOM     18  C   UNL d   1       1.125   4.703  -0.065  0.00  0.00     0.048 A 
ATOM     19  C   UNL d   1       0.437   5.916   0.064  0.00  0.00     0.033 A 
ATOM     20  C   UNL d   1       1.121   7.138   0.056  0.00  0.00     0.038 A 
ATOM     21  C   UNL d   1       2.515   7.147  -0.065  0.00  0.00     0.103 A 
ATOM     22  C   UNL d   1       3.224   5.948  -0.175  0.00  0.00     0.038 A 
ATOM     23  C   UNL d   1       2.526   4.737  -0.165  0.00  0.00     0.033 A 
BRANCH  21  24
ATOM     24  N   UNL d   1       3.241   8.425  -0.058  0.00  0.00    -0.116 N 
ATOM     25  O   UNL d   1       2.581   9.464   0.064  0.00  0.00    -0.532 OA
ATOM     26  O   UNL d   1       4.476   8.382  -0.182  0.00  0.00    -0.532 OA
ENDBRANCH  21  24
ENDBRANCH  16  18
ENDBRANCH   2  16
TORSDOF 7
