REMARK  3 active torsions:
REMARK  status: ('A' for Active; 'I' for Inactive)
REMARK    1  A    between atoms: C_2  and  N_1 
REMARK    2  A    between atoms: O_11  and  C_6 
REMARK    3  A    between atoms: C_13  and  O_11 
ROOT
ATOM      1  C   UNL d   1       0.255  -0.912   0.877  0.00  0.00     0.118 A 
ATOM      2  N   UNL d   1      -1.700  -2.206   1.433  0.00  0.00    -0.344 N 
ATOM      3  HN  UNL d   1      -2.575  -2.653   1.157  1.00  0.00     0.167 HD
ATOM      4  C   UNL d   1      -1.244  -2.272   2.706  0.00  0.00     0.148 A 
ATOM      5  C   UNL d   1      -0.945  -1.520   0.541  0.00  0.00     0.126 A 
ATOM      6  C   UNL d   1       0.728  -1.023   2.188  0.00  0.00     0.041 A 
ATOM      7  C   UNL d   1      -0.036  -1.726   3.120  0.00  0.00     0.059 A 
ENDROOT
BRANCH   4   8
ATOM      8  O   UNL d   1      -1.992  -2.934   3.669  0.00  0.00    -0.292 OA
BRANCH   8   9
ATOM      9  C   UNL d   1      -3.357  -2.938   3.519  0.00  0.00     0.094 A 
ATOM     10  C   UNL d   1      -4.101  -1.825   3.124  0.00  0.00     0.064 A 
ATOM     11  C   UNL d   1      -5.484  -1.936   3.031  0.00  0.00     0.052 A 
ATOM     12 CL   UNL d   1      -6.428  -0.602   2.505  0.00  0.00    -0.083 Cl
ATOM     13  C   UNL d   1      -6.079  -3.140   3.372  0.00  0.00     0.111 A 
ATOM     14  N   UNL d   1      -5.390  -4.228   3.798  0.00  0.00    -0.371 N 
ATOM     15  C   UNL d   1      -4.043  -4.097   3.861  0.00  0.00     0.124 A 
ATOM     16  HN  UNL d   1      -5.859  -5.096   4.056  1.00  0.00     0.164 HD
ENDBRANCH   8   9
ENDBRANCH   4   8
BRANCH   1  17
ATOM     17  N   UNL d   1       0.991  -0.159  -0.127  0.00  0.00    -0.114 N 
ATOM     18  O   UNL d   1       0.493  -0.064  -1.257  0.00  0.00    -0.532 OA
ATOM     19  O   UNL d   1       2.069   0.349   0.213  0.00  0.00    -0.532 OA
ENDBRANCH   1  17
TORSDOF 3
