REMARK  4 active torsions:
REMARK  status: ('A' for Active; 'I' for Inactive)
REMARK    1  A    between atoms: C_3  and  C_1 
REMARK    2  A    between atoms: C_4  and  C_1 
REMARK    3  A    between atoms: C_5  and  C_1 
REMARK    4  A    between atoms: O_6  and  C_1 
ROOT
ATOM      1  C   UNL d   1       0.904  -0.081  -0.035  0.00  0.00     0.143 C 
ENDROOT
BRANCH   1   2
ATOM      2  C   UNL d   1       0.481   1.339   0.539  0.00  0.00     0.264 C 
ATOM      3  N   UNL d   1       0.964   1.635   1.917  0.00  0.00     0.091 N 
ATOM      4  C   UNL d   1       0.923   3.091   2.085  0.00  0.00     0.270 C 
ATOM      5  H   UNL d   1       1.931   1.303   1.972  0.00  0.00     0.316 HD
ATOM      6  C   UNL d   1       0.809   3.694   0.696  0.00  0.00     0.032 C 
ATOM      7  C   UNL d   1       1.063   2.527  -0.236  0.00  0.00     0.041 C 
ENDBRANCH   1   2
BRANCH   1   8
ATOM      8  C   UNL d   1       0.365  -0.370  -1.455  0.00  0.00    -0.017 A 
ATOM      9  C   UNL d   1       1.014  -1.323  -2.269  0.00  0.00     0.010 A 
ATOM     10  C   UNL d   1       0.556  -1.614  -3.557  0.00  0.00     0.001 A 
ATOM     11  C   UNL d   1      -0.570  -0.972  -4.057  0.00  0.00     0.000 A 
ATOM     12  C   UNL d   1      -1.245  -0.047  -3.266  0.00  0.00     0.001 A 
ATOM     13  C   UNL d   1      -0.787   0.245  -1.977  0.00  0.00     0.010 A 
ENDBRANCH   1   8
BRANCH   1  14
ATOM     14  C   UNL d   1       0.506  -1.221   0.924  0.00  0.00    -0.017 A 
ATOM     15  C   UNL d   1      -0.821  -1.369   1.369  0.00  0.00     0.010 A 
ATOM     16  C   UNL d   1      -1.182  -2.402   2.238  0.00  0.00     0.001 A 
ATOM     17  C   UNL d   1      -0.227  -3.317   2.675  0.00  0.00     0.000 A 
ATOM     18  C   UNL d   1       1.088  -3.201   2.238  0.00  0.00     0.001 A 
ATOM     19  C   UNL d   1       1.451  -2.166   1.371  0.00  0.00     0.010 A 
ENDBRANCH   1  14
BRANCH   1  20
ATOM     20  O   UNL d   1       2.353  -0.038  -0.115  0.00  0.00    -0.378 OA
ATOM     21  H   UNL d   1       2.574   0.305  -0.996  0.00  0.00     0.211 HD
ENDBRANCH   1  20
TORSDOF 4
