REMARK  10 active torsions:
REMARK  status: ('A' for Active; 'I' for Inactive)
REMARK    1  A    between atoms: N_2  and  S_1 
REMARK    2  A    between atoms: C_8  and  S_1 
REMARK    3  A    between atoms: N_6  and  N_2 
REMARK    4  A    between atoms: C_3  and  C_12 
REMARK       I    between atoms: C_4  and  N_6 
REMARK    5  A    between atoms: C_9  and  C_4 
REMARK       I    between atoms: C_5  and  N_7 
REMARK    6  A    between atoms: C_13  and  C_5 
REMARK    7  A    between atoms: N_7  and  C_9 
REMARK    8  A    between atoms: C_26  and  C_9 
REMARK    9  A    between atoms: C_31  and  C_26 
REMARK   10  A    between atoms: S_30  and  C_31 
ROOT
ATOM      1  C   UNL d   1      -0.432   2.001  -3.961  0.00  0.00     0.179 C 
ENDROOT
BRANCH   1   2
ATOM      2  N   UNL d   1       0.589   2.056  -5.017  0.00  0.00    -0.344 N 
ATOM      3  C   UNL d   1       0.272   1.921  -6.352  0.00  0.00     0.252 C 
ATOM      4  O   UNL d   1      -0.881   1.758  -6.739  0.00  0.00    -0.268 OA
ATOM      5  H   UNL d   1       1.550   2.104  -4.701  0.00  0.00     0.163 HD
BRANCH   3   6
ATOM      6  C   UNL d   1       1.396   1.932  -7.337  0.00  0.00     0.032 A 
ATOM      7  C   UNL d   1       2.680   2.392  -7.026  0.00  0.00     0.018 A 
ATOM      8  C   UNL d   1       3.706   2.324  -7.977  0.00  0.00     0.017 A 
ATOM      9  C   UNL d   1       3.466   1.802  -9.258  0.00  0.00     0.048 A 
ATOM     10  C   UNL d   1       2.167   1.389  -9.583  0.00  0.00     0.017 A 
ATOM     11  C   UNL d   1       1.142   1.455  -8.632  0.00  0.00     0.018 A 
BRANCH   9  12
ATOM     12  C   UNL d   1       4.582   1.659 -10.267  0.00  0.00     0.417 C 
ATOM     13  F   UNL d   1       5.789   2.092  -9.807  0.00  0.00    -0.166 F 
ATOM     14  F   UNL d   1       4.773   0.364 -10.644  0.00  0.00    -0.166 F 
ATOM     15  F   UNL d   1       4.348   2.353 -11.414  0.00  0.00    -0.166 F 
ENDBRANCH   9  12
ENDBRANCH   3   6
ENDBRANCH   1   2
BRANCH   1  16
ATOM     16  C   UNL d   1       0.201   2.616  -2.696  0.00  0.00     0.259 C 
ATOM     17  N   UNL d   1      -0.679   2.990  -1.698  0.00  0.00    -0.259 N 
ATOM     18  H   UNL d   1      -1.676   2.770  -1.720  0.00  0.00     0.190 HD
ATOM     19  O   UNL d   1       1.423   2.718  -2.554  0.00  0.00    -0.269 OA
BRANCH  17  20
ATOM     20  N   UNL d   1      -0.092   3.418  -0.419  0.00  0.00    -0.220 N 
ATOM     21  H   UNL d   1       0.936   3.432  -0.420  0.00  0.00     0.200 HD
BRANCH  20  22
ATOM     22  S   UNL d   1      -0.791   2.800   1.001  0.00  0.00     0.276 S 
ATOM     23  O   UNL d   1      -0.483   1.386   1.043  0.00  0.00    -0.199 OA
ATOM     24  O   UNL d   1      -2.159   3.268   1.067  0.00  0.00    -0.199 OA
BRANCH  22  25
ATOM     25  C   UNL d   1       0.165   3.613   2.260  0.00  0.00     0.081 A 
ATOM     26  C   UNL d   1      -0.313   4.790   2.846  0.00  0.00     0.027 A 
ATOM     27  C   UNL d   1       0.426   5.405   3.860  0.00  0.00     0.025 A 
ATOM     28  C   UNL d   1       1.629   4.840   4.290  0.00  0.00     0.034 A 
ATOM     29  C   UNL d   1       2.101   3.660   3.715  0.00  0.00     0.025 A 
ATOM     30 CL   UNL d   1       2.530   5.598   5.542  0.00  0.00    -0.084 Cl
ATOM     31  C   UNL d   1       1.365   3.037   2.700  0.00  0.00     0.027 A 
ENDBRANCH  22  25
ENDBRANCH  20  22
ENDBRANCH  17  20
ENDBRANCH   1  16
BRANCH   1  32
ATOM     32  C   UNL d   1      -0.885   0.545  -3.741  0.00  0.00     0.045 C 
BRANCH  32  33
ATOM     33  C   UNL d   1      -1.978   0.300  -2.696  0.00  0.00     0.076 C 
BRANCH  33  34
ATOM     34  S   UNL d   1      -3.420   1.382  -2.954  0.00  0.00    -0.173 SA
ATOM     35  C   UNL d   1      -4.463   0.812  -1.593  0.00  0.00     0.089 C 
ENDBRANCH  33  34
ENDBRANCH  32  33
ENDBRANCH   1  32
TORSDOF 10
