REMARK  5 active torsions:
REMARK  status: ('A' for Active; 'I' for Inactive)
REMARK       I    between atoms: N_2  and  C_1 
REMARK    1  A    between atoms: C_4  and  C_1 
REMARK       I    between atoms: C_3  and  N_5 
REMARK    2  A    between atoms: C_18  and  C_3 
REMARK    3  A    between atoms: N_5  and  C_19 
REMARK    4  A    between atoms: C_6  and  C_7 
REMARK    5  A    between atoms: C_20  and  C_18 
ROOT
ATOM      1  C   UNL d   1       0.812  -0.109  -0.147  0.00  0.00     0.253 C 
ATOM      2  N   UNL d   1       0.186   0.518  -1.228  0.00  0.00    -0.348 N 
ATOM      3  C   UNL d   1      -0.915   1.477  -1.181  0.00  0.00     0.128 C 
ATOM      4  C   UNL d   1       0.580   0.149  -2.584  0.00  0.00     0.128 C 
ATOM      5  O   UNL d   1       1.782  -0.850  -0.286  0.00  0.00    -0.267 OA
ATOM      6  C   UNL d   1      -2.156   0.833  -1.792  0.00  0.00     0.045 C 
ATOM      7  C   UNL d   1      -0.604  -0.466  -3.332  0.00  0.00     0.045 C 
ATOM      8  C   UNL d   1      -1.884   0.381  -3.236  0.00  0.00     0.087 C 
ENDROOT
BRANCH   1   9
ATOM      9  C   UNL d   1       0.333   0.120   1.244  0.00  0.00     0.032 A 
ATOM     10  C   UNL d   1      -1.018   0.113   1.587  0.00  0.00     0.017 A 
ATOM     11  C   UNL d   1      -1.423   0.413   2.889  0.00  0.00     0.009 A 
ATOM     12  C   UNL d   1      -0.488   0.641   3.913  0.00  0.00    -0.051 A 
ATOM     13  C   UNL d   1       0.873   0.543   3.574  0.00  0.00     0.009 A 
ATOM     14  C   UNL d   1       1.280   0.291   2.257  0.00  0.00     0.017 A 
BRANCH  12  15
ATOM     15  C   UNL d   1      -0.977   0.978   5.331  0.00  0.00    -0.024 C 
ATOM     16  C   UNL d   1       0.164   1.078   6.367  0.00  0.00     0.019 C 
ATOM     17  C   UNL d   1      -1.709   2.337   5.311  0.00  0.00     0.019 C 
ATOM     18  C   UNL d   1      -1.954  -0.110   5.830  0.00  0.00     0.019 C 
ENDBRANCH  12  15
ENDBRANCH   1   9
BRANCH   8  19
ATOM     19  N   UNL d   1      -1.852   1.525  -4.141  0.00  0.00    -0.356 N 
ATOM     20  C   UNL d   1      -3.015   2.155  -4.537  0.00  0.00     0.222 C 
ATOM     21  O   UNL d   1      -4.136   1.752  -4.234  0.00  0.00    -0.273 OA
ATOM     22  H   UNL d   1      -0.963   1.935  -4.399  0.00  0.00     0.162 HD
BRANCH  20  23
ATOM     23  C   UNL d   1      -2.802   3.413  -5.356  0.00  0.00     0.141 C 
BRANCH  23  24
ATOM     24  C   UNL d   1      -2.629   3.156  -6.831  0.00  0.00    -0.050 A 
ATOM     25  C   UNL d   1      -3.632   2.506  -7.564  0.00  0.00     0.007 A 
ATOM     26  C   UNL d   1      -3.505   2.336  -8.943  0.00  0.00     0.001 A 
ATOM     27  C   UNL d   1      -2.376   2.814  -9.604  0.00  0.00     0.000 A 
ATOM     28  C   UNL d   1      -1.368   3.453  -8.885  0.00  0.00     0.001 A 
ATOM     29  C   UNL d   1      -1.492   3.624  -7.505  0.00  0.00     0.007 A 
ENDBRANCH  23  24
ENDBRANCH  20  23
ENDBRANCH   8  19
TORSDOF 5
