REMARK  6 active torsions:
REMARK  status: ('A' for Active; 'I' for Inactive)
REMARK    1  A    between atoms: C_3  and  C_1 
REMARK    2  A    between atoms: N_21  and  C_3 
REMARK    3  A    between atoms: C_4  and  C_10 
REMARK    4  A    between atoms: O_14  and  N_5 
REMARK    5  A    between atoms: C_7  and  O_14 
REMARK       I    between atoms: N_11  and  C_7 
REMARK    6  A    between atoms: C_17  and  N_11 
ROOT
ATOM      1  C   UNL d   1       2.396   0.964  -1.808  0.00  0.00     0.127 C 
ATOM      2  N   UNL d   1       1.598   1.639  -2.600  0.00  0.00    -0.242 N 
ATOM      3  HN  UNL d   1       1.729   1.756  -3.605  1.00  0.00     0.196 HD
ENDROOT
BRANCH   2   4
ATOM      4  O   UNL d   1       0.535   2.176  -1.851  0.00  0.00    -0.179 OA
BRANCH   4   5
ATOM      5  C   UNL d   1      -0.399   2.864  -2.599  0.00  0.00     0.387 C 
ATOM      6  N   UNL d   1      -0.157   2.881  -3.954  0.00  0.00    -0.301 N 
ATOM      7  H   UNL d   1       0.662   2.341  -4.212  0.00  0.00     0.171 HD
ATOM      8  O   UNL d   1      -1.356   3.367  -2.020  0.00  0.00    -0.236 OA
BRANCH   6   9
ATOM      9  C   UNL d   1      -0.960   3.470  -4.949  0.00  0.00     0.037 A 
ATOM     10  C   UNL d   1      -2.051   4.293  -4.656  0.00  0.00     0.045 A 
ATOM     11  C   UNL d   1      -2.866   4.826  -5.668  0.00  0.00     0.050 A 
ATOM     12  C   UNL d   1      -2.565   4.532  -7.002  0.00  0.00     0.016 A 
ATOM     13  C   UNL d   1      -1.462   3.733  -7.312  0.00  0.00     0.003 A 
ATOM     14  C   UNL d   1      -0.660   3.210  -6.292  0.00  0.00     0.029 A 
BRANCH  11  15
ATOM     15  C   UNL d   1      -4.057   5.686  -5.321  0.00  0.00     0.417 C 
ATOM     16  F   UNL d   1      -4.181   5.949  -3.990  0.00  0.00    -0.166 F 
ATOM     17  F   UNL d   1      -4.019   6.902  -5.935  0.00  0.00    -0.166 F 
ATOM     18  F   UNL d   1      -5.235   5.116  -5.698  0.00  0.00    -0.166 F 
ENDBRANCH  11  15
ENDBRANCH   6   9
ENDBRANCH   4   5
ENDBRANCH   2   4
BRANCH   1  19
ATOM     19  C   UNL d   1       2.135   0.781  -0.277  0.00  0.00     0.222 C 
ATOM     20  O   UNL d   1       2.706  -0.425   0.238  0.00  0.00    -0.333 OA
ATOM     21  C   UNL d   1       3.969  -0.265   0.738  0.00  0.00     0.103 A 
ATOM     22  C   UNL d   1       4.660  -1.436   1.048  0.00  0.00     0.040 A 
ATOM     23  C   UNL d   1       4.589   0.975   0.889  0.00  0.00     0.102 A 
ATOM     24  C   UNL d   1       5.988  -1.368   1.471  0.00  0.00     0.003 A 
ATOM     25  C   UNL d   1       6.619  -0.130   1.591  0.00  0.00     0.003 A 
ATOM     26  C   UNL d   1       5.918   1.043   1.305  0.00  0.00     0.039 A 
ATOM     27  O   UNL d   1       3.970   2.162   0.609  0.00  0.00    -0.345 OA
ATOM     28  C   UNL d   1       2.550   2.011   0.527  0.00  0.00     0.216 C 
ENDBRANCH   1  19
BRANCH   1  29
ATOM     29  N   UNL d   1       3.506   0.375  -2.355  0.00  0.00    -0.385 N 
ATOM     30  H   UNL d   1       3.915  -0.400  -1.846  0.00  0.00     0.157 HD
ATOM     31  H   UNL d   1       3.498   0.268  -3.363  0.00  0.00     0.157 HD
ENDBRANCH   1  29
TORSDOF 6
