REMARK  1 active torsions:
REMARK  status: ('A' for Active; 'I' for Inactive)
REMARK    1  A    between atoms: C_12  and  C_9 
ROOT
ATOM      1  C   UNL d   1       0.228  -0.768   0.002  0.00  0.00     0.147 A 
ATOM      2  N   UNL d   1       0.269   0.633   0.003  0.00  0.00    -0.243 N 
ATOM      3  N   UNL d   1      -0.946  -1.473   0.004  0.00  0.00    -0.336 N 
ATOM      4  HN  UNL d   1      -0.953  -2.493   0.003  1.00  0.00     0.167 HD
ATOM      5  C   UNL d   1       1.540  -1.171  -0.000  0.00  0.00     0.080 A 
ATOM      6  N   UNL d   1       1.549   1.094   0.002  0.00  0.00    -0.295 N 
ATOM      7  HN  UNL d   1       1.856   2.067   0.002  1.00  0.00     0.187 HD
ATOM      8  C   UNL d   1       2.320  -0.002   0.001  0.00  0.00     0.043 A 
ATOM      9  C   UNL d   1      -2.057  -0.784   0.007  0.00  0.00     0.120 A 
ATOM     10  C   UNL d   1      -0.924   1.373   0.006  0.00  0.00     0.034 A 
ATOM     11  C   UNL d   1      -2.101   0.721   0.009  0.00  0.00     0.061 A 
ATOM     12 BR   UNL d   1       2.173  -2.934  -0.003  0.00  0.00    -0.045 Br
ATOM     13  C   UNL d   1       3.798   0.143   0.000  0.00  0.00     0.071 C 
ATOM     14  C   UNL d   1      -0.871   2.871   0.007  0.00  0.00     0.070 C 
ENDROOT
BRANCH   9  15
ATOM     15  C   UNL d   1      -3.404  -1.513   0.012  0.00  0.00     0.432 C 
ATOM     16  F   UNL d   1      -4.466  -0.656   0.006  0.00  0.00    -0.165 F 
ATOM     17  F   UNL d   1      -3.562  -2.316  -1.075  0.00  0.00    -0.165 F 
ATOM     18  F   UNL d   1      -3.561  -2.300   1.110  0.00  0.00    -0.165 F 
ENDBRANCH   9  15
TORSDOF 1
