REMARK  3 active torsions:
REMARK  status: ('A' for Active; 'I' for Inactive)
REMARK    1  A    between atoms: O_4  and  C_3 
REMARK    2  A    between atoms: C_6  and  O_4 
REMARK    3  A    between atoms: N_10  and  C_7 
ROOT
ATOM      1  N   UNL d   1      -1.118   1.242  -0.855  0.00  0.00    -0.345 N 
ATOM      2  HN  UNL d   1      -1.666   1.920  -1.385  1.00  0.00     0.167 HD
ATOM      3  C   UNL d   1      -1.706   0.296  -0.092  0.00  0.00     0.148 A 
ATOM      4  C   UNL d   1       0.234   1.244  -0.878  0.00  0.00     0.113 A 
ATOM      5  C   UNL d   1       1.044   0.375  -0.149  0.00  0.00     0.021 A 
ATOM      6  C   UNL d   1      -0.999  -0.687   0.585  0.00  0.00     0.058 A 
ATOM      7  C   UNL d   1       0.394  -0.649   0.540  0.00  0.00     0.029 A 
ENDROOT
BRANCH   3   8
ATOM      8  O   UNL d   1      -3.091   0.246   0.006  0.00  0.00    -0.294 OA
BRANCH   8   9
ATOM      9  C   UNL d   1      -3.787   1.429  -0.096  0.00  0.00     0.077 A 
ATOM     10  C   UNL d   1      -5.023   1.372  -0.743  0.00  0.00     0.039 A 
ATOM     11  C   UNL d   1      -5.804   2.524  -0.864  0.00  0.00     0.022 A 
ATOM     12  C   UNL d   1      -5.348   3.728  -0.327  0.00  0.00     0.011 A 
ATOM     13  C   UNL d   1      -4.131   3.786   0.348  0.00  0.00     0.022 A 
ATOM     14 BR   UNL d   1      -6.391   5.294  -0.512  0.00  0.00    -0.051 Br
ATOM     15  C   UNL d   1      -3.358   2.631   0.477  0.00  0.00     0.039 A 
ENDBRANCH   8   9
ENDBRANCH   3   8
BRANCH   5  16
ATOM     16  N   UNL d   1       2.436   0.370  -0.285  0.00  0.00    -0.302 NA
ATOM     17  H   UNL d   1       2.830   1.278  -0.518  0.00  0.00     0.124 HD
ATOM     18  H   UNL d   1       2.923  -0.066   0.493  0.00  0.00     0.124 HD
ENDBRANCH   5  16
TORSDOF 3
