REMARK  6 active torsions:
REMARK  status: ('A' for Active; 'I' for Inactive)
REMARK    1  A    between atoms: C_2  and  C_1 
REMARK    2  A    between atoms: C_4  and  C_3 
REMARK    3  A    between atoms: S_10  and  C_6 
REMARK    4  A    between atoms: C_9  and  N_13 
REMARK    5  A    between atoms: C_26  and  S_10 
REMARK    6  A    between atoms: C_12  and  C_26 
REMARK       I    between atoms: N_13  and  C_12 
ROOT
ATOM      1  C   UNL d   1       0.069   0.242  -1.429  0.00  0.00     0.082 A 
ATOM      2  C   UNL d   1       1.650  -0.469   0.294  0.00  0.00     0.064 A 
ATOM      3  C   UNL d   1       0.917  -0.736  -0.865  0.00  0.00     0.036 A 
ATOM      4  C   UNL d   1      -0.015   1.475  -0.788  0.00  0.00     0.085 A 
ATOM      5  N   UNL d   1       0.714   1.749   0.323  0.00  0.00    -0.359 N 
ATOM      6  HN  UNL d   1       0.652   2.665   0.768  1.00  0.00     0.166 HD
ATOM      7  C   UNL d   1       1.522   0.794   0.835  0.00  0.00     0.105 A 
ENDROOT
BRANCH   4   8
ATOM      8  S   UNL d   1      -1.116   2.789  -1.323  0.00  0.00    -0.102 SA
BRANCH   8   9
ATOM      9  C   UNL d   1      -0.653   4.081  -0.127  0.00  0.00     0.184 C 
BRANCH   9  10
ATOM     10  C   UNL d   1      -1.465   5.362  -0.190  0.00  0.00     0.231 C 
ATOM     11  N   UNL d   1      -2.702   5.291  -0.803  0.00  0.00    -0.326 N 
ATOM     12  H   UNL d   1      -2.957   4.385  -1.182  0.00  0.00     0.169 HD
ATOM     13  O   UNL d   1      -1.020   6.361   0.380  0.00  0.00    -0.272 OA
BRANCH  11  14
ATOM     14  C   UNL d   1      -3.667   6.325  -0.884  0.00  0.00     0.037 A 
ATOM     15  C   UNL d   1      -3.427   7.645  -0.484  0.00  0.00     0.053 A 
ATOM     16  C   UNL d   1      -4.440   8.602  -0.544  0.00  0.00     0.037 A 
ATOM     17 CL   UNL d   1      -4.122  10.216  -0.036  0.00  0.00    -0.084 Cl
ATOM     18  C   UNL d   1      -5.709   8.268  -1.004  0.00  0.00     0.048 A 
ATOM     19  C   UNL d   1      -5.947   6.963  -1.423  0.00  0.00     0.037 A 
ATOM     20  C   UNL d   1      -4.935   5.997  -1.376  0.00  0.00     0.053 A 
ATOM     21 CL   UNL d   1      -7.510   6.531  -1.997  0.00  0.00    -0.084 Cl
ENDBRANCH  11  14
ENDBRANCH   9  10
ENDBRANCH   8   9
ENDBRANCH   4   8
BRANCH   1  22
ATOM     22  C   UNL d   1      -0.704  -0.059  -2.678  0.00  0.00     0.420 C 
ATOM     23  F   UNL d   1      -0.473  -1.319  -3.149  0.00  0.00    -0.166 F 
ATOM     24  F   UNL d   1      -2.052   0.015  -2.506  0.00  0.00    -0.166 F 
ATOM     25  F   UNL d   1      -0.397   0.770  -3.712  0.00  0.00    -0.166 F 
ENDBRANCH   1  22
BRANCH   2  26
ATOM     26  C   UNL d   1       2.540  -1.474   0.962  0.00  0.00     0.418 C 
ATOM     27  F   UNL d   1       2.507  -2.699   0.371  0.00  0.00    -0.166 F 
ATOM     28  F   UNL d   1       3.845  -1.092   0.965  0.00  0.00    -0.166 F 
ATOM     29  F   UNL d   1       2.204  -1.677   2.264  0.00  0.00    -0.166 F 
ENDBRANCH   2  26
TORSDOF 6
