REMARK  5 active torsions:
REMARK  status: ('A' for Active; 'I' for Inactive)
REMARK    1  A    between atoms: C_2  and  C_1 
REMARK    2  A    between atoms: C_13  and  C_6 
REMARK    3  A    between atoms: C_10  and  C_15 
REMARK    4  A    between atoms: C_11  and  C_16 
REMARK    5  A    between atoms: C_21  and  N_19 
ROOT
ATOM      1  C   UNL d   1      -1.462   2.281  -0.012  0.00  0.00     0.077 A 
ATOM      2  N   UNL d   1      -2.433   2.514   0.939  0.00  0.00    -0.334 N 
ATOM      3  HN  UNL d   1      -2.753   1.829   1.624  1.00  0.00     0.168 HD
ATOM      4  C   UNL d   1      -2.889   3.744   0.841  0.00  0.00     0.149 A 
ATOM      5  S   UNL d   1      -2.179   4.671  -0.431  0.00  0.00    -0.063 SA
ATOM      6  C   UNL d   1      -1.212   3.326  -0.872  0.00  0.00     0.085 A 
ATOM      7  N   UNL d   1      -3.822   4.301   1.652  0.00  0.00    -0.337 N 
ATOM      8  H   UNL d   1      -4.085   5.257   1.435  0.00  0.00     0.168 HD
ENDROOT
BRANCH   7   9
ATOM      9  C   UNL d   1      -4.889   3.582   2.230  0.00  0.00     0.035 A 
ATOM     10  C   UNL d   1      -5.406   4.011   3.458  0.00  0.00     0.045 A 
ATOM     11  C   UNL d   1      -6.507   3.369   4.050  0.00  0.00     0.050 A 
ATOM     12  C   UNL d   1      -7.103   2.287   3.384  0.00  0.00     0.032 A 
ATOM     13  C   UNL d   1      -6.616   1.852   2.143  0.00  0.00     0.050 A 
ATOM     14  C   UNL d   1      -5.504   2.502   1.585  0.00  0.00     0.045 A 
BRANCH  11  15
ATOM     15  C   UNL d   1      -7.037   3.862   5.376  0.00  0.00     0.417 C 
ATOM     16  F   UNL d   1      -8.172   3.224   5.776  0.00  0.00    -0.166 F 
ATOM     17  F   UNL d   1      -6.142   3.706   6.388  0.00  0.00    -0.166 F 
ATOM     18  F   UNL d   1      -7.345   5.188   5.346  0.00  0.00    -0.166 F 
ENDBRANCH  11  15
BRANCH  13  19
ATOM     19  C   UNL d   1      -7.280   0.732   1.382  0.00  0.00     0.417 C 
ATOM     20  F   UNL d   1      -8.362   0.208   2.022  0.00  0.00    -0.166 F 
ATOM     21  F   UNL d   1      -7.730   1.134   0.160  0.00  0.00    -0.166 F 
ATOM     22  F   UNL d   1      -6.441  -0.315   1.147  0.00  0.00    -0.166 F 
ENDBRANCH  13  19
ENDBRANCH   7   9
BRANCH   1  23
ATOM     23  C   UNL d   1      -0.759   0.976  -0.084  0.00  0.00     0.128 A 
ATOM     24  C   UNL d   1      -0.955  -0.091   0.762  0.00  0.00     0.074 A 
ATOM     25  C   UNL d   1      -0.092  -1.112   0.281  0.00  0.00     0.069 A 
ATOM     26  N   UNL d   1       0.585  -0.671  -0.790  0.00  0.00    -0.260 N 
ATOM     27  O   UNL d   1       0.185   0.633  -1.000  0.00  0.00    -0.235 OA
ATOM     28  HN  UNL d   1       1.262  -1.197  -1.342  1.00  0.00     0.195 HD
BRANCH  25  29
ATOM     29  C   UNL d   1       0.026  -2.487   0.776  0.00  0.00     0.014 A 
ATOM     30  C   UNL d   1       1.233  -3.210   0.805  0.00  0.00     0.048 A 
ATOM     31  C   UNL d   1       1.255  -4.543   1.238  0.00  0.00     0.048 A 
ATOM     32 CL   UNL d   1       2.765  -2.525   0.377  0.00  0.00    -0.083 Cl
ATOM     33  C   UNL d   1       0.081  -5.160   1.659  0.00  0.00     0.035 A 
ATOM     34  C   UNL d   1      -1.118  -4.458   1.665  0.00  0.00     0.025 A 
ATOM     35 CL   UNL d   1       0.112  -6.800   2.179  0.00  0.00    -0.084 Cl
ATOM     36  C   UNL d   1      -1.146  -3.131   1.225  0.00  0.00     0.017 A 
ENDBRANCH  25  29
ENDBRANCH   1  23
TORSDOF 5
