REMARK  6 active torsions:
REMARK  status: ('A' for Active; 'I' for Inactive)
REMARK    1  A    between atoms: C_2  and  N_1 
REMARK    2  A    between atoms: S_6  and  O_13 
REMARK    3  A    between atoms: C_17  and  S_6 
REMARK    4  A    between atoms: C_15  and  C_9 
REMARK    5  A    between atoms: O_13  and  N_18 
REMARK    6  A    between atoms: C_22  and  C_15 
ROOT
ATOM      1  C   UNL d   1       0.927   5.249   0.208  0.00  0.00     0.133 C 
ENDROOT
BRANCH   1   2
ATOM      2  C   UNL d   1       2.274   5.848   0.086  0.00  0.00     0.115 A 
ATOM      3  N   UNL d   1       2.849   6.612   1.022  0.00  0.00    -0.266 N 
ATOM      4  N   UNL d   1       4.016   6.963   0.396  0.00  0.00    -0.160 N 
ATOM      5  HN  UNL d   1       2.511   6.864   1.950  1.00  0.00     0.190 HD
ATOM      6  N   UNL d   1       4.112   6.430  -0.862  0.00  0.00     0.004 NA
ATOM      7  N   UNL d   1       3.003   5.743  -1.060  0.00  0.00    -0.270 N 
ATOM      8  HN  UNL d   1       2.743   5.234  -1.905  1.00  0.00     0.185 HD
BRANCH   4   9
ATOM      9  C   UNL d   1       5.042   7.801   0.914  0.00  0.00     0.165 A 
ATOM     10  N   UNL d   1       4.974   8.327   2.143  0.00  0.00    -0.242 N 
ATOM     11  O   UNL d   1       6.146   9.072   2.276  0.00  0.00    -0.241 OA
ATOM     12  HN  UNL d   1       4.229   8.209   2.830  1.00  0.00     0.196 HD
ATOM     13  C   UNL d   1       6.878   8.975   1.128  0.00  0.00     0.076 A 
ATOM     14  C   UNL d   1       6.215   8.177   0.232  0.00  0.00     0.087 A 
ATOM     15  C   UNL d   1       8.160   9.700   1.078  0.00  0.00     0.079 C 
ENDBRANCH   4   9
ENDBRANCH   1   2
BRANCH   1  16
ATOM     16  C   UNL d   1       0.921   3.730   0.110  0.00  0.00     0.014 C 
ATOM     17  N   UNL d   1       2.043   3.074   0.132  0.00  0.00    -0.257 N 
ATOM     18  HN  UNL d   1       2.956   3.515   0.242  1.00  0.00     0.195 HD
ATOM     19  C   UNL d   1      -0.449   3.087   0.018  0.00  0.00     0.066 C 
BRANCH  17  20
ATOM     20  O   UNL d   1       1.857   1.683  -0.014  0.00  0.00    -0.147 OA
BRANCH  20  21
ATOM     21  S   UNL d   1       3.065   0.750   0.603  0.00  0.00     0.318 S 
ATOM     22  O   UNL d   1       3.166   0.994   2.032  0.00  0.00    -0.191 OA
ATOM     23  O   UNL d   1       2.875  -0.605   0.112  0.00  0.00    -0.191 OA
BRANCH  21  24
ATOM     24  C   UNL d   1       4.566   1.365  -0.147  0.00  0.00     0.088 A 
ATOM     25  C   UNL d   1       5.248   2.429   0.456  0.00  0.00     0.027 A 
ATOM     26  C   UNL d   1       6.454   2.873  -0.091  0.00  0.00     0.025 A 
ATOM     27  C   UNL d   1       6.974   2.247  -1.225  0.00  0.00     0.034 A 
ATOM     28  C   UNL d   1       6.300   1.178  -1.819  0.00  0.00     0.025 A 
ATOM     29 CL   UNL d   1       8.465   2.791  -1.890  0.00  0.00    -0.084 Cl
ATOM     30  C   UNL d   1       5.092   0.730  -1.278  0.00  0.00     0.027 A 
ENDBRANCH  21  24
ENDBRANCH  20  21
ENDBRANCH  17  20
ENDBRANCH   1  16
TORSDOF 6
