REMARK  5 active torsions:
REMARK  status: ('A' for Active; 'I' for Inactive)
REMARK    1  A    between atoms: S_4  and  C_1 
REMARK       I    between atoms: N_6  and  C_1 
REMARK    2  A    between atoms: C_8  and  C_2 
REMARK    3  A    between atoms: O_13  and  C_3 
REMARK    4  A    between atoms: C_9  and  S_4 
REMARK    5  A    between atoms: C_16  and  C_8 
ROOT
ATOM      1  C   UNL d   1       2.955  -2.208   4.465  0.00  0.00     0.043 A 
ATOM      2  C   UNL d   1       2.908  -0.840   4.164  0.00  0.00     0.080 A 
ATOM      3  C   UNL d   1       2.033  -0.353   3.186  0.00  0.00     0.056 A 
ATOM      4  C   UNL d   1       2.125  -3.085   3.749  0.00  0.00     0.019 A 
ATOM      5  C   UNL d   1       1.202  -1.231   2.484  0.00  0.00     0.012 A 
ATOM      6  C   UNL d   1       1.258  -2.599   2.764  0.00  0.00     0.020 A 
ENDROOT
BRANCH   5   7
ATOM      7  S   UNL d   1      -0.009  -0.612   1.333  0.00  0.00    -0.029 SA
BRANCH   7   8
ATOM      8  C   UNL d   1       0.883  -0.601  -0.187  0.00  0.00     0.286 C 
ATOM      9  N   UNL d   1       0.134  -0.772  -1.352  0.00  0.00    -0.351 N 
ATOM     10  C   UNL d   1       0.821  -0.686  -2.631  0.00  0.00     0.152 C 
ATOM     11  C   UNL d   1      -1.297  -1.045  -1.436  0.00  0.00     0.152 C 
ATOM     12  O   UNL d   1       2.095  -0.414  -0.186  0.00  0.00    -0.260 OA
ENDBRANCH   7   8
ENDBRANCH   5   7
BRANCH   2  13
ATOM     13  O   UNL d   1       3.736   0.038   4.805  0.00  0.00    -0.360 OA
ATOM     14  H   UNL d   1       3.513   0.950   4.556  0.00  0.00     0.217 HD
ENDBRANCH   2  13
BRANCH   1  15
ATOM     15  C   UNL d   1       3.827  -2.747   5.557  0.00  0.00     0.162 C 
ATOM     16  O   UNL d   1       4.032  -2.092   6.576  0.00  0.00    -0.292 OA
BRANCH  15  17
ATOM     17  C   UNL d   1       4.360  -4.163   5.400  0.00  0.00     0.079 C 
ATOM     18  C   UNL d   1       5.671  -4.370   6.137  0.00  0.00     0.013 C 
ENDBRANCH  15  17
ENDBRANCH   1  15
TORSDOF 5
