REMARK  7 active torsions:
REMARK  status: ('A' for Active; 'I' for Inactive)
REMARK    1  A    between atoms: C_5  and  C_1 
REMARK    2  A    between atoms: C_24  and  N_2 
REMARK    3  A    between atoms: N_18  and  C_5 
REMARK    4  A    between atoms: C_7  and  C_13 
REMARK    5  A    between atoms: O_12  and  N_8 
REMARK    6  A    between atoms: C_11  and  O_12 
REMARK    7  A    between atoms: C_14  and  C_11 
ROOT
ATOM      1  C   UNL d   1      -0.707  -2.522  -0.204  0.00  0.00     0.127 C 
ATOM      2  N   UNL d   1       0.102  -3.537  -0.176  0.00  0.00    -0.244 N 
ATOM      3  HN  UNL d   1      -0.168  -4.481   0.100  1.00  0.00     0.196 HD
ENDROOT
BRANCH   2   4
ATOM      4  O   UNL d   1       1.405  -3.165  -0.578  0.00  0.00    -0.193 OA
BRANCH   4   5
ATOM      5  C   UNL d   1       2.269  -4.187  -0.325  0.00  0.00     0.315 C 
ATOM      6  O   UNL d   1       2.235  -4.949   0.634  0.00  0.00    -0.257 OA
BRANCH   5   7
ATOM      7  C   UNL d   1       3.267  -4.307  -1.427  0.00  0.00     0.041 A 
ATOM      8  C   UNL d   1       4.195  -5.355  -1.357  0.00  0.00     0.018 A 
ATOM      9  C   UNL d   1       5.055  -5.616  -2.427  0.00  0.00     0.017 A 
ATOM     10  C   UNL d   1       5.004  -4.834  -3.590  0.00  0.00     0.048 A 
ATOM     11  C   UNL d   1       4.110  -3.752  -3.637  0.00  0.00     0.017 A 
ATOM     12  C   UNL d   1       3.247  -3.489  -2.566  0.00  0.00     0.018 A 
BRANCH  10  13
ATOM     13  C   UNL d   1       5.860  -5.163  -4.792  0.00  0.00     0.417 C 
ATOM     14  F   UNL d   1       6.650  -6.258  -4.616  0.00  0.00    -0.166 F 
ATOM     15  F   UNL d   1       5.112  -5.419  -5.901  0.00  0.00    -0.166 F 
ATOM     16  F   UNL d   1       6.698  -4.146  -5.132  0.00  0.00    -0.166 F 
ENDBRANCH  10  13
ENDBRANCH   5   7
ENDBRANCH   4   5
ENDBRANCH   2   4
BRANCH   1  17
ATOM     17  C   UNL d   1      -2.121  -2.785  -0.044  0.00  0.00     0.092 A 
ATOM     18  N   UNL d   1      -2.733  -3.845   0.587  0.00  0.00    -0.289 N 
ATOM     19  N   UNL d   1      -4.084  -3.817   0.492  0.00  0.00    -0.303 N 
ATOM     20  C   UNL d   1      -4.346  -2.725  -0.228  0.00  0.00     0.024 A 
ATOM     21  HN  UNL d   1      -4.751  -4.481   0.884  1.00  0.00     0.186 HD
ATOM     22  C   UNL d   1      -3.166  -2.032  -0.556  0.00  0.00     0.060 A 
ATOM     23  C   UNL d   1      -5.739  -2.384  -0.602  0.00  0.00     0.070 C 
BRANCH  18  24
ATOM     24  C   UNL d   1      -2.136  -4.900   1.387  0.00  0.00     0.145 C 
ATOM     25  C   UNL d   1      -2.003  -6.207   0.625  0.00  0.00     0.028 C 
ENDBRANCH  18  24
ENDBRANCH   1  17
BRANCH   1  26
ATOM     26  N   UNL d   1      -0.262  -1.234  -0.409  0.00  0.00    -0.285 NA
ATOM     27  H   UNL d   1      -0.836  -0.527   0.036  0.00  0.00     0.125 HD
ATOM     28  H   UNL d   1       0.719  -1.136  -0.174  0.00  0.00     0.125 HD
ENDBRANCH   1  26
TORSDOF 7
