REMARK  5 active torsions:
REMARK  status: ('A' for Active; 'I' for Inactive)
REMARK    1  A    between atoms: C_2  and  S_1 
REMARK    2  A    between atoms: N_5  and  S_1 
REMARK    3  A    between atoms: N_4  and  C_3 
REMARK    4  A    between atoms: N_12  and  N_5 
REMARK    5  A    between atoms: C_6  and  N_12 
ROOT
ATOM      1  C   UNL d   1       5.603   0.555   2.332  0.00  0.00     0.132 A 
ATOM      2  C   UNL d   1       4.697   0.218   1.303  0.00  0.00     0.084 A 
ATOM      3  N   UNL d   1      10.082  -0.466   0.763  0.00  0.00    -0.191 NA
ATOM      4  C   UNL d   1       5.277  -0.236   0.102  0.00  0.00     0.035 A 
ATOM      5  C   UNL d   1       6.998   0.388   2.211  0.00  0.00     0.061 A 
ATOM      6  C   UNL d   1       8.940  -0.299   0.876  0.00  0.00     0.099 C 
ATOM      7  C   UNL d   1       7.527  -0.101   1.019  0.00  0.00     0.047 A 
ATOM      8  C   UNL d   1       6.665  -0.394  -0.040  0.00  0.00     0.025 A 
ENDROOT
BRANCH   1   9
ATOM      9  N   UNL d   1       5.146   1.161   3.571  0.00  0.00    -0.113 N 
ATOM     10  O   UNL d   1       4.512   2.220   3.492  0.00  0.00    -0.532 OA
ATOM     11  O   UNL d   1       5.471   0.591   4.622  0.00  0.00    -0.532 OA
ENDBRANCH   1   9
BRANCH   2  12
ATOM     12  N   UNL d   1       3.285   0.269   1.410  0.00  0.00    -0.285 N 
ATOM     13  C   UNL d   1       2.694  -0.549   2.487  0.00  0.00     0.179 C 
BRANCH  12  14
ATOM     14  N   UNL d   1       2.408   0.460   0.179  0.00  0.00    -0.221 N 
ATOM     15  H   UNL d   1       2.805   0.876  -0.663  0.00  0.00     0.200 HD
BRANCH  14  16
ATOM     16  S   UNL d   1       0.738   0.082   0.143  0.00  0.00     0.277 S 
ATOM     17  O   UNL d   1       0.699  -1.360   0.279  0.00  0.00    -0.199 OA
ATOM     18  O   UNL d   1       0.040   0.930   1.091  0.00  0.00    -0.199 OA
BRANCH  16  19
ATOM     19  C   UNL d   1       0.185   0.558  -1.519  0.00  0.00     0.094 C 
ATOM     20  C   UNL d   1      -0.510  -0.378  -2.336  0.00  0.00    -0.032 C 
ATOM     21  C   UNL d   1      -0.773  -0.060  -3.696  0.00  0.00    -0.048 C 
ATOM     22  C   UNL d   1      -1.067  -1.684  -1.814  0.00  0.00     0.050 C 
ATOM     23  C   UNL d   1      -1.320  -1.104  -4.654  0.00  0.00     0.049 C 
ATOM     24  C   UNL d   1      -0.572   1.258  -4.169  0.00  0.00    -0.049 C 
ATOM     25  C   UNL d   1       0.010   2.231  -3.318  0.00  0.00    -0.048 C 
ATOM     26  C   UNL d   1      -1.043   1.604  -5.571  0.00  0.00     0.049 C 
ATOM     27  C   UNL d   1       0.420   1.881  -1.995  0.00  0.00    -0.032 C 
ATOM     28  C   UNL d   1       0.152   3.648  -3.841  0.00  0.00     0.049 C 
ATOM     29  C   UNL d   1       1.008   2.977  -1.131  0.00  0.00     0.050 C 
ENDBRANCH  16  19
ENDBRANCH  14  16
ENDBRANCH  12  14
ENDBRANCH   2  12
TORSDOF 5
