REMARK  5 active torsions:
REMARK  status: ('A' for Active; 'I' for Inactive)
REMARK    1  A    between atoms: C_12  and  N_1 
REMARK    2  A    between atoms: C_8  and  C_5 
REMARK    3  A    between atoms: S_6  and  N_10 
REMARK    4  A    between atoms: C_11  and  S_6 
REMARK    5  A    between atoms: N_10  and  C_24 
ROOT
ATOM      1  C   UNL d   1       2.193  -1.259  -0.175  0.00  0.00     0.057 A 
ATOM      2  C   UNL d   1       4.432  -2.899  -0.401  0.00  0.00     0.042 A 
ATOM      3  C   UNL d   1       2.403  -2.007  -1.341  0.00  0.00     0.034 A 
ATOM      4  C   UNL d   1       3.163  -1.250   0.836  0.00  0.00     0.034 A 
ATOM      5  C   UNL d   1       4.276  -2.095   0.729  0.00  0.00     0.032 A 
ATOM      6  C   UNL d   1       3.525  -2.821  -1.453  0.00  0.00     0.032 A 
ENDROOT
BRANCH   1   7
ATOM      7  N   UNL d   1       0.975  -0.548  -0.003  0.00  0.00    -0.255 N 
ATOM      8  C   UNL d   1      -0.293  -0.893  -0.461  0.00  0.00     0.076 C 
ATOM      9  C   UNL d   1      -1.065   0.237  -0.293  0.00  0.00     0.069 C 
ATOM     10  C   UNL d   1      -0.714  -2.205  -0.879  0.00  0.00     0.033 A 
ATOM     11  C   UNL d   1      -0.271   1.136   0.461  0.00  0.00     0.135 C 
ATOM     12  N   UNL d   1       0.949   0.615   0.700  0.00  0.00    -0.289 N 
ATOM     13  HN  UNL d   1       1.691   1.007   1.281  1.00  0.00     0.187 HD
ATOM     14  S   UNL d   1      -1.854  -2.433  -2.139  0.00  0.00    -0.100 SA
ATOM     15  C   UNL d   1      -0.340  -3.416  -0.323  0.00  0.00     0.021 A 
ATOM     16  C   UNL d   1      -1.853  -4.130  -1.928  0.00  0.00     0.050 A 
ATOM     17  C   UNL d   1      -1.004  -4.523  -0.921  0.00  0.00     0.008 A 
BRANCH  11  18
ATOM     18  C   UNL d   1      -0.729   2.468   0.993  0.00  0.00     0.434 C 
ATOM     19  F   UNL d   1       0.190   3.096   1.771  0.00  0.00    -0.165 F 
ATOM     20  F   UNL d   1      -1.043   3.326  -0.016  0.00  0.00    -0.165 F 
ATOM     21  F   UNL d   1      -1.857   2.338   1.746  0.00  0.00    -0.165 F 
ENDBRANCH  11  18
ENDBRANCH   1   7
BRANCH   2  22
ATOM     22  N   UNL d   1       5.482  -3.839  -0.510  0.00  0.00    -0.281 N 
ATOM     23  H   UNL d   1       6.444  -3.521  -0.601  0.00  0.00     0.179 HD
BRANCH  22  24
ATOM     24  S   UNL d   1       5.307  -5.359   0.190  0.00  0.00     0.263 S 
ATOM     25  O   UNL d   1       6.570  -6.036   0.000  0.00  0.00    -0.200 OA
ATOM     26  O   UNL d   1       4.737  -5.210   1.516  0.00  0.00    -0.200 OA
BRANCH  24  27
ATOM     27  C   UNL d   1       4.107  -6.170  -0.847  0.00  0.00     0.079 A 
ATOM     28  C   UNL d   1       4.518  -6.806  -2.023  0.00  0.00     0.026 A 
ATOM     29  C   UNL d   1       3.586  -7.515  -2.788  0.00  0.00     0.008 A 
ATOM     30  C   UNL d   1       2.249  -7.607  -2.377  0.00  0.00    -0.062 A 
ATOM     31  C   UNL d   1       1.857  -6.980  -1.188  0.00  0.00     0.008 A 
ATOM     32  C   UNL d   1       1.263  -8.404  -3.183  0.00  0.00     0.048 C 
ATOM     33  C   UNL d   1       2.777  -6.257  -0.426  0.00  0.00     0.026 A 
ENDBRANCH  24  27
ENDBRANCH  22  24
ENDBRANCH   2  22
TORSDOF 5
