REMARK  5 active torsions:
REMARK  status: ('A' for Active; 'I' for Inactive)
REMARK    1  A    between atoms: S_2  and  C_1 
REMARK    2  A    between atoms: C_5  and  C_1 
REMARK    3  A    between atoms: C_3  and  S_2 
REMARK    4  A    between atoms: N_12  and  C_4 
REMARK    5  A    between atoms: O_14  and  C_5 
ROOT
ATOM      1  S   UNL d   1       2.589  -0.085   0.111  0.00  0.00    -0.083 SA
ENDROOT
BRANCH   1   2
ATOM      2  C   UNL d   1       0.835  -0.024   0.247  0.00  0.00     0.096 C 
ATOM      3  C   UNL d   1       0.092  -0.100  -0.876  0.00  0.00     0.110 C 
BRANCH   3   4
ATOM      4  N   UNL d   1      -1.266  -0.186  -1.180  0.00  0.00    -0.397 N 
ATOM      5  C   UNL d   1      -2.254  -0.850  -0.330  0.00  0.00     0.148 C 
ATOM      6  C   UNL d   1      -1.792   0.264  -2.469  0.00  0.00     0.148 C 
ENDBRANCH   3   4
BRANCH   2   7
ATOM      7  C   UNL d   1       0.267   0.018   1.635  0.00  0.00     0.301 C 
ATOM      8  O   UNL d   1      -0.774  -0.518   1.992  0.00  0.00    -0.259 OA
BRANCH   7   9
ATOM      9  O   UNL d   1       1.062   0.747   2.466  0.00  0.00    -0.322 OA
ATOM     10  C   UNL d   1       0.622   0.883   3.821  0.00  0.00     0.213 C 
ENDBRANCH   7   9
ENDBRANCH   2   7
ENDBRANCH   1   2
BRANCH   1  11
ATOM     11  C   UNL d   1       2.971   1.632  -0.242  0.00  0.00     0.012 A 
ATOM     12  C   UNL d   1       3.260   2.461   0.859  0.00  0.00     0.027 A 
ATOM     13  C   UNL d   1       3.606   3.815   0.705  0.00  0.00    -0.039 A 
ATOM     14  C   UNL d   1       3.863   4.657   1.922  0.00  0.00     0.050 C 
ATOM     15  C   UNL d   1       3.671   4.338  -0.589  0.00  0.00     0.040 A 
ATOM     16  C   UNL d   1       3.424   3.520  -1.694  0.00  0.00     0.032 A 
ATOM     17 CL   UNL d   1       4.060   5.996  -0.879  0.00  0.00    -0.084 Cl
ATOM     18  C   UNL d   1       3.090   2.159  -1.540  0.00  0.00    -0.043 A 
ATOM     19  C   UNL d   1       2.878   1.372  -2.804  0.00  0.00     0.049 C 
ENDBRANCH   1  11
TORSDOF 5
