REMARK  4 active torsions:
REMARK  status: ('A' for Active; 'I' for Inactive)
REMARK       I    between atoms: N_2  and  C_1 
REMARK       I    between atoms: N_5  and  C_1 
REMARK    1  A    between atoms: C_3  and  N_2 
REMARK    2  A    between atoms: O_6  and  C_4 
REMARK    3  A    between atoms: C_8  and  N_5 
REMARK    4  A    between atoms: C_10  and  O_6 
ROOT
ATOM      1  C   UNL d   1       1.114  -1.362  -2.006  0.00  0.00     0.070 A 
ATOM      2  C   UNL d   1       2.043  -2.308  -1.534  0.00  0.00     0.102 A 
ATOM      3  C   UNL d   1       0.725  -1.422  -3.354  0.00  0.00     0.032 A 
ATOM      4  C   UNL d   1       2.615  -3.228  -2.427  0.00  0.00     0.039 A 
ATOM      5  C   UNL d   1       1.291  -2.349  -4.232  0.00  0.00     0.002 A 
ATOM      6  C   UNL d   1       2.246  -3.247  -3.771  0.00  0.00     0.003 A 
ENDROOT
BRANCH   1   7
ATOM      7  N   UNL d   1       0.582  -0.367  -1.152  0.00  0.00    -0.306 N 
ATOM      8  C   UNL d   1       0.143   0.882  -1.561  0.00  0.00     0.325 C 
ATOM      9  N   UNL d   1      -0.505   1.528  -0.522  0.00  0.00    -0.309 N 
ATOM     10  O   UNL d   1       0.316   1.346  -2.681  0.00  0.00    -0.247 OA
ATOM     11  H   UNL d   1      -0.856   0.923   0.207  0.00  0.00     0.170 HD
ATOM     12  H   UNL d   1       0.853  -0.411  -0.182  0.00  0.00     0.171 HD
BRANCH   9  13
ATOM     13  C   UNL d   1      -0.928   2.872  -0.499  0.00  0.00     0.036 A 
ATOM     14  C   UNL d   1      -0.523   3.823  -1.438  0.00  0.00     0.031 A 
ATOM     15  C   UNL d   1      -0.962   5.150  -1.345  0.00  0.00     0.026 A 
ATOM     16  C   UNL d   1      -1.805   5.527  -0.305  0.00  0.00     0.034 A 
ATOM     17  C   UNL d   1      -2.214   4.592   0.641  0.00  0.00     0.026 A 
ATOM     18 CL   UNL d   1      -2.338   7.159  -0.186  0.00  0.00    -0.084 Cl
ATOM     19  C   UNL d   1      -1.774   3.267   0.546  0.00  0.00     0.031 A 
ENDBRANCH   9  13
ENDBRANCH   1   7
BRANCH   2  20
ATOM     20  O   UNL d   1       2.643  -2.305  -0.294  0.00  0.00    -0.309 OA
BRANCH  20  21
ATOM     21  C   UNL d   1       1.917  -2.254   0.870  0.00  0.00     0.076 A 
ATOM     22  C   UNL d   1       0.613  -2.717   1.033  0.00  0.00     0.037 A 
ATOM     23  C   UNL d   1      -0.022  -2.566   2.272  0.00  0.00     0.003 A 
ATOM     24  C   UNL d   1       0.657  -1.987   3.348  0.00  0.00     0.000 A 
ATOM     25  C   UNL d   1       1.976  -1.565   3.193  0.00  0.00     0.003 A 
ATOM     26  C   UNL d   1       2.602  -1.702   1.957  0.00  0.00     0.037 A 
ENDBRANCH  20  21
ENDBRANCH   2  20
TORSDOF 4
