REMARK  3 active torsions:
REMARK  status: ('A' for Active; 'I' for Inactive)
REMARK    1  A    between atoms: C_2  and  C_1 
REMARK    2  A    between atoms: C_9  and  C_7 
REMARK    3  A    between atoms: O_11  and  C_9 
ROOT
ATOM      1  C   UNL d   1       0.159  -2.488   0.029  0.00  0.00    -0.005 A 
ATOM      2  C   UNL d   1       0.594  -3.174   1.182  0.00  0.00     0.049 A 
ATOM      3  C   UNL d   1      -0.269  -3.282  -1.060  0.00  0.00     0.013 A 
ATOM      4  C   UNL d   1       0.592  -4.585   1.216  0.00  0.00     0.019 A 
ATOM      5  C   UNL d   1      -0.311  -4.678  -1.001  0.00  0.00     0.001 A 
ATOM      6  C   UNL d   1       0.128  -5.334   0.135  0.00  0.00     0.001 A 
ENDROOT
BRANCH   1   7
ATOM      7  C   UNL d   1       0.148  -1.026  -0.140  0.00  0.00     0.022 A 
ATOM      8  C   UNL d   1      -0.856  -0.308  -0.788  0.00  0.00     0.035 A 
ATOM      9  N   UNL d   1      -0.464   1.002  -0.757  0.00  0.00    -0.304 N 
ATOM     10  C   UNL d   1      -2.137  -0.661  -1.460  0.00  0.00     0.070 C 
ATOM     11  N   UNL d   1       0.689   1.206  -0.124  0.00  0.00    -0.304 N 
ATOM     12  H   UNL d   1      -0.938   1.808  -1.152  0.00  0.00     0.186 HD
ATOM     13  C   UNL d   1       1.103  -0.017   0.225  0.00  0.00     0.035 A 
ATOM     14  HN  UNL d   1       1.154   2.097   0.055  1.00  0.00     0.186 HD
ATOM     15  C   UNL d   1       2.432  -0.133   0.884  0.00  0.00     0.070 C 
ENDBRANCH   1   7
BRANCH   2  16
ATOM     16  C   UNL d   1       1.088  -2.558   2.441  0.00  0.00     0.177 C 
ATOM     17  O   UNL d   1       2.053  -2.990   3.046  0.00  0.00    -0.646 OA
BRANCH  16  18
ATOM     18  O   UNL d   1       0.311  -1.560   2.915  0.00  0.00    -0.773 OA
ATOM     19  H   UNL d   1      -0.401  -1.264   2.316  0.00  0.00     0.167 HD
ENDBRANCH  16  18
ENDBRANCH   2  16
TORSDOF 3
