REMARK  5 active torsions:
REMARK  status: ('A' for Active; 'I' for Inactive)
REMARK    1  A    between atoms: S_2  and  C_1 
REMARK    2  A    between atoms: N_10  and  S_2 
REMARK    3  A    between atoms: S_3  and  C_11 
REMARK    4  A    between atoms: N_9  and  S_3 
REMARK    5  A    between atoms: C_19  and  N_10 
ROOT
ATOM      1  C   UNL d   1       3.011   1.144   5.109  0.00  0.00     0.079 A 
ATOM      2  C   UNL d   1       1.975   0.756   4.250  0.00  0.00     0.027 A 
ATOM      3  C   UNL d   1       4.345   1.034   4.701  0.00  0.00     0.027 A 
ATOM      4  C   UNL d   1       3.611  -0.017   2.645  0.00  0.00     0.022 A 
ATOM      5  C   UNL d   1       4.643   0.425   3.477  0.00  0.00     0.026 A 
ATOM      6  C   UNL d   1       2.280   0.155   3.026  0.00  0.00     0.026 A 
ENDROOT
BRANCH   4   7
ATOM      7  N   UNL d   1       3.915  -0.707   1.435  0.00  0.00    -0.180 NA
ATOM      8  H   UNL d   1       3.264  -0.537   0.667  0.00  0.00     0.146 HD
BRANCH   7   9
ATOM      9  S   UNL d   1       4.154  -2.390   1.555  0.00  0.00     0.263 S 
ATOM     10  O   UNL d   1       5.112  -2.669   2.607  0.00  0.00    -0.204 OA
ATOM     11  O   UNL d   1       4.337  -2.883   0.211  0.00  0.00    -0.204 OA
BRANCH   9  12
ATOM     12  C   UNL d   1       2.668  -3.155   2.085  0.00  0.00     0.161 A 
ATOM     13  N   UNL d   1       1.431  -2.922   1.496  0.00  0.00    -0.335 N 
ATOM     14  C   UNL d   1       0.589  -3.747   2.096  0.00  0.00     0.079 A 
ATOM     15  HN  UNL d   1       1.217  -2.255   0.755  1.00  0.00     0.168 HD
ATOM     16  C   UNL d   1      -0.848  -3.930   1.761  0.00  0.00     0.089 C 
ATOM     17  N   UNL d   1       1.226  -4.455   3.091  0.00  0.00    -0.348 N 
ATOM     18  C   UNL d   1       2.536  -4.069   3.109  0.00  0.00     0.135 A 
ATOM     19  C   UNL d   1       0.634  -5.459   3.943  0.00  0.00     0.156 C 
ENDBRANCH   9  12
ENDBRANCH   7   9
ENDBRANCH   4   7
BRANCH   1  20
ATOM     20  S   UNL d   1       2.615   1.795   6.722  0.00  0.00     0.261 S 
ATOM     21  O   UNL d   1       3.722   2.636   7.119  0.00  0.00    -0.200 OA
ATOM     22  O   UNL d   1       1.264   2.324   6.644  0.00  0.00    -0.200 OA
BRANCH  20  23
ATOM     23  N   UNL d   1       2.587   0.449   7.745  0.00  0.00    -0.303 N 
ATOM     24  C   UNL d   1       3.856  -0.234   8.104  0.00  0.00     0.161 C 
ATOM     25  C   UNL d   1       4.111  -1.439   7.191  0.00  0.00     0.188 C 
ATOM     26  O   UNL d   1       2.998  -2.348   7.183  0.00  0.00    -0.388 OA
ATOM     27  C   UNL d   1       1.793  -1.691   6.765  0.00  0.00     0.188 C 
ATOM     28  C   UNL d   1       1.456  -0.512   7.682  0.00  0.00     0.161 C 
ENDBRANCH  20  23
ENDBRANCH   1  20
TORSDOF 5
