REMARK  4 active torsions:
REMARK  status: ('A' for Active; 'I' for Inactive)
REMARK    1  A    between atoms: C_10  and  C_5 
REMARK    2  A    between atoms: S_13  and  C_6 
REMARK    3  A    between atoms: O_16  and  C_10 
REMARK    4  A    between atoms: C_20  and  O_16 
ROOT
ATOM      1  S   UNL d   1      -1.048  -2.211   0.333  0.00  0.00     0.267 S 
ATOM      2  C   UNL d   1      -1.796  -0.669   0.183  0.00  0.00     0.116 A 
ATOM      3  C   UNL d   1      -0.923   0.476   0.017  0.00  0.00     0.025 A 
ATOM      4  N   UNL d   1       0.404  -2.042  -0.496  0.00  0.00    -0.275 N 
ATOM      5  C   UNL d   1      -1.677   1.621  -0.227  0.00  0.00     0.094 A 
ATOM      6  C   UNL d   1      -3.140  -0.377   0.154  0.00  0.00     0.066 A 
ATOM      7  S   UNL d   1      -3.361   1.301  -0.114  0.00  0.00    -0.075 SA
ATOM      8  C   UNL d   1       0.559   0.379   0.045  0.00  0.00     0.005 A 
ATOM      9  C   UNL d   1       1.191  -0.868  -0.213  0.00  0.00     0.056 A 
ATOM     10  O   UNL d   1      -1.893  -3.133  -0.391  0.00  0.00    -0.200 OA
ATOM     11  O   UNL d   1      -0.798  -2.338   1.753  0.00  0.00    -0.200 OA
ATOM     12  C   UNL d   1       0.921  -3.174  -1.262  0.00  0.00     0.170 C 
ATOM     13  C   UNL d   1       1.378   1.474   0.367  0.00  0.00     0.014 A 
ATOM     14  C   UNL d   1       2.592  -0.957  -0.213  0.00  0.00     0.031 A 
ATOM     15  C   UNL d   1       2.772   1.373   0.346  0.00  0.00     0.001 A 
ATOM     16  C   UNL d   1       3.380   0.161   0.052  0.00  0.00     0.002 A 
ENDROOT
BRANCH   5  17
ATOM     17  C   UNL d   1      -1.264   2.973  -0.579  0.00  0.00     0.301 C 
ATOM     18  O   UNL d   1      -0.298   3.269  -1.268  0.00  0.00    -0.259 OA
BRANCH  17  19
ATOM     19  O   UNL d   1      -2.049   3.878   0.073  0.00  0.00    -0.317 OA
BRANCH  19  20
ATOM     20  C   UNL d   1      -1.533   5.213   0.178  0.00  0.00     0.174 C 
ATOM     21  C   UNL d   1      -0.809   5.321   1.508  0.00  0.00     0.034 C 
ENDBRANCH  19  20
ENDBRANCH  17  19
ENDBRANCH   5  17
BRANCH   6  22
ATOM     22  S   UNL d   1      -4.584  -1.381   0.229  0.00  0.00    -0.126 SA
ATOM     23  C   UNL d   1      -4.293  -2.497   1.612  0.00  0.00     0.096 C 
ENDBRANCH   6  22
TORSDOF 4
