REMARK  2 active torsions:
REMARK  status: ('A' for Active; 'I' for Inactive)
REMARK    1  A    between atoms: C_4  and  C_5 
REMARK       I    between atoms: C_5  and  N_11 
REMARK    2  A    between atoms: C_10  and  C_15 
ROOT
ATOM      1  C   UNL d   1      -3.115   0.094   0.150  0.00  0.00     0.148 A 
ATOM      2  N   UNL d   1      -2.410   1.035  -0.438  0.00  0.00    -0.336 N 
ATOM      3  HN  UNL d   1      -2.812   1.822  -0.947  1.00  0.00     0.168 HD
ATOM      4  C   UNL d   1      -8.621  -0.743  -0.480  0.00  0.00     0.255 C 
ATOM      5  S   UNL d   1      -2.152  -1.105   0.945  0.00  0.00    -0.052 SA
ATOM      6  N   UNL d   1      -4.473   0.009   0.070  0.00  0.00    -0.358 N 
ATOM      7  N   UNL d   1      -7.248  -0.497  -0.407  0.00  0.00    -0.345 N 
ATOM      8  C   UNL d   1      -0.713  -0.329   0.434  0.00  0.00     0.036 A 
ATOM      9  C   UNL d   1      -1.052   0.820  -0.279  0.00  0.00     0.051 A 
ATOM     10  C   UNL d   1       0.620  -0.711   0.650  0.00  0.00     0.045 A 
ATOM     11  O   UNL d   1      -9.194  -1.520   0.283  0.00  0.00    -0.267 OA
ATOM     12  C   UNL d   1      -5.289  -0.558   1.147  0.00  0.00     0.145 C 
ATOM     13  C   UNL d   1      -5.202   0.951  -0.782  0.00  0.00     0.145 C 
ATOM     14  C   UNL d   1      -6.470  -1.323   0.531  0.00  0.00     0.146 C 
ATOM     15  C   UNL d   1      -6.442   0.257  -1.389  0.00  0.00     0.146 C 
ATOM     16  C   UNL d   1      -0.017   1.633  -0.781  0.00  0.00     0.032 A 
ATOM     17  C   UNL d   1       1.624   0.108   0.132  0.00  0.00     0.035 A 
ATOM     18  C   UNL d   1       1.318   1.271  -0.571  0.00  0.00     0.026 A 
ATOM     19 CL   UNL d   1       3.272  -0.334   0.365  0.00  0.00    -0.084 Cl
ENDROOT
BRANCH   4  20
ATOM     20  C   UNL d   1      -9.459  -0.035  -1.472  0.00  0.00     0.054 A 
ATOM     21  C   UNL d   1     -10.597   0.672  -1.074  0.00  0.00     0.021 A 
ATOM     22  N   UNL d   1     -11.377   1.349  -1.964  0.00  0.00    -0.355 N 
ATOM     23  C   UNL d   1     -11.062   0.721   0.353  0.00  0.00     0.069 C 
ATOM     24  C   UNL d   1     -11.062   1.304  -3.289  0.00  0.00     0.117 A 
ATOM     25  HN  UNL d   1     -12.186   1.882  -1.642  1.00  0.00     0.166 HD
ATOM     26  C   UNL d   1      -9.971   0.570  -3.753  0.00  0.00     0.035 A 
ATOM     27  C   UNL d   1      -9.177  -0.120  -2.838  0.00  0.00     0.021 A 
BRANCH  24  28
ATOM     28  C   UNL d   1     -11.908   2.080  -4.292  0.00  0.00     0.432 C 
ATOM     29  F   UNL d   1     -13.039   2.633  -3.773  0.00  0.00    -0.165 F 
ATOM     30  F   UNL d   1     -11.215   3.111  -4.860  0.00  0.00    -0.165 F 
ATOM     31  F   UNL d   1     -12.320   1.303  -5.337  0.00  0.00    -0.165 F 
ENDBRANCH  24  28
ENDBRANCH   4  20
TORSDOF 2
