REMARK  2 active torsions:
REMARK  status: ('A' for Active; 'I' for Inactive)
REMARK    1  A    between atoms: C_8  and  N_1 
REMARK    2  A    between atoms: C_10  and  C_4 
ROOT
ATOM      1  N   UNL d   1      -0.280  -1.143   0.138  0.00  0.00    -0.241 N 
ATOM      2  N   UNL d   1       0.964  -0.648   0.338  0.00  0.00    -0.235 N 
ATOM      3  HN  UNL d   1       1.794  -1.202   0.552  1.00  0.00     0.209 HD
ATOM      4  C   UNL d   1      -0.362   1.047   0.001  0.00  0.00     0.119 A 
ATOM      5  C   UNL d   1      -1.171  -0.085  -0.020  0.00  0.00     0.064 A 
ATOM      6  N   UNL d   1       0.931   0.665   0.212  0.00  0.00    -0.280 N 
ATOM      7  HN  UNL d   1       1.736   1.289   0.265  1.00  0.00     0.188 HD
ATOM      8  C   UNL d   1      -2.650  -0.209  -0.074  0.00  0.00     0.073 C 
ENDROOT
BRANCH   1   9
ATOM      9  C   UNL d   1      -0.486  -2.544   0.073  0.00  0.00     0.096 A 
ATOM     10  C   UNL d   1       0.378  -3.404   0.769  0.00  0.00     0.148 A 
ATOM     11  C   UNL d   1       0.224  -4.786   0.708  0.00  0.00     0.087 A 
ATOM     12  F   UNL d   1       1.345  -2.930   1.569  0.00  0.00    -0.203 F 
ATOM     13  C   UNL d   1      -0.791  -5.319  -0.070  0.00  0.00     0.119 A 
ATOM     14  C   UNL d   1      -1.655  -4.492  -0.781  0.00  0.00     0.045 A 
ATOM     15  F   UNL d   1      -0.942  -6.647  -0.143  0.00  0.00    -0.206 F 
ATOM     16  C   UNL d   1      -1.508  -3.102  -0.709  0.00  0.00     0.038 A 
ENDBRANCH   1   9
BRANCH   4  17
ATOM     17  C   UNL d   1      -0.746   2.450  -0.131  0.00  0.00     0.175 C 
ATOM     18  O   UNL d   1      -1.912   2.794  -0.322  0.00  0.00    -0.291 OA
ATOM     19  C   UNL d   1       0.331   3.504  -0.005  0.00  0.00     0.098 C 
ENDBRANCH   4  17
TORSDOF 2
