REMARK  4 active torsions:
REMARK  status: ('A' for Active; 'I' for Inactive)
REMARK    1  A    between atoms: C_2  and  C_1 
REMARK       I    between atoms: C_7  and  N_3 
REMARK    2  A    between atoms: C_12  and  C_4 
REMARK    3  A    between atoms: C_14  and  C_7 
REMARK    4  A    between atoms: O_20  and  C_12 
ROOT
ATOM      1  C   UNL d   1       0.382  -2.631  -0.043  0.00  0.00     0.076 C 
ATOM      2  N   UNL d   1      -0.002  -3.595  -0.965  0.00  0.00    -0.219 N 
ATOM      3  C   UNL d   1      -0.642  -3.433  -2.212  0.00  0.00     0.277 C 
ATOM      4  N   UNL d   1       0.440  -4.837  -0.604  0.00  0.00    -0.302 N 
ATOM      5  HN  UNL d   1       0.225  -5.731  -1.046  1.00  0.00     0.186 HD
ATOM      6  C   UNL d   1       1.232  -3.266   0.839  0.00  0.00     0.051 C 
ATOM      7  C   UNL d   1       1.216  -4.616   0.455  0.00  0.00     0.110 C 
ATOM      8  O   UNL d   1      -0.547  -2.337  -2.767  0.00  0.00    -0.265 OA
ENDROOT
BRANCH   1   9
ATOM      9  C   UNL d   1      -0.070  -1.210   0.029  0.00  0.00     0.059 A 
ATOM     10  C   UNL d   1      -1.304  -0.611  -0.379  0.00  0.00     0.144 A 
ATOM     11  N   UNL d   1      -1.279   0.715  -0.157  0.00  0.00    -0.254 N 
ATOM     12  O   UNL d   1      -0.054   0.986   0.411  0.00  0.00    -0.241 OA
ATOM     13  HN  UNL d   1      -2.018   1.386  -0.367  1.00  0.00     0.195 HD
ATOM     14  C   UNL d   1       0.667  -0.159   0.528  0.00  0.00     0.087 A 
ATOM     15  C   UNL d   1       2.034   0.001   1.061  0.00  0.00     0.080 C 
BRANCH  10  16
ATOM     16  C   UNL d   1      -2.512  -1.263  -0.888  0.00  0.00     0.312 C 
ATOM     17  O   UNL d   1      -2.794  -2.432  -0.637  0.00  0.00    -0.258 OA
BRANCH  16  18
ATOM     18  O   UNL d   1      -3.264  -0.456  -1.697  0.00  0.00    -0.321 OA
ATOM     19  C   UNL d   1      -4.346  -1.125  -2.345  0.00  0.00     0.213 C 
ENDBRANCH  16  18
ENDBRANCH  10  16
ENDBRANCH   1   9
BRANCH   3  20
ATOM     20  C   UNL d   1      -1.453  -4.491  -2.861  0.00  0.00     0.034 A 
ATOM     21  C   UNL d   1      -2.202  -5.383  -2.082  0.00  0.00     0.019 A 
ATOM     22  C   UNL d   1      -3.030  -6.323  -2.697  0.00  0.00     0.025 A 
ATOM     23  C   UNL d   1      -3.113  -6.365  -4.086  0.00  0.00     0.034 A 
ATOM     24  C   UNL d   1      -2.386  -5.467  -4.869  0.00  0.00     0.025 A 
ATOM     25 CL   UNL d   1      -4.134  -7.525  -4.840  0.00  0.00    -0.084 Cl
ATOM     26  C   UNL d   1      -1.562  -4.519  -4.256  0.00  0.00     0.019 A 
ENDBRANCH   3  20
TORSDOF 4
