REMARK  6 active torsions:
REMARK  status: ('A' for Active; 'I' for Inactive)
REMARK    1  A    between atoms: S_6  and  C_1 
REMARK    2  A    between atoms: C_2  and  C_5 
REMARK    3  A    between atoms: C_9  and  S_6 
REMARK       I    between atoms: C_7  and  N_8 
REMARK    4  A    between atoms: C_14  and  C_7 
REMARK    5  A    between atoms: N_8  and  C_10 
REMARK    6  A    between atoms: N_13  and  C_14 
ROOT
ATOM      1  C   UNL d   1      -2.024   2.999  -1.194  0.00  0.00     0.035 A 
ATOM      2  C   UNL d   1      -2.474   2.640   0.093  0.00  0.00     0.052 A 
ATOM      3  C   UNL d   1      -3.522   3.395   0.667  0.00  0.00     0.031 A 
ATOM      4  C   UNL d   1      -2.567   4.156  -1.802  0.00  0.00     0.021 A 
ATOM      5  C   UNL d   1      -4.050   4.527   0.043  0.00  0.00     0.002 A 
ATOM      6  C   UNL d   1      -3.560   4.919  -1.190  0.00  0.00     0.002 A 
ENDROOT
BRANCH   1   7
ATOM      7  S   UNL d   1      -0.854   2.173  -2.251  0.00  0.00    -0.052 SA
BRANCH   7   8
ATOM      8  C   UNL d   1      -1.463   0.527  -2.498  0.00  0.00     0.149 A 
ATOM      9  N   UNL d   1      -2.658   0.151  -2.022  0.00  0.00    -0.333 N 
ATOM     10  C   UNL d   1      -3.033  -1.139  -2.239  0.00  0.00     0.119 A 
ATOM     11  HN  UNL d   1      -3.260   0.803  -1.518  1.00  0.00     0.168 HD
ATOM     12  C   UNL d   1      -2.235  -2.030  -2.942  0.00  0.00     0.051 A 
ATOM     13  C   UNL d   1      -1.036  -1.540  -3.396  0.00  0.00     0.092 A 
ATOM     14  N   UNL d   1      -0.633  -0.280  -3.186  0.00  0.00    -0.346 N 
ATOM     15  HN  UNL d   1       0.265   0.055  -3.533  1.00  0.00     0.167 HD
BRANCH  10  16
ATOM     16  C   UNL d   1      -4.372  -1.636  -1.718  0.00  0.00     0.432 C 
ATOM     17  F   UNL d   1      -5.036  -0.743  -0.933  0.00  0.00    -0.165 F 
ATOM     18  F   UNL d   1      -5.230  -1.958  -2.730  0.00  0.00    -0.165 F 
ATOM     19  F   UNL d   1      -4.250  -2.773  -0.972  0.00  0.00    -0.165 F 
ENDBRANCH  10  16
ENDBRANCH   7   8
ENDBRANCH   1   7
BRANCH   2  20
ATOM     20  N   UNL d   1      -2.051   1.574   0.917  0.00  0.00    -0.324 N 
ATOM     21  C   UNL d   1      -0.857   0.963   1.179  0.00  0.00     0.250 C 
ATOM     22  O   UNL d   1      -0.892   0.005   1.962  0.00  0.00    -0.271 OA
ATOM     23  H   UNL d   1      -2.745   1.229   1.573  0.00  0.00     0.169 HD
BRANCH  21  24
ATOM     24  C   UNL d   1       0.448   1.501   0.595  0.00  0.00     0.375 C 
BRANCH  24  25
ATOM     25  N   UNL d   1       1.648   1.161   1.395  0.00  0.00     0.101 N 
ATOM     26  C   UNL d   1       2.878   1.488   0.638  0.00  0.00     0.299 C 
ATOM     27  C   UNL d   1       3.180   2.994   0.568  0.00  0.00     0.198 C 
ATOM     28  O   UNL d   1       3.274   3.560   1.880  0.00  0.00    -0.388 OA
ATOM     29  C   UNL d   1       2.066   3.342   2.618  0.00  0.00     0.198 C 
ATOM     30  C   UNL d   1       1.706   1.848   2.700  0.00  0.00     0.299 C 
ENDBRANCH  24  25
ENDBRANCH  21  24
ENDBRANCH   2  20
TORSDOF 6
