REMARK  4 active torsions:
REMARK  status: ('A' for Active; 'I' for Inactive)
REMARK    1  A    between atoms: C_2  and  S_1 
REMARK    2  A    between atoms: N_5  and  S_1 
REMARK    3  A    between atoms: C_11  and  C_4 
REMARK    4  A    between atoms: S_16  and  C_9 
ROOT
ATOM      1  C   UNL d   1       0.373  -0.421   1.645  0.00  0.00     0.116 A 
ATOM      2  S   UNL d   1      -0.114   0.884   2.636  0.00  0.00    -0.075 SA
ATOM      3  C   UNL d   1      -0.480  -0.148   3.965  0.00  0.00     0.033 A 
ATOM      4  C   UNL d   1       0.266  -1.627   2.312  0.00  0.00     0.034 A 
ATOM      5  C   UNL d   1      -0.218  -1.468   3.643  0.00  0.00     0.023 A 
ENDROOT
BRANCH   3   6
ATOM      6  C   UNL d   1      -0.952   0.393   5.249  0.00  0.00     0.052 A 
ATOM      7  N   UNL d   1      -0.531  -0.309   6.323  0.00  0.00    -0.336 N 
ATOM      8  C   UNL d   1      -0.890   0.151   7.531  0.00  0.00     0.144 A 
ATOM      9  HN  UNL d   1       0.035  -1.151   6.221  1.00  0.00     0.168 HD
ATOM     10  N   UNL d   1      -1.648   1.240   7.738  0.00  0.00    -0.347 N 
ATOM     11  C   UNL d   1      -2.066   1.895   6.642  0.00  0.00     0.092 A 
ATOM     12  HN  UNL d   1      -1.893   1.553   8.678  1.00  0.00     0.167 HD
ATOM     13  C   UNL d   1      -1.749   1.512   5.361  0.00  0.00     0.048 A 
BRANCH   8  14
ATOM     14  S   UNL d   1      -0.288  -0.764   8.931  0.00  0.00    -0.098 SA
ATOM     15  C   UNL d   1      -0.923   0.251  10.288  0.00  0.00     0.099 C 
ENDBRANCH   8  14
ENDBRANCH   3   6
BRANCH   1  16
ATOM     16  S   UNL d   1       0.862  -0.035  -0.021  0.00  0.00     0.250 S 
ATOM     17  O   UNL d   1      -0.286   0.630  -0.603  0.00  0.00    -0.205 OA
ATOM     18  O   UNL d   1       1.349  -1.288  -0.560  0.00  0.00    -0.205 OA
BRANCH  16  19
ATOM     19  N   UNL d   1       2.184   1.070  -0.025  0.00  0.00    -0.206 NA
ATOM     20  C   UNL d   1       3.431   0.523   0.583  0.00  0.00     0.107 C 
ATOM     21  C   UNL d   1       4.493   1.619   0.662  0.00  0.00     0.015 C 
ATOM     22  C   UNL d   1       4.789   2.202  -0.716  0.00  0.00     0.002 C 
ATOM     23  C   UNL d   1       3.502   2.691  -1.371  0.00  0.00     0.015 C 
ATOM     24  C   UNL d   1       2.441   1.596  -1.403  0.00  0.00     0.107 C 
ENDBRANCH  16  19
ENDBRANCH   1  16
TORSDOF 4
