REMARK  6 active torsions:
REMARK  status: ('A' for Active; 'I' for Inactive)
REMARK    1  A    between atoms: C_3  and  S_1 
REMARK    2  A    between atoms: C_12  and  S_1 
REMARK    3  A    between atoms: C_7  and  C_2 
REMARK    4  A    between atoms: C_4  and  N_9 
REMARK    5  A    between atoms: N_9  and  N_5 
REMARK    6  A    between atoms: O_20  and  C_7 
ROOT
ATOM      1  C   UNL d   1       0.325  -0.143   1.579  0.00  0.00     0.229 C 
ATOM      2  N   UNL d   1      -0.492   0.748   2.061  0.00  0.00    -0.281 N 
ATOM      3  HN  UNL d   1      -0.892   0.608   2.988  1.00  0.00     0.188 HD
ATOM      4  C   UNL d   1       0.897   0.019   0.279  0.00  0.00     0.132 C 
ATOM      5  N   UNL d   1       1.325   0.195  -0.790  0.00  0.00    -0.189 NA
ENDROOT
BRANCH   1   6
ATOM      6  S   UNL d   1       0.807  -1.534   2.516  0.00  0.00     0.233 S 
ATOM      7  O   UNL d   1       2.220  -1.375   2.807  0.00  0.00    -0.215 OA
ATOM      8  O   UNL d   1       0.307  -2.702   1.815  0.00  0.00    -0.215 OA
BRANCH   6   9
ATOM      9  C   UNL d   1      -0.076  -1.407   4.057  0.00  0.00     0.066 A 
ATOM     10  C   UNL d   1      -1.306  -2.058   4.205  0.00  0.00     0.025 A 
ATOM     11  C   UNL d   1      -1.995  -1.960   5.416  0.00  0.00     0.025 A 
ATOM     12  C   UNL d   1      -1.450  -1.225   6.470  0.00  0.00     0.034 A 
ATOM     13  C   UNL d   1      -0.214  -0.592   6.328  0.00  0.00     0.025 A 
ATOM     14 CL   UNL d   1      -2.306  -1.102   7.957  0.00  0.00    -0.084 Cl
ATOM     15  C   UNL d   1       0.482  -0.687   5.120  0.00  0.00     0.025 A 
ENDBRANCH   6   9
ENDBRANCH   1   6
BRANCH   2  16
ATOM     16  N   UNL d   1      -0.825   1.867   1.351  0.00  0.00    -0.298 N 
ATOM     17  H   UNL d   1      -0.825   1.866   0.322  0.00  0.00     0.187 HD
BRANCH  16  18
ATOM     18  C   UNL d   1      -1.186   3.015   1.995  0.00  0.00     0.071 A 
ATOM     19  C   UNL d   1      -1.523   4.210   1.380  0.00  0.00     0.108 A 
ATOM     20  S   UNL d   1      -1.845   5.433   2.556  0.00  0.00    -0.094 SA
ATOM     21  C   UNL d   1      -1.569   4.369   3.857  0.00  0.00     0.053 A 
ATOM     22  C   UNL d   1      -1.234   3.111   3.422  0.00  0.00     0.039 A 
BRANCH  19  23
ATOM     23  C   UNL d   1      -1.639   4.584  -0.018  0.00  0.00     0.302 C 
ATOM     24  O   UNL d   1      -1.934   5.693  -0.450  0.00  0.00    -0.259 OA
BRANCH  23  25
ATOM     25  O   UNL d   1      -1.387   3.505  -0.826  0.00  0.00    -0.322 OA
ATOM     26  C   UNL d   1      -1.530   3.791  -2.221  0.00  0.00     0.213 C 
ENDBRANCH  23  25
ENDBRANCH  19  23
ENDBRANCH  16  18
ENDBRANCH   2  16
TORSDOF 6
