REMARK  13 active torsions:
REMARK  status: ('A' for Active; 'I' for Inactive)
REMARK    1  A    between atoms: S_8  and  C_2 
REMARK    2  A    between atoms: C_18  and  C_7 
REMARK    3  A    between atoms: C_10  and  S_8 
REMARK    4  A    between atoms: C_12  and  C_10 
REMARK    5  A    between atoms: C_19  and  C_18 
REMARK    6  A    between atoms: C_26  and  C_19 
REMARK    7  A    between atoms: C_20  and  C_21 
REMARK    8  A    between atoms: C_21  and  C_25 
REMARK    9  A    between atoms: C_22  and  C_26 
REMARK   10  A    between atoms: C_27  and  C_22 
REMARK   11  A    between atoms: C_23  and  C_27 
REMARK   12  A    between atoms: C_24  and  C_23 
REMARK   13  A    between atoms: C_25  and  C_24 
ROOT
ATOM      1  N   UNL d   1      -0.411  -2.597   2.455  0.00  0.00    -0.319 N 
ATOM      2  C   UNL d   1      -1.002  -3.548   3.246  0.00  0.00     0.162 A 
ATOM      3  N   UNL d   1      -1.160  -4.654   2.560  0.00  0.00    -0.278 N 
ATOM      4  HN  UNL d   1      -1.562  -5.525   2.907  1.00  0.00     0.189 HD
ATOM      5  N   UNL d   1      -0.687  -4.432   1.289  0.00  0.00    -0.287 N 
ATOM      6  HN  UNL d   1      -0.684  -5.109   0.526  1.00  0.00     0.188 HD
ATOM      7  C   UNL d   1      -0.239  -3.196   1.225  0.00  0.00     0.099 A 
ATOM      8  C   UNL d   1      -0.014  -1.259   2.802  0.00  0.00     0.159 C 
ENDROOT
BRANCH   7   9
ATOM      9  C   UNL d   1       0.343  -2.543   0.014  0.00  0.00     0.078 C 
BRANCH   9  10
ATOM     10  C   UNL d   1       1.867  -2.637  -0.055  0.00  0.00     0.007 C 
BRANCH  10  11
ATOM     11  C   UNL d   1       2.392  -4.072  -0.146  0.00  0.00     0.000 C 
BRANCH  11  12
ATOM     12  C   UNL d   1       3.916  -4.079  -0.246  0.00  0.00     0.000 C 
BRANCH  12  13
ATOM     13  C   UNL d   1       4.460  -5.503  -0.287  0.00  0.00     0.000 C 
BRANCH  13  14
ATOM     14  C   UNL d   1       5.984  -5.503  -0.362  0.00  0.00     0.000 C 
BRANCH  14  15
ATOM     15  C   UNL d   1       6.517  -6.932  -0.399  0.00  0.00     0.000 C 
BRANCH  15  16
ATOM     16  C   UNL d   1       8.041  -6.956  -0.474  0.00  0.00     0.000 C 
BRANCH  16  17
ATOM     17  C   UNL d   1       8.549  -8.395  -0.509  0.00  0.00    -0.000 C 
BRANCH  17  18
ATOM     18  C   UNL d   1      10.072  -8.446  -0.585  0.00  0.00    -0.005 C 
ATOM     19  C   UNL d   1      10.567  -9.882  -0.621  0.00  0.00     0.005 C 
ENDBRANCH  17  18
ENDBRANCH  16  17
ENDBRANCH  15  16
ENDBRANCH  14  15
ENDBRANCH  13  14
ENDBRANCH  12  13
ENDBRANCH  11  12
ENDBRANCH  10  11
ENDBRANCH   9  10
ENDBRANCH   7   9
BRANCH   2  20
ATOM     20  S   UNL d   1      -1.477  -3.296   4.893  0.00  0.00    -0.088 SA
BRANCH  20  21
ATOM     21  C   UNL d   1      -1.539  -5.015   5.482  0.00  0.00     0.121 C 
BRANCH  21  22
ATOM     22  C   UNL d   1      -1.996  -5.111   6.922  0.00  0.00    -0.048 A 
ATOM     23  C   UNL d   1      -3.342  -5.371   7.226  0.00  0.00     0.009 A 
ATOM     24  C   UNL d   1      -3.759  -5.501   8.555  0.00  0.00     0.024 A 
ATOM     25  C   UNL d   1      -2.837  -5.362   9.588  0.00  0.00     0.034 A 
ATOM     26  C   UNL d   1      -1.500  -5.083   9.306  0.00  0.00     0.024 A 
ATOM     27 CL   UNL d   1      -3.345  -5.541  11.222  0.00  0.00    -0.084 Cl
ATOM     28  C   UNL d   1      -1.083  -4.955   7.976  0.00  0.00     0.009 A 
ENDBRANCH  21  22
ENDBRANCH  20  21
ENDBRANCH   2  20
TORSDOF 13
