REMARK  5 active torsions:
REMARK  status: ('A' for Active; 'I' for Inactive)
REMARK       I    between atoms: C_3  and  N_1 
REMARK    1  A    between atoms: C_6  and  C_2 
REMARK    2  A    between atoms: O_8  and  C_3 
REMARK    3  A    between atoms: O_11  and  C_6 
REMARK    4  A    between atoms: C_12  and  O_8 
REMARK    5  A    between atoms: C_13  and  C_12 
ROOT
ATOM      1  N   UNL d   1       1.496   1.130   0.047  0.00  0.00    -0.278 N 
ATOM      2  C   UNL d   1       2.387  -0.035   0.297  0.00  0.00     0.197 C 
ATOM      3  C   UNL d   1       1.960   2.418  -0.081  0.00  0.00     0.368 C 
ATOM      4  C   UNL d   1       0.167   0.673  -0.006  0.00  0.00     0.046 A 
ATOM      5  C   UNL d   1       1.534  -1.284  -0.016  0.00  0.00     0.077 C 
ATOM      6  C   UNL d   1       0.147  -0.722   0.014  0.00  0.00    -0.029 A 
ATOM      7  O   UNL d   1       3.104   2.709   0.262  0.00  0.00    -0.238 OA
ATOM      8  C   UNL d   1      -1.014   1.393  -0.026  0.00  0.00     0.030 A 
ATOM      9  C   UNL d   1      -1.048  -1.426   0.009  0.00  0.00     0.009 A 
ATOM     10  C   UNL d   1      -2.226   0.696  -0.024  0.00  0.00     0.002 A 
ATOM     11  C   UNL d   1      -2.243  -0.706  -0.004  0.00  0.00     0.001 A 
ENDROOT
BRANCH   2  12
ATOM     12  C   UNL d   1       2.958  -0.127   1.726  0.00  0.00     0.164 C 
ATOM     13  O   UNL d   1       3.203  -1.186   2.294  0.00  0.00    -0.648 OA
BRANCH  12  14
ATOM     14  O   UNL d   1       3.334   1.045   2.281  0.00  0.00    -0.775 OA
ATOM     15  H   UNL d   1       3.329   1.806   1.654  0.00  0.00     0.167 HD
ENDBRANCH  12  14
ENDBRANCH   2  12
BRANCH   3  16
ATOM     16  O   UNL d   1       1.044   3.302  -0.542  0.00  0.00    -0.299 OA
BRANCH  16  17
ATOM     17  C   UNL d   1       1.345   4.695  -0.406  0.00  0.00     0.219 C 
BRANCH  17  18
ATOM     18  C   UNL d   1       1.425   5.378  -1.747  0.00  0.00    -0.034 A 
ATOM     19  C   UNL d   1       0.360   5.313  -2.659  0.00  0.00     0.009 A 
ATOM     20  C   UNL d   1       0.417   6.015  -3.866  0.00  0.00     0.001 A 
ATOM     21  C   UNL d   1       1.536   6.787  -4.174  0.00  0.00     0.000 A 
ATOM     22  C   UNL d   1       2.601   6.854  -3.279  0.00  0.00     0.001 A 
ATOM     23  C   UNL d   1       2.547   6.154  -2.073  0.00  0.00     0.009 A 
ENDBRANCH  17  18
ENDBRANCH  16  17
ENDBRANCH   3  16
TORSDOF 5
