REMARK  4 active torsions:
REMARK  status: ('A' for Active; 'I' for Inactive)
REMARK    1  A    between atoms: S_2  and  C_1 
REMARK    2  A    between atoms: C_18  and  S_2 
REMARK    3  A    between atoms: N_5  and  C_4 
REMARK       I    between atoms: C_9  and  N_5 
REMARK    4  A    between atoms: C_8  and  N_10 
REMARK       I    between atoms: N_10  and  C_9 
ROOT
ATOM      1  N   UNL d   1       0.348   2.241   0.086  0.00  0.00    -0.306 N 
ATOM      2  C   UNL d   1      -0.321   3.193   0.776  0.00  0.00     0.303 C 
ATOM      3  N   UNL d   1      -0.988   2.834   1.917  0.00  0.00    -0.207 NA
ATOM      4  O   UNL d   1      -0.150   4.362   0.424  0.00  0.00    -0.253 OA
ATOM      5  H   UNL d   1       1.038   2.663  -0.526  0.00  0.00     0.170 HD
ATOM      6  H   UNL d   1      -0.490   2.100   2.410  0.00  0.00     0.138 HD
ENDROOT
BRANCH   1   7
ATOM      7  C   UNL d   1       0.217   0.884  -0.081  0.00  0.00     0.101 C 
ATOM      8  C   UNL d   1      -0.690  -0.131   0.191  0.00  0.00     0.089 C 
ATOM      9  C   UNL d   1      -0.273  -1.365  -0.432  0.00  0.00     0.090 C 
ATOM     10 CL   UNL d   1      -2.145   0.063   1.065  0.00  0.00    -0.080 Cl
ATOM     11  C   UNL d   1       0.990  -1.248  -0.989  0.00  0.00     0.077 C 
ATOM     12  S   UNL d   1       1.587   0.331  -0.939  0.00  0.00    -0.081 SA
BRANCH   9  13
ATOM     13  S   UNL d   1      -1.002  -2.936  -0.541  0.00  0.00     0.181 S 
ATOM     14  O   UNL d   1      -0.850  -3.268  -1.947  0.00  0.00    -0.222 OA
ATOM     15  O   UNL d   1      -0.268  -3.668   0.477  0.00  0.00    -0.222 OA
BRANCH  13  16
ATOM     16  C   UNL d   1      -2.731  -3.012  -0.138  0.00  0.00     0.105 C 
ATOM     17  C   UNL d   1      -3.610  -2.232  -1.107  0.00  0.00     0.026 C 
ATOM     18  C   UNL d   1      -3.169  -4.484  -0.153  0.00  0.00     0.026 C 
ENDBRANCH  13  16
ENDBRANCH   9  13
ENDBRANCH   1   7
BRANCH   3  19
ATOM     19  C   UNL d   1      -1.480   3.884   2.760  0.00  0.00     0.060 A 
ATOM     20  C   UNL d   1      -2.425   4.830   2.316  0.00  0.00     0.059 A 
ATOM     21  C   UNL d   1      -2.780   5.917   3.122  0.00  0.00     0.049 A 
ATOM     22 CL   UNL d   1      -3.270   4.656   0.814  0.00  0.00    -0.082 Cl
ATOM     23  C   UNL d   1      -2.211   6.057   4.385  0.00  0.00     0.037 A 
ATOM     24  C   UNL d   1      -1.313   5.108   4.865  0.00  0.00     0.049 A 
ATOM     25 CL   UNL d   1      -2.636   7.405   5.367  0.00  0.00    -0.084 Cl
ATOM     26  C   UNL d   1      -0.960   4.022   4.059  0.00  0.00     0.059 A 
ATOM     27 CL   UNL d   1       0.194   2.891   4.680  0.00  0.00    -0.082 Cl
ENDBRANCH   3  19
TORSDOF 4
