REMARK  5 active torsions:
REMARK  status: ('A' for Active; 'I' for Inactive)
REMARK    1  A    between atoms: C_6  and  C_1 
REMARK    2  A    between atoms: C_5  and  C_2 
REMARK       I    between atoms: N_9  and  C_5 
REMARK    3  A    between atoms: C_13  and  N_9 
REMARK    4  A    between atoms: C_19  and  C_13 
REMARK    5  A    between atoms: O_17  and  C_19 
ROOT
ATOM      1  C   UNL d   1      -1.369  -0.369  -0.132  0.00  0.00     0.086 A 
ATOM      2  C   UNL d   1      -0.085  -0.997  -0.201  0.00  0.00     0.092 A 
ATOM      3  N   UNL d   1      -1.221   0.969  -0.099  0.00  0.00    -0.259 N 
ATOM      4  HN  UNL d   1      -1.970   1.661  -0.085  1.00  0.00     0.195 HD
ATOM      5  O   UNL d   1       0.123   1.227  -0.088  0.00  0.00    -0.241 OA
ATOM      6  C   UNL d   1       0.803   0.063  -0.151  0.00  0.00     0.090 A 
ATOM      7  C   UNL d   1       2.276   0.176  -0.151  0.00  0.00     0.080 C 
ENDROOT
BRANCH   2   8
ATOM      8  C   UNL d   1       0.381  -2.362  -0.344  0.00  0.00     0.257 C 
ATOM      9  N   UNL d   1      -0.202  -3.304   0.471  0.00  0.00    -0.346 N 
ATOM     10  H   UNL d   1      -1.048  -3.076   0.977  0.00  0.00     0.163 HD
ATOM     11  O   UNL d   1       1.312  -2.621  -1.096  0.00  0.00    -0.267 OA
BRANCH   9  12
ATOM     12  C   UNL d   1       0.227  -4.718   0.511  0.00  0.00     0.047 C 
ATOM     13  C   UNL d   1      -0.112  -5.421  -0.815  0.00  0.00     0.040 C 
ATOM     14  C   UNL d   1       1.738  -4.851   0.797  0.00  0.00     0.040 C 
BRANCH  12  15
ATOM     15  C   UNL d   1      -0.516  -5.431   1.674  0.00  0.00     0.194 C 
BRANCH  15  16
ATOM     16  O   UNL d   1      -1.927  -5.267   1.547  0.00  0.00    -0.398 OA
ATOM     17  H   UNL d   1      -2.337  -5.863   2.200  0.00  0.00     0.209 HD
ENDBRANCH  15  16
ENDBRANCH  12  15
ENDBRANCH   9  12
ENDBRANCH   2   8
BRANCH   1  18
ATOM     18  C   UNL d   1      -2.739  -0.897  -0.169  0.00  0.00     0.037 A 
ATOM     19  C   UNL d   1      -3.695  -0.461   0.781  0.00  0.00     0.048 A 
ATOM     20 CL   UNL d   1      -3.280   0.482   2.179  0.00  0.00    -0.083 Cl
ATOM     21  C   UNL d   1      -5.052  -0.792   0.655  0.00  0.00     0.025 A 
ATOM     22  C   UNL d   1      -5.482  -1.594  -0.394  0.00  0.00     0.003 A 
ATOM     23  C   UNL d   1      -4.554  -2.071  -1.314  0.00  0.00     0.025 A 
ATOM     24  C   UNL d   1      -3.198  -1.718  -1.216  0.00  0.00     0.048 A 
ATOM     25 CL   UNL d   1      -2.173  -2.295  -2.485  0.00  0.00    -0.083 Cl
ENDBRANCH   1  18
TORSDOF 5
