REMARK  3 active torsions:
REMARK  status: ('A' for Active; 'I' for Inactive)
REMARK    1  A    between atoms: C_9  and  N_1 
REMARK    2  A    between atoms: C_7  and  C_2 
REMARK    3  A    between atoms: C_10  and  C_7 
ROOT
ATOM      1  N   UNL d   1       0.849  -0.804   0.079  0.00  0.00    -0.275 N 
ATOM      2  C   UNL d   1       0.884   0.559   0.035  0.00  0.00     0.109 A 
ATOM      3  C   UNL d   1      -0.513  -1.104   0.039  0.00  0.00     0.199 A 
ATOM      4  N   UNL d   1      -0.289   1.131  -0.056  0.00  0.00    -0.286 N 
ATOM      5  HN  UNL d   1      -0.492   2.129  -0.097  1.00  0.00     0.188 HD
ATOM      6  N   UNL d   1      -1.171   0.111  -0.083  0.00  0.00    -0.274 N 
ATOM      7  S   UNL d   1      -1.392  -2.507   0.203  0.00  0.00    -0.039 SA
ATOM      8  H   UNL d   1      -2.173   0.255  -0.070  0.00  0.00     0.189 HD
ENDROOT
BRANCH   2   9
ATOM      9  C   UNL d   1       2.100   1.456   0.059  0.00  0.00     0.117 C 
BRANCH   9  10
ATOM     10  C   UNL d   1       3.095   1.281  -1.060  0.00  0.00    -0.051 A 
ATOM     11  C   UNL d   1       2.707   0.909  -2.353  0.00  0.00     0.007 A 
ATOM     12  C   UNL d   1       3.657   0.784  -3.369  0.00  0.00     0.001 A 
ATOM     13  C   UNL d   1       4.999   1.054  -3.110  0.00  0.00     0.000 A 
ATOM     14  C   UNL d   1       5.393   1.465  -1.839  0.00  0.00     0.001 A 
ATOM     15  C   UNL d   1       4.446   1.584  -0.822  0.00  0.00     0.007 A 
ENDBRANCH   9  10
ENDBRANCH   2   9
BRANCH   1  16
ATOM     16  C   UNL d   1       1.920  -1.741   0.193  0.00  0.00     0.043 A 
ATOM     17  C   UNL d   1       3.101  -1.451   0.888  0.00  0.00     0.030 A 
ATOM     18  C   UNL d   1       4.121  -2.402   1.033  0.00  0.00     0.002 A 
ATOM     19  C   UNL d   1       3.978  -3.676   0.497  0.00  0.00     0.000 A 
ATOM     20  C   UNL d   1       2.828  -3.986  -0.212  0.00  0.00     0.002 A 
ATOM     21  C   UNL d   1       1.824  -3.024  -0.376  0.00  0.00     0.030 A 
ENDBRANCH   1  16
TORSDOF 3
