REMARK  5 active torsions:
REMARK  status: ('A' for Active; 'I' for Inactive)
REMARK    1  A    between atoms: C_3  and  C_1 
REMARK    2  A    between atoms: C_12  and  C_2 
REMARK    3  A    between atoms: C_4  and  C_9 
REMARK       I    between atoms: N_22  and  C_12 
REMARK    4  A    between atoms: N_20  and  N_22 
REMARK    5  A    between atoms: C_25  and  C_24 
ROOT
ATOM      1  C   UNL d   1      -0.131  -1.324   0.016  0.00  0.00     0.057 A 
ATOM      2  C   UNL d   1      -1.453  -0.798   0.013  0.00  0.00     0.139 A 
ATOM      3  N   UNL d   1      -1.426   0.547  -0.065  0.00  0.00    -0.255 N 
ATOM      4  HN  UNL d   1      -2.227   1.174  -0.142  1.00  0.00     0.195 HD
ATOM      5  O   UNL d   1      -0.088   0.901  -0.018  0.00  0.00    -0.241 OA
ATOM      6  C   UNL d   1       0.684  -0.217   0.037  0.00  0.00     0.087 A 
ATOM      7  C   UNL d   1       2.145  -0.016   0.057  0.00  0.00     0.080 C 
ENDROOT
BRANCH   1   8
ATOM      8  C   UNL d   1       0.272  -2.727  -0.052  0.00  0.00     0.055 A 
ATOM      9  N   UNL d   1       1.462  -3.107   0.548  0.00  0.00    -0.347 N 
ATOM     10  C   UNL d   1       1.679  -4.392   0.324  0.00  0.00     0.102 A 
ATOM     11  HN  UNL d   1       2.077  -2.491   1.079  1.00  0.00     0.167 HD
ATOM     12  S   UNL d   1       0.489  -5.192  -0.626  0.00  0.00    -0.080 SA
ATOM     13  C   UNL d   1      -0.382  -3.726  -0.743  0.00  0.00     0.082 A 
BRANCH  10  14
ATOM     14  C   UNL d   1       2.895  -5.116   0.831  0.00  0.00     0.073 A 
ATOM     15  N   UNL d   1       3.170  -6.430   0.477  0.00  0.00    -0.352 N 
ATOM     16  C   UNL d   1       4.309  -6.810   1.013  0.00  0.00     0.047 A 
ATOM     17  HN  UNL d   1       2.577  -7.014  -0.112  1.00  0.00     0.166 HD
ATOM     18  C   UNL d   1       4.928  -8.145   0.797  0.00  0.00     0.076 C 
ATOM     19  S   UNL d   1       5.086  -5.639   2.003  0.00  0.00    -0.087 SA
ATOM     20  C   UNL d   1       3.826  -4.527   1.661  0.00  0.00     0.083 A 
ENDBRANCH  10  14
ENDBRANCH   1   8
BRANCH   2  21
ATOM     21  C   UNL d   1      -2.718  -1.530   0.087  0.00  0.00     0.289 C 
ATOM     22  N   UNL d   1      -3.801  -0.865  -0.478  0.00  0.00    -0.265 N 
ATOM     23  H   UNL d   1      -3.679   0.066  -0.866  0.00  0.00     0.190 HD
ATOM     24  O   UNL d   1      -2.788  -2.655   0.575  0.00  0.00    -0.264 OA
BRANCH  22  25
ATOM     25  N   UNL d   1      -4.992  -1.517  -0.557  0.00  0.00    -0.308 N 
ATOM     26  C   UNL d   1      -5.961  -0.929  -1.177  0.00  0.00     0.118 C 
ATOM     27  HN  UNL d   1      -5.117  -2.440  -0.140  1.00  0.00     0.186 HD
BRANCH  26  28
ATOM     28  C   UNL d   1      -7.280  -1.591  -1.291  0.00  0.00    -0.019 A 
ATOM     29  C   UNL d   1      -7.493  -2.845  -0.704  0.00  0.00     0.013 A 
ATOM     30  C   UNL d   1      -8.739  -3.463  -0.808  0.00  0.00     0.001 A 
ATOM     31  C   UNL d   1      -9.772  -2.830  -1.499  0.00  0.00     0.000 A 
ATOM     32  C   UNL d   1      -9.559  -1.582  -2.088  0.00  0.00     0.001 A 
ATOM     33  C   UNL d   1      -8.313  -0.959  -1.986  0.00  0.00     0.013 A 
ENDBRANCH  26  28
ENDBRANCH  22  25
ENDBRANCH   2  21
TORSDOF 5
