REMARK  2 active torsions:
REMARK  status: ('A' for Active; 'I' for Inactive)
REMARK    1  A    between atoms: C_8  and  C_2 
REMARK    2  A    between atoms: O_13  and  N_10 
ROOT
ATOM      1  C   UNL d   1       5.576   3.760  -0.010  0.00  0.00     0.057 A 
ATOM      2  C   UNL d   1       4.184   1.776   0.079  0.00  0.00     0.037 A 
ATOM      3  S   UNL d   1       5.883   2.125   0.028  0.00  0.00    -0.080 SA
ATOM      4  C   UNL d   1       3.405   2.950   0.077  0.00  0.00    -0.030 A 
ATOM      5  C   UNL d   1       4.273   4.074  -0.004  0.00  0.00     0.002 A 
ATOM      6  S   UNL d   1       6.601   5.075  -0.058  0.00  0.00    -0.093 SA
ATOM      7  C   UNL d   1       4.015   5.470  -0.081  0.00  0.00    -0.043 A 
ATOM      8  C   UNL d   1       5.241   6.136  -0.093  0.00  0.00     0.058 A 
ATOM      9  C   UNL d   1       1.913   2.957   0.156  0.00  0.00     0.050 C 
ATOM     10  C   UNL d   1       2.716   6.192  -0.148  0.00  0.00     0.049 C 
ENDROOT
BRANCH   2  11
ATOM     11  C   UNL d   1       3.742   0.380   0.073  0.00  0.00     0.045 C 
ATOM     12  N   UNL d   1       2.607   0.104  -0.507  0.00  0.00    -0.272 N 
ATOM     13  HN  UNL d   1       2.002   0.803  -0.937  1.00  0.00     0.194 HD
ATOM     14  C   UNL d   1       4.607  -0.694   0.707  0.00  0.00     0.071 C 
BRANCH  12  15
ATOM     15  O   UNL d   1       2.316  -1.266  -0.468  0.00  0.00    -0.290 OA
ATOM     16  H   UNL d   1       1.471  -1.314  -0.953  0.00  0.00     0.244 HD
ENDBRANCH  12  15
ENDBRANCH   2  11
TORSDOF 2
