REMARK  4 active torsions:
REMARK  status: ('A' for Active; 'I' for Inactive)
REMARK    1  A    between atoms: C_4  and  C_1 
REMARK    2  A    between atoms: C_2  and  C_3 
REMARK       I    between atoms: C_3  and  N_5 
REMARK    3  A    between atoms: N_5  and  C_4 
REMARK    4  A    between atoms: N_10  and  C_8 
ROOT
ATOM      1  C   UNL d   1      -1.178   4.520   0.011  0.00  0.00     0.254 C 
ATOM      2  N   UNL d   1      -1.248   3.141  -0.042  0.00  0.00    -0.352 N 
ATOM      3  O   UNL d   1      -0.176   5.118   0.383  0.00  0.00    -0.268 OA
ATOM      4  H   UNL d   1      -2.160   2.705  -0.091  0.00  0.00     0.163 HD
ENDROOT
BRANCH   1   5
ATOM      5  C   UNL d   1      -2.441   5.237  -0.363  0.00  0.00     0.058 A 
ATOM      6  C   UNL d   1      -2.787   6.466   0.237  0.00  0.00     0.041 A 
ATOM      7  C   UNL d   1      -4.007   7.063  -0.120  0.00  0.00     0.030 A 
ATOM      8  C   UNL d   1      -4.873   6.457  -1.034  0.00  0.00     0.002 A 
ATOM      9  C   UNL d   1      -4.517   5.255  -1.637  0.00  0.00     0.001 A 
ATOM     10  C   UNL d   1      -3.306   4.649  -1.307  0.00  0.00     0.019 A 
BRANCH   6  11
ATOM     11  N   UNL d   1      -1.895   7.214   1.018  0.00  0.00    -0.398 N 
ATOM     12  H   UNL d   1      -1.068   6.691   1.319  0.00  0.00     0.156 HD
ATOM     13  H   UNL d   1      -2.307   7.799   1.734  0.00  0.00     0.156 HD
ENDBRANCH   6  11
ENDBRANCH   1   5
BRANCH   2  14
ATOM     14  C   UNL d   1      -0.109   2.301   0.259  0.00  0.00     0.166 C 
BRANCH  14  15
ATOM     15  C   UNL d   1      -0.338   0.815   0.086  0.00  0.00     0.020 A 
ATOM     16  C   UNL d   1      -1.559   0.273  -0.341  0.00  0.00     0.126 A 
ATOM     17  F   UNL d   1      -2.603   1.073  -0.612  0.00  0.00    -0.205 F 
ATOM     18  C   UNL d   1      -1.754  -1.100  -0.494  0.00  0.00     0.043 A 
ATOM     19  C   UNL d   1      -0.717  -1.982  -0.220  0.00  0.00     0.005 A 
ATOM     20  C   UNL d   1       0.510  -1.480   0.204  0.00  0.00     0.024 A 
ATOM     21  C   UNL d   1       0.698  -0.099   0.354  0.00  0.00     0.044 A 
ATOM     22 CL   UNL d   1       2.259   0.428   0.884  0.00  0.00    -0.084 Cl
ENDBRANCH  14  15
ENDBRANCH   2  14
TORSDOF 4
