REMARK  15 active torsions:
REMARK  status: ('A' for Active; 'I' for Inactive)
REMARK    1  A    between atoms: C_3  and  N_1 
REMARK    2  A    between atoms: S_11  and  C_2 
REMARK    3  A    between atoms: C_9  and  C_4 
REMARK    4  A    between atoms: C_18  and  C_10 
REMARK    5  A    between atoms: C_15  and  S_11 
REMARK    6  A    between atoms: C_19  and  C_15 
REMARK    7  A    between atoms: C_22  and  C_18 
REMARK    8  A    between atoms: C_31  and  C_22 
REMARK    9  A    between atoms: C_23  and  C_26 
REMARK   10  A    between atoms: C_26  and  C_30 
REMARK   11  A    between atoms: C_27  and  C_32 
REMARK   12  A    between atoms: C_28  and  C_27 
REMARK   13  A    between atoms: C_29  and  C_28 
REMARK   14  A    between atoms: C_30  and  C_29 
REMARK   15  A    between atoms: C_32  and  C_31 
ROOT
ATOM      1  N   UNL d   1      -0.227   0.764  -0.178  0.00  0.00    -0.278 N 
ATOM      2  C   UNL d   1       1.031   0.142  -0.273  0.00  0.00     0.167 A 
ATOM      3  N   UNL d   1       0.897  -1.162  -0.309  0.00  0.00    -0.278 N 
ATOM      4  HN  UNL d   1       1.651  -1.840  -0.413  1.00  0.00     0.189 HD
ATOM      5  N   UNL d   1      -0.427  -1.450  -0.182  0.00  0.00    -0.286 N 
ATOM      6  HN  UNL d   1      -0.829  -2.387  -0.175  1.00  0.00     0.188 HD
ATOM      7  C   UNL d   1      -1.109  -0.325  -0.070  0.00  0.00     0.104 A 
ENDROOT
BRANCH   7   8
ATOM      8  C   UNL d   1      -2.573  -0.295   0.267  0.00  0.00     0.078 C 
BRANCH   8   9
ATOM      9  C   UNL d   1      -3.226  -1.681   0.168  0.00  0.00     0.007 C 
BRANCH   9  10
ATOM     10  C   UNL d   1      -4.759  -1.622   0.224  0.00  0.00     0.000 C 
BRANCH  10  11
ATOM     11  C   UNL d   1      -5.334  -3.039   0.157  0.00  0.00     0.000 C 
BRANCH  11  12
ATOM     12  C   UNL d   1      -6.863  -3.080   0.236  0.00  0.00     0.000 C 
BRANCH  12  13
ATOM     13  C   UNL d   1      -7.349  -4.533   0.208  0.00  0.00     0.000 C 
BRANCH  13  14
ATOM     14  C   UNL d   1      -8.870  -4.633   0.302  0.00  0.00     0.000 C 
BRANCH  14  15
ATOM     15  C   UNL d   1      -9.327  -6.093   0.284  0.00  0.00     0.000 C 
BRANCH  15  16
ATOM     16  C   UNL d   1     -10.849  -6.191   0.378  0.00  0.00    -0.000 C 
BRANCH  16  17
ATOM     17  C   UNL d   1     -11.320  -7.645   0.366  0.00  0.00    -0.005 C 
ATOM     18  C   UNL d   1     -12.835  -7.730   0.461  0.00  0.00     0.005 C 
ENDBRANCH  16  17
ENDBRANCH  15  16
ENDBRANCH  14  15
ENDBRANCH  13  14
ENDBRANCH  12  13
ENDBRANCH  11  12
ENDBRANCH  10  11
ENDBRANCH   9  10
ENDBRANCH   8   9
ENDBRANCH   7   8
BRANCH   1  19
ATOM     19  C   UNL d   1      -0.504   2.178  -0.105  0.00  0.00     0.058 A 
ATOM     20  C   UNL d   1      -1.547   2.841  -0.793  0.00  0.00     0.075 A 
ATOM     21  C   UNL d   1      -1.691   4.244  -0.616  0.00  0.00     0.018 A 
ATOM     22  C   UNL d   1      -0.794   4.993   0.136  0.00  0.00     0.001 A 
ATOM     23  C   UNL d   1       0.248   4.349   0.777  0.00  0.00     0.002 A 
ATOM     24  C   UNL d   1       0.368   2.960   0.687  0.00  0.00     0.031 A 
BRANCH  20  25
ATOM     25  C   UNL d   1      -2.509   2.263  -1.808  0.00  0.00     0.419 C 
ATOM     26  F   UNL d   1      -2.147   1.058  -2.313  0.00  0.00    -0.166 F 
ATOM     27  F   UNL d   1      -3.764   2.120  -1.290  0.00  0.00    -0.166 F 
ATOM     28  F   UNL d   1      -2.672   3.071  -2.893  0.00  0.00    -0.166 F 
ENDBRANCH  20  25
ENDBRANCH   1  19
BRANCH   2  29
ATOM     29  S   UNL d   1       2.575   0.941  -0.425  0.00  0.00    -0.087 SA
BRANCH  29  30
ATOM     30  C   UNL d   1       3.664  -0.403  -0.987  0.00  0.00     0.121 C 
BRANCH  30  31
ATOM     31  C   UNL d   1       5.122   0.026  -1.057  0.00  0.00    -0.049 A 
ATOM     32  C   UNL d   1       6.026  -0.339  -0.052  0.00  0.00     0.008 A 
ATOM     33  C   UNL d   1       7.376   0.023  -0.141  0.00  0.00     0.001 A 
ATOM     34  C   UNL d   1       7.833   0.764  -1.228  0.00  0.00     0.000 A 
ATOM     35  C   UNL d   1       6.940   1.151  -2.225  0.00  0.00     0.001 A 
ATOM     36  C   UNL d   1       5.588   0.783  -2.139  0.00  0.00     0.008 A 
ENDBRANCH  30  31
ENDBRANCH  29  30
ENDBRANCH   2  29
TORSDOF 15
