REMARK  7 active torsions:
REMARK  status: ('A' for Active; 'I' for Inactive)
REMARK    1  A    between atoms: C_11  and  N_1 
REMARK    2  A    between atoms: C_19  and  C_2 
REMARK    3  A    between atoms: N_8  and  C_5 
REMARK       I    between atoms: C_7  and  N_8 
REMARK       I    between atoms: N_10  and  C_7 
REMARK    4  A    between atoms: C_9  and  O_12 
REMARK    5  A    between atoms: C_17  and  N_10 
REMARK    6  A    between atoms: O_12  and  C_18 
REMARK    7  A    between atoms: C_26  and  C_19 
ROOT
ATOM      1  C   UNL d   1      -0.434   3.024   1.161  0.00  0.00     0.325 C 
ATOM      2  N   UNL d   1      -0.771   2.392  -0.027  0.00  0.00    -0.305 N 
ATOM      3  N   UNL d   1      -1.179   4.178   1.353  0.00  0.00    -0.309 N 
ATOM      4  O   UNL d   1       0.394   2.591   1.958  0.00  0.00    -0.247 OA
ATOM      5  H   UNL d   1      -1.720   2.509  -0.346  0.00  0.00     0.171 HD
ATOM      6  H   UNL d   1      -1.913   4.365   0.688  0.00  0.00     0.170 HD
ENDROOT
BRANCH   2   7
ATOM      7  C   UNL d   1      -0.143   1.220  -0.434  0.00  0.00     0.078 C 
ATOM      8  C   UNL d   1       1.181   0.844  -0.279  0.00  0.00     0.062 C 
ATOM      9  N   UNL d   1       1.203  -0.514  -0.589  0.00  0.00    -0.259 N 
ATOM     10  N   UNL d   1       0.141  -0.830  -1.387  0.00  0.00    -0.302 N 
ATOM     11  C   UNL d   1      -0.705   0.184  -1.203  0.00  0.00     0.139 C 
ATOM     12  HN  UNL d   1       0.022  -1.648  -1.983  1.00  0.00     0.186 HD
BRANCH   8  13
ATOM     13  C   UNL d   1       2.385   1.684   0.028  0.00  0.00     0.061 C 
BRANCH  13  14
ATOM     14  C   UNL d   1       3.417   1.699  -1.106  0.00  0.00     0.002 C 
ATOM     15  C   UNL d   1       2.869   2.296  -2.398  0.00  0.00     0.005 C 
ENDBRANCH  13  14
ENDBRANCH   8  13
BRANCH   9  16
ATOM     16  C   UNL d   1       2.083  -1.548  -0.152  0.00  0.00     0.056 A 
ATOM     17  C   UNL d   1       2.848  -1.412   1.012  0.00  0.00     0.031 A 
ATOM     18  C   UNL d   1       3.633  -2.477   1.469  0.00  0.00     0.002 A 
ATOM     19  C   UNL d   1       3.652  -3.684   0.773  0.00  0.00     0.000 A 
ATOM     20  C   UNL d   1       2.885  -3.832  -0.380  0.00  0.00     0.002 A 
ATOM     21  C   UNL d   1       2.098  -2.773  -0.839  0.00  0.00     0.031 A 
ENDBRANCH   9  16
ENDBRANCH   2   7
BRANCH   3  22
ATOM     22  C   UNL d   1      -1.097   5.041   2.468  0.00  0.00     0.036 A 
ATOM     23  C   UNL d   1      -0.057   5.008   3.401  0.00  0.00     0.032 A 
ATOM     24  C   UNL d   1      -0.055   5.858   4.516  0.00  0.00     0.039 A 
ATOM     25  C   UNL d   1      -1.085   6.774   4.700  0.00  0.00     0.078 A 
ATOM     26  C   UNL d   1      -2.120   6.819   3.761  0.00  0.00     0.039 A 
ATOM     27  C   UNL d   1      -2.122   5.971   2.648  0.00  0.00     0.032 A 
BRANCH  25  28
ATOM     28  O   UNL d   1      -1.204   7.677   5.714  0.00  0.00    -0.255 OA
BRANCH  28  29
ATOM     29  C   UNL d   1      -0.166   7.753   6.677  0.00  0.00     0.530 C 
ATOM     30  F   UNL d   1       1.051   7.865   6.103  0.00  0.00    -0.144 F 
ATOM     31  F   UNL d   1      -0.366   8.857   7.433  0.00  0.00    -0.144 F 
ATOM     32  F   UNL d   1      -0.186   6.676   7.490  0.00  0.00    -0.144 F 
ENDBRANCH  28  29
ENDBRANCH  25  28
ENDBRANCH   3  22
TORSDOF 7
