REMARK  10 active torsions:
REMARK  status: ('A' for Active; 'I' for Inactive)
REMARK    1  A    between atoms: C_7  and  C_1 
REMARK    2  A    between atoms: C_6  and  C_2 
REMARK    3  A    between atoms: O_8  and  C_3 
REMARK    4  A    between atoms: O_9  and  C_4 
REMARK    5  A    between atoms: O_15  and  C_6 
REMARK    6  A    between atoms: O_14  and  C_7 
REMARK    7  A    between atoms: C_12  and  O_8 
REMARK    8  A    between atoms: C_13  and  O_9 
REMARK    9  A    between atoms: C_16  and  C_12 
REMARK   10  A    between atoms: C_17  and  C_13 
ROOT
ATOM      1  C   UNL d   1      -0.146   1.059   0.052  0.00  0.00     0.185 A 
ATOM      2  C   UNL d   1      -0.320  -1.131  -0.237  0.00  0.00     0.185 A 
ATOM      3  C   UNL d   1       1.143   0.560   0.102  0.00  0.00     0.146 A 
ATOM      4  C   UNL d   1       1.035  -0.842  -0.174  0.00  0.00     0.146 A 
ATOM      5  O   UNL d   1      -1.032   0.032  -0.129  0.00  0.00    -0.291 OA
ENDROOT
BRANCH   3   6
ATOM      6  O   UNL d   1       2.178   1.392   0.382  0.00  0.00    -0.341 OA
BRANCH   6   7
ATOM      7  C   UNL d   1       3.326   0.789   0.957  0.00  0.00     0.214 C 
BRANCH   7   8
ATOM      8  C   UNL d   1       3.985   1.605   2.040  0.00  0.00    -0.034 A 
ATOM      9  C   UNL d   1       4.652   0.928   3.076  0.00  0.00     0.009 A 
ATOM     10  C   UNL d   1       5.390   1.632   4.026  0.00  0.00     0.001 A 
ATOM     11  C   UNL d   1       5.476   3.018   3.946  0.00  0.00     0.000 A 
ATOM     12  C   UNL d   1       4.820   3.701   2.921  0.00  0.00     0.001 A 
ATOM     13  C   UNL d   1       4.077   2.999   1.969  0.00  0.00     0.009 A 
ENDBRANCH   7   8
ENDBRANCH   6   7
ENDBRANCH   3   6
BRANCH   1  14
ATOM     14  C   UNL d   1      -0.686   2.393   0.183  0.00  0.00     0.204 C 
ATOM     15  O   UNL d   1      -0.053   3.432   0.298  0.00  0.00    -0.644 OA
BRANCH  14  16
ATOM     16  O   UNL d   1      -2.046   2.377   0.147  0.00  0.00    -0.771 OA
ATOM     17  H   UNL d   1      -2.384   1.462   0.049  0.00  0.00     0.167 HD
ENDBRANCH  14  16
ENDBRANCH   1  14
BRANCH   4  18
ATOM     18  O   UNL d   1       1.947  -1.845  -0.281  0.00  0.00    -0.341 OA
BRANCH  18  19
ATOM     19  C   UNL d   1       3.063  -1.553  -1.125  0.00  0.00     0.214 C 
BRANCH  19  20
ATOM     20  C   UNL d   1       3.702  -2.809  -1.673  0.00  0.00    -0.034 A 
ATOM     21  C   UNL d   1       4.530  -2.702  -2.802  0.00  0.00     0.009 A 
ATOM     22  C   UNL d   1       5.250  -3.803  -3.264  0.00  0.00     0.001 A 
ATOM     23  C   UNL d   1       5.154  -5.024  -2.602  0.00  0.00     0.000 A 
ATOM     24  C   UNL d   1       4.343  -5.143  -1.475  0.00  0.00     0.001 A 
ATOM     25  C   UNL d   1       3.627  -4.040  -1.005  0.00  0.00     0.009 A 
ENDBRANCH  19  20
ENDBRANCH  18  19
ENDBRANCH   4  18
BRANCH   2  26
ATOM     26  C   UNL d   1      -1.075  -2.355  -0.394  0.00  0.00     0.204 C 
ATOM     27  O   UNL d   1      -2.293  -2.441  -0.360  0.00  0.00    -0.644 OA
BRANCH  26  28
ATOM     28  O   UNL d   1      -0.287  -3.446  -0.585  0.00  0.00    -0.771 OA
ATOM     29  H   UNL d   1       0.669  -3.237  -0.594  0.00  0.00     0.167 HD
ENDBRANCH  26  28
ENDBRANCH   2  26
TORSDOF 10
