REMARK  3 active torsions:
REMARK  status: ('A' for Active; 'I' for Inactive)
REMARK    1  A    between atoms: C_8  and  C_5 
REMARK       I    between atoms: N_14  and  C_8 
REMARK    2  A    between atoms: N_11  and  N_14 
REMARK    3  A    between atoms: C_18  and  C_17 
ROOT
ATOM      1  C   UNL d   1       0.759   2.886   0.213  0.00  0.00     0.287 C 
ATOM      2  N   UNL d   1      -0.335   3.737   0.157  0.00  0.00    -0.265 N 
ATOM      3  O   UNL d   1       0.705   1.716   0.589  0.00  0.00    -0.264 OA
ATOM      4  H   UNL d   1      -0.270   4.648  -0.281  0.00  0.00     0.190 HD
ENDROOT
BRANCH   1   5
ATOM      5  C   UNL d   1       2.050   3.446  -0.305  0.00  0.00     0.116 A 
ATOM      6  N   UNL d   1       2.459   4.765  -0.207  0.00  0.00    -0.297 N 
ATOM      7  C   UNL d   1       3.644   5.086  -0.861  0.00  0.00     0.158 A 
ATOM      8  C   UNL d   1       1.940   5.828   0.514  0.00  0.00     0.107 A 
ATOM      9  N   UNL d   1       4.444   4.308  -1.496  0.00  0.00    -0.303 N 
ATOM     10  S   UNL d   1       3.976   6.821  -0.686  0.00  0.00    -0.064 SA
ATOM     11  C   UNL d   1       4.127   2.969  -1.514  0.00  0.00     0.249 A 
ATOM     12  HN  UNL d   1       5.275   4.666  -1.966  1.00  0.00     0.171 HD
ATOM     13  O   UNL d   1       4.857   2.111  -1.996  0.00  0.00    -0.268 OA
ATOM     14  C   UNL d   1       2.826   2.546  -0.933  0.00  0.00     0.110 A 
ATOM     15  C   UNL d   1       2.598   6.991   0.377  0.00  0.00     0.071 A 
ENDBRANCH   1   5
BRANCH   2  16
ATOM     16  N   UNL d   1      -1.572   3.192   0.336  0.00  0.00    -0.308 N 
ATOM     17  C   UNL d   1      -2.586   3.998   0.335  0.00  0.00     0.118 C 
ATOM     18  HN  UNL d   1      -1.695   2.188   0.466  1.00  0.00     0.186 HD
BRANCH  17  19
ATOM     19  C   UNL d   1      -3.965   3.466   0.359  0.00  0.00    -0.019 A 
ATOM     20  C   UNL d   1      -4.191   2.084   0.310  0.00  0.00     0.014 A 
ATOM     21  C   UNL d   1      -5.493   1.590   0.210  0.00  0.00     0.024 A 
ATOM     22  C   UNL d   1      -6.566   2.478   0.170  0.00  0.00     0.034 A 
ATOM     23  C   UNL d   1      -6.350   3.854   0.251  0.00  0.00     0.024 A 
ATOM     24 CL   UNL d   1      -8.168   1.873  -0.004  0.00  0.00    -0.084 Cl
ATOM     25  C   UNL d   1      -5.046   4.353   0.349  0.00  0.00     0.014 A 
ENDBRANCH  17  19
ENDBRANCH   2  16
TORSDOF 3
