REMARK  4 active torsions:
REMARK  status: ('A' for Active; 'I' for Inactive)
REMARK    1  A    between atoms: C_2  and  S_1 
REMARK    2  A    between atoms: N_3  and  S_1 
REMARK    3  A    between atoms: C_13  and  C_4 
REMARK    4  A    between atoms: C_14  and  C_7 
ROOT
ATOM      1  S   UNL d   1       1.058   0.059   0.013  0.00  0.00     0.285 S 
ATOM      2  O   UNL d   1       0.490   0.840  -1.069  0.00  0.00    -0.198 OA
ATOM      3  O   UNL d   1       2.480  -0.154   0.194  0.00  0.00    -0.198 OA
ENDROOT
BRANCH   1   4
ATOM      4  C   UNL d   1       0.412  -1.506  -0.215  0.00  0.00     0.131 A 
ATOM      5  C   UNL d   1       0.713  -2.360  -1.308  0.00  0.00     0.157 A 
ATOM      6  N   UNL d   1       0.024  -3.518  -1.190  0.00  0.00    -0.294 N 
ATOM      7  N   UNL d   1      -0.673  -3.391  -0.050  0.00  0.00    -0.306 N 
ATOM      8  HN  UNL d   1       0.033  -4.315  -1.827  1.00  0.00     0.187 HD
ATOM      9  C   UNL d   1      -0.483  -2.194   0.574  0.00  0.00     0.137 A 
ATOM     10  C   UNL d   1      -1.517  -4.479   0.385  0.00  0.00     0.177 C 
BRANCH   5  11
ATOM     11  C   UNL d   1       1.640  -2.105  -2.472  0.00  0.00     0.435 C 
ATOM     12  F   UNL d   1       2.214  -0.876  -2.452  0.00  0.00    -0.165 F 
ATOM     13  F   UNL d   1       2.660  -3.003  -2.515  0.00  0.00    -0.165 F 
ATOM     14  F   UNL d   1       0.990  -2.196  -3.665  0.00  0.00    -0.165 F 
ENDBRANCH   5  11
ENDBRANCH   1   4
BRANCH   1  15
ATOM     15  N   UNL d   1       0.472   0.758   1.484  0.00  0.00    -0.187 N 
ATOM     16  N   UNL d   1       0.912   0.456   2.736  0.00  0.00    -0.280 N 
ATOM     17  C   UNL d   1       0.203   1.266   3.550  0.00  0.00     0.140 C 
ATOM     18  HN  UNL d   1       1.620  -0.229   3.001  1.00  0.00     0.188 HD
ATOM     19  C   UNL d   1      -0.801   1.976   2.817  0.00  0.00    -0.011 C 
ATOM     20  C   UNL d   1      -0.629   1.582   1.507  0.00  0.00     0.138 C 
ATOM     21  C   UNL d   1      -1.796   2.938   3.354  0.00  0.00     0.052 C 
BRANCH  17  22
ATOM     22  C   UNL d   1       0.461   1.371   5.038  0.00  0.00     0.434 C 
ATOM     23  F   UNL d   1       1.484   0.591   5.471  0.00  0.00    -0.165 F 
ATOM     24  F   UNL d   1       0.759   2.649   5.400  0.00  0.00    -0.165 F 
ATOM     25  F   UNL d   1      -0.637   1.014   5.757  0.00  0.00    -0.165 F 
ENDBRANCH  17  22
ENDBRANCH   1  15
TORSDOF 4
