REMARK  1 active torsions:
REMARK  status: ('A' for Active; 'I' for Inactive)
REMARK    1  A    between atoms: C_8  and  C_6 
ROOT
ATOM      1  C   UNL d   1      -1.124  -0.849   0.029  0.00  0.00     0.045 A 
ATOM      2  C   UNL d   1       0.376  -0.972  -0.032  0.00  0.00     0.257 A 
ATOM      3  N   UNL d   1       0.834   0.324  -0.194  0.00  0.00    -0.322 N 
ATOM      4  C   UNL d   1      -1.445   0.579  -0.050  0.00  0.00     0.006 A 
ATOM      5  C   UNL d   1      -0.220   1.236  -0.209  0.00  0.00     0.046 A 
ATOM      6  C   UNL d   1      -1.892  -1.946   0.077  0.00  0.00     0.029 C 
ATOM      7  O   UNL d   1       1.042  -1.990   0.031  0.00  0.00    -0.267 OA
ATOM      8  C   UNL d   1      -2.618   1.309   0.023  0.00  0.00     0.015 A 
ATOM      9  C   UNL d   1      -0.121   2.607  -0.343  0.00  0.00     0.030 A 
ATOM     10  C   UNL d   1      -2.543   2.700  -0.114  0.00  0.00     0.001 A 
ATOM     11  C   UNL d   1      -1.307   3.343  -0.304  0.00  0.00     0.002 A 
ATOM     12  H   UNL d   1       1.813   0.552  -0.273  0.00  0.00     0.169 HD
ENDROOT
BRANCH   6  13
ATOM     13  C   UNL d   1      -3.353  -1.965   0.027  0.00  0.00    -0.035 A 
ATOM     14  C   UNL d   1      -4.010  -2.054  -1.208  0.00  0.00     0.014 A 
ATOM     15  C   UNL d   1      -5.404  -2.130  -1.256  0.00  0.00     0.043 A 
ATOM     16  C   UNL d   1      -6.131  -2.119  -0.071  0.00  0.00     0.116 A 
ATOM     17  C   UNL d   1      -5.494  -2.007   1.160  0.00  0.00     0.043 A 
ATOM     18  F   UNL d   1      -7.465  -2.227  -0.115  0.00  0.00    -0.206 F 
ATOM     19  C   UNL d   1      -4.101  -1.921   1.210  0.00  0.00     0.014 A 
ENDBRANCH   6  13
TORSDOF 1
