REMARK  5 active torsions:
REMARK  status: ('A' for Active; 'I' for Inactive)
REMARK    1  A    between atoms: C_2  and  S_1 
REMARK    2  A    between atoms: C_3  and  S_1 
REMARK    3  A    between atoms: C_6  and  C_3 
REMARK    4  A    between atoms: O_14  and  C_10 
REMARK    5  A    between atoms: C_15  and  O_14 
ROOT
ATOM      1  C   UNL d   1       0.502   1.391   1.065  0.00  0.00     0.161 C 
ATOM      2  C   UNL d   1       1.423   2.228   1.735  0.00  0.00     0.113 C 
ATOM      3  N   UNL d   1       2.160   2.913   2.316  0.00  0.00    -0.191 NA
ATOM      4  C   UNL d   1      -0.819   1.440   1.284  0.00  0.00     0.169 C 
ENDROOT
BRANCH   1   5
ATOM      5  S   UNL d   1       1.132   0.160   0.023  0.00  0.00     0.193 S 
ATOM      6  O   UNL d   1       0.533  -1.110   0.415  0.00  0.00    -0.221 OA
ATOM      7  O   UNL d   1       2.579   0.248  -0.061  0.00  0.00    -0.221 OA
BRANCH   5   8
ATOM      8  C   UNL d   1       0.478   0.527  -1.589  0.00  0.00     0.211 C 
BRANCH   8   9
ATOM      9  C   UNL d   1       0.880   1.872  -2.043  0.00  0.00     0.066 A 
ATOM     10  O   UNL d   1      -0.020   2.873  -1.831  0.00  0.00    -0.326 OA
ATOM     11  C   UNL d   1       0.498   3.998  -2.387  0.00  0.00     0.142 A 
ATOM     12  C   UNL d   1       1.722   3.733  -2.955  0.00  0.00     0.027 A 
ATOM     13  C   UNL d   1       1.975   2.359  -2.727  0.00  0.00     0.035 A 
ENDBRANCH   8   9
ENDBRANCH   5   8
ENDBRANCH   1   5
BRANCH   4  14
ATOM     14  O   UNL d   1      -1.399   2.364   2.118  0.00  0.00    -0.361 OA
BRANCH  14  15
ATOM     15  C   UNL d   1      -2.608   1.895   2.722  0.00  0.00     0.170 C 
ATOM     16  C   UNL d   1      -3.055   2.930   3.737  0.00  0.00     0.034 C 
ENDBRANCH  14  15
ENDBRANCH   4  14
TORSDOF 5
