REMARK  8 active torsions:
REMARK  status: ('A' for Active; 'I' for Inactive)
REMARK    1  A    between atoms: S_15  and  C_1 
REMARK    2  A    between atoms: C_7  and  C_6 
REMARK    3  A    between atoms: O_23  and  C_11 
REMARK    4  A    between atoms: C_22  and  S_15 
REMARK    5  A    between atoms: C_21  and  C_22 
REMARK    6  A    between atoms: C_27  and  O_23 
REMARK    7  A    between atoms: C_28  and  C_27 
REMARK    8  A    between atoms: C_29  and  C_28 
ROOT
ATOM      1  N   UNL d   1     -10.135  -2.195  -0.138  0.00  0.00    -0.352 N 
ATOM      2  HN  UNL d   1     -10.895  -1.516  -0.130  1.00  0.00     0.166 HD
ATOM      3  C   UNL d   1     -10.400  -3.527  -0.139  0.00  0.00     0.119 A 
ATOM      4  C   UNL d   1      -7.759  -2.671  -0.178  0.00  0.00     0.025 A 
ATOM      5  C   UNL d   1      -8.855  -1.786  -0.148  0.00  0.00     0.045 A 
ATOM      6  C   UNL d   1      -8.057  -4.054  -0.229  0.00  0.00     0.083 A 
ATOM      7  C   UNL d   1      -9.385  -4.474  -0.164  0.00  0.00     0.072 A 
ATOM      8  C   UNL d   1      -6.445  -2.132  -0.167  0.00  0.00     0.024 A 
ATOM      9  C   UNL d   1      -8.614  -0.419  -0.138  0.00  0.00     0.031 A 
ATOM     10  C   UNL d   1      -6.213  -0.744  -0.160  0.00  0.00    -0.048 A 
ATOM     11  C   UNL d   1      -7.319   0.106  -0.148  0.00  0.00     0.010 A 
ENDROOT
BRANCH  10  12
ATOM     12  C   UNL d   1      -4.809  -0.171  -0.154  0.00  0.00     0.120 C 
BRANCH  12  13
ATOM     13  S   UNL d   1      -3.906  -0.604  -1.666  0.00  0.00    -0.100 SA
BRANCH  13  14
ATOM     14  C   UNL d   1      -2.324   0.076  -1.355  0.00  0.00     0.113 A 
ATOM     15  N   UNL d   1      -2.051   0.817  -0.307  0.00  0.00    -0.344 N 
ATOM     16  C   UNL d   1      -0.721   1.220  -0.356  0.00  0.00     0.050 A 
ATOM     17  HN  UNL d   1      -2.712   1.059   0.431  1.00  0.00     0.167 HD
ATOM     18  C   UNL d   1      -0.059   2.034   0.588  0.00  0.00     0.031 A 
ATOM     19  C   UNL d   1       0.003   0.763  -1.459  0.00  0.00     0.034 A 
ATOM     20  C   UNL d   1       1.290   2.366   0.403  0.00  0.00     0.002 A 
ATOM     21  C   UNL d   1       1.986   1.896  -0.705  0.00  0.00     0.002 A 
ATOM     22  C   UNL d   1       1.357   1.086  -1.654  0.00  0.00     0.021 A 
ATOM     23  S   UNL d   1      -1.030  -0.195  -2.444  0.00  0.00    -0.063 SA
ENDBRANCH  13  14
ENDBRANCH  12  13
ENDBRANCH  10  12
BRANCH   6  24
ATOM     24  O   UNL d   1      -7.007  -4.945  -0.362  0.00  0.00    -0.350 OA
BRANCH  24  25
ATOM     25  C   UNL d   1      -7.373  -6.237  -0.868  0.00  0.00     0.175 C 
BRANCH  25  26
ATOM     26  C   UNL d   1      -6.161  -7.004  -1.383  0.00  0.00     0.026 C 
BRANCH  26  27
ATOM     27  C   UNL d   1      -5.208  -7.425  -0.267  0.00  0.00    -0.002 C 
ATOM     28  C   UNL d   1      -4.077  -8.280  -0.815  0.00  0.00     0.005 C 
ENDBRANCH  26  27
ENDBRANCH  25  26
ENDBRANCH  24  25
ENDBRANCH   6  24
BRANCH   3  29
ATOM     29  C   UNL d   1     -11.838  -4.027  -0.155  0.00  0.00     0.432 C 
ATOM     30  F   UNL d   1     -12.784  -3.048  -0.147  0.00  0.00    -0.165 F 
ATOM     31  F   UNL d   1     -12.102  -4.792  -1.257  0.00  0.00    -0.165 F 
ATOM     32  F   UNL d   1     -12.120  -4.831   0.913  0.00  0.00    -0.165 F 
ENDBRANCH   3  29
TORSDOF 8
