REMARK  3 active torsions:
REMARK  status: ('A' for Active; 'I' for Inactive)
REMARK    1  A    between atoms: C_2  and  C_1 
REMARK    2  A    between atoms: C_15  and  C_8 
REMARK    3  A    between atoms: C_12  and  C_14 
ROOT
ATOM      1  C   UNL d   1      -0.262  -1.071   0.020  0.00  0.00     0.193 A 
ATOM      2  O   UNL d   1      -1.059   0.015  -0.255  0.00  0.00    -0.271 OA
ATOM      3  N   UNL d   1       0.947  -0.706   0.409  0.00  0.00    -0.276 N 
ATOM      4  HN  UNL d   1       1.718  -1.325   0.659  1.00  0.00     0.189 HD
ATOM      5  N   UNL d   1       0.967   0.675   0.412  0.00  0.00    -0.277 N 
ATOM      6  HN  UNL d   1       1.754   1.274   0.662  1.00  0.00     0.189 HD
ATOM      7  C   UNL d   1      -0.231   1.065   0.029  0.00  0.00     0.174 A 
ENDROOT
BRANCH   7   8
ATOM      8  C   UNL d   1      -0.788   2.407  -0.097  0.00  0.00     0.017 A 
ATOM      9  C   UNL d   1       0.009   3.524   0.201  0.00  0.00     0.032 A 
ATOM     10  C   UNL d   1      -0.503   4.830   0.109  0.00  0.00     0.048 A 
ATOM     11  C   UNL d   1      -1.836   5.009  -0.287  0.00  0.00     0.016 A 
ATOM     12  C   UNL d   1      -2.639   3.910  -0.587  0.00  0.00     0.002 A 
ATOM     13  C   UNL d   1      -2.117   2.618  -0.494  0.00  0.00     0.016 A 
BRANCH  10  14
ATOM     14  C   UNL d   1       0.353   6.032   0.427  0.00  0.00     0.417 C 
ATOM     15  F   UNL d   1       1.621   5.714   0.809  0.00  0.00    -0.166 F 
ATOM     16  F   UNL d   1       0.483   6.873  -0.636  0.00  0.00    -0.166 F 
ATOM     17  F   UNL d   1      -0.163   6.784   1.438  0.00  0.00    -0.166 F 
ENDBRANCH  10  14
ENDBRANCH   7   8
BRANCH   1  18
ATOM     18  C   UNL d   1      -0.720  -2.486  -0.074  0.00  0.00     0.110 A 
ATOM     19  N   UNL d   1      -1.948  -2.821  -0.492  0.00  0.00    -0.257 N 
ATOM     20  O   UNL d   1      -2.006  -4.202  -0.403  0.00  0.00    -0.242 OA
ATOM     21  HN  UNL d   1      -2.685  -2.192  -0.809  1.00  0.00     0.195 HD
ATOM     22  C   UNL d   1      -0.823  -4.676   0.071  0.00  0.00     0.075 A 
ATOM     23  C   UNL d   1       0.036  -3.626   0.278  0.00  0.00     0.070 A 
ATOM     24  C   UNL d   1      -0.731  -6.135   0.258  0.00  0.00     0.079 C 
ENDBRANCH   1  18
TORSDOF 3
