REMARK  8 active torsions:
REMARK  status: ('A' for Active; 'I' for Inactive)
REMARK    1  A    between atoms: C_3  and  S_1 
REMARK    2  A    between atoms: N_4  and  S_1 
REMARK    3  A    between atoms: S_2  and  C_3 
REMARK    4  A    between atoms: N_5  and  S_2 
REMARK    5  A    between atoms: C_15  and  N_4 
REMARK    6  A    between atoms: C_14  and  N_5 
REMARK    7  A    between atoms: C_6  and  C_15 
REMARK    8  A    between atoms: C_7  and  C_14 
ROOT
ATOM      1  C   UNL d   1       0.411  -0.452   1.515  0.00  0.00     0.319 C 
ENDROOT
BRANCH   1   2
ATOM      2  S   UNL d   1       0.951  -2.074   1.950  0.00  0.00     0.241 S 
ATOM      3  O   UNL d   1       0.508  -2.293   3.314  0.00  0.00    -0.205 OA
ATOM      4  O   UNL d   1       0.576  -3.006   0.913  0.00  0.00    -0.205 OA
BRANCH   2   5
ATOM      5  N   UNL d   1       2.618  -1.999   1.983  0.00  0.00    -0.314 N 
ATOM      6  H   UNL d   1       3.087  -1.332   1.360  0.00  0.00     0.172 HD
BRANCH   5   7
ATOM      7  C   UNL d   1       3.284  -2.268   3.259  0.00  0.00     0.178 C 
BRANCH   7   8
ATOM      8  C   UNL d   1       4.762  -2.249   3.021  0.00  0.00     0.001 A 
ATOM      9  S   UNL d   1       5.640  -0.783   3.181  0.00  0.00    -0.105 SA
ATOM     10  C   UNL d   1       7.116  -1.549   2.787  0.00  0.00     0.050 A 
ATOM     11  C   UNL d   1       6.951  -2.893   2.533  0.00  0.00     0.008 A 
ATOM     12  C   UNL d   1       5.591  -3.296   2.665  0.00  0.00     0.017 A 
ENDBRANCH   7   8
ENDBRANCH   5   7
ENDBRANCH   2   5
ENDBRANCH   1   2
BRANCH   1  13
ATOM     13  S   UNL d   1       0.959   0.013  -0.083  0.00  0.00     0.224 S 
ATOM     14  O   UNL d   1       0.314  -0.774  -1.104  0.00  0.00    -0.210 OA
ATOM     15  O   UNL d   1       2.395   0.202  -0.035  0.00  0.00    -0.210 OA
BRANCH  13  16
ATOM     16  N   UNL d   1       0.311   1.585  -0.195  0.00  0.00    -0.214 NA
ATOM     17  H   UNL d   1       0.980   2.265   0.178  0.00  0.00     0.140 HD
BRANCH  16  18
ATOM     18  C   UNL d   1      -0.079   1.970  -1.573  0.00  0.00     0.150 C 
BRANCH  18  19
ATOM     19  C   UNL d   1      -0.566   3.388  -1.524  0.00  0.00    -0.004 A 
ATOM     20  S   UNL d   1       0.516   4.682  -1.830  0.00  0.00    -0.105 SA
ATOM     21  C   UNL d   1      -0.715   5.848  -1.615  0.00  0.00     0.050 A 
ATOM     22  C   UNL d   1      -1.926   5.271  -1.309  0.00  0.00     0.008 A 
ATOM     23  C   UNL d   1      -1.841   3.849  -1.256  0.00  0.00     0.016 A 
ENDBRANCH  18  19
ENDBRANCH  16  18
ENDBRANCH  13  16
ENDBRANCH   1  13
TORSDOF 8
