REMARK  8 active torsions:
REMARK  status: ('A' for Active; 'I' for Inactive)
REMARK    1  A    between atoms: C_9  and  N_2 
REMARK    2  A    between atoms: C_4  and  C_13 
REMARK    3  A    between atoms: N_7  and  O_16 
REMARK    4  A    between atoms: C_11  and  C_9 
REMARK    5  A    between atoms: C_15  and  C_10 
REMARK    6  A    between atoms: N_25  and  C_10 
REMARK    7  A    between atoms: C_12  and  C_11 
REMARK    8  A    between atoms: O_16  and  C_12 
ROOT
ATOM      1  N   UNL d   1       0.112  -3.227   0.807  0.00  0.00    -0.246 N 
ATOM      2  HN  UNL d   1       0.021  -2.572   1.583  1.00  0.00     0.196 HD
ATOM      3  C   UNL d   1      -0.874  -3.921   0.322  0.00  0.00     0.109 C 
ENDROOT
BRANCH   1   4
ATOM      4  O   UNL d   1       1.318  -3.487   0.136  0.00  0.00    -0.198 OA
BRANCH   4   5
ATOM      5  C   UNL d   1       2.107  -2.372   0.162  0.00  0.00     0.282 C 
ATOM      6  O   UNL d   1       1.733  -1.224   0.406  0.00  0.00    -0.263 OA
BRANCH   5   7
ATOM      7  C   UNL d   1       3.552  -2.674  -0.158  0.00  0.00     0.133 C 
BRANCH   7   8
ATOM      8  C   UNL d   1       3.989  -4.120   0.050  0.00  0.00     0.144 C 
BRANCH   8   9
ATOM      9  N   UNL d   1       3.872  -5.007  -1.097  0.00  0.00    -0.290 N 
ATOM     10  C   UNL d   1       3.016  -4.921  -2.182  0.00  0.00     0.372 A 
ATOM     11  O   UNL d   1       3.148  -6.030  -3.028  0.00  0.00    -0.259 OA
ATOM     12  O   UNL d   1       2.219  -4.022  -2.412  0.00  0.00    -0.237 OA
ATOM     13  C   UNL d   1       4.069  -6.811  -2.355  0.00  0.00     0.107 A 
ATOM     14  C   UNL d   1       4.508  -8.051  -2.764  0.00  0.00     0.040 A 
ATOM     15  C   UNL d   1       4.511  -6.228  -1.186  0.00  0.00     0.073 A 
ATOM     16  C   UNL d   1       5.423  -8.713  -1.941  0.00  0.00     0.003 A 
ATOM     17  C   UNL d   1       5.868  -8.122  -0.742  0.00  0.00     0.002 A 
ATOM     18  C   UNL d   1       5.410  -6.860  -0.351  0.00  0.00     0.033 A 
ENDBRANCH   8   9
ENDBRANCH   7   8
ENDBRANCH   5   7
ENDBRANCH   4   5
ENDBRANCH   1   4
BRANCH   3  19
ATOM     19  C   UNL d   1      -2.192  -3.785   1.015  0.00  0.00     0.004 A 
ATOM     20  C   UNL d   1      -2.508  -2.585   1.663  0.00  0.00     0.015 A 
ATOM     21  C   UNL d   1      -3.678  -2.479   2.418  0.00  0.00     0.017 A 
ATOM     22  C   UNL d   1      -4.543  -3.576   2.544  0.00  0.00     0.048 A 
ATOM     23  C   UNL d   1      -4.236  -4.765   1.859  0.00  0.00     0.017 A 
ATOM     24  C   UNL d   1      -3.069  -4.871   1.096  0.00  0.00     0.015 A 
BRANCH  22  25
ATOM     25  C   UNL d   1      -5.763  -3.506   3.431  0.00  0.00     0.417 C 
ATOM     26  F   UNL d   1      -5.924  -2.303   4.049  0.00  0.00    -0.166 F 
ATOM     27  F   UNL d   1      -6.920  -3.735   2.750  0.00  0.00    -0.166 F 
ATOM     28  F   UNL d   1      -5.729  -4.434   4.429  0.00  0.00    -0.166 F 
ENDBRANCH  22  25
ENDBRANCH   3  19
BRANCH   3  29
ATOM     29  N   UNL d   1      -0.767  -4.749  -0.771  0.00  0.00    -0.286 NA
ATOM     30  H   UNL d   1       0.063  -4.535  -1.325  0.00  0.00     0.125 HD
ATOM     31  H   UNL d   1      -1.593  -4.788  -1.360  0.00  0.00     0.125 HD
ENDBRANCH   3  29
TORSDOF 8
