REMARK  5 active torsions:
REMARK  status: ('A' for Active; 'I' for Inactive)
REMARK    1  A    between atoms: S_2  and  N_8 
REMARK    2  A    between atoms: C_18  and  S_2 
REMARK    3  A    between atoms: S_16  and  C_6 
REMARK    4  A    between atoms: C_12  and  C_7 
REMARK       I    between atoms: N_8  and  C_12 
REMARK    5  A    between atoms: C_23  and  S_16 
ROOT
ATOM      1  C   UNL d   1      -0.012  -0.626  -0.838  0.00  0.00     0.051 C 
ATOM      2  C   UNL d   1       0.011   0.677  -0.348  0.00  0.00     0.135 C 
ATOM      3  N   UNL d   1       2.172   0.076  -0.685  0.00  0.00    -0.301 N 
ATOM      4  HN  UNL d   1       3.190   0.112  -0.740  1.00  0.00     0.187 HD
ATOM      5  C   UNL d   1      -1.261  -1.258  -0.925  0.00  0.00     0.034 C 
ATOM      6  C   UNL d   1      -2.188  -0.762  -0.013  0.00  0.00     0.066 C 
ATOM      7  N   UNL d   1       1.314   1.085  -0.421  0.00  0.00    -0.280 N 
ATOM      8  C   UNL d   1       1.368  -0.986  -0.859  0.00  0.00     0.037 C 
ATOM      9  N   UNL d   1      -1.030   1.366   0.166  0.00  0.00    -0.349 N 
ATOM     10  HN  UNL d   1      -1.027   2.372   0.334  1.00  0.00     0.167 HD
ATOM     11  C   UNL d   1      -2.078   0.554   0.427  0.00  0.00     0.108 C 
ATOM     12  C   UNL d   1       1.831   2.383  -0.067  0.00  0.00     0.179 C 
ATOM     13  C   UNL d   1       1.945  -2.354  -0.744  0.00  0.00     0.070 C 
ENDROOT
BRANCH   6  14
ATOM     14  C   UNL d   1      -3.086  -1.685   0.728  0.00  0.00     0.265 C 
ATOM     15  N   UNL d   1      -2.675  -3.012   0.941  0.00  0.00    -0.279 N 
ATOM     16  HN  UNL d   1      -1.745  -3.278   0.619  1.00  0.00     0.179 HD
ATOM     17  O   UNL d   1      -4.096  -1.183   1.191  0.00  0.00    -0.267 OA
BRANCH  15  18
ATOM     18  S   UNL d   1      -3.527  -4.087   1.623  0.00  0.00     0.055 S 
ATOM     19  O   UNL d   1      -3.982  -4.051   3.002  0.00  0.00    -0.245 OA
ATOM     20  C   UNL d   1      -2.647  -5.625   1.454  0.00  0.00     0.142 C 
BRANCH  18  21
ATOM     21  C   UNL d   1      -4.986  -4.256   0.616  0.00  0.00     0.038 A 
ATOM     22  C   UNL d   1      -5.040  -5.121  -0.478  0.00  0.00     0.022 A 
ATOM     23  C   UNL d   1      -6.164  -5.098  -1.306  0.00  0.00     0.001 A 
ATOM     24  C   UNL d   1      -7.209  -4.208  -1.049  0.00  0.00     0.000 A 
ATOM     25  C   UNL d   1      -7.159  -3.364   0.057  0.00  0.00     0.001 A 
ATOM     26  C   UNL d   1      -6.056  -3.404   0.905  0.00  0.00     0.022 A 
ENDBRANCH  18  21
ENDBRANCH  15  18
ENDBRANCH   6  14
BRANCH   5  27
ATOM     27  S   UNL d   1      -1.579  -2.571  -2.080  0.00  0.00    -0.124 SA
BRANCH  27  28
ATOM     28  C   UNL d   1      -2.959  -1.874  -3.160  0.00  0.00     0.044 C 
ATOM     29  C   UNL d   1      -3.406  -2.969  -4.137  0.00  0.00     0.021 C 
ATOM     30  C   UNL d   1      -4.203  -1.363  -2.428  0.00  0.00     0.021 C 
ENDBRANCH  27  28
ENDBRANCH   5  27
TORSDOF 5
