REMARK  3 active torsions:
REMARK  status: ('A' for Active; 'I' for Inactive)
REMARK    1  A    between atoms: C_5  and  N_1 
REMARK    2  A    between atoms: C_7  and  C_5 
REMARK    3  A    between atoms: C_10  and  C_7 
ROOT
ATOM      1  N   UNL d   1       1.706  -0.918  -0.080  0.00  0.00    -0.283 N 
ATOM      2  C   UNL d   1       0.947  -0.335   0.912  0.00  0.00     0.373 A 
ATOM      3  O   UNL d   1       0.583   0.975   0.568  0.00  0.00    -0.259 OA
ATOM      4  C   UNL d   1       1.844  -0.001  -1.096  0.00  0.00     0.073 A 
ATOM      5  C   UNL d   1       1.158   1.125  -0.683  0.00  0.00     0.107 A 
ATOM      6  O   UNL d   1       0.587  -0.873   1.951  0.00  0.00    -0.237 OA
ATOM      7  C   UNL d   1       2.489  -0.059  -2.311  0.00  0.00     0.033 A 
ATOM      8  C   UNL d   1       1.072   2.255  -1.470  0.00  0.00     0.040 A 
ATOM      9  C   UNL d   1       2.423   1.077  -3.125  0.00  0.00     0.002 A 
ATOM     10  C   UNL d   1       1.718   2.224  -2.709  0.00  0.00     0.003 A 
ENDROOT
BRANCH   1  11
ATOM     11  C   UNL d   1       2.190  -2.277  -0.072  0.00  0.00     0.218 C 
BRANCH  11  12
ATOM     12  C   UNL d   1       3.711  -2.428  -0.070  0.00  0.00     0.177 C 
ATOM     13  O   UNL d   1       4.482  -1.470  -0.041  0.00  0.00    -0.291 OA
BRANCH  12  14
ATOM     14  C   UNL d   1       4.279  -3.814  -0.140  0.00  0.00     0.011 A 
ATOM     15  C   UNL d   1       3.475  -4.960  -0.066  0.00  0.00     0.015 A 
ATOM     16  C   UNL d   1       4.053  -6.231  -0.150  0.00  0.00     0.001 A 
ATOM     17  C   UNL d   1       5.431  -6.368  -0.307  0.00  0.00     0.000 A 
ATOM     18  C   UNL d   1       6.238  -5.234  -0.378  0.00  0.00     0.001 A 
ATOM     19  C   UNL d   1       5.665  -3.962  -0.293  0.00  0.00     0.015 A 
ENDBRANCH  12  14
ENDBRANCH  11  12
ENDBRANCH   1  11
TORSDOF 3
