REMARK  4 active torsions:
REMARK  status: ('A' for Active; 'I' for Inactive)
REMARK    1  A    between atoms: C_3  and  N_1 
REMARK       I    between atoms: C_5  and  N_1 
REMARK       I    between atoms: N_2  and  C_6 
REMARK    2  A    between atoms: C_4  and  N_2 
REMARK    3  A    between atoms: C_9  and  C_5 
REMARK    4  A    between atoms: C_6  and  C_10 
ROOT
ATOM      1  C   UNL d   1       2.963   0.130  -1.404  0.00  0.00     0.080 C 
ATOM      2  C   UNL d   1       2.608  -0.695  -2.401  0.00  0.00     0.080 C 
ENDROOT
BRANCH   1   3
ATOM      3  C   UNL d   1       2.299   0.005  -0.086  0.00  0.00     0.245 C 
ATOM      4  N   UNL d   1       2.515   1.105   0.712  0.00  0.00    -0.321 N 
ATOM      5  H   UNL d   1       2.878   1.951   0.281  0.00  0.00     0.169 HD
ATOM      6  O   UNL d   1       1.622  -0.978   0.186  0.00  0.00    -0.268 OA
BRANCH   4   7
ATOM      7  C   UNL d   1       2.122   1.233   2.061  0.00  0.00     0.074 A 
ATOM      8  C   UNL d   1       2.047   2.522   2.604  0.00  0.00     0.146 A 
ATOM      9  C   UNL d   1       1.645   2.734   3.918  0.00  0.00     0.086 A 
ATOM     10  F   UNL d   1       2.339   3.583   1.834  0.00  0.00    -0.204 F 
ATOM     11  C   UNL d   1       1.347   1.635   4.709  0.00  0.00     0.119 A 
ATOM     12  C   UNL d   1       1.450   0.341   4.208  0.00  0.00     0.044 A 
ATOM     13  F   UNL d   1       0.959   1.820   5.977  0.00  0.00    -0.206 F 
ATOM     14  C   UNL d   1       1.832   0.138   2.880  0.00  0.00     0.036 A 
ENDBRANCH   4   7
ENDBRANCH   1   3
BRANCH   2  15
ATOM     15  C   UNL d   1       3.380  -0.629  -3.666  0.00  0.00     0.245 C 
ATOM     16  N   UNL d   1       2.920  -1.515  -4.617  0.00  0.00    -0.321 N 
ATOM     17  H   UNL d   1       1.989  -1.892  -4.499  0.00  0.00     0.169 HD
ATOM     18  O   UNL d   1       4.274   0.196  -3.810  0.00  0.00    -0.268 OA
BRANCH  16  19
ATOM     19  C   UNL d   1       3.565  -1.765  -5.850  0.00  0.00     0.074 A 
ATOM     20  C   UNL d   1       4.950  -1.636  -6.048  0.00  0.00     0.146 A 
ATOM     21  C   UNL d   1       5.525  -1.859  -7.295  0.00  0.00     0.086 A 
ATOM     22  F   UNL d   1       5.781  -1.397  -5.024  0.00  0.00    -0.204 F 
ATOM     23  C   UNL d   1       4.713  -2.232  -8.354  0.00  0.00     0.119 A 
ATOM     24  C   UNL d   1       3.345  -2.413  -8.177  0.00  0.00     0.044 A 
ATOM     25  F   UNL d   1       5.255  -2.439  -9.560  0.00  0.00    -0.206 F 
ATOM     26  C   UNL d   1       2.771  -2.194  -6.921  0.00  0.00     0.036 A 
ENDBRANCH  16  19
ENDBRANCH   2  15
TORSDOF 4
