REMARK  5 active torsions:
REMARK  status: ('A' for Active; 'I' for Inactive)
REMARK    1  A    between atoms: C_3  and  N_1 
REMARK    2  A    between atoms: C_4  and  C_2 
REMARK       I    between atoms: N_6  and  C_4 
REMARK       I    between atoms: C_5  and  N_7 
REMARK    3  A    between atoms: C_8  and  C_5 
REMARK    4  A    between atoms: N_7  and  N_6 
REMARK    5  A    between atoms: O_17  and  C_14 
ROOT
ATOM      1  C   UNL d   1       2.413  -1.926  -2.231  0.00  0.00     0.272 C 
ATOM      2  N   UNL d   1       2.558  -3.282  -2.440  0.00  0.00    -0.263 N 
ATOM      3  O   UNL d   1       1.702  -1.212  -2.932  0.00  0.00    -0.266 OA
ATOM      4  H   UNL d   1       3.214  -3.889  -1.952  0.00  0.00     0.190 HD
ENDROOT
BRANCH   2   5
ATOM      5  N   UNL d   1       1.805  -3.862  -3.467  0.00  0.00    -0.263 N 
ATOM      6  C   UNL d   1       2.181  -5.093  -3.967  0.00  0.00     0.270 C 
ATOM      7  O   UNL d   1       3.151  -5.723  -3.557  0.00  0.00    -0.266 OA
ATOM      8  H   UNL d   1       1.167  -3.239  -3.961  0.00  0.00     0.190 HD
BRANCH   6   9
ATOM      9  C   UNL d   1       1.319  -5.635  -5.055  0.00  0.00     0.036 A 
ATOM     10  C   UNL d   1       1.899  -6.407  -6.074  0.00  0.00     0.053 A 
ATOM     11  C   UNL d   1       1.091  -6.947  -7.079  0.00  0.00     0.069 A 
ATOM     12  C   UNL d   1      -0.290  -6.728  -7.044  0.00  0.00     0.037 A 
ATOM     13  C   UNL d   1      -0.871  -5.974  -6.025  0.00  0.00     0.004 A 
ATOM     14  C   UNL d   1      -0.068  -5.424  -5.028  0.00  0.00     0.017 A 
BRANCH  11  15
ATOM     15  O   UNL d   1       1.510  -7.706  -8.136  0.00  0.00    -0.356 OA
ATOM     16  C   UNL d   1       2.909  -7.922  -8.268  0.00  0.00     0.210 C 
ENDBRANCH  11  15
ENDBRANCH   6   9
ENDBRANCH   2   5
BRANCH   1  17
ATOM     17  C   UNL d   1       3.104  -1.345  -1.057  0.00  0.00     0.066 A 
ATOM     18  C   UNL d   1       3.632  -0.050  -1.090  0.00  0.00     0.118 A 
ATOM     19  C   UNL d   1       4.130   0.571   0.066  0.00  0.00     0.037 A 
ATOM     20  C   UNL d   1       4.102  -0.119   1.275  0.00  0.00     0.002 A 
ATOM     21  C   UNL d   1       3.592  -1.419   1.324  0.00  0.00     0.001 A 
ATOM     22  C   UNL d   1       3.091  -2.030   0.168  0.00  0.00     0.020 A 
BRANCH  18  23
ATOM     23  N   UNL d   1       3.754   0.668  -2.342  0.00  0.00    -0.115 N 
ATOM     24  O   UNL d   1       4.434   0.132  -3.229  0.00  0.00    -0.532 OA
ATOM     25  O   UNL d   1       3.263   1.805  -2.392  0.00  0.00    -0.532 OA
ENDBRANCH  18  23
ENDBRANCH   1  17
TORSDOF 5
