REMARK  5 active torsions:
REMARK  status: ('A' for Active; 'I' for Inactive)
REMARK    1  A    between atoms: N_2  and  S_1 
REMARK    2  A    between atoms: C_4  and  S_1 
REMARK    3  A    between atoms: C_3  and  N_2 
REMARK    4  A    between atoms: C_16  and  C_3 
REMARK    5  A    between atoms: S_14  and  C_16 
ROOT
ATOM      1  S   UNL d   1       0.942  -0.017  -0.117  0.00  0.00     0.264 S 
ATOM      2  O   UNL d   1       0.185  -0.118  -1.344  0.00  0.00    -0.200 OA
ATOM      3  O   UNL d   1       2.385   0.068  -0.113  0.00  0.00    -0.200 OA
ENDROOT
BRANCH   1   4
ATOM      4  N   UNL d   1       0.479  -1.317   0.828  0.00  0.00    -0.269 N 
ATOM      5  H   UNL d   1      -0.152  -1.905   0.278  0.00  0.00     0.180 HD
BRANCH   4   6
ATOM      6  C   UNL d   1       1.293  -1.997   1.752  0.00  0.00     0.093 C 
ATOM      7  N   UNL d   1       2.136  -1.393   2.512  0.00  0.00    -0.388 N 
ATOM      8  H   UNL d   1       2.144  -0.393   2.310  0.00  0.00     0.157 HD
ATOM      9  HN  UNL d   1       2.715  -1.849   3.217  1.00  0.00     0.157 HD
BRANCH   6  10
ATOM     10  C   UNL d   1       1.114  -3.500   1.849  0.00  0.00     0.150 C 
BRANCH  10  11
ATOM     11  S   UNL d   1       1.455  -4.292   0.240  0.00  0.00    -0.166 SA
ATOM     12  C   UNL d   1       3.214  -3.872   0.076  0.00  0.00     0.090 C 
ENDBRANCH  10  11
ENDBRANCH   6  10
ENDBRANCH   4   6
ENDBRANCH   1   4
BRANCH   1  13
ATOM     13  C   UNL d   1       0.306   1.378   0.780  0.00  0.00     0.080 A 
ATOM     14  C   UNL d   1       1.188   2.341   1.284  0.00  0.00     0.027 A 
ATOM     15  C   UNL d   1       0.679   3.476   1.921  0.00  0.00     0.025 A 
ATOM     16  C   UNL d   1      -0.701   3.640   2.047  0.00  0.00     0.034 A 
ATOM     17  C   UNL d   1      -1.579   2.678   1.546  0.00  0.00     0.025 A 
ATOM     18 CL   UNL d   1      -1.324   5.050   2.811  0.00  0.00    -0.084 Cl
ATOM     19  C   UNL d   1      -1.077   1.542   0.905  0.00  0.00     0.027 A 
ENDBRANCH   1  13
TORSDOF 5
