REMARK  2 active torsions:
REMARK  status: ('A' for Active; 'I' for Inactive)
REMARK    1  A    between atoms: N_10  and  C_7 
REMARK    2  A    between atoms: C_11  and  N_10 
ROOT
ATOM      1  C   UNL d   1      -1.232   0.109  -0.120  0.00  0.00     0.130 C 
ATOM      2  C   UNL d   1      -0.492   1.356   0.085  0.00  0.00     0.303 C 
ATOM      3  C   UNL d   1      -0.625  -1.183   0.215  0.00  0.00     0.303 C 
ATOM      4  O   UNL d   1       0.837   1.206   0.245  0.00  0.00    -0.279 OA
ATOM      5  O   UNL d   1       0.718  -1.171   0.329  0.00  0.00    -0.279 OA
ATOM      6  C   UNL d   1       1.428  -0.029  -0.153  0.00  0.00     0.175 C 
ATOM      7  C   UNL d   1      -2.474   0.107  -0.639  0.00  0.00     0.113 C 
ATOM      8  O   UNL d   1      -1.019   2.459   0.119  0.00  0.00    -0.259 OA
ATOM      9  O   UNL d   1      -1.274  -2.214   0.368  0.00  0.00    -0.259 OA
ATOM     10  C   UNL d   1       1.573  -0.087  -1.678  0.00  0.00     0.080 C 
ATOM     11  C   UNL d   1       2.814  -0.069   0.488  0.00  0.00     0.080 C 
ENDROOT
BRANCH   7  12
ATOM     12  N   UNL d   1      -3.216   1.156  -1.125  0.00  0.00    -0.351 N 
ATOM     13  H   UNL d   1      -2.722   2.017  -1.359  0.00  0.00     0.166 HD
BRANCH  12  14
ATOM     14  C   UNL d   1      -4.499   1.123  -1.671  0.00  0.00     0.104 A 
ATOM     15  N   UNL d   1      -4.787   2.076  -2.584  0.00  0.00    -0.351 N 
ATOM     16  C   UNL d   1      -6.022   2.052  -3.151  0.00  0.00     0.113 A 
ATOM     17  HN  UNL d   1      -4.103   2.789  -2.838  1.00  0.00     0.166 HD
ATOM     18  C   UNL d   1      -7.003   1.131  -2.828  0.00  0.00     0.049 A 
ATOM     19  C   UNL d   1      -6.708   0.174  -1.871  0.00  0.00     0.029 A 
ATOM     20 CL   UNL d   1      -8.542   1.167  -3.581  0.00  0.00    -0.083 Cl
ATOM     21  C   UNL d   1      -5.439   0.166  -1.293  0.00  0.00     0.050 A 
ENDBRANCH  12  14
ENDBRANCH   7  12
TORSDOF 2
