REMARK  2 active torsions:
REMARK  status: ('A' for Active; 'I' for Inactive)
REMARK    1  A    between atoms: C_13  and  C_3 
REMARK    2  A    between atoms: N_14  and  C_5 
ROOT
ATOM      1  C   UNL d   1       0.075   0.457   0.021  0.00  0.00     0.025 A 
ATOM      2  C   UNL d   1      -0.159  -0.870   0.025  0.00  0.00     0.061 A 
ATOM      3  C   UNL d   1      -1.137   1.267   0.025  0.00  0.00    -0.008 A 
ATOM      4  C   UNL d   1      -2.225   0.358   0.022  0.00  0.00     0.094 A 
ATOM      5  C   UNL d   1       1.482   0.719   0.012  0.00  0.00     0.066 A 
ATOM      6  C   UNL d   1       2.203  -0.478   0.016  0.00  0.00     0.113 A 
ATOM      7  S   UNL d   1      -1.756  -1.304   0.027  0.00  0.00    -0.070 SA
ATOM      8  S   UNL d   1       1.181  -1.858   0.022  0.00  0.00    -0.069 SA
ATOM      9  C   UNL d   1      -3.636   0.612   0.013  0.00  0.00     0.107 C 
ATOM     10  C   UNL d   1       3.625  -0.625   0.008  0.00  0.00     0.109 C 
ATOM     11  N   UNL d   1      -4.783   0.784   0.005  0.00  0.00    -0.191 NA
ATOM     12  N   UNL d   1       4.782  -0.740  -0.001  0.00  0.00    -0.191 NA
ENDROOT
BRANCH   3  13
ATOM     13  C   UNL d   1      -1.266   2.828   0.018  0.00  0.00    -0.021 C 
ATOM     14  C   UNL d   1      -0.689   3.422  -1.285  0.00  0.00     0.019 C 
ATOM     15  C   UNL d   1      -2.730   3.351   0.063  0.00  0.00     0.019 C 
ATOM     16  C   UNL d   1      -0.614   3.461   1.268  0.00  0.00     0.019 C 
ENDBRANCH   3  13
BRANCH   5  17
ATOM     17  N   UNL d   1       2.115   1.911   0.001  0.00  0.00    -0.397 N 
ATOM     18  H   UNL d   1       1.657   2.809  -0.063  0.00  0.00     0.156 HD
ATOM     19  H   UNL d   1       3.131   2.003  -0.020  0.00  0.00     0.156 HD
ENDBRANCH   5  17
TORSDOF 2
