REMARK  2 active torsions:
REMARK  status: ('A' for Active; 'I' for Inactive)
REMARK    1  A    between atoms: C_7  and  C_1 
REMARK    2  A    between atoms: S_18  and  C_10 
ROOT
ATOM      1  C   UNL d   1       1.591  -1.191   0.065  0.00  0.00     0.089 A 
ATOM      2  N   UNL d   1       0.276  -0.735   0.052  0.00  0.00    -0.304 N 
ATOM      3  N   UNL d   1       1.570   1.096   0.059  0.00  0.00    -0.344 N 
ATOM      4  HN  UNL d   1       1.881   2.067   0.070  1.00  0.00     0.167 HD
ATOM      5  C   UNL d   1       0.334   0.659   0.040  0.00  0.00     0.112 A 
ATOM      6  C   UNL d   1       2.360  -0.029   0.060  0.00  0.00     0.036 A 
ATOM      7  C   UNL d   1      -0.941  -1.429   0.068  0.00  0.00     0.099 A 
ATOM      8  C   UNL d   1      -0.900   1.373   0.013  0.00  0.00     0.049 A 
ATOM      9  C   UNL d   1      -2.101  -0.750   0.042  0.00  0.00     0.018 A 
ATOM     10  C   UNL d   1      -2.066   0.701   0.008  0.00  0.00     0.005 A 
ATOM     11  C   UNL d   1       3.835   0.131   0.027  0.00  0.00     0.070 C 
ENDROOT
BRANCH   1  12
ATOM     12  C   UNL d   1       1.986  -2.598   0.083  0.00  0.00     0.065 A 
ATOM     13  N   UNL d   1       1.223  -3.419  -0.663  0.00  0.00    -0.335 N 
ATOM     14  C   UNL d   1       1.541  -4.721  -0.640  0.00  0.00     0.141 A 
ATOM     15  HN  UNL d   1       0.442  -3.068  -1.217  1.00  0.00     0.168 HD
ATOM     16  N   UNL d   1       2.555  -5.258   0.052  0.00  0.00    -0.347 N 
ATOM     17  C   UNL d   1       3.301  -4.401   0.768  0.00  0.00     0.092 A 
ATOM     18  HN  UNL d   1       2.748  -6.260   0.038  1.00  0.00     0.167 HD
ATOM     19  C   UNL d   1       3.060  -3.050   0.819  0.00  0.00     0.049 A 
BRANCH  14  20
ATOM     20  S   UNL d   1       0.512  -5.807  -1.579  0.00  0.00    -0.107 SA
ATOM     21  H   UNL d   1      -0.216  -4.811  -2.097  0.00  0.00     0.110 HD
ENDBRANCH  14  20
ENDBRANCH   1  12
TORSDOF 2
