REMARK  3 active torsions:
REMARK  status: ('A' for Active; 'I' for Inactive)
REMARK    1  A    between atoms: C_4  and  C_1 
REMARK    2  A    between atoms: C_3  and  C_4 
REMARK    3  A    between atoms: N_8  and  C_5 
ROOT
ATOM      1  C   UNL d   1      -1.328  -3.272   0.417  0.00  0.00     0.054 A 
ATOM      2  C   UNL d   1      -1.597  -4.240   1.387  0.00  0.00     0.152 A 
ATOM      3  C   UNL d   1      -0.614  -5.160   1.757  0.00  0.00     0.073 A 
ATOM      4  F   UNL d   1      -2.792  -4.281   1.998  0.00  0.00    -0.203 F 
ATOM      5 CL   UNL d   1      -0.944  -6.354   2.955  0.00  0.00    -0.081 Cl
ATOM      6  C   UNL d   1      -0.049  -3.225  -0.162  0.00  0.00     0.018 A 
ATOM      7  C   UNL d   1       0.934  -4.149   0.208  0.00  0.00     0.003 A 
ATOM      8  C   UNL d   1       0.650  -5.120   1.168  0.00  0.00     0.027 A 
ENDROOT
BRANCH   1   9
ATOM      9  C   UNL d   1      -2.326  -2.245   0.018  0.00  0.00     0.186 C 
ATOM     10  O   UNL d   1      -1.937  -1.146  -0.362  0.00  0.00    -0.287 OA
BRANCH   9  11
ATOM     11  C   UNL d   1      -3.770  -2.609   0.045  0.00  0.00     0.072 C 
ATOM     12  C   UNL d   1      -4.715  -1.657   0.031  0.00  0.00     0.088 C 
BRANCH  12  13
ATOM     13  N   UNL d   1      -6.100  -1.777   0.064  0.00  0.00    -0.398 N 
ATOM     14  C   UNL d   1      -6.830  -3.043   0.050  0.00  0.00     0.148 C 
ATOM     15  C   UNL d   1      -6.970  -0.599   0.103  0.00  0.00     0.148 C 
ENDBRANCH  12  13
ENDBRANCH   9  11
ENDBRANCH   1   9
TORSDOF 3
