REMARK  4 active torsions:
REMARK  status: ('A' for Active; 'I' for Inactive)
REMARK    1  A    between atoms: C_3  and  C_1 
REMARK    2  A    between atoms: C_2  and  C_3 
REMARK    3  A    between atoms: C_11  and  C_2 
REMARK    4  A    between atoms: N_8  and  C_4 
ROOT
ATOM      1  C   UNL d   1      -2.376   2.454  -0.071  0.00  0.00     0.195 C 
ATOM      2  O   UNL d   1      -2.296   1.275  -0.420  0.00  0.00    -0.287 OA
ENDROOT
BRANCH   1   3
ATOM      3  C   UNL d   1      -1.128   3.309  -0.013  0.00  0.00     0.008 C 
ATOM      4  C   UNL d   1      -1.218   4.654   0.028  0.00  0.00     0.095 C 
BRANCH   4   5
ATOM      5  N   UNL d   1      -0.271   5.677   0.027  0.00  0.00    -0.398 N 
ATOM      6  C   UNL d   1       1.064   5.588  -0.560  0.00  0.00     0.148 C 
ATOM      7  C   UNL d   1      -0.586   7.002   0.570  0.00  0.00     0.148 C 
ENDBRANCH   4   5
BRANCH   3   8
ATOM      8  C   UNL d   1       0.199   2.573  -0.067  0.00  0.00     0.039 C 
ATOM      9  C   UNL d   1       0.328   1.227   0.646  0.00  0.00     0.010 C 
ENDBRANCH   3   8
ENDBRANCH   1   3
BRANCH   1  10
ATOM     10  C   UNL d   1      -3.731   2.956   0.243  0.00  0.00     0.092 A 
ATOM     11  C   UNL d   1      -4.799   2.530  -0.553  0.00  0.00     0.133 A 
ATOM     12  F   UNL d   1      -4.598   1.745  -1.622  0.00  0.00    -0.205 F 
ATOM     13  C   UNL d   1      -6.112   2.917  -0.280  0.00  0.00     0.043 A 
ATOM     14  C   UNL d   1      -6.378   3.754   0.800  0.00  0.00     0.006 A 
ATOM     15  C   UNL d   1      -5.327   4.177   1.613  0.00  0.00     0.043 A 
ATOM     16  C   UNL d   1      -4.020   3.757   1.347  0.00  0.00     0.133 A 
ATOM     17  F   UNL d   1      -3.057   4.144   2.196  0.00  0.00    -0.205 F 
ENDBRANCH   1  10
TORSDOF 4
