REMARK  6 active torsions:
REMARK  status: ('A' for Active; 'I' for Inactive)
REMARK    1  A    between atoms: C_3  and  N_1 
REMARK    2  A    between atoms: C_10  and  C_2 
REMARK    3  A    between atoms: C_17  and  C_4 
REMARK    4  A    between atoms: O_18  and  C_10 
REMARK    5  A    between atoms: C_21  and  C_17 
REMARK    6  A    between atoms: C_20  and  O_18 
ROOT
ATOM      1  N   UNL d   1       0.978  -0.611   0.119  0.00  0.00    -0.257 N 
ATOM      2  C   UNL d   1      -0.277   1.234   0.104  0.00  0.00     0.081 A 
ATOM      3  C   UNL d   1       1.046   0.789   0.032  0.00  0.00     0.052 A 
ATOM      4  N   UNL d   1      -0.305  -1.035   0.200  0.00  0.00    -0.304 N 
ATOM      5  HN  UNL d   1      -0.633  -1.998   0.269  1.00  0.00     0.186 HD
ATOM      6  C   UNL d   1      -1.044   0.062   0.170  0.00  0.00     0.127 A 
ENDROOT
BRANCH   1   7
ATOM      7  C   UNL d   1       2.008  -1.587   0.086  0.00  0.00     0.100 C 
ATOM      8  C   UNL d   1       3.179  -1.458   0.849  0.00  0.00     0.066 C 
ATOM      9  C   UNL d   1       4.266  -2.325   0.654  0.00  0.00     0.050 C 
ATOM     10 CL   UNL d   1       3.314  -0.419   2.228  0.00  0.00    -0.082 Cl
ATOM     11  C   UNL d   1       4.152  -3.396  -0.220  0.00  0.00     0.037 C 
ATOM     12  C   UNL d   1       2.953  -3.631  -0.879  0.00  0.00     0.050 C 
ATOM     13 CL   UNL d   1       5.485  -4.453  -0.464  0.00  0.00    -0.084 Cl
ATOM     14  C   UNL d   1       1.885  -2.729  -0.741  0.00  0.00     0.066 C 
ATOM     15 CL   UNL d   1       0.505  -3.108  -1.722  0.00  0.00    -0.082 Cl
ENDBRANCH   1   7
BRANCH   3  16
ATOM     16  C   UNL d   1       2.284   1.633  -0.134  0.00  0.00     0.060 C 
BRANCH  16  17
ATOM     17  C   UNL d   1       3.192   1.303  -1.315  0.00  0.00     0.002 C 
ATOM     18  C   UNL d   1       2.533   1.556  -2.661  0.00  0.00     0.005 C 
ENDBRANCH  16  17
ENDBRANCH   3  16
BRANCH   2  19
ATOM     19  C   UNL d   1      -0.778   2.599   0.132  0.00  0.00     0.296 C 
ATOM     20  O   UNL d   1      -0.061   3.594   0.121  0.00  0.00    -0.259 OA
BRANCH  19  21
ATOM     21  O   UNL d   1      -2.134   2.641   0.266  0.00  0.00    -0.318 OA
BRANCH  21  22
ATOM     22  C   UNL d   1      -2.659   3.892   0.723  0.00  0.00     0.174 C 
ATOM     23  C   UNL d   1      -2.661   3.870   2.243  0.00  0.00     0.034 C 
ENDBRANCH  21  22
ENDBRANCH  19  21
ENDBRANCH   2  19
TORSDOF 6
