REMARK  6 active torsions:
REMARK  status: ('A' for Active; 'I' for Inactive)
REMARK    1  A    between atoms: N_15  and  C_1 
REMARK    2  A    between atoms: C_7  and  C_6 
REMARK    3  A    between atoms: C_8  and  C_11 
REMARK    4  A    between atoms: N_13  and  N_15 
REMARK    5  A    between atoms: C_20  and  C_19 
REMARK    6  A    between atoms: O_26  and  C_21 
ROOT
ATOM      1  C   UNL d   1       3.367   1.313  -0.070  0.00  0.00     0.126 A 
ATOM      2  N   UNL d   1       3.357   2.670  -0.118  0.00  0.00    -0.342 N 
ATOM      3  HN  UNL d   1       4.227   3.203  -0.141  1.00  0.00     0.167 HD
ATOM      4  N   UNL d   1       0.950   1.213  -0.032  0.00  0.00    -0.352 N 
ATOM      5  HN  UNL d   1       0.077   0.685  -0.005  1.00  0.00     0.166 HD
ATOM      6  C   UNL d   1       2.158   0.586  -0.002  0.00  0.00     0.073 A 
ATOM      7  C   UNL d   1       2.163   3.287  -0.132  0.00  0.00     0.060 A 
ATOM      8  C   UNL d   1       0.954   2.555  -0.100  0.00  0.00     0.059 A 
ATOM      9  C   UNL d   1       2.115   4.675  -0.173  0.00  0.00     0.032 A 
ATOM     10  C   UNL d   1      -0.251   3.249  -0.128  0.00  0.00     0.032 A 
ATOM     11  C   UNL d   1      -0.289   4.643  -0.175  0.00  0.00     0.002 A 
ATOM     12  C   UNL d   1       0.900   5.360  -0.192  0.00  0.00     0.002 A 
ENDROOT
BRANCH   1  13
ATOM     13  N   UNL d   1       4.661   0.761   0.006  0.00  0.00    -0.189 NA
ATOM     14  H   UNL d   1       5.307   1.534  -0.163  0.00  0.00     0.154 HD
BRANCH  13  15
ATOM     15  N   UNL d   1       4.941  -0.405  -0.632  0.00  0.00    -0.326 N 
ATOM     16  C   UNL d   1       5.937  -1.112  -0.177  0.00  0.00     0.113 C 
ATOM     17  HN  UNL d   1       4.394  -0.714  -1.435  1.00  0.00     0.180 HD
BRANCH  16  18
ATOM     18  C   UNL d   1       6.814  -0.877   0.994  0.00  0.00    -0.020 A 
ATOM     19  C   UNL d   1       6.412  -0.158   2.122  0.00  0.00     0.015 A 
ATOM     20  C   UNL d   1       7.312   0.090   3.163  0.00  0.00     0.037 A 
ATOM     21  C   UNL d   1       8.614  -0.405   3.095  0.00  0.00     0.068 A 
ATOM     22  C   UNL d   1       8.992  -1.186   2.000  0.00  0.00     0.037 A 
ATOM     23  C   UNL d   1       8.098  -1.426   0.953  0.00  0.00     0.015 A 
BRANCH  21  24
ATOM     24  O   UNL d   1       9.595  -0.203   4.026  0.00  0.00    -0.356 OA
ATOM     25  C   UNL d   1       9.296   0.707   5.078  0.00  0.00     0.210 C 
ENDBRANCH  21  24
ENDBRANCH  16  18
ENDBRANCH  13  15
ENDBRANCH   1  13
BRANCH   6  26
ATOM     26  C   UNL d   1       2.104  -0.879   0.144  0.00  0.00     0.034 C 
ATOM     27  C   UNL d   1       1.002  -1.646   0.181  0.00  0.00     0.021 C 
BRANCH  27  28
ATOM     28  C   UNL d   1       1.132  -3.066   0.252  0.00  0.00     0.004 A 
ATOM     29  S   UNL d   1      -0.064  -4.009   1.053  0.00  0.00    -0.102 SA
ATOM     30  C   UNL d   1       0.772  -5.470   0.750  0.00  0.00     0.050 A 
ATOM     31  C   UNL d   1       1.923  -5.267   0.026  0.00  0.00     0.008 A 
ATOM     32  C   UNL d   1       2.125  -3.888  -0.263  0.00  0.00     0.019 A 
ENDBRANCH  27  28
ENDBRANCH   6  26
TORSDOF 6
