REMARK  8 active torsions:
REMARK  status: ('A' for Active; 'I' for Inactive)
REMARK    1  A    between atoms: C_3  and  C_1 
REMARK    2  A    between atoms: C_8  and  C_1 
REMARK    3  A    between atoms: C_2  and  N_6 
REMARK    4  A    between atoms: N_4  and  C_2 
REMARK    5  A    between atoms: O_11  and  C_3 
REMARK    6  A    between atoms: C_5  and  N_4 
REMARK    7  A    between atoms: N_6  and  C_8 
REMARK    8  A    between atoms: O_14  and  C_10 
ROOT
ATOM      1  C   UNL d   1       1.232  -3.806  -0.216  0.00  0.00     0.172 C 
ATOM      2  S   UNL d   1       2.218  -5.038  -0.771  0.00  0.00    -0.041 SA
ENDROOT
BRANCH   1   3
ATOM      3  N   UNL d   1       1.412  -2.470  -0.447  0.00  0.00    -0.366 N 
ATOM      4  H   UNL d   1       0.901  -1.862   0.187  0.00  0.00     0.161 HD
BRANCH   3   5
ATOM      5  C   UNL d   1       2.588  -1.833  -1.041  0.00  0.00     0.141 C 
BRANCH   5   6
ATOM      6  C   UNL d   1       2.261  -0.744  -2.095  0.00  0.00     0.054 C 
ATOM      7  C   UNL d   1       3.598  -0.239  -2.666  0.00  0.00     0.028 C 
ATOM      8  C   UNL d   1       1.397  -1.337  -3.215  0.00  0.00     0.028 C 
BRANCH   6   9
ATOM      9  C   UNL d   1       1.537   0.415  -1.420  0.00  0.00     0.149 C 
ATOM     10  O   UNL d   1       1.226   0.448  -0.237  0.00  0.00    -0.649 OA
BRANCH   9  11
ATOM     11  O   UNL d   1       1.224   1.442  -2.247  0.00  0.00    -0.776 OA
ATOM     12  H   UNL d   1       1.493   1.329  -3.174  0.00  0.00     0.167 HD
ENDBRANCH   9  11
ENDBRANCH   6   9
ENDBRANCH   5   6
ENDBRANCH   3   5
ENDBRANCH   1   3
BRANCH   1  13
ATOM     13  N   UNL d   1       0.194  -4.163   0.596  0.00  0.00    -0.331 N 
ATOM     14  H   UNL d   1       0.258  -5.115   0.943  0.00  0.00     0.168 HD
BRANCH  13  15
ATOM     15  C   UNL d   1      -1.010  -3.510   0.928  0.00  0.00     0.068 A 
ATOM     16  C   UNL d   1      -1.735  -3.960   2.046  0.00  0.00     0.095 A 
ATOM     17  C   UNL d   1      -3.017  -3.465   2.305  0.00  0.00     0.039 A 
ATOM     18  C   UNL d   1      -3.580  -2.508   1.464  0.00  0.00     0.003 A 
ATOM     19  C   UNL d   1      -2.862  -2.046   0.362  0.00  0.00     0.002 A 
ATOM     20  C   UNL d   1      -1.582  -2.543   0.097  0.00  0.00     0.032 A 
BRANCH  16  21
ATOM     21  O   UNL d   1      -1.292  -4.945   2.894  0.00  0.00    -0.354 OA
ATOM     22  C   UNL d   1      -0.074  -4.613   3.567  0.00  0.00     0.210 C 
ENDBRANCH  16  21
ENDBRANCH  13  15
ENDBRANCH   1  13
TORSDOF 8
