REMARK  6 active torsions:
REMARK  status: ('A' for Active; 'I' for Inactive)
REMARK    1  A    between atoms: N_2  and  S_1 
REMARK    2  A    between atoms: C_5  and  S_1 
REMARK    3  A    between atoms: N_3  and  N_2 
REMARK    4  A    between atoms: C_4  and  N_3 
REMARK    5  A    between atoms: N_10  and  C_4 
REMARK    6  A    between atoms: C_12  and  N_10 
ROOT
ATOM      1  N   UNL d   1       0.782   1.798  -1.875  0.00  0.00    -0.266 N 
ATOM      2  H   UNL d   1       1.725   2.143  -1.675  0.00  0.00     0.190 HD
ENDROOT
BRANCH   1   3
ATOM      3  N   UNL d   1       0.542   0.417  -1.429  0.00  0.00    -0.221 N 
ATOM      4  H   UNL d   1      -0.290   0.295  -0.847  0.00  0.00     0.200 HD
BRANCH   3   5
ATOM      5  S   UNL d   1       1.880  -0.521  -0.942  0.00  0.00     0.276 S 
ATOM      6  O   UNL d   1       2.541   0.230   0.107  0.00  0.00    -0.199 OA
ATOM      7  O   UNL d   1       2.583  -0.972  -2.115  0.00  0.00    -0.199 OA
BRANCH   5   8
ATOM      8  C   UNL d   1       1.044  -1.907  -0.203  0.00  0.00     0.081 A 
ATOM      9  C   UNL d   1       0.572  -2.940  -1.022  0.00  0.00     0.027 A 
ATOM     10  C   UNL d   1      -0.084  -4.029  -0.446  0.00  0.00     0.025 A 
ATOM     11  C   UNL d   1      -0.259  -4.082   0.938  0.00  0.00     0.034 A 
ATOM     12  C   UNL d   1       0.218  -3.053   1.753  0.00  0.00     0.025 A 
ATOM     13 CL   UNL d   1      -1.062  -5.426   1.647  0.00  0.00    -0.084 Cl
ATOM     14  C   UNL d   1       0.876  -1.961   1.184  0.00  0.00     0.027 A 
ENDBRANCH   5   8
ENDBRANCH   3   5
ENDBRANCH   1   3
BRANCH   1  15
ATOM     15  C   UNL d   1       0.351   2.165  -3.132  0.00  0.00     0.191 C 
ATOM     16  S   UNL d   1      -0.093   1.109  -4.355  0.00  0.00    -0.039 SA
BRANCH  15  17
ATOM     17  N   UNL d   1       0.327   3.505  -3.418  0.00  0.00    -0.332 N 
ATOM     18  H   UNL d   1       0.237   3.681  -4.415  0.00  0.00     0.168 HD
BRANCH  17  19
ATOM     19  C   UNL d   1      -0.073   4.581  -2.590  0.00  0.00     0.036 A 
ATOM     20  C   UNL d   1      -0.405   4.456  -1.239  0.00  0.00     0.055 A 
ATOM     21  C   UNL d   1      -0.955   5.536  -0.534  0.00  0.00     0.058 A 
ATOM     22 CL   UNL d   1      -1.379   5.274   1.122  0.00  0.00    -0.082 Cl
ATOM     23  C   UNL d   1      -1.173   6.756  -1.178  0.00  0.00     0.055 A 
ATOM     24  C   UNL d   1      -0.812   6.900  -2.518  0.00  0.00     0.028 A 
ATOM     25 CL   UNL d   1      -1.907   8.105  -0.389  0.00  0.00    -0.083 Cl
ATOM     26  C   UNL d   1      -0.262   5.820  -3.216  0.00  0.00     0.031 A 
ENDBRANCH  17  19
ENDBRANCH  15  17
ENDBRANCH   1  15
TORSDOF 6
