REMARK  4 active torsions:
REMARK  status: ('A' for Active; 'I' for Inactive)
REMARK    1  A    between atoms: N_7  and  C_1 
REMARK    2  A    between atoms: C_11  and  N_7 
REMARK    3  A    between atoms: O_19  and  C_12 
REMARK    4  A    between atoms: C_20  and  O_19 
ROOT
ATOM      1  C   UNL d   1      -1.012  -1.552  -0.199  0.00  0.00     0.110 A 
ATOM      2  C   UNL d   1       0.098  -1.323  -0.929  0.00  0.00     0.115 A 
ATOM      3  C   UNL d   1      -1.360  -0.595   0.903  0.00  0.00     0.211 A 
ATOM      4  C   UNL d   1       1.014  -0.181  -0.677  0.00  0.00     0.207 A 
ATOM      5  C   UNL d   1      -0.419   0.511   1.212  0.00  0.00     0.031 A 
ATOM      6  C   UNL d   1       0.727   0.704   0.443  0.00  0.00     0.030 A 
ATOM      7  O   UNL d   1      -2.395  -0.723   1.552  0.00  0.00    -0.285 OA
ATOM      8  O   UNL d   1       2.003   0.023  -1.382  0.00  0.00    -0.286 OA
ATOM      9 CL   UNL d   1       0.502  -2.316  -2.296  0.00  0.00    -0.077 Cl
ATOM     10  C   UNL d   1      -0.676   1.385   2.284  0.00  0.00     0.016 A 
ATOM     11  C   UNL d   1       1.621   1.743   0.740  0.00  0.00     0.016 A 
ATOM     12  C   UNL d   1       0.215   2.427   2.574  0.00  0.00     0.001 A 
ATOM     13  C   UNL d   1       1.366   2.607   1.804  0.00  0.00     0.001 A 
ENDROOT
BRANCH   1  14
ATOM     14  N   UNL d   1      -1.909  -2.596  -0.427  0.00  0.00    -0.352 N 
ATOM     15  H   UNL d   1      -2.872  -2.395  -0.151  0.00  0.00     0.166 HD
BRANCH  14  16
ATOM     16  C   UNL d   1      -1.574  -3.967  -0.280  0.00  0.00     0.032 A 
ATOM     17  C   UNL d   1      -0.544  -4.413   0.558  0.00  0.00     0.032 A 
ATOM     18  C   UNL d   1      -0.160  -5.761   0.580  0.00  0.00     0.039 A 
ATOM     19  C   UNL d   1      -0.796  -6.688  -0.240  0.00  0.00     0.068 A 
ATOM     20  C   UNL d   1      -1.853  -6.260  -1.046  0.00  0.00     0.039 A 
ATOM     21  C   UNL d   1      -2.251  -4.916  -1.053  0.00  0.00     0.032 A 
BRANCH  19  22
ATOM     22  O   UNL d   1      -0.476  -8.017  -0.347  0.00  0.00    -0.352 OA
BRANCH  22  23
ATOM     23  C   UNL d   1       0.623  -8.472   0.445  0.00  0.00     0.171 C 
ATOM     24  C   UNL d   1       0.855  -9.946   0.167  0.00  0.00     0.034 C 
ENDBRANCH  22  23
ENDBRANCH  19  22
ENDBRANCH  14  16
ENDBRANCH   1  14
TORSDOF 4
