REMARK  8 active torsions:
REMARK  status: ('A' for Active; 'I' for Inactive)
REMARK    1  A    between atoms: C_6  and  C_1 
REMARK    2  A    between atoms: N_5  and  C_2 
REMARK    3  A    between atoms: C_3  and  N_5 
REMARK    4  A    between atoms: C_8  and  C_3 
REMARK    5  A    between atoms: C_10  and  C_4 
REMARK    6  A    between atoms: O_15  and  C_6 
REMARK    7  A    between atoms: O_16  and  C_8 
REMARK    8  A    between atoms: O_17  and  C_10 
ROOT
ATOM      1  N   UNL d   1       2.368   1.483   0.133  0.00  0.00    -0.350 N 
ATOM      2  H   UNL d   1       2.964   0.870   0.696  0.00  0.00     0.166 HD
ENDROOT
BRANCH   1   3
ATOM      3  C   UNL d   1       2.425   2.803   0.573  0.00  0.00     0.114 C 
ATOM      4  C   UNL d   1       1.444   3.483   1.194  0.00  0.00     0.117 C 
BRANCH   4   5
ATOM      5  C   UNL d   1       0.138   2.935   1.606  0.00  0.00     0.284 C 
ATOM      6  O   UNL d   1      -0.818   3.658   1.845  0.00  0.00    -0.260 OA
BRANCH   5   7
ATOM      7  O   UNL d   1       0.191   1.594   1.770  0.00  0.00    -0.323 OA
ATOM      8  C   UNL d   1      -1.004   0.947   2.205  0.00  0.00     0.213 C 
ENDBRANCH   5   7
ENDBRANCH   4   5
BRANCH   3   9
ATOM      9  C   UNL d   1       3.686   3.599   0.336  0.00  0.00     0.309 C 
ATOM     10  O   UNL d   1       3.766   4.815   0.400  0.00  0.00    -0.258 OA
BRANCH   9  11
ATOM     11  O   UNL d   1       4.718   2.749   0.078  0.00  0.00    -0.321 OA
ATOM     12  C   UNL d   1       5.966   3.404  -0.154  0.00  0.00     0.213 C 
ENDBRANCH   9  11
ENDBRANCH   3   9
ENDBRANCH   1   3
BRANCH   1  13
ATOM     13  C   UNL d   1       2.083   1.079  -1.140  0.00  0.00     0.056 A 
ATOM     14  C   UNL d   1       2.197  -0.226  -1.600  0.00  0.00     0.106 A 
ATOM     15  S   UNL d   1       1.751  -0.330  -3.263  0.00  0.00    -0.094 SA
ATOM     16  C   UNL d   1       1.419   1.336  -3.363  0.00  0.00     0.053 A 
ATOM     17  C   UNL d   1       1.614   1.969  -2.159  0.00  0.00     0.038 A 
BRANCH  14  18
ATOM     18  C   UNL d   1       2.609  -1.459  -0.946  0.00  0.00     0.302 C 
ATOM     19  O   UNL d   1       2.598  -2.580  -1.441  0.00  0.00    -0.259 OA
BRANCH  18  20
ATOM     20  O   UNL d   1       3.052  -1.208   0.327  0.00  0.00    -0.322 OA
ATOM     21  C   UNL d   1       3.507  -2.376   1.016  0.00  0.00     0.213 C 
ENDBRANCH  18  20
ENDBRANCH  14  18
ENDBRANCH   1  13
TORSDOF 8
