REMARK  7 active torsions:
REMARK  status: ('A' for Active; 'I' for Inactive)
REMARK       I    between atoms: N_2  and  C_1 
REMARK       I    between atoms: N_4  and  C_1 
REMARK    1  A    between atoms: C_3  and  N_2 
REMARK    2  A    between atoms: C_6  and  N_2 
REMARK    3  A    between atoms: C_5  and  C_3 
REMARK    4  A    between atoms: C_9  and  N_4 
REMARK    5  A    between atoms: O_11  and  C_5 
REMARK    6  A    between atoms: C_12  and  C_6 
REMARK    7  A    between atoms: C_19  and  O_11 
ROOT
ATOM      1  C   UNL d   1       0.792  -0.188  -0.178  0.00  0.00     0.324 C 
ATOM      2  N   UNL d   1       0.313   0.666  -1.183  0.00  0.00    -0.316 N 
ATOM      3  N   UNL d   1       2.162  -0.266  -0.089  0.00  0.00    -0.309 N 
ATOM      4  O   UNL d   1       0.021  -0.856   0.508  0.00  0.00    -0.247 OA
ATOM      5  H   UNL d   1       2.678   0.539  -0.407  0.00  0.00     0.170 HD
ENDROOT
BRANCH   2   6
ATOM      6  C   UNL d   1      -1.164   0.658  -1.400  0.00  0.00     0.185 C 
ATOM      7  C   UNL d   1      -1.568   0.510  -2.872  0.00  0.00     0.043 C 
BRANCH   6   8
ATOM      8  C   UNL d   1      -1.838   1.845  -0.686  0.00  0.00     0.281 C 
ATOM      9  O   UNL d   1      -1.400   2.399   0.313  0.00  0.00    -0.263 OA
BRANCH   8  10
ATOM     10  O   UNL d   1      -3.036   2.158  -1.261  0.00  0.00    -0.320 OA
BRANCH  10  11
ATOM     11  C   UNL d   1      -3.757   3.231  -0.632  0.00  0.00     0.174 C 
ATOM     12  C   UNL d   1      -4.589   2.708   0.525  0.00  0.00     0.034 C 
ENDBRANCH  10  11
ENDBRANCH   8  10
ENDBRANCH   6   8
ENDBRANCH   2   6
BRANCH   2  13
ATOM     13  C   UNL d   1       1.175   1.347  -2.160  0.00  0.00     0.167 C 
BRANCH  13  14
ATOM     14  C   UNL d   1       2.037   2.490  -1.666  0.00  0.00    -0.040 A 
ATOM     15  C   UNL d   1       3.213   2.798  -2.374  0.00  0.00     0.009 A 
ATOM     16  C   UNL d   1       3.981   3.916  -2.041  0.00  0.00     0.001 A 
ATOM     17  C   UNL d   1       3.583   4.748  -0.999  0.00  0.00     0.000 A 
ATOM     18  C   UNL d   1       2.430   4.449  -0.279  0.00  0.00     0.001 A 
ATOM     19  C   UNL d   1       1.665   3.327  -0.609  0.00  0.00     0.009 A 
ENDBRANCH  13  14
ENDBRANCH   2  13
BRANCH   3  20
ATOM     20  C   UNL d   1       2.928  -1.295   0.497  0.00  0.00     0.036 A 
ATOM     21  C   UNL d   1       2.385  -2.459   1.047  0.00  0.00     0.031 A 
ATOM     22  C   UNL d   1       3.218  -3.493   1.489  0.00  0.00     0.026 A 
ATOM     23  C   UNL d   1       4.599  -3.365   1.381  0.00  0.00     0.034 A 
ATOM     24  C   UNL d   1       5.156  -2.197   0.870  0.00  0.00     0.026 A 
ATOM     25 CL   UNL d   1       5.620  -4.665   1.856  0.00  0.00    -0.084 Cl
ATOM     26  C   UNL d   1       4.322  -1.161   0.438  0.00  0.00     0.031 A 
ENDBRANCH   3  20
TORSDOF 7
