REMARK  6 active torsions:
REMARK  status: ('A' for Active; 'I' for Inactive)
REMARK    1  A    between atoms: C_3  and  C_1 
REMARK    2  A    between atoms: C_8  and  C_2 
REMARK       I    between atoms: N_16  and  C_8 
REMARK    3  A    between atoms: C_12  and  O_19 
REMARK       I    between atoms: C_14  and  N_17 
REMARK       I    between atoms: N_18  and  C_14 
REMARK    4  A    between atoms: N_17  and  N_16 
REMARK    5  A    between atoms: C_25  and  N_18 
REMARK    6  A    between atoms: O_19  and  C_26 
ROOT
ATOM      1  C   UNL d   1      -2.576  -1.350  -0.196  0.00  0.00     0.289 C 
ATOM      2  N   UNL d   1      -3.737  -0.658  -0.472  0.00  0.00    -0.261 N 
ATOM      3  O   UNL d   1      -1.707  -0.847   0.525  0.00  0.00    -0.264 OA
ATOM      4  H   UNL d   1      -4.546  -1.141  -0.867  0.00  0.00     0.190 HD
ENDROOT
BRANCH   2   5
ATOM      5  N   UNL d   1      -4.052   0.523   0.228  0.00  0.00    -0.248 N 
ATOM      6  C   UNL d   1      -5.218   1.155  -0.174  0.00  0.00     0.339 C 
ATOM      7  N   UNL d   1      -5.446   2.330   0.504  0.00  0.00    -0.308 N 
ATOM      8  O   UNL d   1      -5.951   0.652  -1.026  0.00  0.00    -0.245 OA
ATOM      9  H   UNL d   1      -4.806   2.536   1.260  0.00  0.00     0.170 HD
ATOM     10  H   UNL d   1      -3.246   1.067   0.527  0.00  0.00     0.192 HD
BRANCH   7  11
ATOM     11  C   UNL d   1      -6.490   3.253   0.279  0.00  0.00     0.036 A 
ATOM     12  C   UNL d   1      -7.457   3.102  -0.719  0.00  0.00     0.032 A 
ATOM     13  C   UNL d   1      -8.417   4.096  -0.959  0.00  0.00     0.039 A 
ATOM     14  C   UNL d   1      -8.450   5.242  -0.172  0.00  0.00     0.078 A 
ATOM     15  C   UNL d   1      -7.495   5.389   0.837  0.00  0.00     0.039 A 
ATOM     16  C   UNL d   1      -6.527   4.404   1.068  0.00  0.00     0.032 A 
BRANCH  14  17
ATOM     17  O   UNL d   1      -9.323   6.280  -0.273  0.00  0.00    -0.255 OA
BRANCH  17  18
ATOM     18  C   UNL d   1     -10.516   6.143  -1.028  0.00  0.00     0.530 C 
ATOM     19  F   UNL d   1     -10.976   4.876  -1.085  0.00  0.00    -0.144 F 
ATOM     20  F   UNL d   1     -11.474   6.895  -0.438  0.00  0.00    -0.144 F 
ATOM     21  F   UNL d   1     -10.330   6.608  -2.281  0.00  0.00    -0.144 F 
ENDBRANCH  17  18
ENDBRANCH  14  17
ENDBRANCH   7  11
ENDBRANCH   2   5
BRANCH   1  22
ATOM     22  C   UNL d   1      -2.421  -2.655  -0.867  0.00  0.00     0.139 A 
ATOM     23  C   UNL d   1      -3.372  -3.557  -1.448  0.00  0.00     0.057 A 
ATOM     24  C   UNL d   1      -2.606  -4.560  -2.011  0.00  0.00     0.087 A 
ATOM     25  O   UNL d   1      -1.300  -4.304  -1.763  0.00  0.00    -0.241 OA
ATOM     26  C   UNL d   1      -2.889  -5.793  -2.769  0.00  0.00     0.080 C 
ATOM     27  N   UNL d   1      -1.175  -3.138  -1.049  0.00  0.00    -0.255 N 
ATOM     28  HN  UNL d   1      -0.306  -2.718  -0.719  1.00  0.00     0.195 HD
BRANCH  23  29
ATOM     29  C   UNL d   1      -4.830  -3.461  -1.419  0.00  0.00     0.054 A 
ATOM     30  N   UNL d   1      -5.402  -2.707  -0.415  0.00  0.00    -0.353 N 
ATOM     31  C   UNL d   1      -6.713  -2.696  -0.533  0.00  0.00     0.047 A 
ATOM     32  HN  UNL d   1      -4.881  -2.224   0.317  1.00  0.00     0.166 HD
ATOM     33  C   UNL d   1      -7.633  -1.953   0.372  0.00  0.00     0.076 C 
ATOM     34  S   UNL d   1      -7.335  -3.596  -1.856  0.00  0.00    -0.087 SA
ATOM     35  C   UNL d   1      -5.730  -4.022  -2.300  0.00  0.00     0.082 A 
ENDBRANCH  23  29
ENDBRANCH   1  22
TORSDOF 6
