REMARK  6 active torsions:
REMARK  status: ('A' for Active; 'I' for Inactive)
REMARK    1  A    between atoms: C_14  and  N_4 
REMARK    2  A    between atoms: S_16  and  C_10 
REMARK    3  A    between atoms: C_15  and  C_13 
REMARK    4  A    between atoms: C_20  and  C_14 
REMARK    5  A    between atoms: C_27  and  S_16 
REMARK    6  A    between atoms: C_18  and  C_27 
ROOT
ATOM      1  C   UNL d   1      -0.590  -1.190   0.208  0.00  0.00     0.098 A 
ATOM      2  C   UNL d   1      -1.069  -2.536   0.273  0.00  0.00     0.152 A 
ATOM      3  N   UNL d   1      -2.229  -2.961   0.886  0.00  0.00    -0.314 N 
ATOM      4  N   UNL d   1       0.724  -0.783   0.151  0.00  0.00    -0.284 N 
ATOM      5  N   UNL d   1      -0.495  -3.571  -0.305  0.00  0.00    -0.281 N 
ATOM      6  HN  UNL d   1       0.398  -3.561  -0.796  1.00  0.00     0.188 HD
ATOM      7  N   UNL d   1       0.855   0.572   0.124  0.00  0.00    -0.301 N 
ATOM      8  HN  UNL d   1       1.719   1.114   0.129  1.00  0.00     0.187 HD
ATOM      9  C   UNL d   1      -1.325  -0.027   0.122  0.00  0.00     0.062 A 
ATOM     10  C   UNL d   1      -2.352  -4.285   0.561  0.00  0.00     0.162 A 
ATOM     11  N   UNL d   1      -1.309  -4.671  -0.134  0.00  0.00    -0.278 N 
ATOM     12  HN  UNL d   1      -1.133  -5.612  -0.484  1.00  0.00     0.189 HD
ATOM     13  C   UNL d   1      -0.399   1.037   0.090  0.00  0.00     0.036 A 
ATOM     14  C   UNL d   1      -3.108  -2.217   1.750  0.00  0.00     0.160 C 
ENDROOT
BRANCH   4  15
ATOM     15  C   UNL d   1       1.932  -1.587  -0.014  0.00  0.00     0.187 C 
BRANCH  15  16
ATOM     16  C   UNL d   1       2.661  -1.897   1.276  0.00  0.00    -0.038 A 
ATOM     17  C   UNL d   1       2.919  -3.234   1.628  0.00  0.00     0.012 A 
ATOM     18  C   UNL d   1       3.713  -3.534   2.739  0.00  0.00     0.043 A 
ATOM     19  C   UNL d   1       4.244  -2.504   3.504  0.00  0.00     0.116 A 
ATOM     20  C   UNL d   1       3.986  -1.175   3.187  0.00  0.00     0.043 A 
ATOM     21  F   UNL d   1       5.030  -2.796   4.549  0.00  0.00    -0.206 F 
ATOM     22  C   UNL d   1       3.198  -0.873   2.076  0.00  0.00     0.012 A 
ENDBRANCH  15  16
ENDBRANCH   4  15
BRANCH  13  23
ATOM     23  C   UNL d   1      -0.723   2.519   0.030  0.00  0.00    -0.007 C 
ATOM     24  C   UNL d   1      -1.408   2.950   1.343  0.00  0.00     0.021 C 
ATOM     25  C   UNL d   1       0.533   3.389  -0.171  0.00  0.00     0.021 C 
ATOM     26  C   UNL d   1      -1.688   2.798  -1.145  0.00  0.00     0.021 C 
ENDBRANCH  13  23
BRANCH  10  27
ATOM     27  S   UNL d   1      -3.715  -5.247   1.018  0.00  0.00    -0.089 SA
BRANCH  27  28
ATOM     28  C   UNL d   1      -2.980  -6.902   0.984  0.00  0.00     0.108 C 
BRANCH  28  29
ATOM     29  C   UNL d   1      -4.022  -7.915   1.367  0.00  0.00    -0.026 C 
ATOM     30  C   UNL d   1      -3.948  -8.710   2.444  0.00  0.00     0.007 C 
ENDBRANCH  28  29
ENDBRANCH  27  28
ENDBRANCH  10  27
TORSDOF 6
