REMARK  5 active torsions:
REMARK  status: ('A' for Active; 'I' for Inactive)
REMARK    1  A    between atoms: C_9  and  C_3 
REMARK    2  A    between atoms: C_10  and  C_6 
REMARK    3  A    between atoms: C_11  and  C_9 
REMARK    4  A    between atoms: O_18  and  C_10 
REMARK    5  A    between atoms: C_23  and  O_18 
ROOT
ATOM      1  C   UNL d   1       0.015  -0.637  -0.028  0.00  0.00     0.058 A 
ATOM      2  C   UNL d   1       0.015   0.705  -0.037  0.00  0.00     0.003 A 
ATOM      3  C   UNL d   1       2.269   0.216  -0.013  0.00  0.00     0.064 A 
ATOM      4  C   UNL d   1       1.326   1.263  -0.042  0.00  0.00    -0.028 A 
ATOM      5  S   UNL d   1       1.519  -1.338   0.052  0.00  0.00    -0.077 SA
ATOM      6  C   UNL d   1      -2.242   0.227  -0.033  0.00  0.00     0.088 A 
ATOM      7  C   UNL d   1      -1.294   1.272  -0.017  0.00  0.00    -0.026 A 
ATOM      8  S   UNL d   1      -1.490  -1.334  -0.068  0.00  0.00    -0.075 SA
ATOM      9  C   UNL d   1       1.754   2.696  -0.079  0.00  0.00     0.050 C 
ATOM     10  C   UNL d   1      -1.709   2.707   0.053  0.00  0.00     0.050 C 
ENDROOT
BRANCH   3  11
ATOM     11  C   UNL d   1       3.724   0.343   0.062  0.00  0.00     0.199 C 
ATOM     12  O   UNL d   1       4.274   1.317   0.573  0.00  0.00    -0.286 OA
BRANCH  11  13
ATOM     13  C   UNL d   1       4.637  -0.700  -0.496  0.00  0.00     0.015 A 
ATOM     14  C   UNL d   1       5.861  -0.923   0.155  0.00  0.00     0.017 A 
ATOM     15  C   UNL d   1       6.771  -1.855  -0.351  0.00  0.00     0.025 A 
ATOM     16  C   UNL d   1       6.460  -2.563  -1.510  0.00  0.00     0.034 A 
ATOM     17  C   UNL d   1       5.254  -2.339  -2.173  0.00  0.00     0.025 A 
ATOM     18 CL   UNL d   1       7.579  -3.709  -2.136  0.00  0.00    -0.084 Cl
ATOM     19  C   UNL d   1       4.348  -1.397  -1.675  0.00  0.00     0.017 A 
ENDBRANCH  11  13
ENDBRANCH   3  11
BRANCH   6  20
ATOM     20  C   UNL d   1      -3.698   0.331   0.043  0.00  0.00     0.300 C 
ATOM     21  O   UNL d   1      -4.328   1.375   0.171  0.00  0.00    -0.259 OA
BRANCH  20  22
ATOM     22  O   UNL d   1      -4.275  -0.906   0.044  0.00  0.00    -0.317 OA
BRANCH  22  23
ATOM     23  C   UNL d   1      -5.594  -0.986   0.595  0.00  0.00     0.174 C 
ATOM     24  C   UNL d   1      -5.466  -1.129   2.101  0.00  0.00     0.034 C 
ENDBRANCH  22  23
ENDBRANCH  20  22
ENDBRANCH   6  20
TORSDOF 5
