REMARK  3 active torsions:
REMARK  status: ('A' for Active; 'I' for Inactive)
REMARK    1  A    between atoms: S_3  and  N_1 
REMARK    2  A    between atoms: C_4  and  C_2 
REMARK    3  A    between atoms: C_13  and  S_3 
ROOT
ATOM      1  N   UNL d   1       0.769  -0.990  -0.281  0.00  0.00    -0.175 N 
ATOM      2  C   UNL d   1      -0.485  -1.593  -0.389  0.00  0.00     0.099 A 
ATOM      3  N   UNL d   1       0.678   0.369  -0.128  0.00  0.00    -0.295 N 
ATOM      4  HN  UNL d   1       1.436   1.034   0.025  1.00  0.00     0.187 HD
ATOM      5  C   UNL d   1      -1.387  -0.545  -0.389  0.00  0.00     0.053 A 
ATOM      6  C   UNL d   1      -0.628   0.623  -0.226  0.00  0.00     0.111 A 
ENDROOT
BRANCH   2   7
ATOM      7  C   UNL d   1      -0.796  -2.985  -0.562  0.00  0.00     0.092 C 
ATOM      8  N   UNL d   1      -0.385  -4.021   0.263  0.00  0.00    -0.304 N 
ATOM      9  C   UNL d   1      -0.637  -5.199  -0.435  0.00  0.00     0.112 C 
ATOM     10  C   UNL d   1       0.222  -4.001   1.516  0.00  0.00     0.099 C 
ATOM     11  C   UNL d   1       0.015  -6.375   0.026  0.00  0.00     0.049 C 
ATOM     12  N   UNL d   1      -1.415  -4.985  -1.472  0.00  0.00    -0.344 N 
ATOM     13  C   UNL d   1       0.771  -6.319   1.141  0.00  0.00     0.005 C 
ATOM     14  C   UNL d   1       0.790  -5.132   1.981  0.00  0.00     0.018 C 
ATOM     15  C   UNL d   1      -1.519  -3.616  -1.572  0.00  0.00     0.036 C 
ATOM     16  HN  UNL d   1      -1.850  -5.684  -2.074  1.00  0.00     0.167 HD
ATOM     17  C   UNL d   1      -2.241  -3.039  -2.730  0.00  0.00     0.070 C 
ENDBRANCH   2   7
BRANCH   1  18
ATOM     18  S   UNL d   1       2.289  -1.819  -0.191  0.00  0.00     0.282 S 
ATOM     19  O   UNL d   1       2.545  -2.013   1.225  0.00  0.00    -0.198 OA
ATOM     20  O   UNL d   1       2.219  -2.927  -1.132  0.00  0.00    -0.198 OA
BRANCH  18  21
ATOM     21  C   UNL d   1       3.465  -0.649  -0.822  0.00  0.00     0.081 A 
ATOM     22  C   UNL d   1       4.084   0.251   0.054  0.00  0.00     0.028 A 
ATOM     23  C   UNL d   1       4.991   1.185  -0.451  0.00  0.00     0.044 A 
ATOM     24  C   UNL d   1       5.278   1.198  -1.813  0.00  0.00     0.116 A 
ATOM     25  C   UNL d   1       4.687   0.285  -2.682  0.00  0.00     0.044 A 
ATOM     26  F   UNL d   1       6.138   2.104  -2.296  0.00  0.00    -0.206 F 
ATOM     27  C   UNL d   1       3.779  -0.652  -2.187  0.00  0.00     0.028 A 
ENDBRANCH  18  21
ENDBRANCH   1  18
TORSDOF 3
