REMARK  2 active torsions:
REMARK  status: ('A' for Active; 'I' for Inactive)
REMARK    1  A    between atoms: N_14  and  C_7 
REMARK    2  A    between atoms: C_18  and  N_14 
ROOT
ATOM      1  S   UNL d   1       2.281   0.881   0.519  0.00  0.00     0.270 S 
ATOM      2  C   UNL d   1       2.252  -0.651  -0.266  0.00  0.00     0.146 C 
ATOM      3  N   UNL d   1       0.813   1.565  -0.013  0.00  0.00    -0.275 N 
ATOM      4  C   UNL d   1      -0.317   0.722  -0.020  0.00  0.00     0.066 A 
ATOM      5  C   UNL d   1      -0.220  -0.659  -0.001  0.00  0.00     0.084 A 
ATOM      6  C   UNL d   1       1.009  -1.438  -0.083  0.00  0.00     0.215 C 
ATOM      7  C   UNL d   1       3.176  -1.015  -1.169  0.00  0.00     0.118 C 
ATOM      8  S   UNL d   1      -1.748  -1.414   0.038  0.00  0.00    -0.096 SA
ATOM      9  O   UNL d   1       2.163   0.685   1.948  0.00  0.00    -0.200 OA
ATOM     10  O   UNL d   1       3.367   1.688  -0.013  0.00  0.00    -0.200 OA
ATOM     11  C   UNL d   1      -1.674   1.152  -0.074  0.00  0.00     0.039 A 
ATOM     12  C   UNL d   1      -2.555   0.093  -0.037  0.00  0.00     0.053 A 
ATOM     13  O   UNL d   1       1.060  -2.667  -0.108  0.00  0.00    -0.285 OA
ATOM     14  C   UNL d   1       0.778   2.988  -0.360  0.00  0.00     0.170 C 
ENDROOT
BRANCH   7  15
ATOM     15  N   UNL d   1       4.276  -0.306  -1.593  0.00  0.00    -0.363 N 
ATOM     16  H   UNL d   1       4.396   0.621  -1.165  0.00  0.00     0.165 HD
BRANCH  15  17
ATOM     17  C   UNL d   1       5.183  -0.581  -2.627  0.00  0.00     0.047 A 
ATOM     18  C   UNL d   1       6.202   0.335  -2.916  0.00  0.00     0.117 A 
ATOM     19  N   UNL d   1       7.162   0.169  -3.858  0.00  0.00    -0.373 N 
ATOM     20  C   UNL d   1       7.115  -0.980  -4.559  0.00  0.00     0.088 A 
ATOM     21  HN  UNL d   1       7.878   0.875  -4.028  1.00  0.00     0.164 HD
ATOM     22  C   UNL d   1       6.148  -1.952  -4.371  0.00  0.00     0.019 A 
ATOM     23  C   UNL d   1       5.171  -1.744  -3.395  0.00  0.00     0.032 A 
ENDBRANCH  15  17
ENDBRANCH   7  15
TORSDOF 2
