REMARK  5 active torsions:
REMARK  status: ('A' for Active; 'I' for Inactive)
REMARK    1  A    between atoms: C_2  and  S_1 
REMARK    2  A    between atoms: C_6  and  S_1 
REMARK    3  A    between atoms: C_3  and  C_2 
REMARK    4  A    between atoms: N_9  and  C_3 
REMARK    5  A    between atoms: O_10  and  N_7 
ROOT
ATOM      1  S   UNL d   1       1.246   0.583  -5.415  0.00  0.00     0.182 S 
ATOM      2  O   UNL d   1       0.674   0.065  -6.647  0.00  0.00    -0.222 OA
ATOM      3  O   UNL d   1       2.691   0.615  -5.258  0.00  0.00    -0.222 OA
ENDROOT
BRANCH   1   4
ATOM      4  C   UNL d   1       0.598  -0.355  -4.072  0.00  0.00     0.223 C 
BRANCH   4   5
ATOM      5  C   UNL d   1      -0.896  -0.251  -3.965  0.00  0.00     0.109 C 
ATOM      6  N   UNL d   1      -1.381   0.675  -3.191  0.00  0.00    -0.257 N 
ATOM      7  HN  UNL d   1      -0.820   1.360  -2.684  1.00  0.00     0.195 HD
BRANCH   6   8
ATOM      8  O   UNL d   1      -2.783   0.602  -3.149  0.00  0.00    -0.288 OA
ATOM      9  H   UNL d   1      -3.014   1.373  -2.597  0.00  0.00     0.244 HD
ENDBRANCH   6   8
BRANCH   5  10
ATOM     10  N   UNL d   1      -1.685  -1.156  -4.628  0.00  0.00    -0.387 N 
ATOM     11  H   UNL d   1      -1.315  -2.068  -4.864  0.00  0.00     0.157 HD
ATOM     12  H   UNL d   1      -2.647  -1.152  -4.301  0.00  0.00     0.157 HD
ENDBRANCH   5  10
ENDBRANCH   4   5
ENDBRANCH   1   4
BRANCH   1  13
ATOM     13  C   UNL d   1       0.700   2.261  -5.217  0.00  0.00     0.059 A 
ATOM     14  C   UNL d   1       1.021   2.956  -4.047  0.00  0.00     0.023 A 
ATOM     15  C   UNL d   1       0.634   4.290  -3.914  0.00  0.00     0.002 A 
ATOM     16  C   UNL d   1      -0.053   4.927  -4.949  0.00  0.00     0.000 A 
ATOM     17  C   UNL d   1      -0.359   4.232  -6.120  0.00  0.00     0.002 A 
ATOM     18  C   UNL d   1       0.016   2.895  -6.258  0.00  0.00     0.023 A 
ENDBRANCH   1  13
TORSDOF 5
