REMARK  7 active torsions:
REMARK  status: ('A' for Active; 'I' for Inactive)
REMARK    1  A    between atoms: C_10  and  C_1 
REMARK    2  A    between atoms: C_14  and  C_2 
REMARK    3  A    between atoms: C_6  and  C_9 
REMARK    4  A    between atoms: C_8  and  N_12 
REMARK    5  A    between atoms: N_11  and  C_8 
REMARK    6  A    between atoms: C_16  and  N_11 
REMARK    7  A    between atoms: N_12  and  C_22 
ROOT
ATOM      1  C   UNL d   1      -2.568   1.521   0.784  0.00  0.00    -0.006 A 
ATOM      2  C   UNL d   1      -2.469   2.801   0.219  0.00  0.00     0.016 A 
ATOM      3  C   UNL d   1      -3.820   1.075   1.218  0.00  0.00     0.016 A 
ATOM      4  C   UNL d   1      -4.869   3.087   0.341  0.00  0.00     0.034 A 
ATOM      5  C   UNL d   1      -3.608   3.590   0.013  0.00  0.00     0.030 A 
ATOM      6  C   UNL d   1      -4.962   1.850   0.985  0.00  0.00     0.030 A 
ENDROOT
BRANCH   4   7
ATOM      7  N   UNL d   1      -6.057   3.695  -0.102  0.00  0.00    -0.333 N 
ATOM      8  H   UNL d   1      -6.875   3.094  -0.148  0.00  0.00     0.168 HD
BRANCH   7   9
ATOM      9  C   UNL d   1      -6.355   5.022  -0.295  0.00  0.00     0.176 C 
ATOM     10  S   UNL d   1      -5.688   6.326   0.513  0.00  0.00    -0.041 SA
BRANCH   9  11
ATOM     11  N   UNL d   1      -7.443   5.247  -1.106  0.00  0.00    -0.333 N 
ATOM     12  H   UNL d   1      -7.917   6.123  -0.916  0.00  0.00     0.168 HD
BRANCH  11  13
ATOM     13  C   UNL d   1      -7.629   4.775  -2.430  0.00  0.00     0.035 A 
ATOM     14  C   UNL d   1      -6.636   4.106  -3.154  0.00  0.00     0.045 A 
ATOM     15  C   UNL d   1      -6.804   3.849  -4.529  0.00  0.00     0.050 A 
ATOM     16  C   UNL d   1      -8.011   4.205  -5.151  0.00  0.00     0.016 A 
ATOM     17  C   UNL d   1      -9.017   4.833  -4.425  0.00  0.00     0.003 A 
ATOM     18  C   UNL d   1      -8.818   5.133  -3.076  0.00  0.00     0.029 A 
BRANCH  15  19
ATOM     19  C   UNL d   1      -5.690   3.252  -5.356  0.00  0.00     0.417 C 
ATOM     20  F   UNL d   1      -4.510   3.140  -4.687  0.00  0.00    -0.166 F 
ATOM     21  F   UNL d   1      -5.987   2.005  -5.810  0.00  0.00    -0.166 F 
ATOM     22  F   UNL d   1      -5.416   3.996  -6.465  0.00  0.00    -0.166 F 
ENDBRANCH  15  19
ENDBRANCH  11  13
ENDBRANCH   9  11
ENDBRANCH   7   9
ENDBRANCH   4   7
BRANCH   1  23
ATOM     23  C   UNL d   1      -1.426   0.624   0.699  0.00  0.00     0.079 A 
ATOM     24  C   UNL d   1      -1.031  -0.396   1.550  0.00  0.00     0.115 A 
ATOM     25  O   UNL d   1      -0.017  -1.075   0.911  0.00  0.00    -0.295 OA
ATOM     26  C   UNL d   1       0.139  -0.429  -0.279  0.00  0.00     0.121 A 
ATOM     27  N   UNL d   1      -0.642   0.613  -0.440  0.00  0.00    -0.338 N 
ATOM     28  C   UNL d   1       1.105  -1.011  -1.231  0.00  0.00     0.098 C 
ATOM     29  HN  UNL d   1      -0.665   1.265  -1.224  1.00  0.00     0.168 HD
BRANCH  24  30
ATOM     30  C   UNL d   1      -1.417  -0.934   2.848  0.00  0.00     0.000 A 
ATOM     31  C   UNL d   1      -1.292  -2.308   3.111  0.00  0.00     0.014 A 
ATOM     32  C   UNL d   1      -1.718  -2.849   4.327  0.00  0.00     0.001 A 
ATOM     33  C   UNL d   1      -2.268  -2.022   5.301  0.00  0.00     0.000 A 
ATOM     34  C   UNL d   1      -2.366  -0.651   5.070  0.00  0.00     0.001 A 
ATOM     35  C   UNL d   1      -1.935  -0.111   3.854  0.00  0.00     0.014 A 
ENDBRANCH  24  30
ENDBRANCH   1  23
TORSDOF 7
