REMARK  4 active torsions:
REMARK  status: ('A' for Active; 'I' for Inactive)
REMARK    1  A    between atoms: N_4  and  C_3 
REMARK       I    between atoms: C_5  and  N_4 
REMARK       I    between atoms: N_11  and  C_5 
REMARK    2  A    between atoms: C_12  and  C_6 
REMARK    3  A    between atoms: C_7  and  C_12 
REMARK    4  A    between atoms: N_9  and  N_11 
ROOT
ATOM      1  N   UNL d   1       0.082   1.149   0.002  0.00  0.00    -0.339 N 
ATOM      2  HN  UNL d   1       0.028   2.037  -0.497  1.00  0.00     0.168 HD
ATOM      3  C   UNL d   1       1.201   0.679   0.652  0.00  0.00     0.116 A 
ATOM      4  C   UNL d   1      -0.911   0.287   0.117  0.00  0.00     0.056 A 
ATOM      5  S   UNL d   1      -0.577  -1.062   1.134  0.00  0.00    -0.085 SA
ATOM      6  C   UNL d   1       1.014  -0.479   1.374  0.00  0.00     0.100 A 
ENDROOT
BRANCH   3   7
ATOM      7  N   UNL d   1       2.349   1.428   0.534  0.00  0.00    -0.293 N 
ATOM      8  C   UNL d   1       3.663   1.039   0.581  0.00  0.00     0.340 C 
ATOM      9  N   UNL d   1       3.893  -0.325   0.521  0.00  0.00    -0.253 N 
ATOM     10  O   UNL d   1       4.547   1.893   0.579  0.00  0.00    -0.245 OA
ATOM     11  H   UNL d   1       3.107  -0.875   0.198  0.00  0.00     0.191 HD
ATOM     12  H   UNL d   1       2.206   2.383   0.234  0.00  0.00     0.172 HD
BRANCH   9  13
ATOM     13  N   UNL d   1       5.139  -0.885   0.188  0.00  0.00    -0.320 N 
ATOM     14  C   UNL d   1       6.241  -0.690   1.133  0.00  0.00     0.169 C 
ATOM     15  C   UNL d   1       7.332   0.299   0.693  0.00  0.00     0.189 C 
ATOM     16  O   UNL d   1       7.726   0.089  -0.669  0.00  0.00    -0.388 OA
ATOM     17  C   UNL d   1       6.591   0.276  -1.522  0.00  0.00     0.189 C 
ATOM     18  C   UNL d   1       5.517  -0.774  -1.226  0.00  0.00     0.169 C 
ENDBRANCH   9  13
ENDBRANCH   3   7
BRANCH   4  19
ATOM     19  C   UNL d   1      -2.277   0.476  -0.486  0.00  0.00     0.107 C 
BRANCH  19  20
ATOM     20  C   UNL d   1      -2.539  -0.307  -1.764  0.00  0.00    -0.009 A 
ATOM     21  C   UNL d   1      -3.178  -1.565  -1.738  0.00  0.00     0.042 A 
ATOM     22 CL   UNL d   1      -3.658  -2.337  -0.268  0.00  0.00    -0.084 Cl
ATOM     23  C   UNL d   1      -3.487  -2.249  -2.925  0.00  0.00     0.024 A 
ATOM     24  C   UNL d   1      -3.172  -1.695  -4.160  0.00  0.00     0.003 A 
ATOM     25  C   UNL d   1      -2.523  -0.465  -4.210  0.00  0.00     0.024 A 
ATOM     26  C   UNL d   1      -2.202   0.216  -3.025  0.00  0.00     0.042 A 
ATOM     27 CL   UNL d   1      -1.400   1.739  -3.212  0.00  0.00    -0.084 Cl
ENDBRANCH  19  20
ENDBRANCH   4  19
TORSDOF 4
