REMARK  7 active torsions:
REMARK  status: ('A' for Active; 'I' for Inactive)
REMARK    1  A    between atoms: N_2  and  S_1 
REMARK    2  A    between atoms: C_3  and  S_1 
REMARK    3  A    between atoms: C_4  and  N_2 
REMARK    4  A    between atoms: C_10  and  C_7 
REMARK    5  A    between atoms: C_16  and  C_10 
REMARK    6  A    between atoms: O_21  and  C_16 
REMARK    7  A    between atoms: C_23  and  O_21 
ROOT
ATOM      1  N   UNL d   1       0.474   1.349  -0.919  0.00  0.00    -0.160 NA
ATOM      2  H   UNL d   1       1.155   0.711  -0.507  0.00  0.00     0.148 HD
ENDROOT
BRANCH   1   3
ATOM      3  S   UNL d   1       0.686   1.292  -2.604  0.00  0.00     0.250 S 
ATOM      4  O   UNL d   1      -0.145   2.296  -3.228  0.00  0.00    -0.205 OA
ATOM      5  O   UNL d   1       0.582  -0.099  -3.000  0.00  0.00    -0.205 OA
BRANCH   3   6
ATOM      6  C   UNL d   1       2.377   1.754  -2.848  0.00  0.00     0.113 A 
ATOM      7  C   UNL d   1       3.374   0.977  -2.267  0.00  0.00     0.142 A 
ATOM      8  C   UNL d   1       4.715   1.284  -2.467  0.00  0.00     0.086 A 
ATOM      9  F   UNL d   1       3.061  -0.059  -1.477  0.00  0.00    -0.204 F 
ATOM     10  C   UNL d   1       5.045   2.382  -3.253  0.00  0.00     0.119 A 
ATOM     11  C   UNL d   1       4.058   3.177  -3.831  0.00  0.00     0.044 A 
ATOM     12  F   UNL d   1       6.334   2.689  -3.446  0.00  0.00    -0.206 F 
ATOM     13  C   UNL d   1       2.711   2.865  -3.631  0.00  0.00     0.031 A 
ENDBRANCH   3   6
ENDBRANCH   1   3
BRANCH   1  14
ATOM     14  C   UNL d   1       0.679   2.655  -0.421  0.00  0.00     0.137 A 
ATOM     15  N   UNL d   1       1.836   2.944   0.118  0.00  0.00    -0.343 N 
ATOM     16  C   UNL d   1       1.853   4.292   0.460  0.00  0.00     0.026 A 
ATOM     17  HN  UNL d   1       2.602   2.287   0.263  1.00  0.00     0.167 HD
ATOM     18  C   UNL d   1       0.642   4.941   0.303  0.00  0.00     0.078 A 
ATOM     19  S   UNL d   1      -0.511   3.874  -0.382  0.00  0.00    -0.069 SA
BRANCH  16  20
ATOM     20  C   UNL d   1       3.129   4.901   0.935  0.00  0.00     0.168 C 
BRANCH  20  21
ATOM     21  C   UNL d   1       3.957   5.425  -0.216  0.00  0.00     0.264 C 
ATOM     22  O   UNL d   1       3.648   5.405  -1.400  0.00  0.00    -0.265 OA
BRANCH  21  23
ATOM     23  O   UNL d   1       5.146   5.891   0.271  0.00  0.00    -0.322 OA
BRANCH  23  24
ATOM     24  C   UNL d   1       6.184   6.066  -0.704  0.00  0.00     0.174 C 
ATOM     25  C   UNL d   1       6.958   4.765  -0.791  0.00  0.00     0.034 C 
ENDBRANCH  23  24
ENDBRANCH  21  23
ENDBRANCH  20  21
ENDBRANCH  16  20
ENDBRANCH   1  14
TORSDOF 7
