REMARK  3 active torsions:
REMARK  status: ('A' for Active; 'I' for Inactive)
REMARK    1  A    between atoms: N_7  and  C_1 
REMARK    2  A    between atoms: O_11  and  C_2 
REMARK    3  A    between atoms: C_12  and  N_9 
ROOT
ATOM      1  N   UNL d   1      -0.513  -2.723  -0.158  0.00  0.00    -0.294 N 
ATOM      2  HN  UNL d   1      -1.446  -3.067   0.070  1.00  0.00     0.187 HD
ATOM      3  N   UNL d   1       0.419  -3.461  -0.542  0.00  0.00    -0.300 N 
ATOM      4  HN  UNL d   1       1.362  -3.122  -0.736  1.00  0.00     0.187 HD
ENDROOT
BRANCH   1   5
ATOM      5  C   UNL d   1      -0.141  -1.373  -0.072  0.00  0.00     0.124 A 
ATOM      6  C   UNL d   1       1.123  -0.827  -0.024  0.00  0.00     0.187 A 
ATOM      7  N   UNL d   1       0.925   0.528   0.014  0.00  0.00    -0.274 N 
ATOM      8  C   UNL d   1       1.935   1.557   0.004  0.00  0.00     0.180 C 
ATOM      9  N   UNL d   1      -0.379   0.887   0.040  0.00  0.00    -0.299 N 
ATOM     10  C   UNL d   1      -1.037  -0.281  -0.010  0.00  0.00     0.054 A 
ATOM     11  HN  UNL d   1      -0.771   1.827   0.086  1.00  0.00     0.187 HD
ATOM     12  C   UNL d   1      -2.518  -0.304  -0.006  0.00  0.00     0.072 C 
BRANCH   6  13
ATOM     13  O   UNL d   1       2.337  -1.373  -0.024  0.00  0.00    -0.343 OA
ATOM     14  H   UNL d   1       2.187  -2.339  -0.062  0.00  0.00     0.219 HD
ENDBRANCH   6  13
ENDBRANCH   1   5
BRANCH   3  15
ATOM     15  C   UNL d   1       0.035  -4.807  -0.680  0.00  0.00     0.048 A 
ATOM     16  C   UNL d   1       0.545  -5.530  -1.766  0.00  0.00     0.032 A 
ATOM     17  C   UNL d   1       0.255  -6.888  -1.928  0.00  0.00     0.026 A 
ATOM     18  C   UNL d   1      -0.551  -7.536  -0.994  0.00  0.00     0.034 A 
ATOM     19  C   UNL d   1      -1.064  -6.837   0.096  0.00  0.00     0.026 A 
ATOM     20 CL   UNL d   1      -0.904  -9.208  -1.184  0.00  0.00    -0.084 Cl
ATOM     21  C   UNL d   1      -0.768  -5.480   0.255  0.00  0.00     0.032 A 
ENDBRANCH   3  15
TORSDOF 3
