REMARK  6 active torsions:
REMARK  status: ('A' for Active; 'I' for Inactive)
REMARK    1  A    between atoms: C_15  and  N_4 
REMARK    2  A    between atoms: S_14  and  C_10 
REMARK    3  A    between atoms: C_16  and  C_13 
REMARK    4  A    between atoms: C_19  and  S_14 
REMARK    5  A    between atoms: C_18  and  C_15 
REMARK    6  A    between atoms: C_26  and  C_19 
ROOT
ATOM      1  C   UNL d   1      -0.573  -1.175   0.236  0.00  0.00     0.098 A 
ATOM      2  C   UNL d   1      -1.058  -2.516   0.326  0.00  0.00     0.152 A 
ATOM      3  N   UNL d   1      -2.216  -2.929   0.947  0.00  0.00    -0.314 N 
ATOM      4  N   UNL d   1       0.745  -0.772   0.174  0.00  0.00    -0.284 N 
ATOM      5  N   UNL d   1      -0.482  -3.567  -0.225  0.00  0.00    -0.281 N 
ATOM      6  HN  UNL d   1       0.410  -3.568  -0.719  1.00  0.00     0.188 HD
ATOM      7  N   UNL d   1       0.879   0.583   0.148  0.00  0.00    -0.301 N 
ATOM      8  HN  UNL d   1       1.744   1.123   0.163  1.00  0.00     0.187 HD
ATOM      9  C   UNL d   1      -1.304  -0.009   0.131  0.00  0.00     0.062 A 
ATOM     10  C   UNL d   1      -2.339  -4.262   0.657  0.00  0.00     0.163 A 
ATOM     11  N   UNL d   1      -1.291  -4.664  -0.021  0.00  0.00    -0.278 N 
ATOM     12  HN  UNL d   1      -1.108  -5.616  -0.340  1.00  0.00     0.189 HD
ATOM     13  C   UNL d   1      -0.373   1.052   0.100  0.00  0.00     0.036 A 
ATOM     14  C   UNL d   1      -3.095  -2.163   1.793  0.00  0.00     0.160 C 
ENDROOT
BRANCH   4  15
ATOM     15  C   UNL d   1       1.941  -1.585  -0.023  0.00  0.00     0.187 C 
BRANCH  15  16
ATOM     16  C   UNL d   1       2.673  -1.933   1.254  0.00  0.00    -0.038 A 
ATOM     17  C   UNL d   1       2.405  -3.136   1.927  0.00  0.00     0.012 A 
ATOM     18  C   UNL d   1       3.160  -3.508   3.042  0.00  0.00     0.043 A 
ATOM     19  C   UNL d   1       4.183  -2.680   3.487  0.00  0.00     0.116 A 
ATOM     20  C   UNL d   1       4.448  -1.471   2.854  0.00  0.00     0.043 A 
ATOM     21  F   UNL d   1       4.929  -3.056   4.533  0.00  0.00    -0.206 F 
ATOM     22  C   UNL d   1       3.689  -1.093   1.745  0.00  0.00     0.012 A 
ENDBRANCH  15  16
ENDBRANCH   4  15
BRANCH  13  23
ATOM     23  C   UNL d   1      -0.697   2.536   0.034  0.00  0.00    -0.007 C 
ATOM     24  C   UNL d   1      -1.381   2.971   1.347  0.00  0.00     0.021 C 
ATOM     25  C   UNL d   1       0.556   3.408  -0.171  0.00  0.00     0.021 C 
ATOM     26  C   UNL d   1      -1.662   2.815  -1.140  0.00  0.00     0.021 C 
ENDBRANCH  13  23
BRANCH  10  27
ATOM     27  S   UNL d   1      -3.711  -5.206   1.123  0.00  0.00    -0.088 SA
BRANCH  27  28
ATOM     28  C   UNL d   1      -3.007  -6.878   1.097  0.00  0.00     0.121 C 
BRANCH  28  29
ATOM     29  C   UNL d   1      -4.024  -7.917   1.507  0.00  0.00    -0.049 A 
ATOM     30  C   UNL d   1      -4.729  -8.646   0.536  0.00  0.00     0.008 A 
ATOM     31  C   UNL d   1      -5.657  -9.621   0.913  0.00  0.00     0.001 A 
ATOM     32  C   UNL d   1      -5.896  -9.873   2.262  0.00  0.00     0.000 A 
ATOM     33  C   UNL d   1      -5.215  -9.146   3.237  0.00  0.00     0.001 A 
ATOM     34  C   UNL d   1      -4.287  -8.172   2.862  0.00  0.00     0.008 A 
ENDBRANCH  28  29
ENDBRANCH  27  28
ENDBRANCH  10  27
TORSDOF 6
