REMARK  3 active torsions:
REMARK  status: ('A' for Active; 'I' for Inactive)
REMARK    1  A    between atoms: N_2  and  C_1 
REMARK       I    between atoms: C_5  and  N_8 
REMARK       I    between atoms: N_9  and  C_5 
REMARK    2  A    between atoms: N_8  and  C_6 
REMARK    3  A    between atoms: C_13  and  N_9 
ROOT
ATOM      1  C   UNL d   1       3.614  -1.011  -0.127  0.00  0.00     0.325 C 
ATOM      2  N   UNL d   1       2.344  -1.484  -0.066  0.00  0.00    -0.308 N 
ATOM      3  N   UNL d   1       3.851   0.328  -0.052  0.00  0.00    -0.309 N 
ATOM      4  O   UNL d   1       4.479  -1.876  -0.272  0.00  0.00    -0.247 OA
ATOM      5  H   UNL d   1       2.385  -2.491  -0.186  0.00  0.00     0.170 HD
ATOM      6  H   UNL d   1       3.118   0.902   0.321  0.00  0.00     0.170 HD
ENDROOT
BRANCH   2   7
ATOM      7  C   UNL d   1       1.069  -0.969   0.088  0.00  0.00     0.045 A 
ATOM      8  C   UNL d   1       0.596   0.356   0.329  0.00  0.00     0.074 A 
ATOM      9  C   UNL d   1      -0.781   0.395   0.472  0.00  0.00     0.145 A 
ATOM     10  S   UNL d   1      -1.514  -1.118   0.261  0.00  0.00    -0.076 SA
ATOM     11  C   UNL d   1       0.005  -1.855   0.015  0.00  0.00     0.081 A 
BRANCH   9  12
ATOM     12  N   UNL d   1      -1.587   1.552   0.770  0.00  0.00    -0.108 N 
ATOM     13  O   UNL d   1      -0.983   2.632   0.839  0.00  0.00    -0.531 OA
ATOM     14  O   UNL d   1      -2.800   1.396   0.949  0.00  0.00    -0.531 OA
ENDBRANCH   9  12
ENDBRANCH   2   7
BRANCH   3  15
ATOM     15  C   UNL d   1       5.099   0.966  -0.275  0.00  0.00     0.036 A 
ATOM     16  C   UNL d   1       6.223   0.310  -0.795  0.00  0.00     0.031 A 
ATOM     17  C   UNL d   1       7.426   0.992  -1.007  0.00  0.00     0.026 A 
ATOM     18  C   UNL d   1       7.515   2.345  -0.706  0.00  0.00     0.034 A 
ATOM     19  C   UNL d   1       6.409   3.018  -0.193  0.00  0.00     0.026 A 
ATOM     20 CL   UNL d   1       8.991   3.186  -0.975  0.00  0.00    -0.084 Cl
ATOM     21  C   UNL d   1       5.205   2.332   0.020  0.00  0.00     0.031 A 
ENDBRANCH   3  15
TORSDOF 3
