REMARK  3 active torsions:
REMARK  status: ('A' for Active; 'I' for Inactive)
REMARK    1  A    between atoms: C_4  and  S_1 
REMARK    2  A    between atoms: C_5  and  C_2 
REMARK    3  A    between atoms: O_13  and  C_5 
ROOT
ATOM      1  C   UNL d   1      -0.361   4.167   1.449  0.00  0.00     0.059 A 
ATOM      2  C   UNL d   1       0.614   4.035   0.450  0.00  0.00     0.052 A 
ATOM      3  C   UNL d   1       0.400   1.625   0.542  0.00  0.00     0.060 A 
ATOM      4  C   UNL d   1       0.987   2.766  -0.011  0.00  0.00     0.048 A 
ATOM      5  C   UNL d   1      -0.945   3.004   1.987  0.00  0.00     0.021 A 
ATOM      6  C   UNL d   1      -0.571   1.736   1.536  0.00  0.00     0.024 A 
ATOM      7 CL   UNL d   1       1.428   5.385  -0.258  0.00  0.00    -0.083 Cl
ENDROOT
BRANCH   1   8
ATOM      8  C   UNL d   1      -0.823   5.455   2.031  0.00  0.00     0.177 C 
ATOM      9  O   UNL d   1      -1.235   5.527   3.178  0.00  0.00    -0.646 OA
BRANCH   8  10
ATOM     10  O   UNL d   1      -0.845   6.507   1.190  0.00  0.00    -0.773 OA
ATOM     11  H   UNL d   1      -0.455   6.355   0.308  0.00  0.00     0.167 HD
ENDBRANCH   8  10
ENDBRANCH   1   8
BRANCH   3  12
ATOM     12  S   UNL d   1       0.871   0.022  -0.069  0.00  0.00     0.171 S 
ATOM     13  O   UNL d   1       0.705   0.073  -1.508  0.00  0.00    -0.223 OA
ATOM     14  O   UNL d   1       0.182  -0.969   0.734  0.00  0.00    -0.223 OA
ATOM     15  C   UNL d   1       2.602  -0.101   0.295  0.00  0.00     0.167 C 
ENDBRANCH   3  12
TORSDOF 3
