REMARK  4 active torsions:
REMARK  status: ('A' for Active; 'I' for Inactive)
REMARK    1  A    between atoms: N_2  and  C_1 
REMARK    2  A    between atoms: O_18  and  C_1 
REMARK       I    between atoms: C_8  and  N_2 
REMARK    3  A    between atoms: C_15  and  C_8 
REMARK    4  A    between atoms: C_9  and  C_14 
ROOT
ATOM      1  N   UNL d   1      -2.866  -0.050  -1.240  0.00  0.00    -0.312 N 
ATOM      2  C   UNL d   1      -3.844  -1.009  -1.165  0.00  0.00     0.254 C 
ATOM      3  O   UNL d   1      -3.887  -1.823  -0.251  0.00  0.00    -0.268 OA
ATOM      4  H   UNL d   1      -2.865   0.667  -1.944  0.00  0.00     0.166 HD
ENDROOT
BRANCH   1   5
ATOM      5  C   UNL d   1      -1.800   0.030  -0.291  0.00  0.00     0.269 C 
ATOM      6  C   UNL d   1      -2.199   0.250   1.184  0.00  0.00     0.224 C 
ATOM      7  C   UNL d   1      -1.380  -0.639   2.009  0.00  0.00     0.029 A 
ATOM      8  O   UNL d   1      -2.935   1.115   1.631  0.00  0.00    -0.286 OA
ATOM      9  C   UNL d   1      -1.278  -0.656   3.389  0.00  0.00     0.016 A 
ATOM     10  C   UNL d   1      -0.575  -1.441   1.206  0.00  0.00     0.029 A 
ATOM     11  C   UNL d   1      -0.323  -1.505   3.957  0.00  0.00     0.001 A 
ATOM     12  C   UNL d   1       0.497  -2.312   3.146  0.00  0.00     0.001 A 
ATOM     13  C   UNL d   1       0.371  -2.291   1.753  0.00  0.00     0.016 A 
ATOM     14  C   UNL d   1      -0.830  -1.169  -0.213  0.00  0.00     0.224 C 
ATOM     15  O   UNL d   1      -0.294  -1.778  -1.124  0.00  0.00    -0.286 OA
BRANCH   5  16
ATOM     16  O   UNL d   1      -1.071   1.176  -0.724  0.00  0.00    -0.358 OA
ATOM     17  H   UNL d   1      -1.216   1.877  -0.062  0.00  0.00     0.213 HD
ENDBRANCH   5  16
ENDBRANCH   1   5
BRANCH   2  18
ATOM     18  C   UNL d   1      -4.883  -0.986  -2.240  0.00  0.00     0.032 A 
ATOM     19  C   UNL d   1      -4.647  -0.426  -3.502  0.00  0.00     0.018 A 
ATOM     20  C   UNL d   1      -5.654  -0.427  -4.476  0.00  0.00     0.015 A 
ATOM     21  C   UNL d   1      -6.906  -1.005  -4.218  0.00  0.00    -0.008 A 
ATOM     22  C   UNL d   1      -7.138  -1.564  -2.954  0.00  0.00     0.015 A 
ATOM     23  C   UNL d   1      -6.133  -1.559  -1.976  0.00  0.00     0.018 A 
BRANCH  21  24
ATOM     24  C   UNL d   1      -7.922  -1.011  -5.266  0.00  0.00     0.063 A 
ATOM     25  N   UNL d   1      -7.941  -0.033  -6.255  0.00  0.00    -0.292 N 
ATOM     26  N   UNL d   1      -8.921  -0.224  -7.124  0.00  0.00    -0.061 NA
ATOM     27  HN  UNL d   1      -7.278   0.741  -6.306  1.00  0.00     0.183 HD
ATOM     28  S   UNL d   1      -9.831  -1.585  -6.787  0.00  0.00    -0.010 SA
ATOM     29  C   UNL d   1      -8.904  -1.979  -5.396  0.00  0.00     0.096 A 
ENDBRANCH  21  24
ENDBRANCH   2  18
TORSDOF 4
