REMARK  6 active torsions:
REMARK  status: ('A' for Active; 'I' for Inactive)
REMARK    1  A    between atoms: C_8  and  N_3 
REMARK    2  A    between atoms: S_9  and  C_7 
REMARK    3  A    between atoms: C_15  and  S_9 
REMARK       I    between atoms: C_11  and  N_12 
REMARK    4  A    between atoms: N_12  and  C_14 
REMARK    5  A    between atoms: C_13  and  C_15 
REMARK    6  A    between atoms: C_18  and  C_13 
ROOT
ATOM      1  N   UNL d   1      -0.402  -1.195  -0.170  0.00  0.00    -0.259 N 
ATOM      2  HN  UNL d   1      -0.610  -2.133  -0.511  1.00  0.00     0.191 HD
ATOM      3  N   UNL d   1       0.792  -0.635   0.177  0.00  0.00    -0.178 N 
ATOM      4  N   UNL d   1       0.696   0.653   0.594  0.00  0.00     0.003 NA
ATOM      5  N   UNL d   1      -0.587   0.960   0.500  0.00  0.00    -0.261 N 
ATOM      6  HN  UNL d   1      -1.017   1.860   0.712  1.00  0.00     0.186 HD
ATOM      7  C   UNL d   1      -1.222  -0.164   0.063  0.00  0.00     0.174 A 
ENDROOT
BRANCH   3   8
ATOM      8  C   UNL d   1       2.044  -1.287   0.040  0.00  0.00     0.075 A 
ATOM      9  C   UNL d   1       2.105  -2.588  -0.483  0.00  0.00     0.062 A 
ATOM     10  C   UNL d   1       3.339  -3.211  -0.693  0.00  0.00     0.036 A 
ATOM     11  C   UNL d   1       4.514  -2.534  -0.334  0.00  0.00     0.029 A 
ATOM     12  C   UNL d   1       4.460  -1.248   0.210  0.00  0.00     0.005 A 
ATOM     13  C   UNL d   1       3.228  -0.619   0.390  0.00  0.00     0.033 A 
BRANCH  10  14
ATOM     14  N   UNL d   1       3.483  -4.488  -1.280  0.00  0.00    -0.327 N 
ATOM     15  C   UNL d   1       2.473  -5.314  -1.736  0.00  0.00     0.218 C 
ATOM     16  O   UNL d   1       1.264  -5.109  -1.670  0.00  0.00    -0.274 OA
ATOM     17  C   UNL d   1       2.976  -6.584  -2.373  0.00  0.00     0.117 C 
ATOM     18  H   UNL d   1       4.434  -4.811  -1.405  0.00  0.00     0.169 HD
ENDBRANCH  10  14
ENDBRANCH   3   8
BRANCH   7  19
ATOM     19  S   UNL d   1      -2.926  -0.170  -0.305  0.00  0.00    -0.084 SA
BRANCH  19  20
ATOM     20  C   UNL d   1      -3.442  -1.838   0.169  0.00  0.00     0.166 C 
BRANCH  20  21
ATOM     21  C   UNL d   1      -3.192  -2.166   1.631  0.00  0.00     0.169 C 
ATOM     22  O   UNL d   1      -2.670  -1.385   2.423  0.00  0.00    -0.291 OA
BRANCH  21  23
ATOM     23  C   UNL d   1      -3.625  -3.507   2.140  0.00  0.00     0.010 A 
ATOM     24  C   UNL d   1      -4.366  -4.411   1.370  0.00  0.00     0.015 A 
ATOM     25  C   UNL d   1      -4.753  -5.644   1.912  0.00  0.00     0.001 A 
ATOM     26  C   UNL d   1      -4.400  -5.980   3.218  0.00  0.00     0.000 A 
ATOM     27  C   UNL d   1      -3.664  -5.086   3.991  0.00  0.00     0.001 A 
ATOM     28  C   UNL d   1      -3.282  -3.855   3.456  0.00  0.00     0.015 A 
ENDBRANCH  21  23
ENDBRANCH  20  21
ENDBRANCH  19  20
ENDBRANCH   7  19
TORSDOF 6
