REMARK  4 active torsions:
REMARK  status: ('A' for Active; 'I' for Inactive)
REMARK    1  A    between atoms: C_5  and  C_1 
REMARK    2  A    between atoms: S_15  and  C_4 
REMARK    3  A    between atoms: C_17  and  S_15 
REMARK    4  A    between atoms: O_23  and  C_18 
ROOT
ATOM      1  C   UNL d   1       3.664  -4.647  -0.068  0.00  0.00     0.096 A 
ATOM      2  C   UNL d   1       2.009  -2.404   0.014  0.00  0.00     0.015 A 
ATOM      3  C   UNL d   1       2.668  -4.513  -1.028  0.00  0.00     0.079 A 
ATOM      4  N   UNL d   1       3.837  -3.722   0.911  0.00  0.00    -0.352 N 
ATOM      5  HN  UNL d   1       4.576  -3.840   1.605  1.00  0.00     0.166 HD
ATOM      6  C   UNL d   1       1.858  -3.368  -0.992  0.00  0.00     0.041 A 
ATOM      7  C   UNL d   1       3.013  -2.634   0.961  0.00  0.00     0.018 A 
ATOM      8  C   UNL d   1       2.387  -5.510  -2.018  0.00  0.00     0.102 C 
ATOM      9  N   UNL d   1       2.075  -6.279  -2.826  0.00  0.00    -0.191 NA
ATOM     10  C   UNL d   1       3.225  -1.739   2.150  0.00  0.00     0.069 C 
ENDROOT
BRANCH   1  11
ATOM     11  S   UNL d   1       4.726  -6.077   0.070  0.00  0.00    -0.071 SA
BRANCH  11  12
ATOM     12  C   UNL d   1       6.148  -5.597  -0.895  0.00  0.00     0.007 A 
ATOM     13  C   UNL d   1       6.896  -4.451  -0.609  0.00  0.00     0.021 A 
ATOM     14  C   UNL d   1       7.985  -4.087  -1.417  0.00  0.00     0.038 A 
ATOM     15  C   UNL d   1       8.339  -4.872  -2.514  0.00  0.00     0.068 A 
ATOM     16  C   UNL d   1       7.635  -6.052  -2.758  0.00  0.00     0.038 A 
ATOM     17  C   UNL d   1       6.551  -6.416  -1.953  0.00  0.00     0.021 A 
BRANCH  15  18
ATOM     18  O   UNL d   1       9.335  -4.606  -3.412  0.00  0.00    -0.356 OA
ATOM     19  C   UNL d   1      10.029  -3.374  -3.264  0.00  0.00     0.210 C 
ENDBRANCH  15  18
ENDBRANCH  11  12
ENDBRANCH   1  11
BRANCH   2  20
ATOM     20  C   UNL d   1       1.129  -1.238   0.053  0.00  0.00     0.051 A 
ATOM     21  N   UNL d   1       1.580   0.000   0.480  0.00  0.00    -0.353 N 
ATOM     22  C   UNL d   1       0.609   0.887   0.426  0.00  0.00     0.047 A 
ATOM     23  HN  UNL d   1       2.531   0.197   0.793  1.00  0.00     0.166 HD
ATOM     24  C   UNL d   1       0.744   2.314   0.829  0.00  0.00     0.076 C 
ATOM     25  S   UNL d   1      -0.896   0.297  -0.151  0.00  0.00    -0.087 SA
ATOM     26  C   UNL d   1      -0.201  -1.261  -0.326  0.00  0.00     0.081 A 
ENDBRANCH   2  20
TORSDOF 4
