REMARK  8 active torsions:
REMARK  status: ('A' for Active; 'I' for Inactive)
REMARK    1  A    between atoms: C_28  and  C_2 
REMARK    2  A    between atoms: C_5  and  C_29 
REMARK    3  A    between atoms: C_7  and  C_5 
REMARK    4  A    between atoms: S_15  and  C_28 
REMARK    5  A    between atoms: C_29  and  S_15 
REMARK    6  A    between atoms: O_16  and  C_20 
REMARK    7  A    between atoms: C_22  and  O_16 
REMARK    8  A    between atoms: C_17  and  C_22 
ROOT
ATOM      1  C   UNL d   1      -6.342   0.424  -0.010  0.00  0.00     0.011 A 
ATOM      2  C   UNL d   1      -5.477   1.000  -0.945  0.00  0.00     0.018 A 
ATOM      3  C   UNL d   1      -7.094   1.258   0.828  0.00  0.00     0.018 A 
ATOM      4  C   UNL d   1      -6.127   3.226  -0.200  0.00  0.00     0.069 A 
ATOM      5  C   UNL d   1      -5.368   2.395  -1.030  0.00  0.00     0.037 A 
ATOM      6  C   UNL d   1      -6.975   2.649   0.745  0.00  0.00     0.037 A 
ENDROOT
BRANCH   1   7
ATOM      7  C   UNL d   1      -6.542  -1.049   0.120  0.00  0.00     0.168 C 
ATOM      8  O   UNL d   1      -7.645  -1.459   0.480  0.00  0.00    -0.292 OA
BRANCH   7   9
ATOM      9  C   UNL d   1      -5.391  -1.994  -0.180  0.00  0.00     0.158 C 
BRANCH   9  10
ATOM     10  S   UNL d   1      -4.876  -2.851   1.347  0.00  0.00    -0.157 SA
BRANCH  10  11
ATOM     11  C   UNL d   1      -3.684  -4.020   0.618  0.00  0.00     0.114 C 
BRANCH  11  12
ATOM     12  C   UNL d   1      -3.119  -4.986   1.638  0.00  0.00    -0.027 A 
ATOM     13  C   UNL d   1      -1.769  -4.992   2.032  0.00  0.00     0.042 A 
ATOM     14  C   UNL d   1      -1.295  -5.930   2.958  0.00  0.00     0.048 A 
ATOM     15 CL   UNL d   1      -0.617  -3.873   1.393  0.00  0.00    -0.084 Cl
ATOM     16  C   UNL d   1      -2.165  -6.870   3.502  0.00  0.00     0.035 A 
ATOM     17  C   UNL d   1      -3.504  -6.886   3.129  0.00  0.00     0.024 A 
ATOM     18 CL   UNL d   1      -1.578  -8.025   4.635  0.00  0.00    -0.084 Cl
ATOM     19  C   UNL d   1      -3.975  -5.952   2.203  0.00  0.00     0.011 A 
ENDBRANCH  11  12
ENDBRANCH  10  11
ENDBRANCH   9  10
ENDBRANCH   7   9
ENDBRANCH   1   7
BRANCH   4  20
ATOM     20  O   UNL d   1      -5.965   4.571  -0.406  0.00  0.00    -0.347 OA
BRANCH  20  21
ATOM     21  C   UNL d   1      -6.987   5.407   0.141  0.00  0.00     0.214 C 
BRANCH  21  22
ATOM     22  C   UNL d   1      -6.917   6.778  -0.491  0.00  0.00    -0.032 A 
ATOM     23  C   UNL d   1      -5.835   7.634  -0.234  0.00  0.00     0.035 A 
ATOM     24  C   UNL d   1      -5.793   8.917  -0.795  0.00  0.00     0.056 A 
ATOM     25 CL   UNL d   1      -4.435   9.916  -0.417  0.00  0.00    -0.083 Cl
ATOM     26  C   UNL d   1      -6.833   9.351  -1.624  0.00  0.00     0.055 A 
ATOM     27  C   UNL d   1      -7.909   8.501  -1.890  0.00  0.00     0.026 A 
ATOM     28 CL   UNL d   1      -6.856  10.921  -2.345  0.00  0.00    -0.083 Cl
ATOM     29  C   UNL d   1      -7.949   7.222  -1.329  0.00  0.00     0.011 A 
ENDBRANCH  21  22
ENDBRANCH  20  21
ENDBRANCH   4  20
TORSDOF 8
