REMARK  9 active torsions:
REMARK  status: ('A' for Active; 'I' for Inactive)
REMARK    1  A    between atoms: N_3  and  S_1 
REMARK    2  A    between atoms: C_4  and  S_1 
REMARK    3  A    between atoms: S_2  and  C_11 
REMARK    4  A    between atoms: C_14  and  S_2 
REMARK    5  A    between atoms: N_5  and  N_3 
REMARK       I    between atoms: C_7  and  N_5 
REMARK    6  A    between atoms: C_22  and  C_7 
REMARK    7  A    between atoms: C_11  and  C_23 
REMARK    8  A    between atoms: S_21  and  C_22 
REMARK    9  A    between atoms: C_23  and  S_21 
ROOT
ATOM      1  N   UNL d   1       1.232  -3.626  -1.182  0.00  0.00    -0.260 N 
ATOM      2  C   UNL d   1       0.445  -3.277  -2.261  0.00  0.00     0.245 C 
ATOM      3  O   UNL d   1      -0.590  -2.620  -2.155  0.00  0.00    -0.271 OA
ATOM      4  H   UNL d   1       2.046  -4.234  -1.265  0.00  0.00     0.190 HD
ENDROOT
BRANCH   1   5
ATOM      5  N   UNL d   1       0.868  -3.161   0.141  0.00  0.00    -0.220 N 
ATOM      6  H   UNL d   1       0.043  -2.563   0.254  0.00  0.00     0.200 HD
BRANCH   5   7
ATOM      7  S   UNL d   1       1.839  -3.597   1.449  0.00  0.00     0.276 S 
ATOM      8  O   UNL d   1       3.090  -2.887   1.294  0.00  0.00    -0.199 OA
ATOM      9  O   UNL d   1       1.808  -5.037   1.560  0.00  0.00    -0.199 OA
BRANCH   7  10
ATOM     10  C   UNL d   1       0.989  -2.933   2.857  0.00  0.00     0.082 A 
ATOM     11  C   UNL d   1       1.640  -2.021   3.696  0.00  0.00     0.050 A 
ATOM     12  C   UNL d   1       0.991  -1.550   4.843  0.00  0.00     0.057 A 
ATOM     13 CL   UNL d   1       1.849  -0.437   5.850  0.00  0.00    -0.083 Cl
ATOM     14  C   UNL d   1      -0.304  -1.988   5.146  0.00  0.00     0.055 A 
ATOM     15  C   UNL d   1      -0.944  -2.907   4.304  0.00  0.00     0.027 A 
ATOM     16 CL   UNL d   1      -1.163  -1.445   6.543  0.00  0.00    -0.083 Cl
ATOM     17  C   UNL d   1      -0.297  -3.387   3.161  0.00  0.00     0.027 A 
ENDBRANCH   7  10
ENDBRANCH   5   7
ENDBRANCH   1   5
BRANCH   2  18
ATOM     18  C   UNL d   1       0.969  -3.767  -3.596  0.00  0.00     0.178 C 
BRANCH  18  19
ATOM     19  S   UNL d   1       0.352  -5.433  -3.994  0.00  0.00    -0.159 SA
BRANCH  19  20
ATOM     20  C   UNL d   1      -1.456  -5.132  -4.108  0.00  0.00     0.089 C 
BRANCH  20  21
ATOM     21  C   UNL d   1      -1.805  -4.139  -5.199  0.00  0.00     0.156 C 
BRANCH  21  22
ATOM     22  S   UNL d   1      -3.564  -3.888  -5.293  0.00  0.00     0.176 S 
ATOM     23  O   UNL d   1      -4.186  -5.148  -5.658  0.00  0.00    -0.223 OA
ATOM     24  O   UNL d   1      -3.996  -3.159  -4.120  0.00  0.00    -0.223 OA
BRANCH  22  25
ATOM     25  C   UNL d   1      -3.711  -2.795  -6.690  0.00  0.00     0.059 A 
ATOM     26  C   UNL d   1      -3.923  -3.331  -7.963  0.00  0.00     0.023 A 
ATOM     27  C   UNL d   1      -4.033  -2.474  -9.057  0.00  0.00     0.002 A 
ATOM     28  C   UNL d   1      -3.939  -1.093  -8.876  0.00  0.00     0.000 A 
ATOM     29  C   UNL d   1      -3.737  -0.563  -7.600  0.00  0.00     0.002 A 
ATOM     30  C   UNL d   1      -3.625  -1.412  -6.499  0.00  0.00     0.023 A 
ENDBRANCH  22  25
ENDBRANCH  21  22
ENDBRANCH  20  21
ENDBRANCH  19  20
ENDBRANCH  18  19
ENDBRANCH   2  18
TORSDOF 9
