REMARK  2 active torsions:
REMARK  status: ('A' for Active; 'I' for Inactive)
REMARK    1  A    between atoms: C_7  and  C_1 
REMARK    2  A    between atoms: O_12  and  C_7 
ROOT
ATOM      1  C   UNL d   1       2.534  -1.012   0.012  0.00  0.00     0.153 A 
ATOM      2  C   UNL d   1       2.610   0.329   0.001  0.00  0.00     0.100 A 
ATOM      3  C   UNL d   1       0.106   0.360  -0.010  0.00  0.00     0.048 A 
ATOM      4  C   UNL d   1       1.366   1.117  -0.016  0.00  0.00     0.187 A 
ATOM      5  O   UNL d   1       1.350  -1.729   0.019  0.00  0.00    -0.303 OA
ATOM      6  C   UNL d   1       0.172  -1.030   0.006  0.00  0.00     0.090 A 
ATOM      7  C   UNL d   1      -1.126   1.016  -0.014  0.00  0.00     0.025 A 
ATOM      8  O   UNL d   1       1.394   2.345  -0.030  0.00  0.00    -0.287 OA
ATOM      9  C   UNL d   1      -1.002  -1.777   0.016  0.00  0.00     0.039 A 
ATOM     10  C   UNL d   1      -2.312   0.271  -0.004  0.00  0.00    -0.061 A 
ATOM     11  C   UNL d   1      -2.239  -1.130   0.013  0.00  0.00     0.009 A 
ATOM     12  C   UNL d   1      -3.651   0.949  -0.012  0.00  0.00     0.048 C 
ENDROOT
BRANCH   1  13
ATOM     13  C   UNL d   1       3.799  -1.805   0.026  0.00  0.00     0.201 C 
ATOM     14  O   UNL d   1       4.914  -1.313   0.034  0.00  0.00    -0.645 OA
BRANCH  13  15
ATOM     15  O   UNL d   1       3.599  -3.145   0.032  0.00  0.00    -0.771 OA
ATOM     16  H   UNL d   1       2.665  -3.431   0.020  0.00  0.00     0.167 HD
ENDBRANCH  13  15
ENDBRANCH   1  13
TORSDOF 2
