REMARK  3 active torsions:
REMARK  status: ('A' for Active; 'I' for Inactive)
REMARK    1  A    between atoms: C_6  and  C_1 
REMARK    2  A    between atoms: N_8  and  C_2 
REMARK    3  A    between atoms: C_7  and  C_6 
ROOT
ATOM      1  C   UNL d   1      -0.195  -1.197  -0.015  0.00  0.00     0.055 A 
ATOM      2  C   UNL d   1       1.118  -0.765  -0.159  0.00  0.00     0.083 A 
ATOM      3  S   UNL d   1       1.252   0.924  -0.262  0.00  0.00    -0.076 SA
ATOM      4  C   UNL d   1      -1.112  -0.059   0.038  0.00  0.00    -0.032 A 
ATOM      5  C   UNL d   1      -0.427   1.145  -0.087  0.00  0.00    -0.012 A 
ATOM      6  C   UNL d   1      -2.594  -0.116   0.246  0.00  0.00     0.050 C 
ATOM      7  C   UNL d   1      -0.951   2.546  -0.054  0.00  0.00     0.057 C 
ENDROOT
BRANCH   1   8
ATOM      8  C   UNL d   1      -0.476  -2.634   0.145  0.00  0.00     0.195 C 
ATOM      9  O   UNL d   1       0.322  -3.384   0.714  0.00  0.00    -0.287 OA
BRANCH   8  10
ATOM     10  C   UNL d   1      -1.716  -3.262  -0.379  0.00  0.00     0.015 A 
ATOM     11  C   UNL d   1      -2.232  -4.369   0.317  0.00  0.00     0.017 A 
ATOM     12  C   UNL d   1      -3.388  -5.011  -0.126  0.00  0.00     0.025 A 
ATOM     13  C   UNL d   1      -4.034  -4.550  -1.271  0.00  0.00     0.034 A 
ATOM     14  C   UNL d   1      -3.519  -3.468  -1.987  0.00  0.00     0.025 A 
ATOM     15 CL   UNL d   1      -5.470  -5.327  -1.808  0.00  0.00    -0.084 Cl
ATOM     16  C   UNL d   1      -2.351  -2.829  -1.549  0.00  0.00     0.017 A 
ENDBRANCH   8  10
ENDBRANCH   1   8
BRANCH   2  17
ATOM     17  N   UNL d   1       2.234  -1.533  -0.210  0.00  0.00    -0.393 N 
ATOM     18  H   UNL d   1       2.159  -2.478   0.176  0.00  0.00     0.156 HD
ATOM     19  H   UNL d   1       3.120  -1.090   0.015  0.00  0.00     0.156 HD
ENDBRANCH   2  17
TORSDOF 3
