REMARK  4 active torsions:
REMARK  status: ('A' for Active; 'I' for Inactive)
REMARK    1  A    between atoms: C_4  and  S_1 
REMARK    2  A    between atoms: C_11  and  S_1 
REMARK    3  A    between atoms: N_2  and  C_3 
REMARK    4  A    between atoms: O_14  and  C_5 
ROOT
ATOM      1  C   UNL d   1      -0.174  -2.142  -3.906  0.00  0.00     0.136 A 
ATOM      2  C   UNL d   1       0.577  -0.898  -1.552  0.00  0.00     0.067 A 
ATOM      3  C   UNL d   1       0.507  -2.877  -2.933  0.00  0.00     0.100 A 
ATOM      4  C   UNL d   1       0.875  -2.256  -1.740  0.00  0.00     0.062 A 
ATOM      5  C   UNL d   1      -0.492  -0.790  -3.714  0.00  0.00     0.040 A 
ATOM      6  C   UNL d   1      -0.116  -0.165  -2.524  0.00  0.00     0.026 A 
ENDROOT
BRANCH   2   7
ATOM      7  S   UNL d   1       1.031  -0.118  -0.015  0.00  0.00     0.206 S 
ATOM      8  O   UNL d   1       0.961  -1.146   1.008  0.00  0.00    -0.217 OA
ATOM      9  O   UNL d   1       0.242   1.093   0.106  0.00  0.00    -0.217 OA
BRANCH   7  10
ATOM     10  C   UNL d   1       2.736   0.368  -0.172  0.00  0.00     0.064 A 
ATOM     11  C   UNL d   1       3.050   1.633  -0.675  0.00  0.00     0.024 A 
ATOM     12  C   UNL d   1       4.386   2.030  -0.751  0.00  0.00     0.002 A 
ATOM     13  C   UNL d   1       5.397   1.168  -0.320  0.00  0.00     0.000 A 
ATOM     14  C   UNL d   1       5.078  -0.090   0.193  0.00  0.00     0.002 A 
ATOM     15  C   UNL d   1       3.744  -0.493   0.274  0.00  0.00     0.024 A 
ENDBRANCH   7  10
ENDBRANCH   2   7
BRANCH   3  16
ATOM     16  O   UNL d   1       0.842  -4.182  -3.148  0.00  0.00    -0.358 OA
ATOM     17  H   UNL d   1       1.239  -4.569  -2.349  0.00  0.00     0.217 HD
ENDBRANCH   3  16
BRANCH   1  18
ATOM     18  N   UNL d   1      -0.567  -2.764  -5.156  0.00  0.00    -0.113 N 
ATOM     19  O   UNL d   1      -1.354  -3.719  -5.101  0.00  0.00    -0.532 OA
ATOM     20  O   UNL d   1      -0.136  -2.243  -6.195  0.00  0.00    -0.532 OA
ENDBRANCH   1  18
TORSDOF 4
