REMARK  1 active torsions:
REMARK  status: ('A' for Active; 'I' for Inactive)
REMARK    1  A    between atoms: C_12  and  N_3 
ROOT
ATOM      1  C   UNL d   1      -0.419   0.751   0.026  0.00  0.00     0.096 A 
ATOM      2  C   UNL d   1       0.664   1.695   0.039  0.00  0.00     0.282 A 
ATOM      3  N   UNL d   1       1.953   1.086  -0.024  0.00  0.00    -0.220 N 
ATOM      4  C   UNL d   1      -0.161  -0.581  -0.019  0.00  0.00     0.140 A 
ATOM      5  N   UNL d   1       2.170  -0.320  -0.100  0.00  0.00    -0.292 N 
ATOM      6  HN  UNL d   1       3.117  -0.692  -0.175  1.00  0.00     0.187 HD
ATOM      7  C   UNL d   1       1.146  -1.127  -0.075  0.00  0.00     0.059 A 
ATOM      8  O   UNL d   1      -1.307  -1.290  -0.022  0.00  0.00    -0.235 OA
ATOM      9  N   UNL d   1      -2.375  -0.393   0.012  0.00  0.00    -0.264 N 
ATOM     10  HN  UNL d   1      -3.369  -0.620   0.019  1.00  0.00     0.194 HD
ATOM     11  C   UNL d   1      -1.823   0.835   0.033  0.00  0.00     0.047 A 
ATOM     12  O   UNL d   1       0.419   2.897   0.074  0.00  0.00    -0.265 OA
ATOM     13  C   UNL d   1       1.337  -2.613  -0.092  0.00  0.00     0.072 C 
ATOM     14  C   UNL d   1      -2.663   2.053   0.044  0.00  0.00     0.071 C 
ENDROOT
BRANCH   3  15
ATOM     15  C   UNL d   1       3.170   1.843   0.047  0.00  0.00     0.060 A 
ATOM     16  C   UNL d   1       3.223   3.111   0.639  0.00  0.00     0.032 A 
ATOM     17  C   UNL d   1       4.428   3.816   0.737  0.00  0.00     0.009 A 
ATOM     18  C   UNL d   1       5.612   3.278   0.227  0.00  0.00    -0.062 A 
ATOM     19  C   UNL d   1       5.571   2.021  -0.379  0.00  0.00     0.009 A 
ATOM     20  C   UNL d   1       6.897   4.037   0.367  0.00  0.00     0.048 C 
ATOM     21  C   UNL d   1       4.368   1.309  -0.456  0.00  0.00     0.032 A 
ENDBRANCH   3  15
TORSDOF 1
