REMARK  4 active torsions:
REMARK  status: ('A' for Active; 'I' for Inactive)
REMARK    1  A    between atoms: C_6  and  C_1 
REMARK    2  A    between atoms: C_11  and  C_5 
REMARK       I    between atoms: N_9  and  C_6 
REMARK       I    between atoms: C_8  and  N_10 
REMARK    3  A    between atoms: C_12  and  C_8 
REMARK    4  A    between atoms: N_10  and  N_9 
ROOT
ATOM      1  C   UNL d   1      -0.201  -2.775   0.047  0.00  0.00     0.288 C 
ATOM      2  N   UNL d   1       1.028  -3.404   0.116  0.00  0.00    -0.262 N 
ATOM      3  O   UNL d   1      -1.252  -3.419   0.005  0.00  0.00    -0.264 OA
ATOM      4  H   UNL d   1       1.907  -2.892   0.201  0.00  0.00     0.190 HD
ENDROOT
BRANCH   2   5
ATOM      5  N   UNL d   1       1.056  -4.803   0.225  0.00  0.00    -0.263 N 
ATOM      6  C   UNL d   1       2.274  -5.448   0.303  0.00  0.00     0.270 C 
ATOM      7  O   UNL d   1       3.347  -4.852   0.282  0.00  0.00    -0.266 OA
ATOM      8  H   UNL d   1       0.171  -5.284   0.072  0.00  0.00     0.190 HD
BRANCH   6   9
ATOM      9  C   UNL d   1       2.233  -6.935   0.396  0.00  0.00     0.033 A 
ATOM     10  C   UNL d   1       3.317  -7.664  -0.114  0.00  0.00     0.019 A 
ATOM     11  C   UNL d   1       3.346  -9.059  -0.006  0.00  0.00     0.025 A 
ATOM     12  C   UNL d   1       2.297  -9.726   0.622  0.00  0.00     0.034 A 
ATOM     13  C   UNL d   1       1.215  -9.012   1.136  0.00  0.00     0.025 A 
ATOM     14 CL   UNL d   1       2.344 -11.438   0.781  0.00  0.00    -0.084 Cl
ATOM     15  C   UNL d   1       1.180  -7.615   1.024  0.00  0.00     0.019 A 
ENDBRANCH   6   9
ENDBRANCH   2   5
BRANCH   1  16
ATOM     16  C   UNL d   1      -0.182  -1.312   0.034  0.00  0.00     0.126 A 
ATOM     17  N   UNL d   1       0.945  -0.583   0.063  0.00  0.00    -0.256 N 
ATOM     18  O   UNL d   1       0.539   0.746   0.038  0.00  0.00    -0.241 OA
ATOM     19  HN  UNL d   1       1.903  -0.933   0.097  1.00  0.00     0.195 HD
ATOM     20  C   UNL d   1      -0.825   0.815   0.000  0.00  0.00     0.086 A 
ATOM     21  C   UNL d   1      -1.321  -0.467  -0.004  0.00  0.00     0.072 A 
BRANCH  20  22
ATOM     22  C   UNL d   1      -1.451   2.186  -0.029  0.00  0.00     0.000 C 
ATOM     23  C   UNL d   1      -2.990   2.079  -0.025  0.00  0.00     0.021 C 
ATOM     24  C   UNL d   1      -1.021   2.995   1.208  0.00  0.00     0.021 C 
ATOM     25  C   UNL d   1      -1.024   2.939  -1.301  0.00  0.00     0.021 C 
ENDBRANCH  20  22
ENDBRANCH   1  16
TORSDOF 4
