REMARK  4 active torsions:
REMARK  status: ('A' for Active; 'I' for Inactive)
REMARK    1  A    between atoms: C_4  and  C_1 
REMARK    2  A    between atoms: N_9  and  N_2 
REMARK    3  A    between atoms: C_3  and  C_5 
REMARK    4  A    between atoms: C_6  and  C_4 
ROOT
ATOM      1  C   UNL d   1       0.902  -0.106  -0.133  0.00  0.00     0.097 C 
ATOM      2  C   UNL d   1       0.176  -0.354   0.980  0.00  0.00     0.058 C 
ATOM      3  C   UNL d   1       0.286   0.294  -1.363  0.00  0.00     0.103 C 
ATOM      4  N   UNL d   1      -0.232   0.639  -2.338  0.00  0.00    -0.191 NA
ENDROOT
BRANCH   1   5
ATOM      5  C   UNL d   1       2.394  -0.162  -0.136  0.00  0.00     0.204 C 
ATOM      6  O   UNL d   1       3.039   0.571  -0.885  0.00  0.00    -0.286 OA
BRANCH   5   7
ATOM      7  C   UNL d   1       3.155  -1.081   0.755  0.00  0.00     0.037 A 
ATOM      8  C   UNL d   1       2.812  -2.412   1.037  0.00  0.00     0.048 A 
ATOM      9 CL   UNL d   1       1.511  -3.250   0.272  0.00  0.00    -0.083 Cl
ATOM     10  C   UNL d   1       3.603  -3.167   1.916  0.00  0.00     0.025 A 
ATOM     11  C   UNL d   1       4.770  -2.631   2.461  0.00  0.00     0.002 A 
ATOM     12  C   UNL d   1       5.160  -1.340   2.122  0.00  0.00     0.001 A 
ATOM     13  C   UNL d   1       4.357  -0.569   1.280  0.00  0.00     0.017 A 
ENDBRANCH   5   7
ENDBRANCH   1   5
BRANCH   2  14
ATOM     14  C   UNL d   1      -1.234  -0.542   0.925  0.00  0.00     0.052 A 
ATOM     15  N   UNL d   1      -2.127   0.430   1.334  0.00  0.00    -0.287 N 
ATOM     16  C   UNL d   1      -3.406  -0.047   1.166  0.00  0.00     0.111 A 
ATOM     17  C   UNL d   1      -3.339  -1.319   0.645  0.00  0.00     0.021 A 
ATOM     18  C   UNL d   1      -1.971  -1.629   0.489  0.00  0.00     0.032 A 
BRANCH  15  19
ATOM     19  N   UNL d   1      -1.773   1.746   1.800  0.00  0.00    -0.233 NA
ATOM     20  C   UNL d   1      -2.522   2.128   2.997  0.00  0.00     0.136 C 
ATOM     21  C   UNL d   1      -1.968   2.733   0.736  0.00  0.00     0.136 C 
ENDBRANCH  15  19
ENDBRANCH   2  14
TORSDOF 4
