REMARK  4 active torsions:
REMARK  status: ('A' for Active; 'I' for Inactive)
REMARK    1  A    between atoms: C_5  and  C_1 
REMARK    2  A    between atoms: N_10  and  C_2 
REMARK       I    between atoms: C_9  and  N_10 
REMARK       I    between atoms: N_13  and  C_9 
REMARK    3  A    between atoms: C_11  and  N_12 
REMARK    4  A    between atoms: N_12  and  N_13 
ROOT
ATOM      1  C   UNL d   1       5.669  -1.465   2.082  0.00  0.00     0.111 A 
ATOM      2  C   UNL d   1       4.737  -1.467   1.017  0.00  0.00     0.074 A 
ATOM      3  C   UNL d   1       5.798  -2.525   3.042  0.00  0.00     0.105 C 
ATOM      4  N   UNL d   1       5.891  -3.382   3.815  0.00  0.00    -0.191 NA
ATOM      5  C   UNL d   1       6.502  -0.354   2.289  0.00  0.00     0.139 A 
ATOM      6  F   UNL d   1       7.390  -0.351   3.296  0.00  0.00    -0.204 F 
ATOM      7  C   UNL d   1       4.695  -0.299   0.215  0.00  0.00     0.033 A 
ATOM      8  C   UNL d   1       5.524   0.805   0.439  0.00  0.00     0.005 A 
ATOM      9  C   UNL d   1       6.437   0.774   1.480  0.00  0.00     0.044 A 
ENDROOT
BRANCH   2  10
ATOM     10  N   UNL d   1       3.872  -2.521   0.645  0.00  0.00    -0.292 N 
ATOM     11  C   UNL d   1       4.076  -3.899   1.107  0.00  0.00     0.178 C 
BRANCH  10  12
ATOM     12  N   UNL d   1       2.505  -2.096   0.511  0.00  0.00    -0.254 N 
ATOM     13  C   UNL d   1       1.592  -2.873  -0.175  0.00  0.00     0.317 C 
ATOM     14  N   UNL d   1       0.267  -2.539   0.004  0.00  0.00    -0.205 NA
ATOM     15  O   UNL d   1       1.854  -3.864  -0.854  0.00  0.00    -0.252 OA
ATOM     16  H   UNL d   1      -0.238  -3.171  -0.616  0.00  0.00     0.138 HD
ATOM     17  H   UNL d   1       2.171  -1.461   1.226  0.00  0.00     0.191 HD
BRANCH  14  18
ATOM     18  C   UNL d   1      -0.190  -1.230  -0.133  0.00  0.00     0.078 A 
ATOM     19  C   UNL d   1      -0.322  -0.399  -1.296  0.00  0.00     0.092 A 
ATOM     20  N   UNL d   1      -0.957   0.740  -0.967  0.00  0.00    -0.258 N 
ATOM     21  O   UNL d   1      -1.317   0.629   0.352  0.00  0.00    -0.240 OA
ATOM     22  HN  UNL d   1      -1.136   1.535  -1.581  1.00  0.00     0.195 HD
ATOM     23  C   UNL d   1      -0.920  -0.573   0.832  0.00  0.00     0.096 A 
ATOM     24  C   UNL d   1      -1.413  -0.910   2.180  0.00  0.00     0.081 C 
BRANCH  19  25
ATOM     25  C   UNL d   1      -0.006  -0.639  -2.708  0.00  0.00     0.038 A 
ATOM     26  C   UNL d   1      -0.540  -1.745  -3.402  0.00  0.00     0.048 A 
ATOM     27 CL   UNL d   1      -1.466  -2.994  -2.634  0.00  0.00    -0.083 Cl
ATOM     28  C   UNL d   1      -0.404  -1.858  -4.794  0.00  0.00     0.025 A 
ATOM     29  C   UNL d   1       0.241  -0.866  -5.524  0.00  0.00     0.003 A 
ATOM     30  C   UNL d   1       0.795   0.222  -4.858  0.00  0.00     0.025 A 
ATOM     31  C   UNL d   1       0.693   0.328  -3.463  0.00  0.00     0.048 A 
ATOM     32 CL   UNL d   1       1.481   1.695  -2.743  0.00  0.00    -0.083 Cl
ENDBRANCH  19  25
ENDBRANCH  14  18
ENDBRANCH  10  12
ENDBRANCH   2  10
TORSDOF 4
