REMARK  2 active torsions:
REMARK  status: ('A' for Active; 'I' for Inactive)
REMARK    1  A    between atoms: N_12  and  C_11 
REMARK    2  A    between atoms: C_13  and  N_12 
ROOT
ATOM      1  C   UNL d   1       0.044  -0.766  -0.076  0.00  0.00     0.135 C 
ATOM      2  C   UNL d   1       0.012   0.588  -0.012  0.00  0.00     0.128 C 
ATOM      3  N   UNL d   1       1.295  -1.406   0.041  0.00  0.00    -0.288 N 
ATOM      4  N   UNL d   1       2.445   0.652  -0.050  0.00  0.00    -0.270 N 
ATOM      5  N   UNL d   1      -1.163  -1.489  -0.233  0.00  0.00    -0.303 N 
ATOM      6  C   UNL d   1       2.514  -0.720  -0.044  0.00  0.00     0.332 C 
ATOM      7  C   UNL d   1       1.278   1.346   0.165  0.00  0.00     0.269 C 
ATOM      8  C   UNL d   1      -2.450   0.540  -0.405  0.00  0.00     0.099 C 
ATOM      9  C   UNL d   1      -2.428  -0.904  -0.159  0.00  0.00     0.264 C 
ATOM     10  C   UNL d   1      -1.259   1.351  -0.149  0.00  0.00     0.208 C 
ATOM     11  C   UNL d   1      -3.498   1.077  -1.057  0.00  0.00     0.109 C 
ATOM     12  O   UNL d   1       3.593  -1.315  -0.074  0.00  0.00    -0.246 OA
ATOM     13  O   UNL d   1       1.282   2.531   0.485  0.00  0.00    -0.267 OA
ATOM     14  O   UNL d   1      -3.473  -1.542  -0.016  0.00  0.00    -0.267 OA
ATOM     15  O   UNL d   1      -1.330   2.571  -0.103  0.00  0.00    -0.286 OA
ATOM     16  C   UNL d   1       1.455  -2.827   0.316  0.00  0.00     0.163 C 
ATOM     17  C   UNL d   1       3.681   1.417  -0.013  0.00  0.00     0.164 C 
ATOM     18  C   UNL d   1      -1.240  -2.889  -0.625  0.00  0.00     0.161 C 
ENDROOT
BRANCH  11  19
ATOM     19  N   UNL d   1      -4.629   0.423  -1.480  0.00  0.00    -0.362 N 
ATOM     20  H   UNL d   1      -4.780  -0.497  -1.045  0.00  0.00     0.165 HD
BRANCH  19  21
ATOM     21  C   UNL d   1      -5.572   0.731  -2.487  0.00  0.00     0.075 A 
ATOM     22  C   UNL d   1      -5.372   1.619  -3.563  0.00  0.00     0.062 A 
ATOM     23 CL   UNL d   1      -3.832   2.308  -3.965  0.00  0.00    -0.082 Cl
ATOM     24  C   UNL d   1      -6.411   1.911  -4.463  0.00  0.00     0.026 A 
ATOM     25  C   UNL d   1      -7.665   1.324  -4.320  0.00  0.00     0.003 A 
ATOM     26  C   UNL d   1      -7.885   0.426  -3.284  0.00  0.00     0.026 A 
ATOM     27  C   UNL d   1      -6.854   0.136  -2.385  0.00  0.00     0.062 A 
ATOM     28 CL   UNL d   1      -7.200  -1.013  -1.129  0.00  0.00    -0.082 Cl
ENDBRANCH  19  21
ENDBRANCH  11  19
TORSDOF 2
