REMARK  4 active torsions:
REMARK  status: ('A' for Active; 'I' for Inactive)
REMARK    1  A    between atoms: C_8  and  N_1 
REMARK    2  A    between atoms: N_11  and  C_2 
REMARK    3  A    between atoms: S_12  and  C_7 
REMARK    4  A    between atoms: S_13  and  C_8 
ROOT
ATOM      1  N   UNL d   1       0.024  -1.174   0.014  0.00  0.00    -0.205 N 
ATOM      2  C   UNL d   1       1.272  -0.589  -0.180  0.00  0.00     0.180 A 
ATOM      3  N   UNL d   1       1.145   0.714  -0.221  0.00  0.00    -0.311 N 
ATOM      4  HN  UNL d   1       1.868   1.415  -0.383  1.00  0.00     0.170 HD
ATOM      5  N   UNL d   1      -0.904  -0.198   0.198  0.00  0.00    -0.269 N 
ATOM      6  HN  UNL d   1      -1.894  -0.289   0.425  1.00  0.00     0.190 HD
ATOM      7  C   UNL d   1      -0.187   0.908   0.006  0.00  0.00     0.161 A 
ENDROOT
BRANCH   1   8
ATOM      8  C   UNL d   1      -0.320  -2.544   0.022  0.00  0.00     0.162 C 
ATOM      9  N   UNL d   1       0.471  -3.455  -0.464  0.00  0.00    -0.378 N 
ATOM     10  H   UNL d   1       1.292  -3.024  -0.907  0.00  0.00     0.158 HD
ATOM     11  HN  UNL d   1       0.301  -4.460  -0.412  1.00  0.00     0.158 HD
BRANCH   8  12
ATOM     12  S   UNL d   1      -1.856  -3.041   0.732  0.00  0.00    -0.097 SA
ATOM     13  C   UNL d   1      -1.770  -4.833   0.558  0.00  0.00     0.099 C 
ENDBRANCH   8  12
ENDBRANCH   1   8
BRANCH   2  14
ATOM     14  N   UNL d   1       2.441  -1.269  -0.260  0.00  0.00    -0.272 NA
ATOM     15  H   UNL d   1       2.578  -2.072   0.353  0.00  0.00     0.127 HD
ATOM     16  H   UNL d   1       3.262  -0.663  -0.218  0.00  0.00     0.127 HD
ENDBRANCH   2  14
BRANCH   7  17
ATOM     17  S   UNL d   1      -0.946   2.474   0.063  0.00  0.00    -0.097 SA
ATOM     18  C   UNL d   1       0.500   3.547  -0.009  0.00  0.00     0.099 C 
ENDBRANCH   7  17
TORSDOF 4
