REMARK  3 active torsions:
REMARK  status: ('A' for Active; 'I' for Inactive)
REMARK    1  A    between atoms: C_4  and  N_1 
REMARK       I    between atoms: C_2  and  N_3 
REMARK       I    between atoms: N_9  and  C_2 
REMARK    2  A    between atoms: N_5  and  C_6 
REMARK    3  A    between atoms: C_18  and  N_9 
ROOT
ATOM      1  C   UNL d   1      -5.346   4.844   5.166  0.00  0.00     0.322 C 
ATOM      2  N   UNL d   1      -4.943   3.827   4.301  0.00  0.00    -0.332 N 
ATOM      3  N   UNL d   1      -2.298   3.298   3.140  0.00  0.00    -0.366 N 
ATOM      4  N   UNL d   1      -6.236   5.753   4.645  0.00  0.00    -0.309 N 
ATOM      5  O   UNL d   1      -4.926   4.868   6.321  0.00  0.00    -0.247 OA
ATOM      6  C   UNL d   1      -4.013   2.823   4.848  0.00  0.00     0.147 C 
ATOM      7  C   UNL d   1      -2.539   3.160   4.585  0.00  0.00     0.144 C 
ATOM      8  C   UNL d   1      -4.134   4.464   1.984  0.00  0.00     0.040 C 
ATOM      9  C   UNL d   1      -5.166   3.738   2.856  0.00  0.00     0.129 C 
ATOM     10  C   UNL d   1      -2.717   4.569   2.551  0.00  0.00     0.126 C 
ATOM     11  H   UNL d   1      -6.434   5.694   3.662  0.00  0.00     0.170 HD
ENDROOT
BRANCH   4  12
ATOM     12  C   UNL d   1      -6.969   6.736   5.356  0.00  0.00     0.036 A 
ATOM     13  C   UNL d   1      -6.858   6.955   6.731  0.00  0.00     0.029 A 
ATOM     14  C   UNL d   1      -7.672   7.894   7.377  0.00  0.00     0.002 A 
ATOM     15  C   UNL d   1      -8.605   8.627   6.650  0.00  0.00     0.000 A 
ATOM     16  C   UNL d   1      -8.711   8.437   5.276  0.00  0.00     0.002 A 
ATOM     17  C   UNL d   1      -7.893   7.499   4.632  0.00  0.00     0.029 A 
ENDBRANCH   4  12
BRANCH   3  18
ATOM     18  C   UNL d   1      -1.396   2.488   2.484  0.00  0.00     0.103 A 
ATOM     19  C   UNL d   1      -1.254   1.138   2.825  0.00  0.00     0.051 A 
ATOM     20  C   UNL d   1      -0.332   0.325   2.163  0.00  0.00     0.041 A 
ATOM     21  C   UNL d   1       0.446   0.887   1.158  0.00  0.00     0.118 A 
ATOM     22  C   UNL d   1       0.253   2.219   0.845  0.00  0.00     0.125 A 
ATOM     23  N   UNL d   1      -0.658   3.007   1.475  0.00  0.00    -0.350 N 
ATOM     24  HN  UNL d   1      -0.784   3.978   1.191  1.00  0.00     0.166 HD
BRANCH  21  25
ATOM     25  N   UNL d   1       1.439   0.101   0.443  0.00  0.00    -0.114 N 
ATOM     26  O   UNL d   1       2.108   0.671  -0.428  0.00  0.00    -0.532 OA
ATOM     27  O   UNL d   1       1.554  -1.094   0.751  0.00  0.00    -0.532 OA
ENDBRANCH  21  25
ENDBRANCH   3  18
TORSDOF 3
