REMARK  5 active torsions:
REMARK  status: ('A' for Active; 'I' for Inactive)
REMARK    1  A    between atoms: C_2  and  S_1 
REMARK    2  A    between atoms: C_4  and  S_1 
REMARK    3  A    between atoms: N_5  and  C_3 
REMARK       I    between atoms: C_7  and  N_5 
REMARK    4  A    between atoms: C_6  and  C_13 
REMARK    5  A    between atoms: C_14  and  C_7 
ROOT
ATOM      1  C   UNL d   1      -0.015  -0.416   1.907  0.00  0.00     0.092 A 
ATOM      2  C   UNL d   1       0.293  -1.815   1.885  0.00  0.00     0.044 A 
ATOM      3  S   UNL d   1      -0.770  -1.343   4.185  0.00  0.00    -0.110 SA
ATOM      4  C   UNL d   1      -0.611  -0.037   3.095  0.00  0.00     0.075 A 
ATOM      5  C   UNL d   1      -0.051  -2.428   3.074  0.00  0.00     0.075 A 
ENDROOT
BRANCH   2   6
ATOM      6  N   UNL d   1       0.955  -2.481   0.852  0.00  0.00    -0.223 NA
ATOM      7  C   UNL d   1       0.478  -3.652   0.286  0.00  0.00     0.235 C 
ATOM      8  O   UNL d   1       1.257  -4.600   0.177  0.00  0.00    -0.274 OA
ATOM      9  H   UNL d   1       1.899  -2.729   1.148  0.00  0.00     0.137 HD
BRANCH   7  10
ATOM     10  C   UNL d   1      -0.864  -3.717  -0.368  0.00  0.00     0.026 A 
ATOM     11  C   UNL d   1      -1.985  -2.984   0.027  0.00  0.00     0.017 A 
ATOM     12  C   UNL d   1      -3.168  -3.031  -0.723  0.00  0.00     0.017 A 
ATOM     13  C   UNL d   1      -3.252  -3.809  -1.885  0.00  0.00     0.048 A 
ATOM     14  C   UNL d   1      -2.153  -4.600  -2.243  0.00  0.00     0.017 A 
ATOM     15  C   UNL d   1      -0.975  -4.557  -1.490  0.00  0.00     0.017 A 
BRANCH  13  16
ATOM     16  C   UNL d   1      -4.478  -3.773  -2.765  0.00  0.00     0.417 C 
ATOM     17  F   UNL d   1      -5.439  -2.911  -2.327  0.00  0.00    -0.166 F 
ATOM     18  F   UNL d   1      -4.185  -3.383  -4.038  0.00  0.00    -0.166 F 
ATOM     19  F   UNL d   1      -5.084  -4.985  -2.876  0.00  0.00    -0.166 F 
ENDBRANCH  13  16
ENDBRANCH   7  10
ENDBRANCH   2   6
BRANCH   1  20
ATOM     20  S   UNL d   1       0.253   0.690   0.603  0.00  0.00     0.210 S 
ATOM     21  O   UNL d   1       0.086   2.015   1.168  0.00  0.00    -0.217 OA
ATOM     22  O   UNL d   1      -0.629   0.192  -0.429  0.00  0.00    -0.217 OA
BRANCH  20  23
ATOM     23  C   UNL d   1       1.924   0.527   0.055  0.00  0.00     0.086 A 
ATOM     24  C   UNL d   1       3.005   0.634   0.933  0.00  0.00     0.056 A 
ATOM     25 CL   UNL d   1       2.859   0.953   2.622  0.00  0.00    -0.083 Cl
ATOM     26  C   UNL d   1       4.308   0.489   0.437  0.00  0.00     0.025 A 
ATOM     27  C   UNL d   1       4.528   0.254  -0.922  0.00  0.00     0.002 A 
ATOM     28  C   UNL d   1       3.449   0.168  -1.796  0.00  0.00     0.002 A 
ATOM     29  C   UNL d   1       2.148   0.303  -1.312  0.00  0.00     0.025 A 
ENDBRANCH  20  23
ENDBRANCH   1  20
TORSDOF 5
