REMARK  4 active torsions:
REMARK  status: ('A' for Active; 'I' for Inactive)
REMARK    1  A    between atoms: C_8  and  C_1 
REMARK    2  A    between atoms: C_7  and  C_4 
REMARK    3  A    between atoms: O_14  and  C_8 
REMARK    4  A    between atoms: C_15  and  O_14 
ROOT
ATOM      1  C   UNL d   1       1.311   0.783   0.030  0.00  0.00     0.115 A 
ATOM      2  N   UNL d   1       1.405  -0.612   0.058  0.00  0.00    -0.344 N 
ATOM      3  HN  UNL d   1       2.281  -1.134   0.087  1.00  0.00     0.167 HD
ATOM      4  C   UNL d   1       0.206  -1.160   0.043  0.00  0.00     0.091 A 
ATOM      5  S   UNL d   1      -1.099  -0.035   0.024  0.00  0.00    -0.080 SA
ATOM      6  C   UNL d   1       0.012   1.260   0.021  0.00  0.00     0.087 A 
ENDROOT
BRANCH   1   7
ATOM      7  C   UNL d   1       2.477   1.663  -0.061  0.00  0.00     0.310 C 
ATOM      8  O   UNL d   1       2.387   2.881  -0.160  0.00  0.00    -0.258 OA
BRANCH   7   9
ATOM      9  O   UNL d   1       3.650   0.967  -0.121  0.00  0.00    -0.317 OA
BRANCH   9  10
ATOM     10  C   UNL d   1       4.763   1.691  -0.658  0.00  0.00     0.175 C 
ATOM     11  C   UNL d   1       4.744   1.528  -2.168  0.00  0.00     0.034 C 
ENDBRANCH   9  10
ENDBRANCH   7   9
ENDBRANCH   1   7
BRANCH   4  12
ATOM     12  C   UNL d   1       0.029  -2.597   0.039  0.00  0.00     0.038 A 
ATOM     13  S   UNL d   1      -1.503  -3.368  -0.070  0.00  0.00    -0.099 SA
ATOM     14  C   UNL d   1      -0.814  -4.929  -0.007  0.00  0.00     0.050 A 
ATOM     15  C   UNL d   1       0.557  -4.883   0.088  0.00  0.00     0.008 A 
ATOM     16  C   UNL d   1       1.042  -3.542   0.109  0.00  0.00     0.022 A 
ENDBRANCH   4  12
TORSDOF 4
