REMARK  4 active torsions:
REMARK  status: ('A' for Active; 'I' for Inactive)
REMARK    1  A    between atoms: O_5  and  N_1 
REMARK    2  A    between atoms: C_3  and  O_5 
REMARK    3  A    between atoms: C_10  and  C_3 
REMARK    4  A    between atoms: C_4  and  C_8 
ROOT
ATOM      1  N   UNL d   1       0.892   0.163  -0.037  0.00  0.00    -0.261 N 
ATOM      2  HN  UNL d   1       0.441   0.649  -0.812  1.00  0.00     0.194 HD
ATOM      3  C   UNL d   1       2.186   0.017   0.035  0.00  0.00     0.039 C 
ATOM      4  C   UNL d   1       2.960   0.716  -1.070  0.00  0.00     0.071 C 
ENDROOT
BRANCH   1   5
ATOM      5  O   UNL d   1       0.163  -0.397   1.025  0.00  0.00    -0.195 OA
BRANCH   5   6
ATOM      6  C   UNL d   1      -0.990  -0.952   0.538  0.00  0.00     0.315 C 
ATOM      7  O   UNL d   1      -1.245  -1.219  -0.629  0.00  0.00    -0.257 OA
BRANCH   6   8
ATOM      8  C   UNL d   1      -1.945  -1.258   1.641  0.00  0.00     0.041 A 
ATOM      9  C   UNL d   1      -3.154  -1.888   1.302  0.00  0.00     0.019 A 
ATOM     10  C   UNL d   1      -4.111  -2.169   2.283  0.00  0.00     0.025 A 
ATOM     11  C   UNL d   1      -3.860  -1.820   3.609  0.00  0.00     0.034 A 
ATOM     12  C   UNL d   1      -2.661  -1.200   3.959  0.00  0.00     0.025 A 
ATOM     13 CL   UNL d   1      -5.040  -2.152   4.814  0.00  0.00    -0.084 Cl
ATOM     14  C   UNL d   1      -1.702  -0.917   2.978  0.00  0.00     0.019 A 
ENDBRANCH   6   8
ENDBRANCH   5   6
ENDBRANCH   1   5
BRANCH   3  15
ATOM     15  C   UNL d   1       2.962  -0.772   1.042  0.00  0.00    -0.011 A 
ATOM     16  C   UNL d   1       2.456  -1.979   1.545  0.00  0.00     0.023 A 
ATOM     17  C   UNL d   1       3.213  -2.689   2.461  0.00  0.00    -0.022 A 
ATOM     18  C   UNL d   1       2.918  -3.974   3.132  0.00  0.00     0.068 C 
ATOM     19  C   UNL d   1       4.478  -2.261   2.824  0.00  0.00     0.075 A 
ATOM     20  C   UNL d   1       4.069  -3.995   4.141  0.00  0.00     0.180 C 
ATOM     21  O   UNL d   1       5.117  -3.104   3.693  0.00  0.00    -0.350 OA
ATOM     22  C   UNL d   1       5.025  -1.102   2.318  0.00  0.00     0.038 A 
ATOM     23  C   UNL d   1       4.249  -0.340   1.438  0.00  0.00     0.016 A 
ENDBRANCH   3  15
TORSDOF 4
