REMARK  2 active torsions:
REMARK  status: ('A' for Active; 'I' for Inactive)
REMARK    1  A    between atoms: N_3  and  C_1 
REMARK       I    between atoms: C_4  and  N_3 
REMARK    2  A    between atoms: C_8  and  C_4 
ROOT
ATOM      1  C   UNL d   1       0.085   0.875   0.293  0.00  0.00     0.097 A 
ATOM      2  C   UNL d   1      -0.711  -0.247   0.212  0.00  0.00     0.079 A 
ATOM      3  C   UNL d   1      -2.144  -0.271   0.307  0.00  0.00     0.102 C 
ATOM      4  S   UNL d   1       1.744   0.494   0.399  0.00  0.00    -0.083 SA
ATOM      5  N   UNL d   1      -3.293  -0.346   0.447  0.00  0.00    -0.191 NA
ATOM      6  C   UNL d   1       0.083  -1.434   0.101  0.00  0.00     0.033 A 
ATOM      7  C   UNL d   1       1.435  -1.169   0.148  0.00  0.00     0.053 A 
ENDROOT
BRANCH   1   8
ATOM      8  N   UNL d   1      -0.141   2.234   0.321  0.00  0.00    -0.318 N 
ATOM      9  C   UNL d   1      -1.181   2.824  -0.385  0.00  0.00     0.255 C 
ATOM     10  O   UNL d   1      -1.967   2.206  -1.102  0.00  0.00    -0.270 OA
ATOM     11  H   UNL d   1       0.653   2.819   0.566  0.00  0.00     0.169 HD
BRANCH   9  12
ATOM     12  C   UNL d   1      -1.224   4.348  -0.307  0.00  0.00     0.270 C 
ATOM     13 CL   UNL d   1      -1.191   4.877   1.388  0.00  0.00    -0.098 Cl
ATOM     14 CL   UNL d   1       0.181   4.998  -1.183  0.00  0.00    -0.098 Cl
ENDBRANCH   9  12
ENDBRANCH   1   8
TORSDOF 2
