REMARK  1 active torsions:
REMARK  status: ('A' for Active; 'I' for Inactive)
REMARK    1  A    between atoms: C_3  and  C_5 
ROOT
ATOM      1  O   UNL d   1      -0.851   1.059  -0.127  0.00  0.00    -0.340 OA
ATOM      2  C   UNL d   1       0.415   0.544  -0.061  0.00  0.00     0.076 A 
ATOM      3  C   UNL d   1       0.712  -0.818  -0.066  0.00  0.00    -0.024 A 
ATOM      4  C   UNL d   1       3.102  -0.285   0.033  0.00  0.00    -0.034 A 
ATOM      5  C   UNL d   1       2.054  -1.226   0.003  0.00  0.00     0.019 A 
ATOM      6  C   UNL d   1      -1.939   0.139   0.060  0.00  0.00     0.061 C 
ATOM      7  C   UNL d   1       1.440   1.488  -0.021  0.00  0.00     0.038 A 
ATOM      8  C   UNL d   1       2.770   1.080   0.025  0.00  0.00     0.012 A 
ATOM      9  C   UNL d   1      -0.386  -1.842  -0.120  0.00  0.00     0.044 C 
ATOM     10  C   UNL d   1      -1.674  -1.208  -0.630  0.00  0.00     0.042 C 
ATOM     11  C   UNL d   1      -3.156   0.810  -0.596  0.00  0.00     0.046 C 
ATOM     12  C   UNL d   1      -2.212  -0.005   1.564  0.00  0.00     0.046 C 
ENDROOT
BRANCH   4  13
ATOM     13  C   UNL d   1       4.542  -0.757   0.025  0.00  0.00     0.141 C 
ATOM     14  S   UNL d   1       5.491  -0.167   1.465  0.00  0.00    -0.148 SA
ATOM     15  C   UNL d   1       7.035   0.137   0.574  0.00  0.00     0.085 C 
ATOM     16  C   UNL d   1       6.675   0.748  -0.764  0.00  0.00     0.085 C 
ATOM     17  S   UNL d   1       5.400  -0.291  -1.521  0.00  0.00    -0.148 SA
ENDBRANCH   4  13
TORSDOF 1
