REMARK  6 active torsions:
REMARK  status: ('A' for Active; 'I' for Inactive)
REMARK    1  A    between atoms: C_2  and  S_1 
REMARK    2  A    between atoms: C_4  and  S_1 
REMARK    3  A    between atoms: C_19  and  C_4 
REMARK    4  A    between atoms: C_5  and  C_18 
REMARK    5  A    between atoms: N_14  and  C_19 
REMARK    6  A    between atoms: C_18  and  N_14 
ROOT
ATOM      1  S   UNL d   1       0.907   0.097   0.023  0.00  0.00     0.177 S 
ATOM      2  O   UNL d   1       0.041   0.954   0.809  0.00  0.00    -0.223 OA
ATOM      3  O   UNL d   1       2.343   0.095   0.242  0.00  0.00    -0.223 OA
ENDROOT
BRANCH   1   4
ATOM      4  C   UNL d   1       0.632   0.551  -1.678  0.00  0.00     0.059 A 
ATOM      5  C   UNL d   1      -0.674   0.587  -2.179  0.00  0.00     0.025 A 
ATOM      6  C   UNL d   1      -0.886   0.944  -3.513  0.00  0.00     0.025 A 
ATOM      7  C   UNL d   1       0.199   1.274  -4.328  0.00  0.00     0.034 A 
ATOM      8  C   UNL d   1       1.498   1.260  -3.818  0.00  0.00     0.025 A 
ATOM      9 CL   UNL d   1      -0.067   1.704  -5.972  0.00  0.00    -0.084 Cl
ATOM     10  C   UNL d   1       1.718   0.900  -2.487  0.00  0.00     0.025 A 
ENDBRANCH   1   4
BRANCH   1  11
ATOM     11  C   UNL d   1       0.324  -1.575   0.182  0.00  0.00     0.175 C 
BRANCH  11  12
ATOM     12  C   UNL d   1       1.026  -2.538  -0.763  0.00  0.00     0.285 C 
BRANCH  12  13
ATOM     13  N   UNL d   1       0.547  -3.910  -0.549  0.00  0.00     0.088 N 
ATOM     14  H   UNL d   1      -0.458  -3.974  -0.712  0.00  0.00     0.316 HD
BRANCH  13  15
ATOM     15  C   UNL d   1       1.217  -4.848  -1.457  0.00  0.00     0.315 C 
BRANCH  15  16
ATOM     16  C   UNL d   1       0.720  -6.247  -1.233  0.00  0.00     0.010 A 
ATOM     17  S   UNL d   1      -0.083  -7.093  -2.491  0.00  0.00    -0.105 SA
ATOM     18  C   UNL d   1      -0.248  -8.499  -1.531  0.00  0.00     0.050 A 
ATOM     19  C   UNL d   1       0.283  -8.330  -0.273  0.00  0.00     0.008 A 
ATOM     20  C   UNL d   1       0.839  -7.029  -0.099  0.00  0.00     0.017 A 
ENDBRANCH  15  16
ENDBRANCH  13  15
ENDBRANCH  12  13
ENDBRANCH  11  12
ENDBRANCH   1  11
TORSDOF 6
