REMARK  2 active torsions:
REMARK  status: ('A' for Active; 'I' for Inactive)
REMARK    1  A    between atoms: C_8  and  N_1 
REMARK    2  A    between atoms: S_11  and  C_2 
ROOT
ATOM      1  N   UNL d   1       1.255  -1.442  -0.059  0.00  0.00    -0.277 N 
ATOM      2  C   UNL d   1       2.406  -0.649  -0.214  0.00  0.00     0.155 C 
ATOM      3  N   UNL d   1       2.475   0.642  -0.124  0.00  0.00    -0.303 N 
ATOM      4  HN  UNL d   1       3.371   1.115  -0.245  1.00  0.00     0.171 HD
ATOM      5  C   UNL d   1       0.021  -0.698   0.030  0.00  0.00     0.130 A 
ATOM      6  C   UNL d   1       1.354   1.365   0.131  0.00  0.00     0.261 C 
ATOM      7  C   UNL d   1       0.053   0.692   0.074  0.00  0.00     0.077 A 
ATOM      8  N   UNL d   1      -1.188  -1.328   0.060  0.00  0.00    -0.351 N 
ATOM      9  HN  UNL d   1      -1.233  -2.347   0.089  1.00  0.00     0.166 HD
ATOM     10  O   UNL d   1       1.383   2.564   0.371  0.00  0.00    -0.267 OA
ATOM     11  C   UNL d   1      -1.132   1.440   0.074  0.00  0.00     0.022 A 
ATOM     12  C   UNL d   1      -2.327  -0.598   0.052  0.00  0.00     0.090 A 
ATOM     13  C   UNL d   1      -2.350   0.780   0.043  0.00  0.00     0.018 A 
ENDROOT
BRANCH   1  14
ATOM     14  C   UNL d   1       1.264  -2.886  -0.100  0.00  0.00     0.043 A 
ATOM     15  C   UNL d   1       2.233  -3.653   0.572  0.00  0.00     0.030 A 
ATOM     16  C   UNL d   1       2.271  -5.053   0.464  0.00  0.00     0.009 A 
ATOM     17  C   UNL d   1       1.296  -5.739  -0.261  0.00  0.00    -0.062 A 
ATOM     18  C   UNL d   1       0.287  -5.004  -0.878  0.00  0.00     0.009 A 
ATOM     19  C   UNL d   1       1.347  -7.233  -0.385  0.00  0.00     0.048 C 
ATOM     20  C   UNL d   1       0.286  -3.605  -0.814  0.00  0.00     0.030 A 
ENDBRANCH   1  14
BRANCH   2  21
ATOM     21  S   UNL d   1       3.969  -1.376  -0.700  0.00  0.00    -0.098 SA
ATOM     22  C   UNL d   1       5.127  -0.034  -0.338  0.00  0.00     0.099 C 
ENDBRANCH   2  21
TORSDOF 2
