REMARK  5 active torsions:
REMARK  status: ('A' for Active; 'I' for Inactive)
REMARK    1  A    between atoms: C_2  and  C_1 
REMARK    2  A    between atoms: C_7  and  C_5 
REMARK    3  A    between atoms: C_8  and  C_6 
REMARK    4  A    between atoms: O_14  and  C_7 
REMARK    5  A    between atoms: O_13  and  C_8 
ROOT
ATOM      1  C   UNL d   1       1.099  -1.463   0.396  0.00  0.00    -0.013 A 
ATOM      2  C   UNL d   1       2.135  -0.595   0.965  0.00  0.00     0.002 A 
ATOM      3  C   UNL d   1       3.512  -0.889   1.299  0.00  0.00     0.049 A 
ATOM      4  C   UNL d   1       1.744   0.743   1.286  0.00  0.00    -0.024 A 
ATOM      5  C   UNL d   1      -0.201  -0.938   0.220  0.00  0.00     0.013 A 
ATOM      6  C   UNL d   1       4.343   0.008   2.001  0.00  0.00     0.019 A 
ATOM      7  C   UNL d   1      -0.500   0.395   0.448  0.00  0.00     0.002 A 
ATOM      8  C   UNL d   1       3.884   1.266   2.337  0.00  0.00     0.002 A 
ATOM      9  C   UNL d   1       0.469   1.224   0.979  0.00  0.00     0.012 A 
ATOM     10  C   UNL d   1       2.606   1.637   1.948  0.00  0.00     0.012 A 
ENDROOT
BRANCH   1  11
ATOM     11  C   UNL d   1       1.247  -2.932   0.126  0.00  0.00    -0.013 A 
ATOM     12  C   UNL d   1       0.766  -3.621  -1.079  0.00  0.00     0.002 A 
ATOM     13  C   UNL d   1       0.170  -3.081  -2.280  0.00  0.00     0.049 A 
ATOM     14  C   UNL d   1       0.852  -5.050  -1.075  0.00  0.00    -0.024 A 
ATOM     15  C   UNL d   1      -0.396  -3.886  -3.289  0.00  0.00     0.019 A 
ATOM     16  C   UNL d   1      -0.336  -5.263  -3.197  0.00  0.00     0.002 A 
ATOM     17  C   UNL d   1       0.315  -5.833  -2.116  0.00  0.00     0.012 A 
ATOM     18  C   UNL d   1       1.452  -5.742  -0.023  0.00  0.00     0.012 A 
ATOM     19  C   UNL d   1       1.902  -5.082   1.105  0.00  0.00     0.002 A 
ATOM     20  C   UNL d   1       1.746  -3.708   1.196  0.00  0.00     0.013 A 
BRANCH  13  21
ATOM     21  C   UNL d   1       0.132  -1.641  -2.618  0.00  0.00     0.177 C 
ATOM     22  O   UNL d   1      -0.891  -1.032  -2.872  0.00  0.00    -0.646 OA
BRANCH  21  23
ATOM     23  O   UNL d   1       1.375  -1.129  -2.740  0.00  0.00    -0.773 OA
ATOM     24  H   UNL d   1       2.063  -1.808  -2.642  0.00  0.00     0.167 HD
ENDBRANCH  21  23
ENDBRANCH  13  21
ENDBRANCH   1  11
BRANCH   3  25
ATOM     25  C   UNL d   1       4.220  -2.128   0.912  0.00  0.00     0.177 C 
ATOM     26  O   UNL d   1       4.776  -2.865   1.704  0.00  0.00    -0.646 OA
BRANCH  25  27
ATOM     27  O   UNL d   1       4.289  -2.258  -0.428  0.00  0.00    -0.773 OA
ATOM     28  H   UNL d   1       3.910  -1.491  -0.898  0.00  0.00     0.167 HD
ENDBRANCH  25  27
ENDBRANCH   3  25
TORSDOF 5
