REMARK  3 active torsions:
REMARK  status: ('A' for Active; 'I' for Inactive)
REMARK    1  A    between atoms: C_2  and  C_1 
REMARK       I    between atoms: N_5  and  C_2 
REMARK    2  A    between atoms: C_9  and  N_5 
REMARK    3  A    between atoms: O_20  and  C_17 
ROOT
ATOM      1  C   UNL d   1      -2.332  -0.319  -0.141  0.00  0.00     0.102 C 
ATOM      2  N   UNL d   1      -1.529   0.637  -0.739  0.00  0.00    -0.351 N 
ATOM      3  C   UNL d   1      -1.471  -1.155   0.547  0.00  0.00     0.049 C 
ATOM      4  C   UNL d   1      -0.136  -0.821   0.191  0.00  0.00    -0.004 A 
ATOM      5  C   UNL d   1      -0.197   0.315  -0.609  0.00  0.00     0.043 A 
ATOM      6  C   UNL d   1       1.123  -1.388   0.467  0.00  0.00     0.050 A 
ATOM      7  C   UNL d   1       0.948   0.930  -1.127  0.00  0.00     0.033 A 
ATOM      8  C   UNL d   1       2.284  -0.816  -0.071  0.00  0.00     0.069 A 
ATOM      9  C   UNL d   1       2.192   0.339  -0.850  0.00  0.00     0.039 A 
ATOM     10  H   UNL d   1      -1.892   1.422  -1.261  0.00  0.00     0.166 HD
ENDROOT
BRANCH   1  11
ATOM     11  C   UNL d   1      -3.780  -0.266  -0.266  0.00  0.00     0.270 C 
ATOM     12  N   UNL d   1      -4.532  -1.454  -0.187  0.00  0.00    -0.346 N 
ATOM     13  C   UNL d   1      -3.951  -2.787  -0.329  0.00  0.00     0.153 C 
ATOM     14  O   UNL d   1      -4.330   0.816  -0.476  0.00  0.00    -0.266 OA
BRANCH  12  15
ATOM     15  C   UNL d   1      -6.009  -1.348  -0.287  0.00  0.00     0.090 C 
ATOM     16  C   UNL d   1      -6.466  -1.437  -1.751  0.00  0.00     0.055 C 
ATOM     17  C   UNL d   1      -7.987  -1.394  -1.870  0.00  0.00     0.274 C 
ATOM     18  N   UNL d   1      -8.607  -2.449  -1.057  0.00  0.00     0.084 N 
ATOM     19  C   UNL d   1      -8.272  -2.280   0.363  0.00  0.00     0.274 C 
ATOM     20  C   UNL d   1     -10.058  -2.452  -1.250  0.00  0.00     0.309 C 
ATOM     21  C   UNL d   1      -6.760  -2.373   0.577  0.00  0.00     0.055 C 
ENDBRANCH  12  15
ENDBRANCH   1  11
BRANCH   8  22
ATOM     22  O   UNL d   1       3.433  -1.493   0.236  0.00  0.00    -0.356 OA
ATOM     23  C   UNL d   1       4.649  -0.999  -0.309  0.00  0.00     0.210 C 
ENDBRANCH   8  22
TORSDOF 3
