REMARK  5 active torsions:
REMARK  status: ('A' for Active; 'I' for Inactive)
REMARK    1  A    between atoms: C_8  and  N_1 
REMARK    2  A    between atoms: C_9  and  C_2 
REMARK    3  A    between atoms: O_20  and  C_9 
REMARK    4  A    between atoms: O_11  and  C_10 
REMARK    5  A    between atoms: C_12  and  O_11 
ROOT
ATOM      1  C   UNL d   1      -0.489  -2.603  -0.110  0.00  0.00     0.091 A 
ATOM      2  C   UNL d   1       0.010  -3.430   0.908  0.00  0.00     0.104 A 
ATOM      3  C   UNL d   1      -1.347  -3.183  -1.077  0.00  0.00     0.034 A 
ATOM      4  C   UNL d   1      -0.416  -4.776   0.972  0.00  0.00     0.040 A 
ATOM      5  C   UNL d   1      -1.678  -4.538  -1.053  0.00  0.00     0.002 A 
ATOM      6  C   UNL d   1      -1.219  -5.336  -0.019  0.00  0.00     0.003 A 
ENDROOT
BRANCH   1   7
ATOM      7  N   UNL d   1      -0.222  -1.206  -0.272  0.00  0.00    -0.241 N 
ATOM      8  N   UNL d   1      -1.144  -0.459  -0.954  0.00  0.00    -0.235 N 
ATOM      9  N   UNL d   1      -0.707   0.776  -1.087  0.00  0.00    -0.278 N 
ATOM     10  HN  UNL d   1      -2.035  -0.806  -1.306  1.00  0.00     0.209 HD
ATOM     11  C   UNL d   1       0.531   0.847  -0.517  0.00  0.00     0.147 A 
ATOM     12  HN  UNL d   1      -1.205   1.544  -1.537  1.00  0.00     0.189 HD
ATOM     13  C   UNL d   1       0.861  -0.385   0.036  0.00  0.00     0.067 A 
ATOM     14  C   UNL d   1       2.126  -0.793   0.686  0.00  0.00     0.073 C 
BRANCH  11  15
ATOM     15  C   UNL d   1       1.307   2.076  -0.612  0.00  0.00     0.197 C 
ATOM     16  O   UNL d   1       2.432   2.226  -0.153  0.00  0.00    -0.645 OA
BRANCH  15  17
ATOM     17  O   UNL d   1       0.664   3.064  -1.289  0.00  0.00    -0.772 OA
ATOM     18  H   UNL d   1      -0.217   2.745  -1.581  0.00  0.00     0.167 HD
ENDBRANCH  15  17
ENDBRANCH  11  15
ENDBRANCH   1   7
BRANCH   2  19
ATOM     19  O   UNL d   1       0.813  -2.943   1.915  0.00  0.00    -0.307 OA
BRANCH  19  20
ATOM     20  C   UNL d   1       1.853  -3.738   2.374  0.00  0.00     0.098 A 
ATOM     21  C   UNL d   1       2.201  -3.674   3.731  0.00  0.00     0.069 A 
ATOM     22  C   UNL d   1       3.238  -4.465   4.234  0.00  0.00     0.050 A 
ATOM     23 CL   UNL d   1       1.358  -2.637   4.824  0.00  0.00    -0.081 Cl
ATOM     24  C   UNL d   1       3.930  -5.319   3.377  0.00  0.00     0.035 A 
ATOM     25  C   UNL d   1       3.617  -5.370   2.021  0.00  0.00     0.026 A 
ATOM     26 CL   UNL d   1       5.188  -6.317   3.994  0.00  0.00    -0.084 Cl
ATOM     27  C   UNL d   1       2.597  -4.563   1.516  0.00  0.00     0.041 A 
ENDBRANCH  19  20
ENDBRANCH   2  19
TORSDOF 5
