REMARK  4 active torsions:
REMARK  status: ('A' for Active; 'I' for Inactive)
REMARK    1  A    between atoms: C_2  and  C_1 
REMARK    2  A    between atoms: C_16  and  C_7 
REMARK    3  A    between atoms: C_13  and  C_8 
REMARK    4  A    between atoms: C_14  and  C_15 
ROOT
ATOM      1  C   UNL d   1       0.264  -2.692  -0.051  0.00  0.00     0.054 A 
ATOM      2  N   UNL d   1       0.991  -3.270   0.972  0.00  0.00    -0.349 N 
ATOM      3  HN  UNL d   1       1.285  -2.787   1.821  1.00  0.00     0.166 HD
ATOM      4  C   UNL d   1       1.252  -4.534   0.697  0.00  0.00     0.084 A 
ATOM      5  S   UNL d   1       0.532  -5.106  -0.768  0.00  0.00    -0.081 SA
ATOM      6  C   UNL d   1      -0.092  -3.547  -1.071  0.00  0.00     0.082 A 
ENDROOT
BRANCH   1   7
ATOM      7  C   UNL d   1      -0.057  -1.270   0.020  0.00  0.00     0.052 A 
ATOM      8  C   UNL d   1       0.758  -0.213   0.532  0.00  0.00     0.080 A 
ATOM      9  N   UNL d   1       0.089   0.953   0.445  0.00  0.00    -0.259 N 
ATOM     10  O   UNL d   1      -1.123   0.674  -0.146  0.00  0.00    -0.241 OA
ATOM     11  HN  UNL d   1       0.417   1.867   0.757  1.00  0.00     0.195 HD
ATOM     12  C   UNL d   1      -1.208  -0.653  -0.413  0.00  0.00     0.087 A 
ATOM     13  C   UNL d   1      -2.453  -1.110  -1.060  0.00  0.00     0.080 C 
BRANCH   8  14
ATOM     14  C   UNL d   1       2.127  -0.235   1.062  0.00  0.00    -0.007 A 
ATOM     15  C   UNL d   1       2.503   0.643   2.090  0.00  0.00     0.014 A 
ATOM     16  C   UNL d   1       3.801   0.621   2.610  0.00  0.00     0.001 A 
ATOM     17  C   UNL d   1       4.739  -0.280   2.110  0.00  0.00     0.000 A 
ATOM     18  C   UNL d   1       4.388  -1.142   1.074  0.00  0.00     0.001 A 
ATOM     19  C   UNL d   1       3.097  -1.105   0.543  0.00  0.00     0.014 A 
ENDBRANCH   8  14
ENDBRANCH   1   7
BRANCH   4  20
ATOM     20  C   UNL d   1       2.048  -5.438   1.545  0.00  0.00    -0.002 A 
ATOM     21  C   UNL d   1       2.121  -5.232   2.927  0.00  0.00     0.015 A 
ATOM     22  C   UNL d   1       2.828  -6.123   3.752  0.00  0.00     0.009 A 
ATOM     23  C   UNL d   1       3.502  -7.240   3.223  0.00  0.00    -0.051 A 
ATOM     24  C   UNL d   1       3.460  -7.408   1.833  0.00  0.00     0.009 A 
ATOM     25  C   UNL d   1       2.751  -6.526   1.011  0.00  0.00     0.015 A 
BRANCH  23  26
ATOM     26  C   UNL d   1       4.256  -8.220   4.140  0.00  0.00    -0.024 C 
ATOM     27  C   UNL d   1       4.931  -9.381   3.372  0.00  0.00     0.019 C 
ATOM     28  C   UNL d   1       5.364  -7.471   4.906  0.00  0.00     0.019 C 
ATOM     29  C   UNL d   1       3.281  -8.858   5.153  0.00  0.00     0.019 C 
ENDBRANCH  23  26
ENDBRANCH   4  20
TORSDOF 4
