REMARK  7 active torsions:
REMARK  status: ('A' for Active; 'I' for Inactive)
REMARK    1  A    between atoms: C_8  and  N_1 
REMARK    2  A    between atoms: S_7  and  C_2 
REMARK    3  A    between atoms: C_19  and  S_7 
REMARK    4  A    between atoms: C_9  and  C_19 
REMARK       I    between atoms: N_10  and  C_9 
REMARK    5  A    between atoms: C_22  and  N_10 
REMARK    6  A    between atoms: N_12  and  C_11 
REMARK    7  A    between atoms: C_23  and  C_13 
ROOT
ATOM      1  N   UNL d   1       3.474   0.661  -1.288  0.00  0.00    -0.219 N 
ATOM      2  C   UNL d   1       3.387  -0.609  -0.741  0.00  0.00     0.177 C 
ATOM      3  N   UNL d   1       4.371  -0.777   0.109  0.00  0.00    -0.264 N 
ATOM      4  HN  UNL d   1       4.535  -1.586   0.708  1.00  0.00     0.186 HD
ATOM      5  N   UNL d   1       5.134   0.361   0.026  0.00  0.00    -0.006 NA
ATOM      6  N   UNL d   1       4.644   1.202  -0.874  0.00  0.00     0.001 NA
ENDROOT
BRANCH   2   7
ATOM      7  S   UNL d   1       2.377  -1.867  -1.383  0.00  0.00    -0.082 SA
BRANCH   7   8
ATOM      8  C   UNL d   1       2.530  -3.164  -0.145  0.00  0.00     0.185 C 
BRANCH   8   9
ATOM      9  C   UNL d   1       3.893  -3.822  -0.028  0.00  0.00     0.231 C 
ATOM     10  N   UNL d   1       4.710  -3.737  -1.145  0.00  0.00    -0.327 N 
ATOM     11  H   UNL d   1       4.424  -3.083  -1.864  0.00  0.00     0.169 HD
ATOM     12  O   UNL d   1       4.147  -4.450   0.997  0.00  0.00    -0.272 OA
BRANCH  10  13
ATOM     13  C   UNL d   1       5.941  -4.395  -1.347  0.00  0.00     0.034 A 
ATOM     14  C   UNL d   1       6.432  -5.370  -0.481  0.00  0.00     0.030 A 
ATOM     15  C   UNL d   1       7.621  -6.042  -0.762  0.00  0.00     0.010 A 
ATOM     16  C   UNL d   1       8.355  -5.755  -1.918  0.00  0.00    -0.055 A 
ATOM     17  C   UNL d   1       7.881  -4.753  -2.773  0.00  0.00     0.010 A 
ATOM     18  C   UNL d   1       6.683  -4.080  -2.491  0.00  0.00     0.030 A 
BRANCH  16  19
ATOM     19  C   UNL d   1       9.605  -6.545  -2.256  0.00  0.00     0.010 C 
ATOM     20  C   UNL d   1      10.675  -6.424  -1.167  0.00  0.00     0.015 C 
ATOM     21  C   UNL d   1       9.254  -8.016  -2.508  0.00  0.00     0.015 C 
ENDBRANCH  16  19
ENDBRANCH  10  13
ENDBRANCH   8   9
ENDBRANCH   7   8
ENDBRANCH   2   7
BRANCH   1  22
ATOM     22  C   UNL d   1       2.601   1.326  -2.173  0.00  0.00     0.057 A 
ATOM     23  C   UNL d   1       1.225   1.115  -2.095  0.00  0.00     0.033 A 
ATOM     24  C   UNL d   1       0.379   1.694  -3.042  0.00  0.00     0.031 A 
ATOM     25  C   UNL d   1       0.864   2.474  -4.103  0.00  0.00     0.029 A 
ATOM     26  C   UNL d   1       2.247   2.723  -4.113  0.00  0.00     0.031 A 
ATOM     27  C   UNL d   1       3.112   2.180  -3.150  0.00  0.00     0.033 A 
BRANCH  25  28
ATOM     28  N   UNL d   1      -0.016   3.001  -5.041  0.00  0.00    -0.390 N 
ATOM     29  C   UNL d   1      -1.118   2.169  -5.531  0.00  0.00     0.149 C 
ATOM     30  C   UNL d   1       0.397   4.064  -5.950  0.00  0.00     0.149 C 
ENDBRANCH  25  28
ENDBRANCH   1  22
TORSDOF 7
