REMARK  3 active torsions:
REMARK  status: ('A' for Active; 'I' for Inactive)
REMARK    1  A    between atoms: C_9  and  N_3 
REMARK    2  A    between atoms: N_4  and  C_10 
REMARK    3  A    between atoms: C_12  and  C_6 
ROOT
ATOM      1  N   UNL d   1       1.184   0.638   0.111  0.00  0.00    -0.290 N 
ATOM      2  HN  UNL d   1       2.084   1.105   0.222  1.00  0.00     0.187 HD
ATOM      3  N   UNL d   1       1.099  -0.748   0.104  0.00  0.00    -0.220 N 
ATOM      4  C   UNL d   1      -0.109  -1.438  -0.046  0.00  0.00     0.266 A 
ATOM      5  C   UNL d   1       0.091   1.326  -0.027  0.00  0.00     0.059 A 
ATOM      6  C   UNL d   1      -1.319  -0.602  -0.168  0.00  0.00     0.079 A 
ATOM      7  C   UNL d   1      -1.253   0.726  -0.157  0.00  0.00     0.037 A 
ATOM      8  O   UNL d   1      -0.285  -2.656  -0.044  0.00  0.00    -0.266 OA
ENDROOT
BRANCH   3   9
ATOM      9  C   UNL d   1       2.352  -1.421   0.309  0.00  0.00     0.060 A 
ATOM     10  C   UNL d   1       2.552  -2.756  -0.083  0.00  0.00     0.034 A 
ATOM     11  C   UNL d   1       3.736  -3.440   0.219  0.00  0.00     0.038 A 
ATOM     12  C   UNL d   1       4.745  -2.787   0.927  0.00  0.00     0.103 A 
ATOM     13  C   UNL d   1       4.598  -1.442   1.282  0.00  0.00     0.038 A 
ATOM     14  C   UNL d   1       3.415  -0.764   0.958  0.00  0.00     0.034 A 
BRANCH  12  15
ATOM     15  N   UNL d   1       5.952  -3.526   1.318  0.00  0.00    -0.116 N 
ATOM     16  O   UNL d   1       6.799  -2.927   1.998  0.00  0.00    -0.532 OA
ATOM     17  O   UNL d   1       6.052  -4.706   0.953  0.00  0.00    -0.532 OA
ENDBRANCH  12  15
ENDBRANCH   3   9
BRANCH   5  18
ATOM     18  C   UNL d   1       0.159   2.816  -0.115  0.00  0.00    -0.008 A 
ATOM     19  C   UNL d   1       1.266   3.400  -0.750  0.00  0.00     0.017 A 
ATOM     20  C   UNL d   1       1.330   4.786  -0.917  0.00  0.00     0.043 A 
ATOM     21  C   UNL d   1       0.296   5.585  -0.442  0.00  0.00     0.116 A 
ATOM     22  C   UNL d   1      -0.795   5.026   0.211  0.00  0.00     0.043 A 
ATOM     23  F   UNL d   1       0.352   6.911  -0.616  0.00  0.00    -0.206 F 
ATOM     24  C   UNL d   1      -0.864   3.640   0.383  0.00  0.00     0.017 A 
ENDBRANCH   5  18
TORSDOF 3
