REMARK  6 active torsions:
REMARK  status: ('A' for Active; 'I' for Inactive)
REMARK    1  A    between atoms: S_2  and  C_1 
REMARK    2  A    between atoms: C_13  and  S_2 
REMARK    3  A    between atoms: S_17  and  C_3 
REMARK    4  A    between atoms: C_7  and  C_5 
REMARK       I    between atoms: N_9  and  C_7 
REMARK    5  A    between atoms: C_8  and  C_10 
REMARK    6  A    between atoms: C_14  and  N_9 
ROOT
ATOM      1  C   UNL d   1      -0.022  -2.557   0.023  0.00  0.00     0.263 C 
ATOM      2  N   UNL d   1      -1.363  -2.911   0.015  0.00  0.00    -0.322 N 
ATOM      3  O   UNL d   1       0.900  -3.366   0.005  0.00  0.00    -0.267 OA
ATOM      4  H   UNL d   1      -2.027  -2.150  -0.063  0.00  0.00     0.169 HD
ENDROOT
BRANCH   1   5
ATOM      5  C   UNL d   1       0.274  -1.128   0.025  0.00  0.00     0.075 A 
ATOM      6  C   UNL d   1       1.544  -0.594  -0.016  0.00  0.00     0.050 A 
ATOM      7  C   UNL d   1       1.569   0.832   0.105  0.00  0.00     0.084 A 
ATOM      8  C   UNL d   1       0.291   1.360   0.170  0.00  0.00     0.063 A 
ATOM      9  S   UNL d   1      -0.897   0.103   0.107  0.00  0.00    -0.076 SA
BRANCH   7  10
ATOM     10  S   UNL d   1       3.082   1.680   0.221  0.00  0.00     0.180 S 
ATOM     11  O   UNL d   1       4.091   0.641   0.207  0.00  0.00    -0.222 OA
ATOM     12  O   UNL d   1       3.018   2.672  -0.831  0.00  0.00    -0.222 OA
BRANCH  10  13
ATOM     13  C   UNL d   1       3.080   2.471   1.832  0.00  0.00     0.105 C 
ATOM     14  C   UNL d   1       2.891   1.459   2.958  0.00  0.00     0.026 C 
ATOM     15  C   UNL d   1       4.384   3.243   2.021  0.00  0.00     0.026 C 
ENDBRANCH  10  13
ENDBRANCH   7  10
BRANCH   8  16
ATOM     16  S   UNL d   1      -0.268   3.012   0.414  0.00  0.00    -0.126 SA
ATOM     17  C   UNL d   1       0.331   3.875  -1.056  0.00  0.00     0.096 C 
ENDBRANCH   8  16
ENDBRANCH   1   5
BRANCH   2  18
ATOM     18  C   UNL d   1      -1.880  -4.226  -0.033  0.00  0.00     0.035 A 
ATOM     19  C   UNL d   1      -1.098  -5.372   0.152  0.00  0.00     0.045 A 
ATOM     20  C   UNL d   1      -1.638  -6.660   0.009  0.00  0.00     0.050 A 
ATOM     21  C   UNL d   1      -2.997  -6.793  -0.303  0.00  0.00     0.016 A 
ATOM     22  C   UNL d   1      -3.797  -5.660  -0.445  0.00  0.00     0.003 A 
ATOM     23  C   UNL d   1      -3.244  -4.383  -0.301  0.00  0.00     0.029 A 
BRANCH  20  24
ATOM     24  C   UNL d   1      -0.763  -7.881   0.154  0.00  0.00     0.417 C 
ATOM     25  F   UNL d   1       0.498  -7.610   0.592  0.00  0.00    -0.166 F 
ATOM     26  F   UNL d   1      -1.273  -8.786   1.036  0.00  0.00    -0.166 F 
ATOM     27  F   UNL d   1      -0.614  -8.552  -1.022  0.00  0.00    -0.166 F 
ENDBRANCH  20  24
ENDBRANCH   2  18
TORSDOF 6
