REMARK  2 active torsions:
REMARK  status: ('A' for Active; 'I' for Inactive)
REMARK    1  A    between atoms: C_2  and  C_1 
REMARK       I    between atoms: N_10  and  C_2 
REMARK    2  A    between atoms: C_15  and  N_10 
ROOT
ATOM      1  C   UNL d   1      -0.070   2.357   0.262  0.00  0.00     0.260 C 
ATOM      2  N   UNL d   1      -1.187   3.159   0.094  0.00  0.00    -0.323 N 
ATOM      3  O   UNL d   1      -0.128   1.168   0.566  0.00  0.00    -0.267 OA
ATOM      4  H   UNL d   1      -1.043   4.122  -0.163  0.00  0.00     0.169 HD
ENDROOT
BRANCH   2   5
ATOM      5  C   UNL d   1      -2.539   2.724   0.124  0.00  0.00     0.036 A 
ATOM      6  C   UNL d   1      -2.924   1.398   0.346  0.00  0.00     0.048 A 
ATOM      7  C   UNL d   1      -4.264   1.069   0.220  0.00  0.00     0.050 A 
ATOM      8  C   UNL d   1      -4.883  -0.246   0.342  0.00  0.00     0.294 A 
ATOM      9  C   UNL d   1      -5.233   1.994  -0.092  0.00  0.00    -0.018 A 
ATOM     10  O   UNL d   1      -6.213  -0.070   0.078  0.00  0.00    -0.313 OA
ATOM     11  O   UNL d   1      -4.332  -1.291   0.617  0.00  0.00    -0.259 OA
ATOM     12  C   UNL d   1      -6.531   1.304  -0.229  0.00  0.00     0.218 A 
ATOM     13  C   UNL d   1      -4.894   3.324  -0.255  0.00  0.00     0.012 A 
ATOM     14  C   UNL d   1      -3.540   3.685  -0.145  0.00  0.00     0.030 A 
ENDBRANCH   2   5
BRANCH   1  15
ATOM     15  C   UNL d   1       1.236   2.966   0.029  0.00  0.00     0.087 A 
ATOM     16  C   UNL d   1       2.395   2.207  -0.054  0.00  0.00     0.090 A 
ATOM     17  O   UNL d   1       3.460   3.007  -0.290  0.00  0.00    -0.242 OA
ATOM     18  C   UNL d   1       2.683   0.760   0.053  0.00  0.00     0.080 C 
ATOM     19  N   UNL d   1       3.042   4.314  -0.361  0.00  0.00    -0.265 N 
ATOM     20  C   UNL d   1       1.719   4.296  -0.155  0.00  0.00     0.047 A 
ATOM     21  HN  UNL d   1       3.624   5.134  -0.535  1.00  0.00     0.194 HD
ATOM     22  C   UNL d   1       1.023   5.606  -0.149  0.00  0.00     0.071 C 
ENDBRANCH   1  15
TORSDOF 2
