REMARK  8 active torsions:
REMARK  status: ('A' for Active; 'I' for Inactive)
REMARK    1  A    between atoms: C_9  and  N_1 
REMARK    2  A    between atoms: C_11  and  C_2 
REMARK    3  A    between atoms: S_8  and  C_5 
REMARK    4  A    between atoms: C_12  and  S_8 
REMARK    5  A    between atoms: C_14  and  C_9 
REMARK    6  A    between atoms: C_10  and  C_12 
REMARK    7  A    between atoms: O_16  and  C_14 
REMARK    8  A    between atoms: O_17  and  C_14 
ROOT
ATOM      1  N   UNL d   1      -0.274  -1.116  -0.228  0.00  0.00    -0.306 N 
ATOM      2  C   UNL d   1       0.921  -0.448  -0.497  0.00  0.00     0.134 C 
ATOM      3  N   UNL d   1       0.645   0.842  -0.610  0.00  0.00    -0.283 N 
ATOM      4  HN  UNL d   1       1.307   1.568  -0.884  1.00  0.00     0.188 HD
ATOM      5  C   UNL d   1      -1.199  -0.124  -0.024  0.00  0.00     0.163 C 
ATOM      6  N   UNL d   1      -0.671   1.043  -0.298  0.00  0.00    -0.278 N 
ATOM      7  HN  UNL d   1      -1.155   1.941  -0.282  1.00  0.00     0.189 HD
ENDROOT
BRANCH   5   8
ATOM      8  S   UNL d   1      -2.786  -0.356   0.621  0.00  0.00    -0.088 SA
BRANCH   8   9
ATOM      9  C   UNL d   1      -3.534   1.278   0.338  0.00  0.00     0.122 C 
BRANCH   9  10
ATOM     10  C   UNL d   1      -4.929   1.344   0.924  0.00  0.00    -0.027 A 
ATOM     11  C   UNL d   1      -6.092   1.099   0.180  0.00  0.00     0.041 A 
ATOM     12 CL   UNL d   1      -6.037   0.696  -1.501  0.00  0.00    -0.084 Cl
ATOM     13  C   UNL d   1      -7.355   1.170   0.779  0.00  0.00     0.024 A 
ATOM     14  C   UNL d   1      -7.473   1.468   2.136  0.00  0.00     0.002 A 
ATOM     15  C   UNL d   1      -6.330   1.695   2.896  0.00  0.00     0.001 A 
ATOM     16  C   UNL d   1      -5.070   1.636   2.296  0.00  0.00     0.009 A 
ENDBRANCH   9  10
ENDBRANCH   8   9
ENDBRANCH   5   8
BRANCH   1  17
ATOM     17  C   UNL d   1      -0.405  -2.549  -0.086  0.00  0.00     0.193 C 
BRANCH  17  18
ATOM     18  C   UNL d   1      -1.700  -3.265  -0.503  0.00  0.00     0.276 C 
BRANCH  18  19
ATOM     19  O   UNL d   1      -1.910  -3.031  -1.897  0.00  0.00    -0.364 OA
ATOM     20  C   UNL d   1      -3.182  -3.500  -2.329  0.00  0.00     0.204 C 
ENDBRANCH  18  19
BRANCH  18  21
ATOM     21  O   UNL d   1      -1.571  -4.680  -0.281  0.00  0.00    -0.364 OA
ATOM     22  C   UNL d   1      -1.500  -5.042   1.091  0.00  0.00     0.204 C 
ENDBRANCH  18  21
ENDBRANCH  17  18
ENDBRANCH   1  17
BRANCH   2  23
ATOM     23  C   UNL d   1       2.269  -1.021  -0.661  0.00  0.00     0.009 A 
ATOM     24  C   UNL d   1       3.160  -0.417  -1.562  0.00  0.00     0.015 A 
ATOM     25  C   UNL d   1       4.443  -0.935  -1.768  0.00  0.00     0.001 A 
ATOM     26  C   UNL d   1       4.858  -2.067  -1.073  0.00  0.00     0.000 A 
ATOM     27  C   UNL d   1       4.005  -2.658  -0.146  0.00  0.00     0.001 A 
ATOM     28  C   UNL d   1       2.731  -2.124   0.074  0.00  0.00     0.015 A 
ENDBRANCH   2  23
TORSDOF 8
