REMARK  6 active torsions:
REMARK  status: ('A' for Active; 'I' for Inactive)
REMARK    1  A    between atoms: C_2  and  C_1 
REMARK       I    between atoms: N_3  and  C_1 
REMARK       I    between atoms: C_4  and  N_3 
REMARK       I    between atoms: N_12  and  C_4 
REMARK    2  A    between atoms: C_5  and  C_8 
REMARK    3  A    between atoms: C_6  and  C_9 
REMARK    4  A    between atoms: O_27  and  C_7 
REMARK    5  A    between atoms: C_11  and  N_12 
REMARK    6  A    between atoms: O_29  and  C_13 
ROOT
ATOM      1  C   UNL d   1       1.286  -0.206   0.128  0.00  0.00     0.265 C 
ATOM      2  N   UNL d   1       0.410  -1.159   0.628  0.00  0.00    -0.275 N 
ATOM      3  C   UNL d   1      -0.852  -0.933   1.150  0.00  0.00     0.327 C 
ATOM      4  N   UNL d   1      -1.459   0.220   0.727  0.00  0.00    -0.309 N 
ATOM      5  O   UNL d   1       0.871   0.859  -0.319  0.00  0.00    -0.267 OA
ATOM      6  O   UNL d   1      -1.311  -1.740   1.955  0.00  0.00    -0.247 OA
ATOM      7  H   UNL d   1       0.828  -1.978   1.049  0.00  0.00     0.173 HD
ATOM      8  H   UNL d   1      -0.966   0.693  -0.030  0.00  0.00     0.170 HD
ENDROOT
BRANCH   4   9
ATOM      9  C   UNL d   1      -2.602   0.853   1.247  0.00  0.00     0.037 A 
ATOM     10  C   UNL d   1      -3.205   0.492   2.455  0.00  0.00     0.045 A 
ATOM     11  C   UNL d   1      -4.270   1.246   2.982  0.00  0.00     0.050 A 
ATOM     12  C   UNL d   1      -4.771   2.332   2.245  0.00  0.00     0.032 A 
ATOM     13  C   UNL d   1      -4.190   2.700   1.023  0.00  0.00     0.050 A 
ATOM     14  C   UNL d   1      -3.102   1.954   0.538  0.00  0.00     0.045 A 
BRANCH  11  15
ATOM     15  C   UNL d   1      -4.859   0.902   4.330  0.00  0.00     0.417 C 
ATOM     16  F   UNL d   1      -5.454   1.971   4.933  0.00  0.00    -0.166 F 
ATOM     17  F   UNL d   1      -5.816  -0.062   4.256  0.00  0.00    -0.166 F 
ATOM     18  F   UNL d   1      -3.932   0.451   5.220  0.00  0.00    -0.166 F 
ENDBRANCH  11  15
BRANCH  13  19
ATOM     19  C   UNL d   1      -4.727   3.869   0.233  0.00  0.00     0.417 C 
ATOM     20  F   UNL d   1      -5.361   4.791   1.009  0.00  0.00    -0.166 F 
ATOM     21  F   UNL d   1      -3.757   4.551  -0.435  0.00  0.00    -0.166 F 
ATOM     22  F   UNL d   1      -5.633   3.486  -0.707  0.00  0.00    -0.166 F 
ENDBRANCH  13  19
ENDBRANCH   4   9
BRANCH   1  23
ATOM     23  C   UNL d   1       2.772  -0.545   0.132  0.00  0.00     0.100 A 
ATOM     24  C   UNL d   1       3.646   0.143  -0.769  0.00  0.00     0.104 A 
ATOM     25  C   UNL d   1       5.035  -0.053  -0.647  0.00  0.00     0.045 A 
ATOM     26 BR   UNL d   1       6.404   0.738  -1.711  0.00  0.00    -0.048 Br
ATOM     27  C   UNL d   1       5.536  -0.936   0.316  0.00  0.00     0.025 A 
ATOM     28  C   UNL d   1       4.683  -1.656   1.144  0.00  0.00     0.039 A 
ATOM     29  C   UNL d   1       3.301  -1.482   1.056  0.00  0.00     0.086 A 
BRANCH  24  30
ATOM     30  O   UNL d   1       2.996   0.845  -1.749  0.00  0.00    -0.353 OA
ATOM     31  C   UNL d   1       3.611   1.895  -2.470  0.00  0.00     0.210 C 
ENDBRANCH  24  30
BRANCH  29  32
ATOM     32  O   UNL d   1       2.430  -2.175   1.861  0.00  0.00    -0.355 OA
ATOM     33  C   UNL d   1       2.918  -3.359   2.493  0.00  0.00     0.210 C 
ENDBRANCH  29  32
ENDBRANCH   1  23
TORSDOF 6
