REMARK  6 active torsions:
REMARK  status: ('A' for Active; 'I' for Inactive)
REMARK    1  A    between atoms: S_2  and  C_1 
REMARK    2  A    between atoms: C_5  and  C_1 
REMARK    3  A    between atoms: C_11  and  S_2 
REMARK    4  A    between atoms: N_4  and  C_3 
REMARK    5  A    between atoms: S_12  and  C_3 
REMARK    6  A    between atoms: N_6  and  C_5 
ROOT
ATOM      1  C   UNL d   1       0.937   0.062   0.047  0.00  0.00     0.154 C 
ATOM      2  C   UNL d   1       0.289  -0.341  -1.083  0.00  0.00     0.099 C 
ENDROOT
BRANCH   1   3
ATOM      3  S   UNL d   1       0.180   0.713   1.464  0.00  0.00     0.190 S 
ATOM      4  O   UNL d   1       1.201   0.936   2.475  0.00  0.00    -0.221 OA
ATOM      5  O   UNL d   1      -0.651   1.841   1.066  0.00  0.00    -0.221 OA
BRANCH   3   6
ATOM      6  C   UNL d   1      -0.906  -0.560   2.129  0.00  0.00     0.106 C 
ATOM      7  C   UNL d   1      -0.164  -1.848   2.462  0.00  0.00     0.026 C 
ATOM      8  C   UNL d   1      -1.642  -0.029   3.362  0.00  0.00     0.026 C 
ENDBRANCH   3   6
ENDBRANCH   1   3
BRANCH   1   9
ATOM      9  C   UNL d   1       2.457   0.062   0.047  0.00  0.00    -0.022 C 
BRANCH   9  10
ATOM     10  N   UNL d   1       3.718   0.062   0.047  0.00  0.00    -0.365 N 
ATOM     11  HN2 UNL d   1       2.698   0.062   0.047  1.00  0.00     0.165 HD
ATOM     12  HN1 UNL d   1       4.738   0.062   0.047  1.00  0.00     0.165 HD
ENDBRANCH   9  10
ENDBRANCH   1   9
BRANCH   2  13
ATOM     13  N   UNL d   1       0.985  -0.794  -2.223  0.00  0.00    -0.370 N 
ATOM     14  C   UNL d   1       1.964   0.015  -2.985  0.00  0.00     0.149 C 
ATOM     15  C   UNL d   1       1.595   0.034  -4.478  0.00  0.00     0.187 C 
ATOM     16  O   UNL d   1       1.460  -1.293  -5.012  0.00  0.00    -0.388 OA
ATOM     17  C   UNL d   1       0.444  -2.021  -4.303  0.00  0.00     0.187 C 
ATOM     18  C   UNL d   1       0.779  -2.135  -2.811  0.00  0.00     0.149 C 
ENDBRANCH   2  13
BRANCH   2  19
ATOM     19  S   UNL d   1      -1.482  -0.403  -1.168  0.00  0.00    -0.115 SA
ATOM     20  C   UNL d   1      -1.809   0.863  -2.413  0.00  0.00     0.097 C 
ENDBRANCH   2  19
TORSDOF 6
