REMARK  1 active torsions:
REMARK  status: ('A' for Active; 'I' for Inactive)
REMARK    1  A    between atoms: C_2  and  C_1 
REMARK       I    between atoms: C_11  and  N_3 
ROOT
ATOM      1  C   UNL d   1       1.547  -1.119   0.074  0.00  0.00     0.091 A 
ATOM      2  N   UNL d   1       0.234  -0.655   0.194  0.00  0.00    -0.304 N 
ATOM      3  N   UNL d   1       1.528   1.173   0.071  0.00  0.00    -0.344 N 
ATOM      4  HN  UNL d   1       1.839   2.144   0.062  1.00  0.00     0.167 HD
ATOM      5  C   UNL d   1       2.314   0.048   0.062  0.00  0.00     0.036 A 
ATOM      6  C   UNL d   1       0.292   0.736   0.093  0.00  0.00     0.112 A 
ATOM      7  C   UNL d   1      -0.983  -1.324   0.382  0.00  0.00     0.099 A 
ATOM      8  C   UNL d   1      -0.937   1.456   0.050  0.00  0.00     0.049 A 
ATOM      9  C   UNL d   1      -2.142  -0.643   0.327  0.00  0.00     0.018 A 
ATOM     10  C   UNL d   1      -2.106   0.795   0.132  0.00  0.00     0.005 A 
ATOM     11  C   UNL d   1       3.787   0.224   0.004  0.00  0.00     0.070 C 
ENDROOT
BRANCH   1  12
ATOM     12  C   UNL d   1       2.007  -2.493   0.016  0.00  0.00     0.090 C 
ATOM     13  N   UNL d   1       1.370  -3.601  -0.556  0.00  0.00    -0.223 N 
ATOM     14  N   UNL d   1       2.048  -4.761  -0.289  0.00  0.00    -0.302 N 
ATOM     15  C   UNL d   1       0.223  -3.683  -1.364  0.00  0.00     0.239 C 
ATOM     16  C   UNL d   1       3.184  -4.364   0.275  0.00  0.00     0.110 C 
ATOM     17  HN  UNL d   1       1.748  -5.717  -0.481  1.00  0.00     0.186 HD
ATOM     18  C   UNL d   1       3.204  -2.985   0.510  0.00  0.00     0.052 C 
ATOM     19  O   UNL d   1      -0.139  -2.721  -2.037  0.00  0.00    -0.272 OA
ATOM     20  C   UNL d   1      -0.513  -4.990  -1.287  0.00  0.00     0.119 C 
ENDBRANCH   1  12
TORSDOF 1
