REMARK  2 active torsions:
REMARK  status: ('A' for Active; 'I' for Inactive)
REMARK    1  A    between atoms: C_11  and  C_3 
REMARK    2  A    between atoms: O_14  and  C_11 
ROOT
ATOM      1  C   UNL d   1      -0.190  -0.756  -0.027  0.00  0.00     0.068 A 
ATOM      2  S   UNL d   1       2.112  -0.031   0.013  0.00  0.00     0.068 SA
ATOM      3  C   UNL d   1      -2.585  -0.684  -0.041  0.00  0.00     0.040 A 
ATOM      4  C   UNL d   1      -0.170   0.751  -0.000  0.00  0.00     0.067 A 
ATOM      5  C   UNL d   1      -1.412  -1.467  -0.047  0.00  0.00     0.050 A 
ATOM      6  N   UNL d   1       1.037  -1.297  -0.026  0.00  0.00    -0.310 N 
ATOM      7  HN  UNL d   1       1.265  -2.291  -0.046  1.00  0.00     0.176 HD
ATOM      8  N   UNL d   1       1.069   1.264   0.016  0.00  0.00    -0.310 N 
ATOM      9  HN  UNL d   1       1.322   2.252   0.027  1.00  0.00     0.176 HD
ATOM     10  C   UNL d   1      -2.567   0.739   0.003  0.00  0.00     0.021 A 
ATOM     11  C   UNL d   1      -1.375   1.491   0.012  0.00  0.00     0.033 A 
ENDROOT
BRANCH   3  12
ATOM     12  C   UNL d   1      -3.874  -1.427  -0.024  0.00  0.00     0.176 C 
ATOM     13  O   UNL d   1      -3.998  -2.513   0.513  0.00  0.00    -0.646 OA
BRANCH  12  14
ATOM     14  O   UNL d   1      -4.875  -0.811  -0.686  0.00  0.00    -0.773 OA
ATOM     15  H   UNL d   1      -4.619  -0.046  -1.233  0.00  0.00     0.167 HD
ENDBRANCH  12  14
ENDBRANCH   3  12
TORSDOF 2
