REMARK  7 active torsions:
REMARK  status: ('A' for Active; 'I' for Inactive)
REMARK    1  A    between atoms: C_2  and  S_1 
REMARK    2  A    between atoms: C_7  and  S_1 
REMARK    3  A    between atoms: C_3  and  C_2 
REMARK    4  A    between atoms: N_15  and  C_3 
REMARK    5  A    between atoms: C_4  and  O_8 
REMARK    6  A    between atoms: C_11  and  C_4 
REMARK    7  A    between atoms: O_8  and  N_5 
ROOT
ATOM      1  C   UNL d   1       0.829   1.661  -2.064  0.00  0.00     0.110 C 
ATOM      2  N   UNL d   1       1.596   2.432  -1.355  0.00  0.00    -0.245 N 
ATOM      3  HN  UNL d   1       1.962   3.325  -1.684  1.00  0.00     0.196 HD
ENDROOT
BRANCH   1   4
ATOM      4  C   UNL d   1       0.542   2.113  -3.473  0.00  0.00     0.223 C 
BRANCH   4   5
ATOM      5  S   UNL d   1      -0.945   3.051  -3.594  0.00  0.00     0.182 S 
ATOM      6  O   UNL d   1      -2.023   2.290  -2.989  0.00  0.00    -0.222 OA
ATOM      7  O   UNL d   1      -1.070   3.475  -4.981  0.00  0.00    -0.222 OA
BRANCH   5   8
ATOM      8  C   UNL d   1      -0.716   4.531  -2.636  0.00  0.00     0.059 A 
ATOM      9  C   UNL d   1      -0.129   5.652  -3.233  0.00  0.00     0.025 A 
ATOM     10  C   UNL d   1      -0.076   6.859  -2.530  0.00  0.00     0.025 A 
ATOM     11  C   UNL d   1      -0.617   6.940  -1.247  0.00  0.00     0.034 A 
ATOM     12  C   UNL d   1      -1.202   5.821  -0.653  0.00  0.00     0.025 A 
ATOM     13 CL   UNL d   1      -0.594   8.439  -0.403  0.00  0.00    -0.084 Cl
ATOM     14  C   UNL d   1      -1.257   4.611  -1.349  0.00  0.00     0.025 A 
ENDBRANCH   5   8
ENDBRANCH   4   5
ENDBRANCH   1   4
BRANCH   1  15
ATOM     15  N   UNL d   1       0.321   0.465  -1.638  0.00  0.00    -0.387 N 
ATOM     16  H   UNL d   1      -0.149  -0.173  -2.274  0.00  0.00     0.157 HD
ATOM     17  H   UNL d   1       0.670   0.074  -0.773  0.00  0.00     0.157 HD
ENDBRANCH   1  15
BRANCH   2  18
ATOM     18  O   UNL d   1       1.867   1.891  -0.074  0.00  0.00    -0.197 OA
BRANCH  18  19
ATOM     19  C   UNL d   1       2.700   2.741   0.618  0.00  0.00     0.288 C 
ATOM     20  O   UNL d   1       3.110   3.825   0.206  0.00  0.00    -0.262 OA
BRANCH  19  21
ATOM     21  C   UNL d   1       3.104   2.182   1.993  0.00  0.00     0.039 C 
ATOM     22  C   UNL d   1       2.428   0.850   2.345  0.00  0.00     0.025 C 
ATOM     23  C   UNL d   1       4.629   1.987   1.996  0.00  0.00     0.025 C 
ATOM     24  C   UNL d   1       2.729   3.221   3.062  0.00  0.00     0.025 C 
ENDBRANCH  19  21
ENDBRANCH  18  19
ENDBRANCH   2  18
TORSDOF 7
