REMARK  5 active torsions:
REMARK  status: ('A' for Active; 'I' for Inactive)
REMARK    1  A    between atoms: C_7  and  C_1 
REMARK    2  A    between atoms: C_8  and  N_2 
REMARK    3  A    between atoms: C_9  and  C_6 
REMARK       I    between atoms: N_11  and  C_7 
REMARK    4  A    between atoms: C_12  and  C_8 
REMARK    5  A    between atoms: N_14  and  N_11 
ROOT
ATOM      1  C   UNL d   1      -0.593  -1.130   0.362  0.00  0.00     0.122 A 
ATOM      2  N   UNL d   1       0.707  -0.731   0.145  0.00  0.00    -0.282 N 
ATOM      3  N   UNL d   1       0.830   0.611  -0.012  0.00  0.00    -0.301 N 
ATOM      4  HN  UNL d   1       1.689   1.144  -0.151  1.00  0.00     0.187 HD
ATOM      5  C   UNL d   1      -1.339   0.028   0.235  0.00  0.00     0.064 A 
ATOM      6  C   UNL d   1      -0.418   1.082   0.055  0.00  0.00     0.036 A 
ENDROOT
BRANCH   2   7
ATOM      7  C   UNL d   1       1.896  -1.562  -0.035  0.00  0.00     0.188 C 
BRANCH   7   8
ATOM      8  C   UNL d   1       2.674  -1.824   1.235  0.00  0.00    -0.038 A 
ATOM      9  C   UNL d   1       2.933  -3.146   1.638  0.00  0.00     0.012 A 
ATOM     10  C   UNL d   1       3.770  -3.408   2.727  0.00  0.00     0.043 A 
ATOM     11  C   UNL d   1       4.344  -2.349   3.421  0.00  0.00     0.116 A 
ATOM     12  C   UNL d   1       4.082  -1.034   3.058  0.00  0.00     0.043 A 
ATOM     13  F   UNL d   1       5.168  -2.602   4.445  0.00  0.00    -0.206 F 
ATOM     14  C   UNL d   1       3.251  -0.771   1.966  0.00  0.00     0.012 A 
ENDBRANCH   7   8
ENDBRANCH   2   7
BRANCH   1  15
ATOM     15  C   UNL d   1      -1.052  -2.470   0.633  0.00  0.00     0.283 C 
ATOM     16  O   UNL d   1      -0.443  -3.491   0.314  0.00  0.00    -0.265 OA
ATOM     17  N   UNL d   1      -2.277  -2.511   1.303  0.00  0.00    -0.288 N 
ATOM     18  H   UNL d   1      -2.605  -1.659   1.754  0.00  0.00     0.183 HD
BRANCH  17  19
ATOM     19  N   UNL d   1      -2.840  -3.737   1.714  0.00  0.00    -0.247 NA
ATOM     20  H   UNL d   1      -2.278  -4.489   1.287  0.00  0.00     0.143 HD
ATOM     21  H   UNL d   1      -3.765  -3.824   1.288  0.00  0.00     0.143 HD
ENDBRANCH  17  19
ENDBRANCH   1  15
BRANCH   6  22
ATOM     22  C   UNL d   1      -0.737   2.565  -0.019  0.00  0.00    -0.007 C 
ATOM     23  C   UNL d   1      -1.448   2.993   1.283  0.00  0.00     0.021 C 
ATOM     24  C   UNL d   1       0.529   3.429  -0.181  0.00  0.00     0.021 C 
ATOM     25  C   UNL d   1      -1.672   2.856  -1.212  0.00  0.00     0.021 C 
ENDBRANCH   6  22
TORSDOF 5
