REMARK  2 active torsions:
REMARK  status: ('A' for Active; 'I' for Inactive)
REMARK    1  A    between atoms: C_12  and  C_4 
REMARK    2  A    between atoms: N_7  and  C_11 
ROOT
ATOM      1  C   UNL d   1      -1.136  -0.855   0.076  0.00  0.00     0.048 A 
ATOM      2  C   UNL d   1      -0.700   0.406   0.066  0.00  0.00     0.058 A 
ATOM      3  C   UNL d   1       0.035  -1.744   0.098  0.00  0.00     0.194 A 
ATOM      4  C   UNL d   1      -2.564  -1.231   0.010  0.00  0.00     0.157 C 
ATOM      5  N   UNL d   1      -1.570   1.447   0.029  0.00  0.00    -0.332 N 
ATOM      6  C   UNL d   1      -2.925   1.264   0.047  0.00  0.00     0.173 C 
ATOM      7  C   UNL d   1       0.745   0.453   0.057  0.00  0.00     0.006 A 
ATOM      8  N   UNL d   1      -3.387  -0.020   0.100  0.00  0.00    -0.354 N 
ATOM      9  C   UNL d   1       1.208  -0.865   0.067  0.00  0.00     0.027 A 
ATOM     10  S   UNL d   1      -3.974   2.552   0.015  0.00  0.00    -0.041 SA
ATOM     11  O   UNL d   1       0.030  -2.954   0.141  0.00  0.00    -0.287 OA
ATOM     12  C   UNL d   1       1.644   1.503   0.025  0.00  0.00     0.014 A 
ATOM     13  C   UNL d   1       2.551  -1.191   0.041  0.00  0.00     0.016 A 
ATOM     14  C   UNL d   1       3.013   1.200   0.003  0.00  0.00     0.001 A 
ATOM     15  C   UNL d   1       3.462  -0.134   0.009  0.00  0.00     0.001 A 
ATOM     16  H   UNL d   1      -1.230   2.402   0.003  0.00  0.00     0.168 HD
ATOM     17  H   UNL d   1      -4.392  -0.136   0.092  0.00  0.00     0.163 HD
ENDROOT
BRANCH   4  18
ATOM     18  C   UNL d   1      -2.908  -1.992  -1.260  0.00  0.00    -0.031 A 
ATOM     19  C   UNL d   1      -3.391  -3.309  -1.188  0.00  0.00     0.012 A 
ATOM     20  C   UNL d   1      -3.591  -4.059  -2.350  0.00  0.00     0.037 A 
ATOM     21  C   UNL d   1      -3.307  -3.488  -3.598  0.00  0.00     0.102 A 
ATOM     22  C   UNL d   1      -2.882  -2.158  -3.692  0.00  0.00     0.037 A 
ATOM     23  C   UNL d   1      -2.691  -1.416  -2.527  0.00  0.00     0.012 A 
BRANCH  21  24
ATOM     24  N   UNL d   1      -3.415  -4.302  -4.814  0.00  0.00    -0.116 N 
ATOM     25  O   UNL d   1      -3.087  -3.778  -5.889  0.00  0.00    -0.532 OA
ATOM     26  O   UNL d   1      -3.817  -5.468  -4.695  0.00  0.00    -0.532 OA
ENDBRANCH  21  24
ENDBRANCH   4  18
TORSDOF 2
