REMARK  4 active torsions:
REMARK  status: ('A' for Active; 'I' for Inactive)
REMARK    1  A    between atoms: C_2  and  S_1 
REMARK    2  A    between atoms: N_5  and  S_1 
REMARK    3  A    between atoms: C_9  and  N_5 
REMARK    4  A    between atoms: N_13  and  C_12 
ROOT
ATOM      1  S   UNL d   1       1.230  -0.306   0.083  0.00  0.00     0.264 S 
ATOM      2  O   UNL d   1       1.776   1.033   0.179  0.00  0.00    -0.200 OA
ATOM      3  O   UNL d   1       2.074  -1.399   0.517  0.00  0.00    -0.200 OA
ENDROOT
BRANCH   1   4
ATOM      4  C   UNL d   1       0.587  -0.555  -1.610  0.00  0.00     0.092 A 
ATOM      5  C   UNL d   1       0.065   0.579  -2.318  0.00  0.00    -0.032 A 
ATOM      6  C   UNL d   1      -0.418   0.417  -3.648  0.00  0.00    -0.048 A 
ATOM      7  C   UNL d   1      -0.000   1.978  -1.737  0.00  0.00     0.050 C 
ATOM      8  C   UNL d   1      -0.882   1.599  -4.483  0.00  0.00     0.049 C 
ATOM      9  C   UNL d   1      -0.503  -0.875  -4.223  0.00  0.00    -0.049 A 
ATOM     10  C   UNL d   1      -0.037  -2.002  -3.504  0.00  0.00    -0.048 A 
ATOM     11  C   UNL d   1      -1.118  -1.018  -5.603  0.00  0.00     0.049 C 
ATOM     12  C   UNL d   1       0.556  -1.850  -2.210  0.00  0.00    -0.032 A 
ATOM     13  C   UNL d   1      -0.189  -3.372  -4.144  0.00  0.00     0.049 C 
ATOM     14  C   UNL d   1       1.048  -3.121  -1.558  0.00  0.00     0.050 C 
ENDBRANCH   1   4
BRANCH   1  15
ATOM     15  N   UNL d   1      -0.177  -0.332   1.014  0.00  0.00    -0.279 N 
ATOM     16  H   UNL d   1      -0.627   0.575   1.082  0.00  0.00     0.179 HD
BRANCH  15  17
ATOM     17  C   UNL d   1      -1.034  -1.480   0.958  0.00  0.00     0.063 A 
ATOM     18  C   UNL d   1      -0.720  -2.653   1.676  0.00  0.00     0.033 A 
ATOM     19  C   UNL d   1      -1.630  -3.717   1.652  0.00  0.00     0.025 A 
ATOM     20  C   UNL d   1      -2.760  -3.671   0.833  0.00  0.00     0.002 A 
ATOM     21  C   UNL d   1      -3.018  -2.538   0.063  0.00  0.00     0.002 A 
ATOM     22  C   UNL d   1      -2.164  -1.437   0.135  0.00  0.00     0.032 A 
BRANCH  18  23
ATOM     23  N   UNL d   1       0.346  -2.680   2.600  0.00  0.00    -0.301 NA
ATOM     24  H   UNL d   1       1.103  -2.061   2.295  0.00  0.00     0.124 HD
ATOM     25  H   UNL d   1       0.695  -3.612   2.789  0.00  0.00     0.124 HD
ENDBRANCH  18  23
ENDBRANCH  15  17
ENDBRANCH   1  15
TORSDOF 4
