REMARK  2 active torsions:
REMARK  status: ('A' for Active; 'I' for Inactive)
REMARK    1  A    between atoms: C_3  and  N_1 
REMARK    2  A    between atoms: C_10  and  C_2 
REMARK       I    between atoms: N_15  and  C_10 
ROOT
ATOM      1  N   UNL d   1       1.006  -0.539   0.109  0.00  0.00    -0.257 N 
ATOM      2  C   UNL d   1      -0.294   1.283   0.143  0.00  0.00     0.073 A 
ATOM      3  C   UNL d   1       1.022   0.847  -0.019  0.00  0.00     0.048 A 
ATOM      4  N   UNL d   1      -0.260  -1.001   0.244  0.00  0.00    -0.304 N 
ATOM      5  HN  UNL d   1      -0.562  -1.973   0.309  1.00  0.00     0.186 HD
ATOM      6  C   UNL d   1      -1.023   0.086   0.274  0.00  0.00     0.126 A 
ATOM      7  C   UNL d   1       2.227   1.657  -0.359  0.00  0.00     0.071 C 
ENDROOT
BRANCH   1   8
ATOM      8  C   UNL d   1       2.091  -1.457   0.074  0.00  0.00     0.100 A 
ATOM      9  C   UNL d   1       3.250  -1.240   0.842  0.00  0.00     0.066 A 
ATOM     10  C   UNL d   1       4.361  -2.083   0.708  0.00  0.00     0.050 A 
ATOM     11 CL   UNL d   1       3.349  -0.084   2.127  0.00  0.00    -0.082 Cl
ATOM     12  C   UNL d   1       4.299  -3.184  -0.135  0.00  0.00     0.037 A 
ATOM     13  C   UNL d   1       3.131  -3.468  -0.831  0.00  0.00     0.050 A 
ATOM     14 CL   UNL d   1       5.667  -4.213  -0.300  0.00  0.00    -0.084 Cl
ATOM     15  C   UNL d   1       2.028  -2.609  -0.736  0.00  0.00     0.066 A 
ATOM     16 CL   UNL d   1       0.688  -3.024  -1.755  0.00  0.00    -0.082 Cl
ENDBRANCH   1   8
BRANCH   2  17
ATOM     17  C   UNL d   1      -0.752   2.669   0.136  0.00  0.00     0.254 C 
ATOM     18  O   UNL d   1       0.025   3.614   0.195  0.00  0.00    -0.268 OA
ATOM     19  N   UNL d   1      -2.121   2.836   0.059  0.00  0.00    -0.361 N 
ATOM     20  C   UNL d   1      -2.731   4.142   0.064  0.00  0.00     0.149 C 
ATOM     21  H   UNL d   1      -2.729   2.035  -0.014  0.00  0.00     0.162 HD
ENDBRANCH   2  17
TORSDOF 2
