REMARK  4 active torsions:
REMARK  status: ('A' for Active; 'I' for Inactive)
REMARK    1  A    between atoms: C_9  and  C_3 
REMARK    2  A    between atoms: C_7  and  C_4 
REMARK    3  A    between atoms: C_8  and  C_7 
REMARK    4  A    between atoms: O_11  and  C_8 
ROOT
ATOM      1  N   UNL d   1      -1.338   0.652   0.094  0.00  0.00    -0.337 N 
ATOM      2  HN  UNL d   1      -2.196   1.202   0.138  1.00  0.00     0.168 HD
ATOM      3  C   UNL d   1      -1.226  -0.660   0.036  0.00  0.00     0.158 A 
ATOM      4  C   UNL d   1      -0.035   1.120   0.081  0.00  0.00     0.050 A 
ATOM      5  O   UNL d   1       0.069  -1.097  -0.015  0.00  0.00    -0.296 OA
ATOM      6  C   UNL d   1       0.825   0.041  -0.005  0.00  0.00     0.074 A 
ATOM      7  C   UNL d   1       2.282  -0.173  -0.105  0.00  0.00     0.079 C 
ENDROOT
BRANCH   3   8
ATOM      8  C   UNL d   1      -2.261  -1.687  -0.040  0.00  0.00     0.015 A 
ATOM      9  C   UNL d   1      -3.611  -1.319  -0.118  0.00  0.00     0.016 A 
ATOM     10  C   UNL d   1      -4.612  -2.288  -0.229  0.00  0.00     0.001 A 
ATOM     11  C   UNL d   1      -4.272  -3.640  -0.257  0.00  0.00     0.000 A 
ATOM     12  C   UNL d   1      -2.937  -4.023  -0.173  0.00  0.00     0.001 A 
ATOM     13  C   UNL d   1      -1.939  -3.054  -0.065  0.00  0.00     0.016 A 
ENDBRANCH   3   8
BRANCH   4  14
ATOM     14  C   UNL d   1       0.188   2.590   0.051  0.00  0.00     0.169 C 
BRANCH  14  15
ATOM     15  C   UNL d   1       1.373   3.113   0.826  0.00  0.00     0.145 C 
ATOM     16  O   UNL d   1       2.221   2.451   1.403  0.00  0.00    -0.650 OA
BRANCH  15  17
ATOM     17  O   UNL d   1       1.435   4.471   0.807  0.00  0.00    -0.776 OA
ATOM     18  H   UNL d   1       0.700   4.905   0.333  0.00  0.00     0.167 HD
ENDBRANCH  15  17
ENDBRANCH  14  15
ENDBRANCH   4  14
TORSDOF 4
