REMARK  4 active torsions:
REMARK  status: ('A' for Active; 'I' for Inactive)
REMARK    1  A    between atoms: C_6  and  C_1 
REMARK    2  A    between atoms: C_10  and  C_3 
REMARK    3  A    between atoms: S_15  and  C_5 
REMARK       I    between atoms: N_8  and  C_6 
REMARK    4  A    between atoms: C_11  and  N_8 
ROOT
ATOM      1  C   UNL d   1       1.099  -1.228   0.079  0.00  0.00     0.086 A 
ATOM      2  C   UNL d   1      -0.776   0.148   0.364  0.00  0.00     0.081 A 
ATOM      3  C   UNL d   1      -0.279  -1.214   0.294  0.00  0.00     0.019 A 
ATOM      4  S   UNL d   1       1.721   0.367  -0.114  0.00  0.00    -0.075 SA
ATOM      5  C   UNL d   1       0.198   1.090   0.106  0.00  0.00     0.063 A 
ATOM      6  C   UNL d   1      -2.130   0.511   0.672  0.00  0.00     0.102 C 
ATOM      7  N   UNL d   1      -3.233   0.803   0.891  0.00  0.00    -0.191 NA
ENDROOT
BRANCH   3   8
ATOM      8  C   UNL d   1      -1.094  -2.425   0.496  0.00  0.00    -0.023 A 
ATOM      9  C   UNL d   1      -2.343  -2.541  -0.139  0.00  0.00     0.014 A 
ATOM     10  C   UNL d   1      -3.189  -3.622   0.131  0.00  0.00     0.024 A 
ATOM     11  C   UNL d   1      -2.779  -4.617   1.010  0.00  0.00     0.034 A 
ATOM     12  C   UNL d   1      -1.530  -4.540   1.621  0.00  0.00     0.024 A 
ATOM     13 CL   UNL d   1      -3.824  -5.940   1.354  0.00  0.00    -0.084 Cl
ATOM     14  C   UNL d   1      -0.698  -3.441   1.377  0.00  0.00     0.014 A 
ENDBRANCH   3   8
BRANCH   5  15
ATOM     15  S   UNL d   1       0.037   2.844   0.044  0.00  0.00    -0.126 SA
ATOM     16  C   UNL d   1      -0.925   3.040  -1.476  0.00  0.00     0.096 C 
ENDBRANCH   5  15
BRANCH   1  17
ATOM     17  C   UNL d   1       2.033  -2.347  -0.047  0.00  0.00     0.259 C 
ATOM     18  N   UNL d   1       3.310  -2.085   0.429  0.00  0.00    -0.352 N 
ATOM     19  H   UNL d   1       3.497  -1.156   0.788  0.00  0.00     0.163 HD
ATOM     20  O   UNL d   1       1.723  -3.443  -0.507  0.00  0.00    -0.267 OA
BRANCH  18  21
ATOM     21  C   UNL d   1       4.394  -3.010   0.345  0.00  0.00     0.084 A 
ATOM     22  C   UNL d   1       5.730  -2.682   0.956  0.00  0.00     0.027 A 
ATOM     23  C   UNL d   1       5.574  -2.703  -0.535  0.00  0.00     0.027 A 
ENDBRANCH  18  21
ENDBRANCH   1  17
TORSDOF 4
