REMARK  4 active torsions:
REMARK  status: ('A' for Active; 'I' for Inactive)
REMARK    1  A    between atoms: O_14  and  C_1 
REMARK    2  A    between atoms: N_3  and  C_2 
REMARK    3  A    between atoms: N_8  and  C_12 
REMARK    4  A    between atoms: C_11  and  O_14 
ROOT
ATOM      1  C   UNL d   1       4.222   2.241   1.011  0.00  0.00     0.138 A 
ATOM      2  C   UNL d   1       4.938   3.462   1.030  0.00  0.00     0.068 A 
ATOM      3  C   UNL d   1       4.376   1.342  -0.056  0.00  0.00     0.111 A 
ATOM      4  C   UNL d   1       5.834   3.788   0.012  0.00  0.00     0.032 A 
ATOM      5  C   UNL d   1       5.280   1.665  -1.069  0.00  0.00     0.042 A 
ATOM      6  C   UNL d   1       5.979   2.870  -1.037  0.00  0.00     0.032 A 
ENDROOT
BRANCH   3   7
ATOM      7  O   UNL d   1       3.727   0.129  -0.080  0.00  0.00    -0.285 OA
BRANCH   7   8
ATOM      8  C   UNL d   1       3.296  -0.399  -1.231  0.00  0.00     0.193 A 
ATOM      9  N   UNL d   1       2.951   0.323  -2.273  0.00  0.00    -0.328 N 
ATOM     10  C   UNL d   1       2.639  -0.498  -3.348  0.00  0.00     0.074 A 
ATOM     11  HN  UNL d   1       2.918   1.343  -2.290  1.00  0.00     0.168 HD
ATOM     12  C   UNL d   1       2.260  -0.119  -4.655  0.00  0.00     0.063 A 
ATOM     13  C   UNL d   1       2.736  -1.868  -3.081  0.00  0.00     0.039 A 
ATOM     14  C   UNL d   1       1.997  -1.058  -5.649  0.00  0.00     0.050 A 
ATOM     15 CL   UNL d   1       2.158   1.561  -4.960  0.00  0.00    -0.082 Cl
ATOM     16  C   UNL d   1       2.112  -2.407  -5.346  0.00  0.00     0.037 A 
ATOM     17  C   UNL d   1       2.481  -2.840  -4.067  0.00  0.00     0.045 A 
ATOM     18 CL   UNL d   1       1.798  -3.578  -6.569  0.00  0.00    -0.084 Cl
ATOM     19  S   UNL d   1       3.193  -2.093  -1.434  0.00  0.00    -0.044 SA
ENDBRANCH   7   8
ENDBRANCH   3   7
BRANCH   1  20
ATOM     20  N   UNL d   1       3.341   1.942   2.150  0.00  0.00    -0.113 N 
ATOM     21  O   UNL d   1       3.236   2.806   3.034  0.00  0.00    -0.532 OA
ATOM     22  O   UNL d   1       2.758   0.850   2.188  0.00  0.00    -0.532 OA
ENDBRANCH   1  20
BRANCH   4  23
ATOM     23  N   UNL d   1       6.580   4.953  -0.035  0.00  0.00    -0.376 N 
ATOM     24  C   UNL d   1       6.173   6.189   0.653  0.00  0.00     0.154 C 
ATOM     25  C   UNL d   1       6.880   7.387  -0.041  0.00  0.00     0.136 C 
ATOM     26  C   UNL d   1       6.597   8.698   0.676  0.00  0.00     0.041 C 
ATOM     27  O   UNL d   1       8.316   7.213  -0.073  0.00  0.00    -0.378 OA
ATOM     28  C   UNL d   1       8.665   5.999  -0.767  0.00  0.00     0.136 C 
ATOM     29  C   UNL d   1       8.048   4.784  -0.053  0.00  0.00     0.154 C 
ATOM     30  C   UNL d   1      10.180   5.885  -0.818  0.00  0.00     0.041 C 
ENDBRANCH   4  23
TORSDOF 4
