REMARK  4 active torsions:
REMARK  status: ('A' for Active; 'I' for Inactive)
REMARK    1  A    between atoms: N_5  and  C_1 
REMARK    2  A    between atoms: S_7  and  C_2 
REMARK    3  A    between atoms: C_8  and  S_7 
REMARK    4  A    between atoms: C_12  and  C_13 
ROOT
ATOM      1  C   UNL d   1       2.299  -3.049   0.016  0.00  0.00     0.151 A 
ATOM      2  N   UNL d   1       3.025  -3.564  -0.988  0.00  0.00    -0.335 N 
ATOM      3  HN  UNL d   1       2.585  -3.971  -1.813  1.00  0.00     0.168 HD
ATOM      4  C   UNL d   1       4.369  -3.518  -0.850  0.00  0.00     0.052 A 
ATOM      5  N   UNL d   1       2.806  -2.512   1.137  0.00  0.00    -0.346 N 
ATOM      6  HN  UNL d   1       2.207  -2.156   1.881  1.00  0.00     0.167 HD
ATOM      7  C   UNL d   1       4.986  -2.953   0.248  0.00  0.00     0.048 A 
ATOM      8  C   UNL d   1       4.145  -2.468   1.224  0.00  0.00     0.092 A 
ENDROOT
BRANCH   1   9
ATOM      9  S   UNL d   1       0.536  -2.987  -0.211  0.00  0.00    -0.032 SA
BRANCH   9  10
ATOM     10  C   UNL d   1       0.087  -4.439   0.628  0.00  0.00     0.131 A 
ATOM     11  C   UNL d   1      -0.218  -4.699   1.948  0.00  0.00     0.209 A 
ATOM     12  N   UNL d   1      -0.621  -6.012   2.124  0.00  0.00    -0.331 N 
ATOM     13  C   UNL d   1      -0.562  -6.540   0.923  0.00  0.00     0.185 A 
ATOM     14  HN  UNL d   1      -0.901  -6.467   2.993  1.00  0.00     0.168 HD
ATOM     15  N   UNL d   1      -0.105  -5.642  -0.011  0.00  0.00    -0.338 N 
ATOM     16  C   UNL d   1       0.098  -5.983  -1.399  0.00  0.00     0.158 C 
BRANCH  11  17
ATOM     17  N   UNL d   1      -0.225  -3.794   3.062  0.00  0.00    -0.095 N 
ATOM     18  O   UNL d   1      -0.849  -2.732   2.922  0.00  0.00    -0.530 OA
ATOM     19  O   UNL d   1       0.382  -4.152   4.082  0.00  0.00    -0.530 OA
ENDBRANCH  11  17
ENDBRANCH   9  10
ENDBRANCH   1   9
BRANCH   4  20
ATOM     20  C   UNL d   1       5.099  -4.103  -1.983  0.00  0.00     0.031 A 
ATOM     21  S   UNL d   1       6.645  -4.828  -1.775  0.00  0.00    -0.100 SA
ATOM     22  C   UNL d   1       6.741  -5.284  -3.419  0.00  0.00     0.050 A 
ATOM     23  C   UNL d   1       5.632  -4.886  -4.129  0.00  0.00     0.008 A 
ATOM     24  C   UNL d   1       4.690  -4.207  -3.304  0.00  0.00     0.021 A 
ENDBRANCH   4  20
TORSDOF 4
