REMARK  5 active torsions:
REMARK  status: ('A' for Active; 'I' for Inactive)
REMARK    1  A    between atoms: C_2  and  S_1 
REMARK    2  A    between atoms: N_10  and  S_1 
REMARK    3  A    between atoms: C_18  and  N_10 
REMARK    4  A    between atoms: C_11  and  O_17 
REMARK    5  A    between atoms: O_17  and  C_22 
ROOT
ATOM      1  S   UNL d   1       1.111   0.021   0.042  0.00  0.00     0.265 S 
ATOM      2  O   UNL d   1       0.363   0.932  -0.803  0.00  0.00    -0.200 OA
ATOM      3  O   UNL d   1       2.546   0.161   0.181  0.00  0.00    -0.200 OA
ENDROOT
BRANCH   1   4
ATOM      4  C   UNL d   1       0.799  -1.594  -0.556  0.00  0.00     0.110 A 
ATOM      5  C   UNL d   1      -0.488  -2.156  -0.618  0.00  0.00     0.108 A 
ATOM      6  C   UNL d   1      -0.706  -3.496  -1.156  0.00  0.00     0.086 A 
ATOM      7  N   UNL d   1      -1.677  -1.672  -0.232  0.00  0.00    -0.238 N 
ATOM      8  N   UNL d   1      -2.011  -3.775  -1.079  0.00  0.00    -0.239 N 
ATOM      9  C   UNL d   1       0.343  -4.298  -1.650  0.00  0.00     0.034 A 
ATOM     10  O   UNL d   1      -2.604  -2.654  -0.528  0.00  0.00    -0.156 OA
ATOM     11  HN  UNL d   1      -2.475  -4.636  -1.368  1.00  0.00     0.197 HD
ATOM     12  C   UNL d   1       1.617  -3.707  -1.582  0.00  0.00     0.004 A 
ATOM     13  C   UNL d   1       1.841  -2.409  -1.057  0.00  0.00     0.028 A 
ATOM     14  HN  UNL d   1      -1.860  -0.764   0.194  1.00  0.00     0.197 HD
ENDBRANCH   1   4
BRANCH   1  15
ATOM     15  N   UNL d   1       0.426   0.081   1.568  0.00  0.00    -0.281 N 
ATOM     16  H   UNL d   1      -0.541   0.404   1.585  0.00  0.00     0.179 HD
BRANCH  15  17
ATOM     17  C   UNL d   1       0.886  -0.759   2.614  0.00  0.00     0.042 A 
ATOM     18  C   UNL d   1       2.021  -0.408   3.344  0.00  0.00     0.033 A 
ATOM     19  C   UNL d   1       2.428  -1.188   4.436  0.00  0.00     0.039 A 
ATOM     20  C   UNL d   1       1.694  -2.318   4.796  0.00  0.00     0.078 A 
ATOM     21  C   UNL d   1       0.598  -2.698   4.014  0.00  0.00     0.039 A 
ATOM     22  C   UNL d   1       0.182  -1.913   2.938  0.00  0.00     0.033 A 
BRANCH  20  23
ATOM     23  O   UNL d   1       1.950  -3.148   5.843  0.00  0.00    -0.255 OA
BRANCH  23  24
ATOM     24  C   UNL d   1       2.551  -2.620   7.016  0.00  0.00     0.530 C 
ATOM     25  F   UNL d   1       2.465  -1.276   7.114  0.00  0.00    -0.144 F 
ATOM     26  F   UNL d   1       1.922  -3.151   8.090  0.00  0.00    -0.144 F 
ATOM     27  F   UNL d   1       3.848  -2.986   7.064  0.00  0.00    -0.144 F 
ENDBRANCH  23  24
ENDBRANCH  20  23
ENDBRANCH  15  17
ENDBRANCH   1  15
TORSDOF 5
