REMARK  4 active torsions:
REMARK  status: ('A' for Active; 'I' for Inactive)
REMARK    1  A    between atoms: C_2  and  C_7 
REMARK    2  A    between atoms: O_8  and  C_2 
REMARK    3  A    between atoms: C_6  and  C_5 
REMARK    4  A    between atoms: C_7  and  C_6 
ROOT
ATOM      1  C   UNL d   1      -2.024  -0.158  -0.081  0.00  0.00     0.131 C 
ATOM      2  O   UNL d   1      -2.362   0.178  -1.222  0.00  0.00    -0.298 OA
ATOM      3  C   UNL d   1      -1.772   0.932   1.003  0.00  0.00     0.056 C 
ATOM      4  C   UNL d   1      -1.987  -1.644   0.253  0.00  0.00     0.079 C 
ATOM      5  C   UNL d   1      -1.200   2.204   0.320  0.00  0.00     0.012 C 
ATOM      6  C   UNL d   1      -0.602  -2.247   0.488  0.00  0.00     0.007 C 
ATOM      7  C   UNL d   1       0.155   2.026  -0.395  0.00  0.00     0.001 C 
ATOM      8  C   UNL d   1       2.692   1.575  -0.144  0.00  0.00     0.000 C 
ATOM      9  C   UNL d   1       1.400   2.104   0.497  0.00  0.00     0.000 C 
ATOM     10  C   UNL d   1       0.341  -2.132  -0.716  0.00  0.00     0.000 C 
ATOM     11  C   UNL d   1       1.824  -2.248  -0.322  0.00  0.00     0.000 C 
ATOM     12  C   UNL d   1       2.642   0.152  -0.727  0.00  0.00     0.000 C 
ATOM     13  C   UNL d   1       2.419  -0.970   0.299  0.00  0.00     0.000 C 
ENDROOT
BRANCH   3  14
ATOM     14  C   UNL d   1      -0.958   0.473   2.213  0.00  0.00     0.022 C 
BRANCH  14  15
ATOM     15  C   UNL d   1      -0.692   1.506   3.318  0.00  0.00     0.110 C 
BRANCH  15  16
ATOM     16  C   UNL d   1       0.226   0.909   4.370  0.00  0.00     0.139 C 
ATOM     17  O   UNL d   1       0.685  -0.227   4.334  0.00  0.00    -0.650 OA
BRANCH  16  18
ATOM     18  O   UNL d   1       0.509   1.762   5.373  0.00  0.00    -0.776 OA
ATOM     19  H   UNL d   1       0.091   2.639   5.281  0.00  0.00     0.167 HD
ENDBRANCH  16  18
ENDBRANCH  15  16
ENDBRANCH  14  15
ENDBRANCH   3  14
TORSDOF 4
