REMARK  4 active torsions:
REMARK  status: ('A' for Active; 'I' for Inactive)
REMARK    1  A    between atoms: C_4  and  C_1 
REMARK    2  A    between atoms: C_5  and  C_3 
REMARK    3  A    between atoms: O_11  and  C_4 
REMARK    4  A    between atoms: O_10  and  C_5 
ROOT
ATOM      1  C   UNL d   1      -0.797  -1.034  -0.247  0.00  0.00     0.052 C 
ATOM      2  C   UNL d   1       0.764  -1.123  -0.019  0.00  0.00    -0.018 C 
ATOM      3  C   UNL d   1       1.264   0.365  -0.027  0.00  0.00     0.092 C 
ATOM      4  C   UNL d   1      -1.151   0.387   0.230  0.00  0.00     0.021 C 
ATOM      5  C   UNL d   1       0.027   1.255  -0.184  0.00  0.00     0.017 C 
ATOM      6  C   UNL d   1       1.127  -1.710   1.370  0.00  0.00     0.017 C 
ATOM      7  C   UNL d   1       1.463  -2.029  -1.054  0.00  0.00     0.017 C 
ATOM      8  C   UNL d   1      -1.627  -2.042   0.577  0.00  0.00     0.027 C 
ENDROOT
BRANCH   1   9
ATOM      9  C   UNL d   1      -1.204  -1.281  -1.719  0.00  0.00     0.267 C 
ATOM     10  O   UNL d   1      -1.454  -2.392  -2.174  0.00  0.00    -0.264 OA
BRANCH   9  11
ATOM     11  O   UNL d   1      -1.207  -0.143  -2.456  0.00  0.00    -0.326 OA
ATOM     12  C   UNL d   1      -1.515  -0.330  -3.838  0.00  0.00     0.213 C 
ENDBRANCH   9  11
ENDBRANCH   1   9
BRANCH   3  13
ATOM     13  C   UNL d   1       2.326   0.695  -1.065  0.00  0.00     0.144 C 
ATOM     14  O   UNL d   1       2.102   1.039  -2.213  0.00  0.00    -0.650 OA
BRANCH  13  15
ATOM     15  O   UNL d   1       3.586   0.544  -0.594  0.00  0.00    -0.776 OA
ATOM     16  H   UNL d   1       3.642   0.255   0.335  0.00  0.00     0.167 HD
ENDBRANCH  13  15
ENDBRANCH   3  13
TORSDOF 4
