REMARK  6 active torsions:
REMARK  status: ('A' for Active; 'I' for Inactive)
REMARK    1  A    between atoms: C_6  and  C_3 
REMARK    2  A    between atoms: N_10  and  C_4 
REMARK    3  A    between atoms: C_9  and  C_5 
REMARK    4  A    between atoms: O_12  and  C_9 
REMARK    5  A    between atoms: C_18  and  O_12 
REMARK    6  A    between atoms: C_21  and  C_18 
ROOT
ATOM      1  N   UNL d   1       1.318   0.552  -0.019  0.00  0.00    -0.185 N 
ATOM      2  HN  UNL d   1       2.245   0.978  -0.014  1.00  0.00     0.184 HD
ATOM      3  C   UNL d   1       1.201  -0.812  -0.006  0.00  0.00     0.150 A 
ATOM      4  C   UNL d   1       0.235   1.331  -0.038  0.00  0.00     0.680 A 
ATOM      5  C   UNL d   1      -0.038  -1.427  -0.009  0.00  0.00     0.087 A 
ATOM      6  N   UNL d   1      -0.993   0.800  -0.070  0.00  0.00    -0.201 N 
ATOM      7  HN  UNL d   1      -1.821   1.395  -0.109  1.00  0.00     0.183 HD
ATOM      8  C   UNL d   1      -1.106  -0.555  -0.051  0.00  0.00     0.126 A 
ENDROOT
BRANCH   5   9
ATOM      9  C   UNL d   1      -0.207  -2.897   0.020  0.00  0.00     0.297 C 
ATOM     10  O   UNL d   1       0.736  -3.663  -0.024  0.00  0.00    -0.259 OA
BRANCH   9  11
ATOM     11  O   UNL d   1      -1.510  -3.267   0.095  0.00  0.00    -0.313 OA
BRANCH  11  12
ATOM     12  C   UNL d   1      -1.759  -4.690   0.046  0.00  0.00     0.217 C 
BRANCH  12  13
ATOM     13  C   UNL d   1      -2.572  -5.132   1.239  0.00  0.00    -0.034 A 
ATOM     14  C   UNL d   1      -3.804  -5.785   1.071  0.00  0.00     0.009 A 
ATOM     15  C   UNL d   1      -4.526  -6.239   2.178  0.00  0.00     0.001 A 
ATOM     16  C   UNL d   1      -4.023  -6.052   3.464  0.00  0.00     0.000 A 
ATOM     17  C   UNL d   1      -2.795  -5.417   3.643  0.00  0.00     0.001 A 
ATOM     18  C   UNL d   1      -2.072  -4.964   2.538  0.00  0.00     0.009 A 
ENDBRANCH  12  13
ENDBRANCH  11  12
ENDBRANCH   9  11
ENDBRANCH   5   9
BRANCH   3  19
ATOM     19  C   UNL d   1       2.509  -1.576   0.034  0.00  0.00     0.434 C 
ATOM     20  F   UNL d   1       3.599  -0.745   0.036  0.00  0.00    -0.165 F 
ATOM     21  F   UNL d   1       2.656  -2.336   1.155  0.00  0.00    -0.165 F 
ATOM     22  F   UNL d   1       2.702  -2.386  -1.043  0.00  0.00    -0.165 F 
ENDBRANCH   3  19
BRANCH   4  23
ATOM     23  N   UNL d   1       0.416   2.707   0.068  0.00  0.00    -0.216 N 
ATOM     24  C   UNL d   1      -0.656   3.544  -0.485  0.00  0.00     0.151 C 
ATOM     25  C   UNL d   1      -0.653   4.938   0.157  0.00  0.00     0.094 C 
ATOM     26  S   UNL d   1       0.911   5.839  -0.114  0.00  0.00    -0.166 SA
ATOM     27  C   UNL d   1       2.041   4.543   0.489  0.00  0.00     0.094 C 
ATOM     28  C   UNL d   1       1.787   3.186  -0.176  0.00  0.00     0.151 C 
ENDBRANCH   4  23
TORSDOF 6
