REMARK  8 active torsions:
REMARK  status: ('A' for Active; 'I' for Inactive)
REMARK    1  A    between atoms: C_7  and  S_1 
REMARK    2  A    between atoms: C_8  and  S_1 
REMARK    3  A    between atoms: C_2  and  C_3 
REMARK    4  A    between atoms: C_3  and  O_9 
REMARK    5  A    between atoms: O_9  and  N_4 
REMARK    6  A    between atoms: C_6  and  C_10 
REMARK    7  A    between atoms: N_19  and  C_6 
REMARK    8  A    between atoms: C_16  and  C_8 
ROOT
ATOM      1  C   UNL d   1       1.172  -5.918  -3.341  0.00  0.00     0.004 A 
ATOM      2  C   UNL d   1       0.636  -5.677  -2.067  0.00  0.00     0.022 A 
ATOM      3  C   UNL d   1       0.150  -6.739  -1.282  0.00  0.00    -0.043 A 
ATOM      4  C   UNL d   1       1.230  -7.229  -3.828  0.00  0.00     0.015 A 
ATOM      5  C   UNL d   1       0.750  -8.287  -3.057  0.00  0.00     0.002 A 
ATOM      6  C   UNL d   1       0.209  -8.044  -1.794  0.00  0.00     0.008 A 
ENDROOT
BRANCH   1   7
ATOM      7  C   UNL d   1       1.600  -4.779  -4.222  0.00  0.00     0.109 C 
ATOM      8  N   UNL d   1       1.582  -4.990  -5.503  0.00  0.00    -0.246 N 
ATOM      9  HN  UNL d   1       1.352  -5.891  -5.922  1.00  0.00     0.196 HD
BRANCH   8  10
ATOM     10  O   UNL d   1       1.912  -3.844  -6.255  0.00  0.00    -0.193 OA
BRANCH  10  11
ATOM     11  C   UNL d   1       1.933  -4.176  -7.580  0.00  0.00     0.316 C 
ATOM     12  O   UNL d   1       1.787  -5.293  -8.066  0.00  0.00    -0.257 OA
BRANCH  11  13
ATOM     13  C   UNL d   1       2.053  -2.983  -8.455  0.00  0.00     0.063 A 
ATOM     14  C   UNL d   1       2.794  -1.832  -8.163  0.00  0.00     0.050 A 
ATOM     15 CL   UNL d   1       3.708  -1.617  -6.712  0.00  0.00    -0.083 Cl
ATOM     16  C   UNL d   1       2.861  -0.791  -9.103  0.00  0.00     0.025 A 
ATOM     17  C   UNL d   1       2.205  -0.893 -10.332  0.00  0.00     0.002 A 
ATOM     18  C   UNL d   1       1.473  -2.036 -10.633  0.00  0.00     0.001 A 
ATOM     19  C   UNL d   1       1.398  -3.072  -9.701  0.00  0.00     0.019 A 
ENDBRANCH  11  13
ENDBRANCH  10  11
ENDBRANCH   8  10
BRANCH   7  20
ATOM     20  N   UNL d   1       1.973  -3.586  -3.645  0.00  0.00    -0.286 NA
ATOM     21  H   UNL d   1       2.453  -2.980  -4.305  0.00  0.00     0.125 HD
ATOM     22  H   UNL d   1       2.485  -3.664  -2.773  0.00  0.00     0.125 HD
ENDBRANCH   7  20
ENDBRANCH   1   7
BRANCH   3  23
ATOM     23  C   UNL d   1      -0.464  -6.481   0.072  0.00  0.00     0.184 C 
BRANCH  23  24
ATOM     24  S   UNL d   1       0.696  -6.768   1.399  0.00  0.00     0.179 S 
ATOM     25  O   UNL d   1       0.085  -6.286   2.626  0.00  0.00    -0.222 OA
ATOM     26  O   UNL d   1       1.194  -8.130   1.328  0.00  0.00    -0.222 OA
BRANCH  24  27
ATOM     27  C   UNL d   1       2.063  -5.678   1.054  0.00  0.00     0.059 A 
ATOM     28  C   UNL d   1       2.070  -4.388   1.587  0.00  0.00     0.025 A 
ATOM     29  C   UNL d   1       3.124  -3.523   1.278  0.00  0.00     0.025 A 
ATOM     30  C   UNL d   1       4.160  -3.961   0.452  0.00  0.00     0.034 A 
ATOM     31  C   UNL d   1       4.170  -5.264  -0.047  0.00  0.00     0.025 A 
ATOM     32 CL   UNL d   1       5.429  -2.878   0.032  0.00  0.00    -0.084 Cl
ATOM     33  C   UNL d   1       3.125  -6.135   0.266  0.00  0.00     0.025 A 
ENDBRANCH  24  27
ENDBRANCH  23  24
ENDBRANCH   3  23
TORSDOF 8
