REMARK  5 active torsions:
REMARK  status: ('A' for Active; 'I' for Inactive)
REMARK    1  A    between atoms: S_2  and  C_1 
REMARK    2  A    between atoms: C_14  and  S_2 
REMARK    3  A    between atoms: C_7  and  C_3 
REMARK       I    between atoms: N_13  and  C_7 
REMARK    4  A    between atoms: N_10  and  N_13 
REMARK    5  A    between atoms: C_12  and  C_18 
ROOT
ATOM      1  C   UNL d   1       1.670   0.885   0.220  0.00  0.00     0.278 C 
ATOM      2  N   UNL d   1       2.192  -0.173  -0.515  0.00  0.00    -0.266 N 
ATOM      3  O   UNL d   1       2.383   1.643   0.876  0.00  0.00    -0.265 OA
ATOM      4  H   UNL d   1       1.589  -0.769  -1.072  0.00  0.00     0.190 HD
ENDROOT
BRANCH   1   5
ATOM      5  C   UNL d   1       0.223   1.070   0.108  0.00  0.00     0.097 A 
ATOM      6  C   UNL d   1      -0.807   0.182  -0.169  0.00  0.00     0.078 A 
ATOM      7  C   UNL d   1      -2.095   0.799  -0.038  0.00  0.00     0.089 A 
ATOM      8 CL   UNL d   1      -0.583  -1.477  -0.558  0.00  0.00    -0.081 Cl
ATOM      9  C   UNL d   1      -1.997   2.156   0.186  0.00  0.00     0.075 A 
ATOM     10  S   UNL d   1      -0.385   2.662   0.363  0.00  0.00    -0.093 SA
BRANCH   7  11
ATOM     11  S   UNL d   1      -3.634  -0.001  -0.148  0.00  0.00     0.181 S 
ATOM     12  O   UNL d   1      -4.604   1.035   0.142  0.00  0.00    -0.222 OA
ATOM     13  O   UNL d   1      -3.583  -0.655  -1.440  0.00  0.00    -0.222 OA
BRANCH  11  14
ATOM     14  C   UNL d   1      -3.664  -1.228   1.165  0.00  0.00     0.105 C 
ATOM     15  C   UNL d   1      -3.425  -0.614   2.540  0.00  0.00     0.026 C 
ATOM     16  C   UNL d   1      -4.998  -1.971   1.143  0.00  0.00     0.026 C 
ENDBRANCH  11  14
ENDBRANCH   7  11
ENDBRANCH   1   5
BRANCH   2  17
ATOM     17  N   UNL d   1       3.530  -0.430  -0.498  0.00  0.00    -0.308 N 
ATOM     18  C   UNL d   1       4.087  -0.987  -1.536  0.00  0.00     0.120 C 
ATOM     19  HN  UNL d   1       4.090  -0.189   0.319  1.00  0.00     0.186 HD
BRANCH  18  20
ATOM     20  C   UNL d   1       3.517  -1.226  -2.881  0.00  0.00     0.002 A 
ATOM     21  C   UNL d   1       3.935  -2.315  -3.656  0.00  0.00     0.045 A 
ATOM     22 CL   UNL d   1       5.090  -3.471  -3.098  0.00  0.00    -0.083 Cl
ATOM     23  C   UNL d   1       3.401  -2.503  -4.936  0.00  0.00     0.024 A 
ATOM     24  C   UNL d   1       2.453  -1.613  -5.444  0.00  0.00     0.002 A 
ATOM     25  C   UNL d   1       2.058  -0.513  -4.690  0.00  0.00     0.001 A 
ATOM     26  C   UNL d   1       2.607  -0.306  -3.425  0.00  0.00     0.014 A 
ENDBRANCH  18  20
ENDBRANCH   2  17
TORSDOF 5
