REMARK  4 active torsions:
REMARK  status: ('A' for Active; 'I' for Inactive)
REMARK    1  A    between atoms: C_8  and  C_1 
REMARK    2  A    between atoms: C_5  and  C_4 
REMARK    3  A    between atoms: C_7  and  C_6 
REMARK       I    between atoms: N_12  and  C_8 
REMARK    4  A    between atoms: C_15  and  N_12 
ROOT
ATOM      1  C   UNL d   1       2.453   1.651  -0.070  0.00  0.00     0.273 C 
ATOM      2  N   UNL d   1       2.178   3.006  -0.025  0.00  0.00    -0.322 N 
ATOM      3  O   UNL d   1       3.571   1.153  -0.075  0.00  0.00    -0.266 OA
ATOM      4  H   UNL d   1       1.206   3.249   0.132  0.00  0.00     0.169 HD
ENDROOT
BRANCH   1   5
ATOM      5  C   UNL d   1       1.262   0.789  -0.080  0.00  0.00     0.108 A 
ATOM      6  N   UNL d   1      -0.049   1.268  -0.193  0.00  0.00    -0.345 N 
ATOM      7  C   UNL d   1      -0.911   0.264  -0.171  0.00  0.00     0.086 A 
ATOM      8  HN  UNL d   1      -0.303   2.252  -0.279  1.00  0.00     0.167 HD
ATOM      9  S   UNL d   1      -0.181  -1.302  -0.039  0.00  0.00    -0.081 SA
ATOM     10  C   UNL d   1       1.358  -0.587  -0.000  0.00  0.00     0.087 A 
BRANCH   7  11
ATOM     11  C   UNL d   1      -2.389   0.372  -0.194  0.00  0.00     0.021 A 
ATOM     12  C   UNL d   1      -3.081   1.401   0.481  0.00  0.00     0.068 A 
ATOM     13  C   UNL d   1      -4.491   1.414   0.482  0.00  0.00     0.056 A 
ATOM     14 CL   UNL d   1      -2.224   2.635   1.364  0.00  0.00    -0.082 Cl
ATOM     15 CL   UNL d   1      -5.413   2.627   1.308  0.00  0.00    -0.083 Cl
ATOM     16  C   UNL d   1      -5.217   0.420  -0.181  0.00  0.00     0.026 A 
ATOM     17  C   UNL d   1      -4.549  -0.585  -0.866  0.00  0.00     0.003 A 
ATOM     18  C   UNL d   1      -3.153  -0.603  -0.879  0.00  0.00     0.016 A 
ENDBRANCH   7  11
ENDBRANCH   1   5
BRANCH   2  19
ATOM     19  C   UNL d   1       3.120   4.047  -0.190  0.00  0.00     0.035 A 
ATOM     20  C   UNL d   1       4.425   3.835  -0.651  0.00  0.00     0.047 A 
ATOM     21  C   UNL d   1       5.326   4.895  -0.914  0.00  0.00     0.067 A 
ATOM     22  C   UNL d   1       4.887   6.199  -0.678  0.00  0.00     0.026 A 
ATOM     23  C   UNL d   1       3.596   6.423  -0.175  0.00  0.00     0.022 A 
ATOM     24 BR   UNL d   1       5.928   7.746  -1.030  0.00  0.00    -0.050 Br
ATOM     25  C   UNL d   1       2.718   5.358   0.061  0.00  0.00     0.031 A 
BRANCH  21  26
ATOM     26  C   UNL d   1       6.686   4.498  -1.435  0.00  0.00     0.418 C 
ATOM     27  F   UNL d   1       7.522   5.509  -1.788  0.00  0.00    -0.166 F 
ATOM     28  F   UNL d   1       7.381   3.755  -0.527  0.00  0.00    -0.166 F 
ATOM     29  F   UNL d   1       6.590   3.712  -2.548  0.00  0.00    -0.166 F 
ENDBRANCH  21  26
ENDBRANCH   2  19
TORSDOF 4
