REMARK  4 active torsions:
REMARK  status: ('A' for Active; 'I' for Inactive)
REMARK    1  A    between atoms: C_2  and  C_1 
REMARK    2  A    between atoms: C_5  and  C_2 
REMARK    3  A    between atoms: N_12  and  N_3 
REMARK    4  A    between atoms: C_15  and  N_12 
ROOT
ATOM      1  C   UNL d   1       0.839   0.033   0.022  0.00  0.00     0.175 C 
ATOM      2  N   UNL d   1       0.180  -0.886   0.675  0.00  0.00    -0.287 N 
ATOM      3  HN  UNL d   1       0.684  -1.585   1.221  1.00  0.00     0.188 HD
ATOM      4  C   UNL d   1       0.103   1.032  -0.713  0.00  0.00     0.123 C 
ATOM      5  N   UNL d   1      -0.535   1.808  -1.301  0.00  0.00    -0.190 NA
ENDROOT
BRANCH   1   6
ATOM      6  C   UNL d   1       2.342   0.035   0.031  0.00  0.00     0.192 C 
ATOM      7  O   UNL d   1       2.961   0.515  -0.905  0.00  0.00    -0.290 OA
BRANCH   6   8
ATOM      8  C   UNL d   1       3.006  -0.587   1.209  0.00  0.00     0.063 A 
ATOM      9  C   UNL d   1       4.387  -0.140   1.634  0.00  0.00     0.013 A 
ATOM     10  C   UNL d   1       4.203  -1.485   0.993  0.00  0.00     0.013 A 
ENDBRANCH   6   8
ENDBRANCH   1   6
BRANCH   2  11
ATOM     11  N   UNL d   1      -1.188  -0.908   0.626  0.00  0.00    -0.300 N 
ATOM     12  H   UNL d   1      -1.660  -0.711  -0.262  0.00  0.00     0.187 HD
BRANCH  11  13
ATOM     13  C   UNL d   1      -1.828  -1.937   1.358  0.00  0.00     0.050 A 
ATOM     14  C   UNL d   1      -1.250  -2.484   2.513  0.00  0.00     0.057 A 
ATOM     15  C   UNL d   1      -1.912  -3.476   3.239  0.00  0.00     0.074 A 
ATOM     16 CL   UNL d   1      -1.171  -4.128   4.650  0.00  0.00    -0.081 Cl
ATOM     17  C   UNL d   1      -3.161  -3.923   2.822  0.00  0.00     0.138 A 
ATOM     18  C   UNL d   1      -3.764  -3.377   1.694  0.00  0.00     0.046 A 
ATOM     19  F   UNL d   1      -3.810  -4.882   3.499  0.00  0.00    -0.204 F 
ATOM     20  C   UNL d   1      -3.106  -2.375   0.974  0.00  0.00     0.034 A 
ENDBRANCH  11  13
ENDBRANCH   2  11
TORSDOF 4
