REMARK  4 active torsions:
REMARK  status: ('A' for Active; 'I' for Inactive)
REMARK    1  A    between atoms: N_6  and  C_1 
REMARK    2  A    between atoms: C_4  and  N_8 
REMARK    3  A    between atoms: C_5  and  C_11 
REMARK       I    between atoms: C_7  and  N_16 
REMARK       I    between atoms: N_8  and  C_7 
REMARK    4  A    between atoms: N_16  and  C_26 
ROOT
ATOM      1  N   UNL d   1       0.064   2.514   0.536  0.00  0.00    -0.217 N 
ATOM      2  C   UNL d   1      -0.673   3.308   1.510  0.00  0.00     0.143 C 
ATOM      3  C   UNL d   1      -0.001   3.015  -0.835  0.00  0.00     0.143 C 
ATOM      4  C   UNL d   1       0.648   4.396  -0.870  0.00  0.00     0.045 C 
ATOM      5  C   UNL d   1      -0.098   4.732   1.524  0.00  0.00     0.045 C 
ATOM      6  C   UNL d   1      -0.001   5.367   0.124  0.00  0.00     0.089 C 
ENDROOT
BRANCH   6   7
ATOM      7  N   UNL d   1      -1.309   5.868  -0.318  0.00  0.00    -0.338 N 
ATOM      8  C   UNL d   1      -1.649   6.649  -1.385  0.00  0.00     0.321 C 
ATOM      9  N   UNL d   1      -0.618   7.097  -2.154  0.00  0.00    -0.306 N 
ATOM     10  O   UNL d   1      -2.830   6.921  -1.558  0.00  0.00    -0.247 OA
ATOM     11  H   UNL d   1       0.178   7.388  -1.599  0.00  0.00     0.171 HD
ATOM     12  H   UNL d   1      -2.129   5.612   0.223  0.00  0.00     0.164 HD
BRANCH   9  13
ATOM     13  C   UNL d   1      -0.761   7.787  -3.389  0.00  0.00     0.080 A 
ATOM     14  C   UNL d   1       0.060   8.914  -3.602  0.00  0.00     0.064 A 
ATOM     15  C   UNL d   1       0.119   9.556  -4.841  0.00  0.00     0.050 A 
ATOM     16 CL   UNL d   1       1.023   9.563  -2.314  0.00  0.00    -0.082 Cl
ATOM     17  C   UNL d   1      -0.640   9.068  -5.895  0.00  0.00     0.037 A 
ATOM     18  C   UNL d   1      -1.498   7.988  -5.707  0.00  0.00     0.050 A 
ATOM     19 CL   UNL d   1      -0.478   9.772  -7.457  0.00  0.00    -0.084 Cl
ATOM     20  C   UNL d   1      -1.566   7.347  -4.459  0.00  0.00     0.064 A 
ATOM     21 CL   UNL d   1      -2.547   5.923  -4.399  0.00  0.00    -0.082 Cl
ENDBRANCH   9  13
ENDBRANCH   6   7
BRANCH   1  22
ATOM     22  C   UNL d   1      -0.077   1.127   0.619  0.00  0.00     0.680 A 
ATOM     23  N   UNL d   1      -0.928   0.587   1.497  0.00  0.00    -0.186 N 
ATOM     24  C   UNL d   1      -1.010  -0.774   1.572  0.00  0.00     0.133 A 
ATOM     25  HN  UNL d   1      -1.503   1.178   2.097  1.00  0.00     0.184 HD
ATOM     26  C   UNL d   1      -0.222  -1.591   0.787  0.00  0.00     0.052 A 
ATOM     27  C   UNL d   1       0.632  -0.959  -0.068  0.00  0.00     0.108 A 
ATOM     28  N   UNL d   1       0.698   0.379  -0.187  0.00  0.00    -0.202 N 
ATOM     29  HN  UNL d   1       1.319   0.815  -0.869  1.00  0.00     0.183 HD
BRANCH  24  30
ATOM     30  C   UNL d   1      -2.002  -1.415   2.520  0.00  0.00     0.433 C 
ATOM     31  F   UNL d   1      -2.777  -0.537   3.213  0.00  0.00    -0.165 F 
ATOM     32  F   UNL d   1      -2.871  -2.249   1.871  0.00  0.00    -0.165 F 
ATOM     33  F   UNL d   1      -1.388  -2.198   3.458  0.00  0.00    -0.165 F 
ENDBRANCH  24  30
ENDBRANCH   1  22
TORSDOF 4
