REMARK  4 active torsions:
REMARK  status: ('A' for Active; 'I' for Inactive)
REMARK    1  A    between atoms: C_2  and  C_1 
REMARK       I    between atoms: N_5  and  C_2 
REMARK    2  A    between atoms: C_4  and  C_3 
REMARK    3  A    between atoms: O_12  and  C_4 
REMARK    4  A    between atoms: C_10  and  N_5 
ROOT
ATOM      1  C   UNL d   1       0.757   1.242  -0.061  0.00  0.00     0.064 A 
ATOM      2  C   UNL d   1      -0.551   0.734  -0.047  0.00  0.00     0.057 A 
ATOM      3  N   UNL d   1       1.580  -1.044  -0.435  0.00  0.00    -0.374 N 
ATOM      4  HN  UNL d   1       2.367  -1.680  -0.564  1.00  0.00     0.164 HD
ATOM      5  C   UNL d   1       1.767   0.289  -0.252  0.00  0.00     0.105 A 
ATOM      6  C   UNL d   1      -0.764  -0.648  -0.240  0.00  0.00     0.036 A 
ATOM      7  C   UNL d   1       0.316  -1.483  -0.439  0.00  0.00     0.088 A 
ENDROOT
BRANCH   1   8
ATOM      8  C   UNL d   1       1.253   2.658  -0.023  0.00  0.00     0.258 C 
ATOM      9  N   UNL d   1       0.382   3.696   0.237  0.00  0.00    -0.323 N 
ATOM     10  H   UNL d   1      -0.520   3.481   0.656  0.00  0.00     0.169 HD
ATOM     11  O   UNL d   1       2.452   2.822  -0.246  0.00  0.00    -0.267 OA
BRANCH   9  12
ATOM     12  C   UNL d   1       0.626   5.074   0.016  0.00  0.00     0.035 A 
ATOM     13  C   UNL d   1       1.757   5.568  -0.639  0.00  0.00     0.030 A 
ATOM     14  C   UNL d   1       1.891   6.934  -0.910  0.00  0.00     0.009 A 
ATOM     15  C   UNL d   1       0.893   7.835  -0.533  0.00  0.00    -0.062 A 
ATOM     16  C   UNL d   1      -0.225   7.353   0.154  0.00  0.00     0.009 A 
ATOM     17  C   UNL d   1       1.034   9.287  -0.882  0.00  0.00     0.048 C 
ATOM     18  C   UNL d   1      -0.357   5.984   0.422  0.00  0.00     0.030 A 
ENDBRANCH   9  12
ENDBRANCH   1   8
BRANCH   2  19
ATOM     19  C   UNL d   1      -1.757   1.550   0.221  0.00  0.00     0.294 C 
ATOM     20  O   UNL d   1      -1.772   2.518   0.964  0.00  0.00    -0.259 OA
BRANCH  19  21
ATOM     21  O   UNL d   1      -2.825   1.045  -0.443  0.00  0.00    -0.322 OA
ATOM     22  C   UNL d   1      -4.069   1.686  -0.152  0.00  0.00     0.213 C 
ENDBRANCH  19  21
ENDBRANCH   2  19
TORSDOF 4
