REMARK  6 active torsions:
REMARK  status: ('A' for Active; 'I' for Inactive)
REMARK    1  A    between atoms: C_9  and  C_1 
REMARK    2  A    between atoms: C_4  and  C_2 
REMARK    3  A    between atoms: S_3  and  N_5 
REMARK    4  A    between atoms: C_14  and  S_3 
REMARK       I    between atoms: N_11  and  C_4 
REMARK    5  A    between atoms: N_5  and  C_10 
REMARK    6  A    between atoms: C_10  and  N_11 
ROOT
ATOM      1  C   UNL d   1       1.249  -1.670  -0.121  0.00  0.00     0.262 C 
ATOM      2  N   UNL d   1       0.339  -2.647  -0.513  0.00  0.00    -0.299 N 
ATOM      3  O   UNL d   1       2.457  -1.819   0.013  0.00  0.00    -0.267 OA
ATOM      4  H   UNL d   1      -0.612  -2.336  -0.592  0.00  0.00     0.171 HD
ENDROOT
BRANCH   1   5
ATOM      5  C   UNL d   1       0.593  -0.392   0.136  0.00  0.00     0.093 C 
ATOM      6  C   UNL d   1       0.843   0.609   1.143  0.00  0.00     0.088 C 
ATOM      7  N   UNL d   1      -0.128   1.538   1.092  0.00  0.00    -0.259 N 
ATOM      8  O   UNL d   1      -0.895   1.270  -0.003  0.00  0.00    -0.241 OA
ATOM      9  HN  UNL d   1      -0.266   2.303   1.752  1.00  0.00     0.195 HD
ATOM     10  C   UNL d   1      -0.463   0.135  -0.594  0.00  0.00     0.090 C 
ATOM     11  C   UNL d   1      -1.209  -0.233  -1.817  0.00  0.00     0.080 C 
BRANCH   6  12
ATOM     12  C   UNL d   1       1.856   0.724   2.200  0.00  0.00     0.054 A 
ATOM     13  C   UNL d   1       2.238  -0.396   2.950  0.00  0.00     0.130 A 
ATOM     14  F   UNL d   1       1.714  -1.603   2.690  0.00  0.00    -0.205 F 
ATOM     15  C   UNL d   1       3.129  -0.298   4.024  0.00  0.00     0.043 A 
ATOM     16  C   UNL d   1       3.641   0.940   4.400  0.00  0.00     0.005 A 
ATOM     17  C   UNL d   1       3.281   2.072   3.675  0.00  0.00     0.025 A 
ATOM     18  C   UNL d   1       2.416   1.967   2.575  0.00  0.00     0.049 A 
ATOM     19 CL   UNL d   1       2.125   3.450   1.719  0.00  0.00    -0.083 Cl
ENDBRANCH   6  12
ENDBRANCH   1   5
BRANCH   2  20
ATOM     20  C   UNL d   1       0.419  -4.020  -0.630  0.00  0.00     0.186 C 
ATOM     21  S   UNL d   1       1.776  -4.975  -0.545  0.00  0.00    -0.040 SA
BRANCH  20  22
ATOM     22  N   UNL d   1      -0.776  -4.731  -0.855  0.00  0.00    -0.289 N 
ATOM     23  HN  UNL d   1      -0.715  -5.620  -1.352  1.00  0.00     0.178 HD
BRANCH  22  24
ATOM     24  S   UNL d   1      -2.168  -4.254  -0.399  0.00  0.00     0.054 S 
ATOM     25  O   UNL d   1      -2.741  -3.037  -0.951  0.00  0.00    -0.245 OA
ATOM     26  C   UNL d   1      -3.374  -5.535  -0.549  0.00  0.00     0.142 C 
BRANCH  24  27
ATOM     27  C   UNL d   1      -2.005  -3.943   1.359  0.00  0.00     0.038 A 
ATOM     28  C   UNL d   1      -2.415  -2.704   1.865  0.00  0.00     0.023 A 
ATOM     29  C   UNL d   1      -1.964  -2.291   3.119  0.00  0.00     0.025 A 
ATOM     30  C   UNL d   1      -1.114  -3.115   3.857  0.00  0.00     0.034 A 
ATOM     31  C   UNL d   1      -0.751  -4.374   3.375  0.00  0.00     0.025 A 
ATOM     32 CL   UNL d   1      -0.464  -2.551   5.346  0.00  0.00    -0.084 Cl
ATOM     33  C   UNL d   1      -1.205  -4.799   2.126  0.00  0.00     0.023 A 
ENDBRANCH  24  27
ENDBRANCH  22  24
ENDBRANCH  20  22
ENDBRANCH   2  20
TORSDOF 6
