REMARK  6 active torsions:
REMARK  status: ('A' for Active; 'I' for Inactive)
REMARK    1  A    between atoms: C_7  and  C_1 
REMARK    2  A    between atoms: C_9  and  N_2 
REMARK    3  A    between atoms: C_14  and  C_3 
REMARK       I    between atoms: N_8  and  C_7 
REMARK    4  A    between atoms: C_13  and  N_8 
REMARK    5  A    between atoms: C_15  and  C_13 
REMARK    6  A    between atoms: C_22  and  C_14 
ROOT
ATOM      1  C   UNL d   1      -0.199   1.174   0.023  0.00  0.00     0.073 C 
ATOM      2  N   UNL d   1       0.900  -0.782   0.064  0.00  0.00    -0.260 N 
ATOM      3  C   UNL d   1       1.091   0.618  -0.010  0.00  0.00     0.051 C 
ATOM      4  N   UNL d   1      -0.405  -1.089   0.260  0.00  0.00    -0.304 N 
ATOM      5  HN  UNL d   1      -0.802  -2.007   0.462  1.00  0.00     0.186 HD
ATOM      6  C   UNL d   1      -1.052   0.054   0.132  0.00  0.00     0.126 C 
ENDROOT
BRANCH   1   7
ATOM      7  C   UNL d   1      -0.773   2.519  -0.015  0.00  0.00     0.255 C 
ATOM      8  N   UNL d   1       0.037   3.610   0.189  0.00  0.00    -0.353 N 
ATOM      9  H   UNL d   1       1.011   3.494   0.410  0.00  0.00     0.163 HD
ATOM     10  O   UNL d   1      -1.979   2.664  -0.209  0.00  0.00    -0.268 OA
BRANCH   8  11
ATOM     11  C   UNL d   1      -0.451   4.947  -0.093  0.00  0.00     0.161 C 
BRANCH  11  12
ATOM     12  C   UNL d   1      -0.730   5.816   1.106  0.00  0.00    -0.038 A 
ATOM     13  C   UNL d   1      -0.626   7.210   0.968  0.00  0.00     0.025 A 
ATOM     14  C   UNL d   1      -0.982   8.029   2.030  0.00  0.00     0.088 A 
ATOM     15  N   UNL d   1      -1.433   7.564   3.211  0.00  0.00    -0.375 N 
ATOM     16  C   UNL d   1      -1.554   6.225   3.328  0.00  0.00     0.088 A 
ATOM     17  HN  UNL d   1      -1.673   8.193   3.978  1.00  0.00     0.164 HD
ATOM     18  C   UNL d   1      -1.224   5.325   2.316  0.00  0.00     0.025 A 
ENDBRANCH  11  12
ENDBRANCH   8  11
ENDBRANCH   1   7
BRANCH   3  19
ATOM     19  C   UNL d   1       2.450   1.262   0.065  0.00  0.00     0.060 C 
BRANCH  19  20
ATOM     20  C   UNL d   1       3.105   1.687  -1.254  0.00  0.00     0.002 C 
ATOM     21  C   UNL d   1       2.340   2.687  -2.099  0.00  0.00     0.005 C 
ENDBRANCH  19  20
ENDBRANCH   3  19
BRANCH   2  22
ATOM     22  C   UNL d   1       1.795  -1.894  -0.047  0.00  0.00     0.056 A 
ATOM     23  C   UNL d   1       1.447  -3.099   0.594  0.00  0.00     0.031 A 
ATOM     24  C   UNL d   1       2.216  -4.253   0.423  0.00  0.00     0.002 A 
ATOM     25  C   UNL d   1       3.331  -4.226  -0.407  0.00  0.00     0.000 A 
ATOM     26  C   UNL d   1       3.684  -3.041  -1.048  0.00  0.00     0.002 A 
ATOM     27  C   UNL d   1       2.925  -1.878  -0.863  0.00  0.00     0.031 A 
ENDBRANCH   2  22
TORSDOF 6
