REMARK  5 active torsions:
REMARK  status: ('A' for Active; 'I' for Inactive)
REMARK    1  A    between atoms: C_3  and  C_1 
REMARK    2  A    between atoms: C_13  and  C_2 
REMARK    3  A    between atoms: C_14  and  C_8 
REMARK    4  A    between atoms: O_18  and  C_13 
REMARK    5  A    between atoms: C_24  and  O_18 
ROOT
ATOM      1  C   UNL d   1       0.357  -2.712  -0.043  0.00  0.00     0.055 A 
ATOM      2  N   UNL d   1       1.574  -3.063   0.520  0.00  0.00    -0.349 N 
ATOM      3  HN  UNL d   1       2.218  -2.412   0.969  1.00  0.00     0.166 HD
ATOM      4  C   UNL d   1       1.780  -4.360   0.393  0.00  0.00     0.084 A 
ATOM      5  S   UNL d   1       0.567  -5.200  -0.501  0.00  0.00    -0.081 SA
ATOM      6  C   UNL d   1      -0.300  -3.740  -0.683  0.00  0.00     0.082 A 
ENDROOT
BRANCH   1   7
ATOM      7  C   UNL d   1      -0.063  -1.316   0.048  0.00  0.00     0.057 A 
ATOM      8  C   UNL d   1      -1.389  -0.795   0.067  0.00  0.00     0.144 A 
ATOM      9  N   UNL d   1      -1.364   0.550   0.082  0.00  0.00    -0.254 N 
ATOM     10  O   UNL d   1      -0.033   0.911   0.104  0.00  0.00    -0.241 OA
ATOM     11  HN  UNL d   1      -2.168   1.177   0.078  1.00  0.00     0.195 HD
ATOM     12  C   UNL d   1       0.744  -0.203   0.081  0.00  0.00     0.087 A 
ATOM     13  C   UNL d   1       2.202   0.017   0.052  0.00  0.00     0.080 C 
BRANCH   8  14
ATOM     14  C   UNL d   1      -2.654  -1.526   0.034  0.00  0.00     0.312 C 
ATOM     15  O   UNL d   1      -2.783  -2.681   0.423  0.00  0.00    -0.258 OA
BRANCH  14  16
ATOM     16  O   UNL d   1      -3.638  -0.831  -0.614  0.00  0.00    -0.317 OA
BRANCH  16  17
ATOM     17  C   UNL d   1      -4.701  -1.631  -1.144  0.00  0.00     0.175 C 
ATOM     18  C   UNL d   1      -4.281  -2.135  -2.515  0.00  0.00     0.034 C 
ENDBRANCH  16  17
ENDBRANCH  14  16
ENDBRANCH   8  14
ENDBRANCH   1   7
BRANCH   4  19
ATOM     19  C   UNL d   1       2.969  -5.073   0.887  0.00  0.00    -0.002 A 
ATOM     20  C   UNL d   1       2.925  -6.417   1.297  0.00  0.00     0.016 A 
ATOM     21  C   UNL d   1       4.082  -7.075   1.726  0.00  0.00     0.024 A 
ATOM     22  C   UNL d   1       5.293  -6.393   1.758  0.00  0.00     0.034 A 
ATOM     23  C   UNL d   1       5.356  -5.053   1.382  0.00  0.00     0.024 A 
ATOM     24 CL   UNL d   1       6.720  -7.210   2.262  0.00  0.00    -0.084 Cl
ATOM     25  C   UNL d   1       4.197  -4.396   0.956  0.00  0.00     0.016 A 
ENDBRANCH   4  19
TORSDOF 5
