REMARK  4 active torsions:
REMARK  status: ('A' for Active; 'I' for Inactive)
REMARK    1  A    between atoms: O_4  and  C_1 
REMARK    2  A    between atoms: C_8  and  O_4 
REMARK    3  A    between atoms: S_10  and  C_9 
REMARK    4  A    between atoms: C_15  and  S_10 
ROOT
ATOM      1  N   UNL d   1       3.298   5.704   3.059  0.00  0.00    -0.197 NA
ATOM      2  C   UNL d   1       2.619   6.303   2.326  0.00  0.00     0.069 C 
ATOM      3  C   UNL d   1       1.757   7.061   1.414  0.00  0.00     0.203 C 
ENDROOT
BRANCH   3   4
ATOM      4  S   UNL d   1       2.078   6.724  -0.355  0.00  0.00    -0.116 SA
BRANCH   4   5
ATOM      5  C   UNL d   1       1.610   5.006  -0.439  0.00  0.00     0.001 A 
ATOM      6  C   UNL d   1       0.298   4.646  -0.743  0.00  0.00     0.021 A 
ATOM      7  C   UNL d   1      -0.054   3.296  -0.828  0.00  0.00     0.038 A 
ATOM      8  C   UNL d   1       0.891   2.288  -0.606  0.00  0.00     0.078 A 
ATOM      9  C   UNL d   1       2.212   2.648  -0.353  0.00  0.00     0.038 A 
ATOM     10  C   UNL d   1       2.567   4.002  -0.261  0.00  0.00     0.021 A 
BRANCH   8  11
ATOM     11  O   UNL d   1       0.389   1.028  -0.699  0.00  0.00    -0.255 OA
BRANCH  11  12
ATOM     12  C   UNL d   1       1.061  -0.057  -0.077  0.00  0.00     0.530 C 
ATOM     13  F   UNL d   1       1.901   0.315   0.909  0.00  0.00    -0.144 F 
ATOM     14  F   UNL d   1       1.746  -0.761  -1.004  0.00  0.00    -0.144 F 
ATOM     15  F   UNL d   1       0.128  -0.874   0.466  0.00  0.00    -0.144 F 
ENDBRANCH  11  12
ENDBRANCH   8  11
ENDBRANCH   4   5
ENDBRANCH   3   4
TORSDOF 4
