REMARK  10 active torsions:
REMARK  status: ('A' for Active; 'I' for Inactive)
REMARK    1  A    between atoms: N_2  and  S_1 
REMARK    2  A    between atoms: C_4  and  S_1 
REMARK    3  A    between atoms: S_14  and  C_5 
REMARK    4  A    between atoms: S_15  and  C_5 
REMARK    5  A    between atoms: C_6  and  C_13 
REMARK    6  A    between atoms: C_7  and  C_17 
REMARK    7  A    between atoms: O_12  and  C_11 
REMARK    8  A    between atoms: C_13  and  O_12 
REMARK    9  A    between atoms: O_25  and  C_16 
REMARK   10  A    between atoms: C_17  and  O_25 
ROOT
ATOM      1  C   UNL d   1       0.175   0.041  -1.658  0.00  0.00     0.115 A 
ATOM      2  C   UNL d   1      -0.115  -1.178  -2.312  0.00  0.00     0.065 A 
ATOM      3  C   UNL d   1      -0.035   1.265  -2.311  0.00  0.00     0.092 A 
ATOM      4  C   UNL d   1      -0.633  -1.185  -3.600  0.00  0.00     0.070 A 
ATOM      5  C   UNL d   1      -0.464   1.221  -3.650  0.00  0.00     0.041 A 
ATOM      6  C   UNL d   1      -0.773   0.015  -4.280  0.00  0.00     0.039 A 
ENDROOT
BRANCH   1   7
ATOM      7  S   UNL d   1       0.679  -0.118   0.060  0.00  0.00     0.266 S 
ATOM      8  O   UNL d   1       0.413   1.123   0.749  0.00  0.00    -0.200 OA
ATOM      9  O   UNL d   1       0.026  -1.332   0.515  0.00  0.00    -0.200 OA
BRANCH   7  10
ATOM     10  N   UNL d   1       2.276  -0.320  -0.035  0.00  0.00    -0.269 N 
ATOM     11  C   UNL d   1       2.972  -1.080   0.734  0.00  0.00     0.116 C 
ATOM     12  HN  UNL d   1       2.773   0.196  -0.762  1.00  0.00     0.180 HD
BRANCH  11  13
ATOM     13  S   UNL d   1       2.495  -2.184   2.000  0.00  0.00    -0.109 SA
ATOM     14  C   UNL d   1       1.951  -1.060   3.296  0.00  0.00     0.097 C 
ENDBRANCH  11  13
BRANCH  11  15
ATOM     15  S   UNL d   1       4.718  -1.179   0.454  0.00  0.00    -0.109 SA
ATOM     16  C   UNL d   1       5.026   0.306  -0.516  0.00  0.00     0.097 C 
ENDBRANCH  11  15
ENDBRANCH   7  10
ENDBRANCH   1   7
BRANCH   3  17
ATOM     17  O   UNL d   1       0.171   2.449  -1.650  0.00  0.00    -0.341 OA
BRANCH  17  18
ATOM     18  C   UNL d   1      -0.303   3.638  -2.314  0.00  0.00     0.293 C 
BRANCH  18  19
ATOM     19  C   UNL d   1      -0.336   4.882  -1.434  0.00  0.00     0.408 C 
ATOM     20  F   UNL d   1       0.484   4.809  -0.369  0.00  0.00    -0.169 F 
ATOM     21  F   UNL d   1       0.042   5.966  -2.160  0.00  0.00    -0.169 F 
ATOM     22  F   UNL d   1      -1.589   5.128  -0.989  0.00  0.00    -0.169 F 
ENDBRANCH  18  19
ENDBRANCH  17  18
ENDBRANCH   3  17
BRANCH   4  23
ATOM     23  O   UNL d   1      -1.024  -2.294  -4.294  0.00  0.00    -0.342 OA
BRANCH  23  24
ATOM     24  C   UNL d   1      -1.448  -3.415  -3.505  0.00  0.00     0.293 C 
BRANCH  24  25
ATOM     25  C   UNL d   1      -2.411  -4.305  -4.287  0.00  0.00     0.408 C 
ATOM     26  F   UNL d   1      -2.636  -3.863  -5.544  0.00  0.00    -0.169 F 
ATOM     27  F   UNL d   1      -1.932  -5.568  -4.381  0.00  0.00    -0.169 F 
ATOM     28  F   UNL d   1      -3.611  -4.377  -3.665  0.00  0.00    -0.169 F 
ENDBRANCH  24  25
ENDBRANCH  23  24
ENDBRANCH   4  23
TORSDOF 10
