REMARK  6 active torsions:
REMARK  status: ('A' for Active; 'I' for Inactive)
REMARK    1  A    between atoms: C_6  and  C_1 
REMARK    2  A    between atoms: C_9  and  N_2 
REMARK    3  A    between atoms: C_12  and  C_3 
REMARK       I    between atoms: N_8  and  C_6 
REMARK    4  A    between atoms: C_11  and  N_8 
REMARK    5  A    between atoms: C_22  and  C_12 
REMARK    6  A    between atoms: O_18  and  C_13 
ROOT
ATOM      1  C   UNL d   1      -0.217   1.105   0.119  0.00  0.00     0.073 C 
ATOM      2  N   UNL d   1       0.685  -0.940   0.179  0.00  0.00    -0.260 N 
ATOM      3  C   UNL d   1       1.006   0.429   0.215  0.00  0.00     0.051 C 
ATOM      4  N   UNL d   1      -0.649  -1.135   0.300  0.00  0.00    -0.304 N 
ATOM      5  HN  UNL d   1      -1.137  -2.013   0.477  1.00  0.00     0.186 HD
ATOM      6  C   UNL d   1      -1.178   0.067   0.138  0.00  0.00     0.126 C 
ENDROOT
BRANCH   1   7
ATOM      7  C   UNL d   1      -0.635   2.510   0.063  0.00  0.00     0.259 C 
ATOM      8  N   UNL d   1       0.337   3.468   0.269  0.00  0.00    -0.323 N 
ATOM      9  H   UNL d   1       1.272   3.145   0.434  0.00  0.00     0.169 HD
ATOM     10  O   UNL d   1      -1.818   2.764  -0.157  0.00  0.00    -0.267 OA
BRANCH   8  11
ATOM     11  C   UNL d   1       0.166   4.874   0.235  0.00  0.00     0.035 A 
ATOM     12  C   UNL d   1      -1.066   5.517   0.086  0.00  0.00     0.032 A 
ATOM     13  C   UNL d   1      -1.149   6.916   0.010  0.00  0.00     0.039 A 
ATOM     14  C   UNL d   1       0.003   7.692   0.076  0.00  0.00     0.068 A 
ATOM     15  C   UNL d   1       1.232   7.060   0.269  0.00  0.00     0.039 A 
ATOM     16  C   UNL d   1       1.315   5.664   0.349  0.00  0.00     0.032 A 
BRANCH  14  17
ATOM     17  O   UNL d   1       0.059   9.054  -0.023  0.00  0.00    -0.356 OA
ATOM     18  C   UNL d   1      -1.113   9.704  -0.505  0.00  0.00     0.210 C 
ENDBRANCH  14  17
ENDBRANCH   8  11
ENDBRANCH   1   7
BRANCH   3  19
ATOM     19  C   UNL d   1       2.401   0.919   0.477  0.00  0.00     0.060 C 
BRANCH  19  20
ATOM     20  C   UNL d   1       3.087   1.547  -0.739  0.00  0.00     0.002 C 
ATOM     21  C   UNL d   1       4.467   2.077  -0.372  0.00  0.00     0.005 C 
ENDBRANCH  19  20
ENDBRANCH   3  19
BRANCH   2  22
ATOM     22  C   UNL d   1       1.495  -2.101   0.001  0.00  0.00     0.056 A 
ATOM     23  C   UNL d   1       1.051  -3.320   0.546  0.00  0.00     0.031 A 
ATOM     24  C   UNL d   1       1.737  -4.507   0.287  0.00  0.00     0.002 A 
ATOM     25  C   UNL d   1       2.857  -4.494  -0.539  0.00  0.00     0.000 A 
ATOM     26  C   UNL d   1       3.304  -3.291  -1.085  0.00  0.00     0.002 A 
ATOM     27  C   UNL d   1       2.633  -2.094  -0.808  0.00  0.00     0.031 A 
ENDBRANCH   2  22
TORSDOF 6
