REMARK  4 active torsions:
REMARK  status: ('A' for Active; 'I' for Inactive)
REMARK    1  A    between atoms: C_4  and  C_3 
REMARK    2  A    between atoms: C_13  and  C_4 
REMARK    3  A    between atoms: C_14  and  C_7 
REMARK    4  A    between atoms: N_12  and  C_13 
ROOT
ATOM      1  S   UNL d   1       0.728   1.426  -0.611  0.00  0.00     0.163 S 
ATOM      2  S   UNL d   1       0.796  -1.464  -0.383  0.00  0.00     0.163 S 
ATOM      3  C   UNL d   1       1.585   0.061   0.139  0.00  0.00     0.231 C 
ATOM      4  C   UNL d   1      -0.907   1.286   0.051  0.00  0.00     0.152 C 
ATOM      5  C   UNL d   1      -0.893  -1.297   0.148  0.00  0.00     0.152 C 
ATOM      6  C   UNL d   1      -1.591  -0.025  -0.341  0.00  0.00     0.046 C 
ATOM      7  O   UNL d   1       1.299   2.663  -0.114  0.00  0.00    -0.227 OA
ATOM      8  O   UNL d   1       0.809  -1.574  -1.825  0.00  0.00    -0.227 OA
ATOM      9  O   UNL d   1       1.370  -2.542   0.406  0.00  0.00    -0.227 OA
ATOM     10  O   UNL d   1       0.642   1.240  -2.044  0.00  0.00    -0.227 OA
ENDROOT
BRANCH   3  11
ATOM     11  C   UNL d   1       1.642   0.093   1.682  0.00  0.00     0.066 C 
BRANCH  11  12
ATOM     12  C   UNL d   1       2.304   1.319   2.313  0.00  0.00     0.275 C 
BRANCH  12  13
ATOM     13  N   UNL d   1       2.283   1.289   3.786  0.00  0.00     0.092 N 
ATOM     14  C   UNL d   1       2.874   2.543   4.327  0.00  0.00     0.298 C 
ATOM     15  C   UNL d   1       4.405   2.621   4.171  0.00  0.00     0.198 C 
ATOM     16  O   UNL d   1       5.054   1.483   4.753  0.00  0.00    -0.388 OA
ATOM     17  C   UNL d   1       4.545   0.259   4.210  0.00  0.00     0.198 C 
ATOM     18  C   UNL d   1       3.024   0.164   4.398  0.00  0.00     0.298 C 
ENDBRANCH  12  13
ENDBRANCH  11  12
ENDBRANCH   3  11
BRANCH   6  19
ATOM     19  C   UNL d   1      -3.017   0.019   0.194  0.00  0.00    -0.052 A 
ATOM     20  C   UNL d   1      -3.285  -0.012   1.575  0.00  0.00     0.007 A 
ATOM     21  C   UNL d   1      -4.594   0.074   2.048  0.00  0.00     0.001 A 
ATOM     22  C   UNL d   1      -5.650   0.199   1.151  0.00  0.00     0.000 A 
ATOM     23  C   UNL d   1      -5.399   0.234  -0.218  0.00  0.00     0.001 A 
ATOM     24  C   UNL d   1      -4.090   0.145  -0.697  0.00  0.00     0.007 A 
ENDBRANCH   6  19
TORSDOF 4
