REMARK  4 active torsions:
REMARK  status: ('A' for Active; 'I' for Inactive)
REMARK    1  A    between atoms: C_3  and  S_1 
REMARK    2  A    between atoms: N_8  and  S_1 
REMARK    3  A    between atoms: S_4  and  C_2 
REMARK    4  A    between atoms: C_9  and  S_4 
ROOT
ATOM      1  C   UNL d   1       0.527   4.142   0.616  0.00  0.00     0.078 A 
ATOM      2  C   UNL d   1       0.591   1.811   0.412  0.00  0.00     0.122 A 
ATOM      3  C   UNL d   1       1.228   3.002   0.054  0.00  0.00    -0.010 A 
ATOM      4  S   UNL d   1      -0.778   2.072   1.405  0.00  0.00    -0.087 SA
ATOM      5  C   UNL d   1      -0.574   3.759   1.356  0.00  0.00     0.075 A 
ATOM      6  C   UNL d   1       2.459   3.022  -0.799  0.00  0.00     0.052 C 
ENDROOT
BRANCH   1   7
ATOM      7  S   UNL d   1       0.917   5.838   0.435  0.00  0.00     0.207 S 
ATOM      8  O   UNL d   1       0.268   6.486   1.557  0.00  0.00    -0.217 OA
ATOM      9  O   UNL d   1       2.351   5.907   0.250  0.00  0.00    -0.217 OA
BRANCH   7  10
ATOM     10  C   UNL d   1       0.106   6.354  -1.055  0.00  0.00     0.064 A 
ATOM     11  C   UNL d   1      -1.164   6.941  -0.981  0.00  0.00     0.025 A 
ATOM     12  C   UNL d   1      -1.794   7.377  -2.149  0.00  0.00     0.025 A 
ATOM     13  C   UNL d   1      -1.149   7.236  -3.378  0.00  0.00     0.034 A 
ATOM     14  C   UNL d   1       0.126   6.674  -3.449  0.00  0.00     0.025 A 
ATOM     15 CL   UNL d   1      -1.932   7.766  -4.816  0.00  0.00    -0.084 Cl
ATOM     16  C   UNL d   1       0.763   6.238  -2.284  0.00  0.00     0.025 A 
ENDBRANCH   7  10
ENDBRANCH   1   7
BRANCH   2  17
ATOM     17  S   UNL d   1       0.907   0.080   0.044  0.00  0.00     0.250 S 
ATOM     18  O   UNL d   1       2.131   0.061  -0.727  0.00  0.00    -0.205 OA
ATOM     19  O   UNL d   1      -0.331  -0.420  -0.516  0.00  0.00    -0.205 OA
BRANCH  17  20
ATOM     20  N   UNL d   1       1.215  -0.741   1.525  0.00  0.00    -0.206 NA
ATOM     21  C   UNL d   1       2.475  -0.304   2.192  0.00  0.00     0.107 C 
ATOM     22  C   UNL d   1       2.619  -0.975   3.554  0.00  0.00     0.015 C 
ATOM     23  C   UNL d   1       2.569  -2.493   3.427  0.00  0.00     0.002 C 
ATOM     24  C   UNL d   1       1.286  -2.914   2.722  0.00  0.00     0.015 C 
ATOM     25  C   UNL d   1       1.146  -2.224   1.368  0.00  0.00     0.107 C 
ENDBRANCH  17  20
ENDBRANCH   2  17
TORSDOF 4
