REMARK  5 active torsions:
REMARK  status: ('A' for Active; 'I' for Inactive)
REMARK       I    between atoms: N_3  and  C_1 
REMARK    1  A    between atoms: C_4  and  C_1 
REMARK    2  A    between atoms: N_2  and  C_7 
REMARK       I    between atoms: C_6  and  N_3 
REMARK    3  A    between atoms: C_5  and  N_10 
REMARK       I    between atoms: N_10  and  C_6 
REMARK    4  A    between atoms: O_21  and  C_16 
REMARK    5  A    between atoms: O_22  and  C_17 
ROOT
ATOM      1  C   UNL d   1       0.829  -0.054  -0.015  0.00  0.00     0.265 C 
ATOM      2  N   UNL d   1       0.542   0.943   0.915  0.00  0.00    -0.275 N 
ATOM      3  C   UNL d   1       1.163   2.139   1.159  0.00  0.00     0.327 C 
ATOM      4  N   UNL d   1       2.430   2.294   0.653  0.00  0.00    -0.305 N 
ATOM      5  O   UNL d   1       1.813  -0.048  -0.748  0.00  0.00    -0.267 OA
ATOM      6  O   UNL d   1       0.542   3.004   1.774  0.00  0.00    -0.247 OA
ATOM      7  H   UNL d   1      -0.380   0.923   1.337  0.00  0.00     0.173 HD
ATOM      8  H   UNL d   1       2.552   1.850  -0.257  0.00  0.00     0.171 HD
ENDROOT
BRANCH   4   9
ATOM      9  C   UNL d   1       3.134   3.503   0.896  0.00  0.00     0.080 A 
ATOM     10  C   UNL d   1       3.336   3.993   2.205  0.00  0.00     0.065 A 
ATOM     11  C   UNL d   1       3.881   5.264   2.421  0.00  0.00     0.062 A 
ATOM     12 CL   UNL d   1       3.051   3.026   3.615  0.00  0.00    -0.082 Cl
ATOM     13  C   UNL d   1       4.253   6.044   1.323  0.00  0.00     0.106 A 
ATOM     14  C   UNL d   1       4.151   5.543   0.022  0.00  0.00     0.062 A 
ATOM     15  C   UNL d   1       3.606   4.270  -0.183  0.00  0.00     0.065 A 
ATOM     16 CL   UNL d   1       3.451   3.707  -1.810  0.00  0.00    -0.082 Cl
BRANCH  13  17
ATOM     17  N   UNL d   1       4.753   7.407   1.548  0.00  0.00    -0.116 N 
ATOM     18  O   UNL d   1       4.769   7.833   2.710  0.00  0.00    -0.532 OA
ATOM     19  O   UNL d   1       5.112   8.056   0.553  0.00  0.00    -0.532 OA
ENDBRANCH  13  17
ENDBRANCH   4   9
BRANCH   1  20
ATOM     20  C   UNL d   1      -0.212  -1.113  -0.069  0.00  0.00     0.099 A 
ATOM     21  C   UNL d   1      -1.565  -0.752  -0.216  0.00  0.00     0.086 A 
ATOM     22  C   UNL d   1      -2.570  -1.710  -0.064  0.00  0.00     0.038 A 
ATOM     23  C   UNL d   1      -2.237  -3.031   0.218  0.00  0.00     0.005 A 
ATOM     24  C   UNL d   1      -0.896  -3.404   0.323  0.00  0.00     0.038 A 
ATOM     25  C   UNL d   1       0.130  -2.460   0.152  0.00  0.00     0.086 A 
BRANCH  21  26
ATOM     26  O   UNL d   1      -2.002   0.538  -0.383  0.00  0.00    -0.355 OA
ATOM     27  C   UNL d   1      -1.594   1.113  -1.628  0.00  0.00     0.210 C 
ENDBRANCH  21  26
BRANCH  25  28
ATOM     28  O   UNL d   1       1.458  -2.780   0.265  0.00  0.00    -0.355 OA
ATOM     29  C   UNL d   1       1.803  -4.146   0.048  0.00  0.00     0.210 C 
ENDBRANCH  25  28
ENDBRANCH   1  20
TORSDOF 5
