REMARK  6 active torsions:
REMARK  status: ('A' for Active; 'I' for Inactive)
REMARK    1  A    between atoms: C_18  and  C_4 
REMARK    2  A    between atoms: C_16  and  C_5 
REMARK    3  A    between atoms: S_20  and  C_8 
REMARK    4  A    between atoms: C_13  and  C_25 
REMARK    5  A    between atoms: N_14  and  C_17 
REMARK    6  A    between atoms: C_25  and  S_20 
ROOT
ATOM      1  N   UNL d   1      -4.389  -4.727  -0.019  0.00  0.00    -0.322 N 
ATOM      2  HN  UNL d   1      -5.254  -4.189  -0.068  1.00  0.00     0.169 HD
ATOM      3  C   UNL d   1      -4.232  -6.093   0.054  0.00  0.00     0.138 A 
ATOM      4  N   UNL d   1      -2.949  -6.485   0.136  0.00  0.00    -0.242 N 
ATOM      5  HN  UNL d   1      -2.585  -7.435   0.211  1.00  0.00     0.196 HD
ATOM      6  C   UNL d   1      -3.152  -4.289  -0.012  0.00  0.00     0.158 A 
ATOM      7  O   UNL d   1      -2.232  -5.290   0.094  0.00  0.00    -0.222 OA
ENDROOT
BRANCH   6   8
ATOM      8  C   UNL d   1      -2.631  -2.903  -0.073  0.00  0.00     0.169 C 
BRANCH   8   9
ATOM      9  S   UNL d   1      -2.180  -2.404  -1.770  0.00  0.00    -0.084 SA
BRANCH   9  10
ATOM     10  C   UNL d   1      -3.721  -2.323  -2.532  0.00  0.00     0.160 A 
ATOM     11  N   UNL d   1      -3.855  -2.458  -3.881  0.00  0.00    -0.324 N 
ATOM     12  C   UNL d   1      -5.205  -2.380  -4.136  0.00  0.00     0.105 A 
ATOM     13  H   UNL d   1      -3.111  -2.609  -4.540  0.00  0.00     0.169 HD
ATOM     14  N   UNL d   1      -5.827  -2.167  -2.992  0.00  0.00    -0.286 N 
ATOM     15  N   UNL d   1      -4.892  -2.125  -1.983  0.00  0.00    -0.278 N 
ATOM     16  HN  UNL d   1      -6.834  -2.051  -2.875  1.00  0.00     0.188 HD
ATOM     17  HN  UNL d   1      -5.077  -1.970  -0.992  1.00  0.00     0.189 HD
BRANCH  12  18
ATOM     18  C   UNL d   1      -5.842  -2.540  -5.500  0.00  0.00     0.009 C 
ATOM     19  C   UNL d   1      -5.503  -3.916  -6.099  0.00  0.00     0.023 C 
ATOM     20  C   UNL d   1      -7.375  -2.435  -5.364  0.00  0.00     0.023 C 
ATOM     21  C   UNL d   1      -5.367  -1.439  -6.463  0.00  0.00     0.023 C 
ENDBRANCH  12  18
ENDBRANCH   9  10
ENDBRANCH   8   9
ENDBRANCH   6   8
BRANCH   3  22
ATOM     22  C   UNL d   1      -5.371  -7.004   0.043  0.00  0.00     0.012 A 
ATOM     23  C   UNL d   1      -6.678  -6.498  -0.074  0.00  0.00     0.045 A 
ATOM     24  C   UNL d   1      -7.790  -7.356  -0.086  0.00  0.00     0.039 A 
ATOM     25  C   UNL d   1      -7.577  -8.739   0.026  0.00  0.00     0.030 A 
ATOM     26  C   UNL d   1      -6.283  -9.249   0.135  0.00  0.00     0.003 A 
ATOM     27  C   UNL d   1      -5.186  -8.389   0.142  0.00  0.00     0.015 A 
BRANCH  24  28
ATOM     28  N   UNL d   1      -9.114  -6.833  -0.221  0.00  0.00    -0.333 N 
ATOM     29  C   UNL d   1     -10.294  -7.559  -0.210  0.00  0.00     0.096 A 
ATOM     30  C   UNL d   1     -11.360  -6.706  -0.386  0.00  0.00     0.019 A 
ATOM     31  C   UNL d   1     -10.838  -5.406  -0.508  0.00  0.00     0.019 A 
ATOM     32  C   UNL d   1      -9.468  -5.507  -0.400  0.00  0.00     0.096 A 
ENDBRANCH  24  28
ENDBRANCH   3  22
TORSDOF 6
