REMARK  4 active torsions:
REMARK  status: ('A' for Active; 'I' for Inactive)
REMARK    1  A    between atoms: C_10  and  C_1 
REMARK    2  A    between atoms: C_4  and  C_2 
REMARK       I    between atoms: N_15  and  C_10 
REMARK       I    between atoms: C_12  and  N_19 
REMARK       I    between atoms: N_14  and  C_12 
REMARK    3  A    between atoms: C_16  and  N_14 
REMARK    4  A    between atoms: N_19  and  N_15 
ROOT
ATOM      1  C   UNL d   1      -0.192  -2.537   0.256  0.00  0.00     0.279 C 
ATOM      2  N   UNL d   1       0.908  -3.192   0.780  0.00  0.00    -0.261 N 
ATOM      3  O   UNL d   1      -1.196  -3.178  -0.063  0.00  0.00    -0.265 OA
ATOM      4  H   UNL d   1       1.754  -2.718   1.094  0.00  0.00     0.190 HD
ENDROOT
BRANCH   1   5
ATOM      5  C   UNL d   1      -0.099  -1.091   0.133  0.00  0.00     0.098 A 
ATOM      6  S   UNL d   1       1.337  -0.219   0.488  0.00  0.00    -0.063 SA
ATOM      7  C   UNL d   1       0.536   1.262   0.150  0.00  0.00     0.104 A 
ATOM      8  N   UNL d   1      -0.716   1.141  -0.242  0.00  0.00    -0.351 N 
ATOM      9  C   UNL d   1      -1.082  -0.200  -0.280  0.00  0.00     0.029 A 
ATOM     10  HN  UNL d   1      -1.330   1.920  -0.483  1.00  0.00     0.166 HD
ATOM     11  C   UNL d   1      -2.462  -0.530  -0.734  0.00  0.00     0.070 C 
BRANCH   7  12
ATOM     12  C   UNL d   1       1.189   2.608   0.307  0.00  0.00     0.091 A 
ATOM     13  N   UNL d   1       2.483   2.768   0.622  0.00  0.00    -0.258 N 
ATOM     14  O   UNL d   1       2.687   4.135   0.700  0.00  0.00    -0.242 OA
ATOM     15  HN  UNL d   1       3.175   2.034   0.773  1.00  0.00     0.195 HD
ATOM     16  C   UNL d   1       1.517   4.787   0.445  0.00  0.00     0.074 A 
ATOM     17  C   UNL d   1       0.537   3.857   0.173  0.00  0.00     0.068 A 
ATOM     18  C   UNL d   1       1.558   6.255   0.529  0.00  0.00     0.079 C 
ENDBRANCH   7  12
ENDBRANCH   1   5
BRANCH   2  19
ATOM     19  N   UNL d   1       0.865  -4.588   0.929  0.00  0.00    -0.248 N 
ATOM     20  C   UNL d   1       1.893  -5.228   1.602  0.00  0.00     0.339 C 
ATOM     21  N   UNL d   1       1.717  -6.591   1.629  0.00  0.00    -0.306 N 
ATOM     22  O   UNL d   1       2.852  -4.612   2.060  0.00  0.00    -0.245 OA
ATOM     23  H   UNL d   1       1.169  -6.977   0.868  0.00  0.00     0.171 HD
ATOM     24  H   UNL d   1       0.001  -5.049   0.654  0.00  0.00     0.192 HD
BRANCH  21  25
ATOM     25  C   UNL d   1       2.565  -7.507   2.286  0.00  0.00     0.058 A 
ATOM     26  C   UNL d   1       2.761  -8.789   1.731  0.00  0.00     0.062 A 
ATOM     27  C   UNL d   1       3.546  -9.744   2.380  0.00  0.00     0.050 A 
ATOM     28 CL   UNL d   1       2.070  -9.198   0.197  0.00  0.00    -0.082 Cl
ATOM     29  C   UNL d   1       4.121  -9.432   3.605  0.00  0.00     0.035 A 
ATOM     30  C   UNL d   1       3.950  -8.167   4.170  0.00  0.00     0.026 A 
ATOM     31 CL   UNL d   1       5.032 -10.627   4.443  0.00  0.00    -0.084 Cl
ATOM     32  C   UNL d   1       3.184  -7.204   3.502  0.00  0.00     0.033 A 
ENDBRANCH  21  25
ENDBRANCH   2  19
TORSDOF 4
