REMARK  6 active torsions:
REMARK  status: ('A' for Active; 'I' for Inactive)
REMARK    1  A    between atoms: C_11  and  C_1 
REMARK    2  A    between atoms: N_10  and  C_2 
REMARK    3  A    between atoms: C_9  and  N_10 
REMARK    4  A    between atoms: O_23  and  C_11 
REMARK    5  A    between atoms: C_13  and  C_12 
REMARK    6  A    between atoms: C_26  and  O_23 
ROOT
ATOM      1  C   UNL d   1       3.804  -2.645   1.132  0.00  0.00     0.071 C 
ATOM      2  C   UNL d   1       4.479  -2.028   2.309  0.00  0.00     0.165 C 
ATOM      3  C   UNL d   1       3.564  -4.110   1.079  0.00  0.00     0.165 C 
ATOM      4  C   UNL d   1       3.439  -1.898   0.076  0.00  0.00     0.107 C 
ATOM      5  C   UNL d   1       4.441  -4.333   3.428  0.00  0.00     0.040 C 
ATOM      6  C   UNL d   1       5.059  -2.937   3.367  0.00  0.00     0.094 C 
ATOM      7  C   UNL d   1       4.364  -4.956   2.034  0.00  0.00     0.094 C 
ATOM      8  O   UNL d   1       2.849  -4.626   0.218  0.00  0.00    -0.292 OA
ATOM      9  O   UNL d   1       4.636  -0.809   2.405  0.00  0.00    -0.292 OA
ENDROOT
BRANCH   4  10
ATOM     10  N   UNL d   1       3.721  -0.566  -0.168  0.00  0.00    -0.358 N 
ATOM     11  H   UNL d   1       4.577  -0.277   0.320  0.00  0.00     0.166 HD
BRANCH  10  12
ATOM     12  C   UNL d   1       2.812   0.462  -0.208  0.00  0.00     0.091 A 
ATOM     13  C   UNL d   1       3.117   1.823  -0.269  0.00  0.00     0.080 A 
ATOM     14  C   UNL d   1       1.922   2.639  -0.061  0.00  0.00    -0.030 A 
ATOM     15  C   UNL d   1       0.783   1.856   0.032  0.00  0.00    -0.012 A 
ATOM     16  C   UNL d   1       1.887   4.136   0.043  0.00  0.00     0.050 C 
ATOM     17  C   UNL d   1      -0.638   2.272   0.240  0.00  0.00     0.057 C 
ATOM     18  S   UNL d   1       1.123   0.199  -0.119  0.00  0.00    -0.076 SA
BRANCH  13  19
ATOM     19  C   UNL d   1       4.472   2.353  -0.522  0.00  0.00     0.296 C 
ATOM     20  O   UNL d   1       4.708   3.536  -0.726  0.00  0.00    -0.259 OA
BRANCH  19  21
ATOM     21  O   UNL d   1       5.439   1.384  -0.585  0.00  0.00    -0.318 OA
BRANCH  21  22
ATOM     22  C   UNL d   1       6.685   1.783  -1.172  0.00  0.00     0.174 C 
ATOM     23  C   UNL d   1       6.574   1.699  -2.685  0.00  0.00     0.034 C 
ENDBRANCH  21  22
ENDBRANCH  19  21
ENDBRANCH  13  19
ENDBRANCH  10  12
ENDBRANCH   4  10
BRANCH   5  24
ATOM     24  C   UNL d   1       3.114  -4.399   4.165  0.00  0.00    -0.013 A 
ATOM     25  S   UNL d   1       2.538  -5.943   4.679  0.00  0.00    -0.106 SA
ATOM     26  C   UNL d   1       1.131  -5.274   5.369  0.00  0.00     0.050 A 
ATOM     27  C   UNL d   1       1.102  -3.904   5.251  0.00  0.00     0.008 A 
ATOM     28  C   UNL d   1       2.244  -3.398   4.559  0.00  0.00     0.015 A 
ENDBRANCH   5  24
TORSDOF 6
