REMARK  7 active torsions:
REMARK  status: ('A' for Active; 'I' for Inactive)
REMARK    1  A    between atoms: C_11  and  C_1 
REMARK    2  A    between atoms: C_7  and  C_2 
REMARK    3  A    between atoms: S_19  and  C_10 
REMARK    4  A    between atoms: C_15  and  C_25 
REMARK       I    between atoms: N_18  and  C_15 
REMARK    5  A    between atoms: C_27  and  N_18 
REMARK    6  A    between atoms: C_25  and  S_19 
REMARK    7  A    between atoms: C_31  and  C_20 
ROOT
ATOM      1  N   UNL d   1       1.074   7.689  -1.432  0.00  0.00    -0.334 N 
ATOM      2  HN  UNL d   1       1.535   6.990  -2.014  1.00  0.00     0.168 HD
ATOM      3  C   UNL d   1      -0.131   7.475  -0.893  0.00  0.00     0.145 A 
ATOM      4  C   UNL d   1       1.645   8.881  -1.162  0.00  0.00     0.071 A 
ATOM      5  N   UNL d   1      -0.797   8.336  -0.116  0.00  0.00    -0.347 N 
ATOM      6  HN  UNL d   1      -1.711   8.111   0.278  1.00  0.00     0.167 HD
ATOM      7  C   UNL d   1       1.035   9.849  -0.395  0.00  0.00     0.049 A 
ATOM      8  C   UNL d   1      -0.193   9.513   0.116  0.00  0.00     0.092 A 
ENDROOT
BRANCH   3   9
ATOM      9  S   UNL d   1      -0.956   6.001  -1.429  0.00  0.00    -0.085 SA
BRANCH   9  10
ATOM     10  C   UNL d   1      -2.538   6.743  -1.902  0.00  0.00     0.185 C 
BRANCH  10  11
ATOM     11  C   UNL d   1      -2.503   7.733  -3.062  0.00  0.00     0.231 C 
ATOM     12  N   UNL d   1      -1.304   7.887  -3.737  0.00  0.00    -0.327 N 
ATOM     13  H   UNL d   1      -0.560   7.236  -3.507  0.00  0.00     0.169 HD
ATOM     14  O   UNL d   1      -3.549   8.321  -3.348  0.00  0.00    -0.272 OA
BRANCH  12  15
ATOM     15  C   UNL d   1      -0.984   8.895  -4.674  0.00  0.00     0.034 A 
ATOM     16  C   UNL d   1      -1.834   9.959  -4.974  0.00  0.00     0.030 A 
ATOM     17  C   UNL d   1      -1.433  10.975  -5.844  0.00  0.00     0.010 A 
ATOM     18  C   UNL d   1      -0.168  10.959  -6.442  0.00  0.00    -0.055 A 
ATOM     19  C   UNL d   1       0.676   9.873  -6.169  0.00  0.00     0.010 A 
ATOM     20  C   UNL d   1       0.273   8.855  -5.290  0.00  0.00     0.030 A 
BRANCH  18  21
ATOM     21  C   UNL d   1       0.297  12.109  -7.318  0.00  0.00     0.010 C 
ATOM     22  C   UNL d   1      -0.610  12.315  -8.536  0.00  0.00     0.015 C 
ATOM     23  C   UNL d   1       0.395  13.403  -6.503  0.00  0.00     0.015 C 
ENDBRANCH  18  21
ENDBRANCH  12  15
ENDBRANCH  10  11
ENDBRANCH   9  10
ENDBRANCH   3   9
BRANCH   4  24
ATOM     24  C   UNL d   1       2.964   9.045  -1.743  0.00  0.00     0.127 A 
ATOM     25  C   UNL d   1       3.792   8.227  -2.474  0.00  0.00     0.074 A 
ATOM     26  C   UNL d   1       4.960   8.994  -2.717  0.00  0.00     0.069 A 
ATOM     27  N   UNL d   1       4.843  10.202  -2.140  0.00  0.00    -0.260 N 
ATOM     28  O   UNL d   1       3.596  10.233  -1.545  0.00  0.00    -0.235 OA
ATOM     29  HN  UNL d   1       5.537  10.950  -2.140  1.00  0.00     0.195 HD
BRANCH  26  30
ATOM     30  C   UNL d   1       6.187   8.594  -3.412  0.00  0.00     0.014 A 
ATOM     31  C   UNL d   1       6.200   7.774  -4.557  0.00  0.00     0.048 A 
ATOM     32  C   UNL d   1       7.412   7.360  -5.123  0.00  0.00     0.048 A 
ATOM     33 CL   UNL d   1       4.762   7.262  -5.377  0.00  0.00    -0.083 Cl
ATOM     34  C   UNL d   1       8.619   7.780  -4.572  0.00  0.00     0.035 A 
ATOM     35  C   UNL d   1       8.631   8.624  -3.467  0.00  0.00     0.025 A 
ATOM     36 CL   UNL d   1      10.102   7.257  -5.267  0.00  0.00    -0.084 Cl
ATOM     37  C   UNL d   1       7.423   9.027  -2.891  0.00  0.00     0.017 A 
ENDBRANCH  26  30
ENDBRANCH   4  24
TORSDOF 7
