REMARK  1 active torsions:
REMARK  status: ('A' for Active; 'I' for Inactive)
REMARK    1  A    between atoms: C_5  and  C_1 
ROOT
ATOM      1  C   UNL d   1      -2.233   0.568  -0.074  0.00  0.00     0.010 A 
ATOM      2  C   UNL d   1      -1.078   1.375  -0.045  0.00  0.00     0.025 A 
ATOM      3  C   UNL d   1       0.165   0.764  -0.007  0.00  0.00    -0.022 A 
ATOM      4  C   UNL d   1       0.275  -0.615   0.026  0.00  0.00     0.075 A 
ATOM      5  O   UNL d   1       1.567  -1.064   0.081  0.00  0.00    -0.350 OA
ATOM      6  C   UNL d   1      -2.097  -0.835  -0.038  0.00  0.00     0.018 A 
ATOM      7  C   UNL d   1      -0.831  -1.433   0.020  0.00  0.00     0.038 A 
ATOM      8  C   UNL d   1       2.349   0.114  -0.228  0.00  0.00     0.180 C 
ATOM      9  C   UNL d   1       1.516   1.362   0.073  0.00  0.00     0.068 C 
ENDROOT
BRANCH   1  10
ATOM     10  C   UNL d   1      -3.559   1.262  -0.144  0.00  0.00     0.155 C 
ATOM     11  O   UNL d   1      -3.591   2.493  -0.168  0.00  0.00    -0.293 OA
ATOM     12  C   UNL d   1      -4.850   0.483  -0.195  0.00  0.00     0.096 C 
ENDBRANCH   1  10
TORSDOF 1
