REMARK  3 active torsions:
REMARK  status: ('A' for Active; 'I' for Inactive)
REMARK    1  A    between atoms: S_10  and  C_1 
REMARK    2  A    between atoms: C_8  and  C_4 
REMARK    3  A    between atoms: C_14  and  S_10 
ROOT
ATOM      1  C   UNL d   1      -0.643   1.285   0.086  0.00  0.00     0.084 A 
ATOM      2  N   UNL d   1      -1.364   0.142   0.090  0.00  0.00    -0.332 N 
ATOM      3  HN  UNL d   1      -2.383   0.161   0.113  1.00  0.00     0.168 HD
ATOM      4  C   UNL d   1      -0.689  -1.027   0.062  0.00  0.00     0.191 A 
ATOM      5  N   UNL d   1       0.660  -1.097   0.045  0.00  0.00    -0.342 N 
ATOM      6  HN  UNL d   1       1.138  -1.998   0.033  1.00  0.00     0.167 HD
ATOM      7  C   UNL d   1       0.746   1.308   0.060  0.00  0.00    -0.006 A 
ATOM      8  C   UNL d   1       1.358   0.058   0.046  0.00  0.00     0.015 A 
ATOM      9  C   UNL d   1       1.573   2.559   0.032  0.00  0.00     0.053 C 
ATOM     10  C   UNL d   1       2.853  -0.095   0.003  0.00  0.00     0.069 C 
ENDROOT
BRANCH   1  11
ATOM     11  S   UNL d   1      -1.640   2.766  -0.011  0.00  0.00    -0.072 SA
BRANCH  11  12
ATOM     12  C   UNL d   1      -1.897   3.160   1.709  0.00  0.00     0.007 A 
ATOM     13  C   UNL d   1      -1.371   4.351   2.228  0.00  0.00     0.020 A 
ATOM     14  C   UNL d   1      -1.643   4.731   3.546  0.00  0.00     0.025 A 
ATOM     15  C   UNL d   1      -2.449   3.923   4.346  0.00  0.00     0.034 A 
ATOM     16  C   UNL d   1      -2.974   2.735   3.843  0.00  0.00     0.025 A 
ATOM     17 CL   UNL d   1      -2.813   4.408   5.956  0.00  0.00    -0.084 Cl
ATOM     18  C   UNL d   1      -2.699   2.355   2.525  0.00  0.00     0.020 A 
ENDBRANCH  11  12
ENDBRANCH   1  11
BRANCH   4  19
ATOM     19  C   UNL d   1      -1.478  -2.343   0.025  0.00  0.00     0.449 C 
ATOM     20  F   UNL d   1      -2.836  -2.180   0.043  0.00  0.00    -0.163 F 
ATOM     21  F   UNL d   1      -1.220  -3.089  -1.093  0.00  0.00    -0.163 F 
ATOM     22  F   UNL d   1      -1.200  -3.163   1.084  0.00  0.00    -0.163 F 
ENDBRANCH   4  19
TORSDOF 3
