REMARK  5 active torsions:
REMARK  status: ('A' for Active; 'I' for Inactive)
REMARK    1  A    between atoms: N_2  and  S_1 
REMARK    2  A    between atoms: C_20  and  S_1 
REMARK    3  A    between atoms: C_12  and  C_3 
REMARK    4  A    between atoms: C_10  and  C_13 
REMARK    5  A    between atoms: C_15  and  C_11 
ROOT
ATOM      1  N   UNL d   1       1.168  -0.901  -1.602  0.00  0.00    -0.188 N 
ATOM      2  N   UNL d   1       0.943  -0.594  -2.915  0.00  0.00    -0.284 N 
ATOM      3  HN  UNL d   1       1.480   0.029  -3.517  1.00  0.00     0.188 HD
ATOM      4  C   UNL d   1      -0.151  -1.306  -3.224  0.00  0.00     0.067 A 
ATOM      5  C   UNL d   1       0.326  -1.879  -1.134  0.00  0.00     0.132 A 
ATOM      6  C   UNL d   1      -0.562  -2.130  -2.149  0.00  0.00     0.052 A 
ENDROOT
BRANCH   4   7
ATOM      7  C   UNL d   1      -0.838  -1.223  -4.557  0.00  0.00     0.034 A 
ATOM      8  S   UNL d   1      -2.263  -2.094  -4.912  0.00  0.00    -0.086 SA
ATOM      9  C   UNL d   1      -2.354  -1.461  -6.493  0.00  0.00     0.034 A 
ATOM     10  C   UNL d   1      -1.305  -0.605  -6.758  0.00  0.00     0.023 A 
ATOM     11  C   UNL d   1      -0.431  -0.458  -5.630  0.00  0.00     0.023 A 
BRANCH   9  12
ATOM     12  C   UNL d   1      -3.460  -1.805  -7.444  0.00  0.00     0.067 A 
ATOM     13  C   UNL d   1      -4.562  -2.640  -7.156  0.00  0.00     0.068 A 
ATOM     14  C   UNL d   1      -5.346  -2.632  -8.292  0.00  0.00     0.136 A 
ATOM     15  N   UNL d   1      -4.670  -1.853  -9.190  0.00  0.00    -0.292 N 
ATOM     16  N   UNL d   1      -3.529  -1.331  -8.693  0.00  0.00    -0.297 N 
ATOM     17  C   UNL d   1      -5.042  -1.536 -10.552  0.00  0.00     0.178 C 
ATOM     18  HN  UNL d   1      -2.867  -0.713  -9.164  1.00  0.00     0.187 HD
BRANCH  14  19
ATOM     19  C   UNL d   1      -6.641  -3.285  -8.549  0.00  0.00     0.434 C 
ATOM     20  F   UNL d   1      -7.166  -2.991  -9.764  0.00  0.00    -0.165 F 
ATOM     21  F   UNL d   1      -6.535  -4.636  -8.485  0.00  0.00    -0.165 F 
ATOM     22  F   UNL d   1      -7.567  -2.921  -7.627  0.00  0.00    -0.165 F 
ENDBRANCH  14  19
ENDBRANCH   9  12
ENDBRANCH   4   7
BRANCH   1  23
ATOM     23  S   UNL d   1       2.388  -0.202  -0.588  0.00  0.00     0.282 S 
ATOM     24  O   UNL d   1       2.184  -0.775   0.731  0.00  0.00    -0.198 OA
ATOM     25  O   UNL d   1       2.329   1.228  -0.819  0.00  0.00    -0.198 OA
BRANCH  23  26
ATOM     26  C   UNL d   1       3.930  -0.798  -1.224  0.00  0.00     0.081 A 
ATOM     27  C   UNL d   1       4.305  -0.495  -2.537  0.00  0.00     0.027 A 
ATOM     28  C   UNL d   1       5.568  -0.879  -2.996  0.00  0.00     0.025 A 
ATOM     29  C   UNL d   1       6.446  -1.551  -2.144  0.00  0.00     0.034 A 
ATOM     30  C   UNL d   1       6.069  -1.856  -0.836  0.00  0.00     0.025 A 
ATOM     31 CL   UNL d   1       8.014  -1.984  -2.701  0.00  0.00    -0.084 Cl
ATOM     32  C   UNL d   1       4.807  -1.479  -0.371  0.00  0.00     0.027 A 
ENDBRANCH  23  26
ENDBRANCH   1  23
TORSDOF 5
