REMARK  3 active torsions:
REMARK  status: ('A' for Active; 'I' for Inactive)
REMARK    1  A    between atoms: C_6  and  C_1 
REMARK    2  A    between atoms: C_5  and  C_4 
REMARK       I    between atoms: N_10  and  C_6 
REMARK    3  A    between atoms: C_13  and  N_10 
ROOT
ATOM      1  C   UNL d   1       1.220   0.805  -0.126  0.00  0.00     0.108 A 
ATOM      2  N   UNL d   1       1.431  -0.556   0.119  0.00  0.00    -0.345 N 
ATOM      3  HN  UNL d   1       2.304  -0.958   0.463  1.00  0.00     0.167 HD
ATOM      4  C   UNL d   1       0.341  -1.249  -0.160  0.00  0.00     0.086 A 
ATOM      5  S   UNL d   1      -0.976  -0.302  -0.765  0.00  0.00    -0.081 SA
ATOM      6  C   UNL d   1      -0.046   1.113  -0.589  0.00  0.00     0.087 A 
ENDROOT
BRANCH   1   7
ATOM      7  C   UNL d   1       2.249   1.828   0.100  0.00  0.00     0.273 C 
ATOM      8  N   UNL d   1       3.493   1.295   0.379  0.00  0.00    -0.322 N 
ATOM      9  H   UNL d   1       3.550   0.283   0.303  0.00  0.00     0.169 HD
ATOM     10  O   UNL d   1       1.976   3.021   0.012  0.00  0.00    -0.266 OA
BRANCH   8  11
ATOM     11  C   UNL d   1       4.665   2.007   0.712  0.00  0.00     0.035 A 
ATOM     12  C   UNL d   1       4.678   3.378   0.999  0.00  0.00     0.032 A 
ATOM     13  C   UNL d   1       5.867   4.022   1.354  0.00  0.00     0.044 A 
ATOM     14  C   UNL d   1       7.047   3.297   1.415  0.00  0.00     0.116 A 
ATOM     15  C   UNL d   1       7.060   1.938   1.129  0.00  0.00     0.044 A 
ATOM     16  F   UNL d   1       8.185   3.913   1.759  0.00  0.00    -0.206 F 
ATOM     17  C   UNL d   1       5.868   1.291   0.783  0.00  0.00     0.032 A 
ENDBRANCH   8  11
ENDBRANCH   1   7
BRANCH   4  18
ATOM     18  C   UNL d   1       0.176  -2.711  -0.019  0.00  0.00     0.021 A 
ATOM     19  C   UNL d   1       1.174  -3.630  -0.407  0.00  0.00     0.068 A 
ATOM     20  C   UNL d   1       0.937  -5.014  -0.284  0.00  0.00     0.056 A 
ATOM     21 CL   UNL d   1       2.682  -3.080  -1.081  0.00  0.00    -0.082 Cl
ATOM     22 CL   UNL d   1       2.104  -6.206  -0.750  0.00  0.00    -0.083 Cl
ATOM     23  C   UNL d   1      -0.278  -5.489   0.219  0.00  0.00     0.026 A 
ATOM     24  C   UNL d   1      -1.261  -4.594   0.621  0.00  0.00     0.003 A 
ATOM     25  C   UNL d   1      -1.031  -3.223   0.511  0.00  0.00     0.016 A 
ENDBRANCH   4  18
TORSDOF 3
