REMARK  4 active torsions:
REMARK  status: ('A' for Active; 'I' for Inactive)
REMARK    1  A    between atoms: C_3  and  N_1 
REMARK    2  A    between atoms: C_2  and  C_8 
REMARK    3  A    between atoms: O_9  and  C_15 
REMARK    4  A    between atoms: C_14  and  O_9 
ROOT
ATOM      1  C   UNL d   1      -1.122   4.859  -6.905  0.00  0.00    -0.035 A 
ATOM      2  C   UNL d   1      -0.876   5.789  -5.880  0.00  0.00     0.012 A 
ATOM      3  C   UNL d   1      -1.557   3.570  -6.544  0.00  0.00     0.012 A 
ATOM      4  C   UNL d   1      -1.619   4.203  -4.214  0.00  0.00     0.076 A 
ATOM      5  C   UNL d   1      -1.102   5.457  -4.544  0.00  0.00     0.038 A 
ATOM      6  C   UNL d   1      -1.804   3.244  -5.207  0.00  0.00     0.038 A 
ENDROOT
BRANCH   4   7
ATOM      7  O   UNL d   1      -1.946   3.844  -2.924  0.00  0.00    -0.311 OA
BRANCH   7   8
ATOM      8  C   UNL d   1      -2.606   4.780  -2.155  0.00  0.00     0.076 A 
ATOM      9  C   UNL d   1      -3.606   5.618  -2.666  0.00  0.00     0.040 A 
ATOM     10  C   UNL d   1      -4.181   6.598  -1.853  0.00  0.00     0.039 A 
ATOM     11  C   UNL d   1      -3.780   6.703  -0.516  0.00  0.00     0.103 A 
ATOM     12  C   UNL d   1      -2.830   5.820   0.017  0.00  0.00     0.039 A 
ATOM     13  C   UNL d   1      -2.247   4.854  -0.808  0.00  0.00     0.040 A 
BRANCH  11  14
ATOM     14  N   UNL d   1      -4.351   7.760   0.328  0.00  0.00    -0.116 N 
ATOM     15  O   UNL d   1      -4.046   7.765   1.529  0.00  0.00    -0.532 OA
ATOM     16  O   UNL d   1      -5.095   8.590  -0.212  0.00  0.00    -0.532 OA
ENDBRANCH  11  14
ENDBRANCH   7   8
ENDBRANCH   4   7
BRANCH   1  17
ATOM     17  C   UNL d   1      -0.896   5.268  -8.346  0.00  0.00     0.141 C 
ATOM     18  S   UNL d   1      -2.354   4.979  -9.402  0.00  0.00    -0.148 SA
ATOM     19  C   UNL d   1      -1.435   4.446 -10.865  0.00  0.00     0.085 C 
ATOM     20  C   UNL d   1      -0.290   3.577 -10.386  0.00  0.00     0.085 C 
ATOM     21  S   UNL d   1       0.572   4.463  -9.064  0.00  0.00    -0.148 SA
ENDBRANCH   1  17
TORSDOF 4
