REMARK  2 active torsions:
REMARK  status: ('A' for Active; 'I' for Inactive)
REMARK    1  A    between atoms: C_6  and  C_1 
REMARK    2  A    between atoms: C_7  and  C_2 
ROOT
ATOM      1  C   UNL d   1       0.160   1.282  -0.080  0.00  0.00     0.026 A 
ATOM      2  C   UNL d   1       1.424   0.708   0.076  0.00  0.00    -0.007 A 
ATOM      3  S   UNL d   1      -1.060   0.063  -0.213  0.00  0.00    -0.100 SA
ATOM      4  C   UNL d   1       0.060  -1.202  -0.027  0.00  0.00     0.051 A 
ATOM      5  C   UNL d   1       1.343  -0.730   0.113  0.00  0.00     0.021 A 
ENDROOT
BRANCH   1   6
ATOM      6  C   UNL d   1      -0.274   2.692  -0.176  0.00  0.00    -0.018 A 
ATOM      7  C   UNL d   1       0.412   3.603  -0.997  0.00  0.00     0.013 A 
ATOM      8  C   UNL d   1       0.057   4.954  -1.024  0.00  0.00     0.001 A 
ATOM      9  C   UNL d   1      -1.013   5.412  -0.257  0.00  0.00     0.000 A 
ATOM     10  C   UNL d   1      -1.727   4.517   0.536  0.00  0.00     0.001 A 
ATOM     11  C   UNL d   1      -1.355   3.172   0.582  0.00  0.00     0.013 A 
ENDBRANCH   1   6
BRANCH   2  12
ATOM     12  C   UNL d   1       2.681   1.462   0.169  0.00  0.00    -0.025 A 
ATOM     13  C   UNL d   1       2.800   2.620   0.949  0.00  0.00     0.012 A 
ATOM     14  C   UNL d   1       3.994   3.348   0.964  0.00  0.00     0.001 A 
ATOM     15  C   UNL d   1       5.096   2.902   0.240  0.00  0.00     0.000 A 
ATOM     16  C   UNL d   1       5.008   1.726  -0.501  0.00  0.00     0.001 A 
ATOM     17  C   UNL d   1       3.807   1.014  -0.541  0.00  0.00     0.012 A 
ENDBRANCH   2  12
TORSDOF 2
