REMARK  4 active torsions:
REMARK  status: ('A' for Active; 'I' for Inactive)
REMARK    1  A    between atoms: C_6  and  S_1 
REMARK    2  A    between atoms: O_8  and  S_1 
REMARK    3  A    between atoms: C_4  and  C_9 
REMARK    4  A    between atoms: C_12  and  O_8 
ROOT
ATOM      1  C   UNL d   1       1.196  -4.976  -1.565  0.00  0.00    -0.006 C 
ATOM      2  C   UNL d   1       0.726  -2.662   0.030  0.00  0.00     0.101 C 
ATOM      3  C   UNL d   1      -0.331  -3.537  -0.281  0.00  0.00    -0.026 C 
ATOM      4  C   UNL d   1       2.032  -2.979  -0.449  0.00  0.00    -0.026 C 
ATOM      5  C   UNL d   1      -0.041  -4.728  -0.983  0.00  0.00     0.023 C 
ATOM      6  C   UNL d   1       2.243  -4.109  -1.272  0.00  0.00     0.023 C 
ATOM      7  C   UNL d   1      -1.813  -3.393  -0.047  0.00  0.00     0.051 C 
ATOM      8  C   UNL d   1       3.242  -2.123  -0.160  0.00  0.00     0.051 C 
ENDROOT
BRANCH   1   9
ATOM      9  C   UNL d   1       1.401  -6.175  -2.447  0.00  0.00     0.070 C 
ATOM     10  N   UNL d   1       2.550  -6.776  -2.348  0.00  0.00    -0.294 N 
ATOM     11  N   UNL d   1       2.767  -7.938  -3.042  0.00  0.00    -0.261 N 
ATOM     12  HN  UNL d   1       3.285  -6.386  -1.758  1.00  0.00     0.187 HD
ATOM     13  C   UNL d   1       4.054  -8.577  -2.853  0.00  0.00     0.181 C 
ATOM     14  C   UNL d   1       1.802  -8.601  -3.789  0.00  0.00     0.272 C 
ATOM     15  C   UNL d   1       0.502  -7.926  -3.925  0.00  0.00     0.046 A 
ATOM     16  O   UNL d   1       1.986  -9.681  -4.346  0.00  0.00    -0.266 OA
ATOM     17  C   UNL d   1       0.318  -6.675  -3.347  0.00  0.00     0.009 A 
ATOM     18  C   UNL d   1      -0.524  -8.532  -4.666  0.00  0.00     0.018 A 
ATOM     19  C   UNL d   1      -0.870  -5.980  -3.630  0.00  0.00     0.015 A 
ATOM     20  C   UNL d   1      -1.906  -6.591  -4.341  0.00  0.00     0.001 A 
ATOM     21  C   UNL d   1      -1.740  -7.877  -4.845  0.00  0.00     0.001 A 
ENDBRANCH   1   9
BRANCH   2  22
ATOM     22  O   UNL d   1       0.681  -1.486   0.752  0.00  0.00    -0.228 OA
BRANCH  22  23
ATOM     23  S   UNL d   1      -0.559  -1.010   1.685  0.00  0.00     0.304 S 
ATOM     24  O   UNL d   1      -1.518  -0.345   0.816  0.00  0.00    -0.193 OA
ATOM     25  O   UNL d   1      -0.971  -2.085   2.570  0.00  0.00    -0.193 OA
BRANCH  23  26
ATOM     26  C   UNL d   1       0.039   0.266   2.759  0.00  0.00     0.110 A 
ATOM     27  C   UNL d   1      -0.749   1.425   2.885  0.00  0.00     0.051 A 
ATOM     28  C   UNL d   1      -0.394   2.411   3.797  0.00  0.00     0.035 A 
ATOM     29 CL   UNL d   1      -1.383   3.805   3.978  0.00  0.00    -0.084 Cl
ATOM     30  C   UNL d   1       0.746   2.260   4.579  0.00  0.00     0.025 A 
ATOM     31  C   UNL d   1       1.530   1.110   4.450  0.00  0.00     0.027 A 
ATOM     32  C   UNL d   1       1.177   0.099   3.546  0.00  0.00     0.058 A 
ATOM     33 CL   UNL d   1       2.167  -1.309   3.518  0.00  0.00    -0.083 Cl
ENDBRANCH  23  26
ENDBRANCH  22  23
ENDBRANCH   2  22
TORSDOF 4
