REMARK  11 active torsions:
REMARK  status: ('A' for Active; 'I' for Inactive)
REMARK    1  A    between atoms: C_2  and  C_1 
REMARK    2  A    between atoms: O_18  and  C_3 
REMARK       I    between atoms: C_7  and  N_8 
REMARK    3  A    between atoms: C_20  and  C_7 
REMARK    4  A    between atoms: N_8  and  C_10 
REMARK    5  A    between atoms: C_9  and  C_21 
REMARK    6  A    between atoms: O_19  and  C_9 
REMARK    7  A    between atoms: S_17  and  C_20 
REMARK    8  A    between atoms: C_21  and  S_17 
REMARK    9  A    between atoms: C_23  and  O_18 
REMARK   10  A    between atoms: O_22  and  C_24 
REMARK   11  A    between atoms: C_24  and  C_23 
ROOT
ATOM      1  C   UNL d   1       0.737   1.298   0.045  0.00  0.00     0.101 A 
ATOM      2  C   UNL d   1      -0.634   1.128   0.059  0.00  0.00     0.157 A 
ATOM      3  N   UNL d   1      -1.217  -0.096   0.001  0.00  0.00    -0.344 N 
ATOM      4  HN  UNL d   1      -2.232  -0.192  -0.027  1.00  0.00     0.167 HD
ATOM      5  C   UNL d   1       1.535   0.135   0.038  0.00  0.00     0.051 A 
ATOM      6  C   UNL d   1       0.967  -1.133   0.031  0.00  0.00     0.051 A 
ATOM      7  C   UNL d   1      -0.417  -1.186  -0.020  0.00  0.00     0.119 A 
ENDROOT
BRANCH   6   8
ATOM      8  N   UNL d   1       1.710  -2.332   0.058  0.00  0.00    -0.325 N 
ATOM      9  C   UNL d   1       3.058  -2.437   0.368  0.00  0.00     0.231 C 
ATOM     10  O   UNL d   1       3.789  -1.513   0.721  0.00  0.00    -0.272 OA
ATOM     11  H   UNL d   1       1.197  -3.193  -0.092  0.00  0.00     0.169 HD
BRANCH   9  12
ATOM     12  C   UNL d   1       3.644  -3.825   0.186  0.00  0.00     0.177 C 
BRANCH  12  13
ATOM     13  S   UNL d   1       4.416  -3.971  -1.461  0.00  0.00    -0.149 SA
BRANCH  13  14
ATOM     14  C   UNL d   1       5.567  -2.549  -1.458  0.00  0.00     0.184 C 
BRANCH  14  15
ATOM     15  C   UNL d   1       6.616  -2.641  -0.373  0.00  0.00     0.149 C 
ATOM     16  O   UNL d   1       7.654  -3.279  -0.483  0.00  0.00    -0.649 OA
BRANCH  15  17
ATOM     17  O   UNL d   1       6.315  -1.967   0.761  0.00  0.00    -0.776 OA
ATOM     18  H   UNL d   1       5.431  -1.525   0.765  0.00  0.00     0.167 HD
ENDBRANCH  15  17
ENDBRANCH  14  15
ENDBRANCH  13  14
ENDBRANCH  12  13
ENDBRANCH   9  12
ENDBRANCH   6   8
BRANCH   1  19
ATOM     19  C   UNL d   1       1.421   2.629   0.053  0.00  0.00     0.421 C 
ATOM     20  F   UNL d   1       0.619   3.724   0.095  0.00  0.00    -0.166 F 
ATOM     21  F   UNL d   1       2.267   2.752   1.117  0.00  0.00    -0.166 F 
ATOM     22  F   UNL d   1       2.211   2.790  -1.048  0.00  0.00    -0.166 F 
ENDBRANCH   1  19
BRANCH   2  23
ATOM     23  O   UNL d   1      -1.469   2.227   0.098  0.00  0.00    -0.333 OA
BRANCH  23  24
ATOM     24  C   UNL d   1      -2.750   1.895   0.649  0.00  0.00     0.203 C 
BRANCH  24  25
ATOM     25  C   UNL d   1      -3.697   3.093   0.648  0.00  0.00     0.193 C 
BRANCH  25  26
ATOM     26  O   UNL d   1      -4.906   2.677   1.291  0.00  0.00    -0.394 OA
ATOM     27  C   UNL d   1      -5.901   3.687   1.309  0.00  0.00     0.201 C 
ENDBRANCH  25  26
ENDBRANCH  24  25
ENDBRANCH  23  24
ENDBRANCH   2  23
TORSDOF 11
