REMARK  5 active torsions:
REMARK  status: ('A' for Active; 'I' for Inactive)
REMARK    1  A    between atoms: C_10  and  C_3 
REMARK    2  A    between atoms: N_19  and  C_10 
REMARK    3  A    between atoms: O_17  and  N_12 
REMARK    4  A    between atoms: C_15  and  O_17 
REMARK       I    between atoms: N_16  and  C_15 
REMARK    5  A    between atoms: C_20  and  N_16 
ROOT
ATOM      1  C   UNL d   1       2.302  -2.621  -0.114  0.00  0.00     0.135 C 
ATOM      2  N   UNL d   1       1.419  -3.542  -0.382  0.00  0.00    -0.239 N 
ATOM      3  HN  UNL d   1       1.592  -4.539  -0.508  1.00  0.00     0.196 HD
ENDROOT
BRANCH   1   4
ATOM      4  C   UNL d   1       3.724  -2.917  -0.128  0.00  0.00     0.072 A 
ATOM      5  C   UNL d   1       4.766  -2.001  -0.054  0.00  0.00     0.142 A 
ATOM      6  N   UNL d   1       5.962  -2.730  -0.145  0.00  0.00    -0.244 N 
ATOM      7  N   UNL d   1       4.757  -0.629   0.061  0.00  0.00    -0.344 N 
ATOM      8  N   UNL d   1       5.711  -4.061  -0.262  0.00  0.00    -0.302 N 
ATOM      9  C   UNL d   1       7.200  -2.071  -0.126  0.00  0.00     0.034 A 
ATOM     10  C   UNL d   1       4.378  -4.156  -0.266  0.00  0.00     0.127 A 
ATOM     11  HN  UNL d   1       6.390  -4.819  -0.331  1.00  0.00     0.186 HD
ATOM     12  C   UNL d   1       8.461  -2.874  -0.245  0.00  0.00     0.070 C 
ATOM     13  C   UNL d   1       7.233  -0.728  -0.027  0.00  0.00     0.051 A 
ATOM     14  C   UNL d   1       5.916  -0.035   0.078  0.00  0.00     0.009 A 
ATOM     15  C   UNL d   1       5.938   1.466   0.236  0.00  0.00     0.068 C 
ATOM     16  HN  UNL d   1       3.886  -0.104   0.129  1.00  0.00     0.167 HD
ENDBRANCH   1   4
BRANCH   1  17
ATOM     17  N   UNL d   1       2.024  -1.313   0.178  0.00  0.00    -0.383 N 
ATOM     18  H   UNL d   1       2.785  -0.645   0.055  0.00  0.00     0.157 HD
ATOM     19  H   UNL d   1       1.117  -0.987  -0.128  0.00  0.00     0.157 HD
ENDBRANCH   1  17
BRANCH   2  20
ATOM     20  O   UNL d   1       0.167  -2.877  -0.464  0.00  0.00    -0.179 OA
BRANCH  20  21
ATOM     21  C   UNL d   1      -0.960  -3.652  -0.304  0.00  0.00     0.387 C 
ATOM     22  N   UNL d   1      -0.739  -4.997  -0.132  0.00  0.00    -0.301 N 
ATOM     23  H   UNL d   1       0.237  -5.256  -0.205  0.00  0.00     0.171 HD
ATOM     24  O   UNL d   1      -2.053  -3.091  -0.322  0.00  0.00    -0.236 OA
BRANCH  22  25
ATOM     25  C   UNL d   1      -1.706  -5.978   0.187  0.00  0.00     0.036 A 
ATOM     26  C   UNL d   1      -3.059  -5.688   0.408  0.00  0.00     0.029 A 
ATOM     27  C   UNL d   1      -3.958  -6.685   0.800  0.00  0.00     0.002 A 
ATOM     28  C   UNL d   1      -3.519  -7.993   0.964  0.00  0.00     0.000 A 
ATOM     29  C   UNL d   1      -2.184  -8.305   0.718  0.00  0.00     0.002 A 
ATOM     30  C   UNL d   1      -1.282  -7.304   0.330  0.00  0.00     0.029 A 
ENDBRANCH  22  25
ENDBRANCH  20  21
ENDBRANCH   2  20
TORSDOF 5
