REMARK  4 active torsions:
REMARK  status: ('A' for Active; 'I' for Inactive)
REMARK    1  A    between atoms: C_2  and  C_1 
REMARK    2  A    between atoms: C_16  and  C_7 
REMARK    3  A    between atoms: C_15  and  C_8 
REMARK    4  A    between atoms: C_11  and  C_14 
ROOT
ATOM      1  C   UNL d   1       0.303  -2.712  -0.050  0.00  0.00     0.054 A 
ATOM      2  N   UNL d   1       1.022  -3.260   0.997  0.00  0.00    -0.349 N 
ATOM      3  HN  UNL d   1       1.287  -2.759   1.845  1.00  0.00     0.166 HD
ATOM      4  C   UNL d   1       1.318  -4.523   0.748  0.00  0.00     0.084 A 
ATOM      5  S   UNL d   1       0.643  -5.135  -0.718  0.00  0.00    -0.081 SA
ATOM      6  C   UNL d   1      -0.012  -3.595  -1.059  0.00  0.00     0.082 A 
ENDROOT
BRANCH   1   7
ATOM      7  C   UNL d   1      -0.041  -1.294  -0.009  0.00  0.00     0.052 A 
ATOM      8  C   UNL d   1       0.748  -0.216   0.502  0.00  0.00     0.080 A 
ATOM      9  N   UNL d   1       0.068   0.939   0.373  0.00  0.00    -0.259 N 
ATOM     10  O   UNL d   1      -1.129   0.633  -0.233  0.00  0.00    -0.241 OA
ATOM     11  HN  UNL d   1       0.380   1.864   0.668  1.00  0.00     0.195 HD
ATOM     12  C   UNL d   1      -1.194  -0.700  -0.471  0.00  0.00     0.087 A 
ATOM     13  C   UNL d   1      -2.428  -1.182  -1.119  0.00  0.00     0.080 C 
BRANCH   8  14
ATOM     14  C   UNL d   1       2.100  -0.206   1.075  0.00  0.00    -0.007 A 
ATOM     15  C   UNL d   1       2.430   0.702   2.092  0.00  0.00     0.014 A 
ATOM     16  C   UNL d   1       3.710   0.715   2.654  0.00  0.00     0.001 A 
ATOM     17  C   UNL d   1       4.677  -0.183   2.207  0.00  0.00     0.000 A 
ATOM     18  C   UNL d   1       4.373  -1.075   1.183  0.00  0.00     0.001 A 
ATOM     19  C   UNL d   1       3.099  -1.074   0.610  0.00  0.00     0.014 A 
ENDBRANCH   8  14
ENDBRANCH   1   7
BRANCH   4  20
ATOM     20  C   UNL d   1       2.114  -5.387   1.639  0.00  0.00    -0.002 A 
ATOM     21  C   UNL d   1       2.135  -5.126   3.018  0.00  0.00     0.015 A 
ATOM     22  C   UNL d   1       2.837  -5.957   3.900  0.00  0.00     0.017 A 
ATOM     23  C   UNL d   1       3.548  -7.065   3.420  0.00  0.00     0.048 A 
ATOM     24  C   UNL d   1       3.571  -7.302   2.039  0.00  0.00     0.017 A 
ATOM     25  C   UNL d   1       2.866  -6.472   1.161  0.00  0.00     0.015 A 
BRANCH  23  26
ATOM     26  C   UNL d   1       4.270  -8.006   4.354  0.00  0.00     0.417 C 
ATOM     27  F   UNL d   1       4.153  -7.673   5.669  0.00  0.00    -0.166 F 
ATOM     28  F   UNL d   1       3.812  -9.285   4.252  0.00  0.00    -0.166 F 
ATOM     29  F   UNL d   1       5.607  -8.069   4.101  0.00  0.00    -0.166 F 
ENDBRANCH  23  26
ENDBRANCH   4  20
TORSDOF 4
