REMARK  4 active torsions:
REMARK  status: ('A' for Active; 'I' for Inactive)
REMARK    1  A    between atoms: C_16  and  C_2 
REMARK    2  A    between atoms: C_7  and  C_13 
REMARK    3  A    between atoms: N_9  and  O_19 
REMARK    4  A    between atoms: O_19  and  C_16 
ROOT
ATOM      1  N   UNL d   1       3.753  -3.623   0.043  0.00  0.00    -0.277 N 
ATOM      2  HN  UNL d   1       3.345  -4.543  -0.118  1.00  0.00     0.193 HD
ATOM      3  C   UNL d   1       5.019  -3.356   0.112  0.00  0.00     0.127 C 
ENDROOT
BRANCH   1   4
ATOM      4  O   UNL d   1       3.038  -2.426   0.228  0.00  0.00    -0.276 OA
BRANCH   4   5
ATOM      5  C   UNL d   1       1.763  -2.733   0.799  0.00  0.00     0.242 C 
BRANCH   5   6
ATOM      6  C   UNL d   1       0.920  -1.502   0.913  0.00  0.00    -0.001 A 
ATOM      7  C   UNL d   1       0.919  -0.612   1.968  0.00  0.00     0.084 A 
ATOM      8  S   UNL d   1      -0.171   0.676   1.784  0.00  0.00    -0.065 SA
ATOM      9 CL   UNL d   1       1.874  -0.683   3.398  0.00  0.00    -0.076 Cl
ATOM     10  C   UNL d   1      -0.664   0.083   0.280  0.00  0.00     0.076 A 
ATOM     11 CL   UNL d   1      -1.865   0.918  -0.618  0.00  0.00    -0.076 Cl
ATOM     12  C   UNL d   1      -0.020  -1.071  -0.089  0.00  0.00     0.043 A 
ENDBRANCH   5   6
ENDBRANCH   4   5
ENDBRANCH   1   4
BRANCH   3  13
ATOM     13  C   UNL d   1       6.042  -4.411  -0.024  0.00  0.00     0.003 A 
ATOM     14  C   UNL d   1       7.305  -4.276   0.567  0.00  0.00     0.047 A 
ATOM     15  C   UNL d   1       8.259  -5.286   0.415  0.00  0.00     0.048 A 
ATOM     16 CL   UNL d   1       7.738  -2.914   1.539  0.00  0.00    -0.083 Cl
ATOM     17  C   UNL d   1       7.952  -6.422  -0.332  0.00  0.00     0.035 A 
ATOM     18  C   UNL d   1       6.697  -6.567  -0.921  0.00  0.00     0.025 A 
ATOM     19 CL   UNL d   1       9.133  -7.658  -0.527  0.00  0.00    -0.084 Cl
ATOM     20  C   UNL d   1       5.737  -5.563  -0.762  0.00  0.00     0.016 A 
ENDBRANCH   3  13
TORSDOF 4
