REMARK  4 active torsions:
REMARK  status: ('A' for Active; 'I' for Inactive)
REMARK    1  A    between atoms: N_12  and  C_1 
REMARK    2  A    between atoms: C_9  and  C_4 
REMARK    3  A    between atoms: N_10  and  C_15 
REMARK       I    between atoms: C_14  and  N_12 
REMARK    4  A    between atoms: C_15  and  C_14 
ROOT
ATOM      1  N   UNL d   1      -0.817   2.900   0.467  0.00  0.00    -0.310 N 
ATOM      2  C   UNL d   1      -2.067   3.449   0.323  0.00  0.00     0.243 C 
ATOM      3  O   UNL d   1      -3.133   2.823   0.294  0.00  0.00    -0.271 OA
ATOM      4  H   UNL d   1      -0.019   3.532   0.506  0.00  0.00     0.170 HD
ENDROOT
BRANCH   1   5
ATOM      5  C   UNL d   1      -0.541   1.546   0.542  0.00  0.00     0.135 A 
ATOM      6  N   UNL d   1      -1.465   0.588   0.490  0.00  0.00    -0.282 N 
ATOM      7  N   UNL d   1      -0.776  -0.559   0.543  0.00  0.00    -0.294 N 
ATOM      8  HN  UNL d   1      -2.477   0.703   0.426  1.00  0.00     0.189 HD
ATOM      9  C   UNL d   1      -1.486  -1.811   0.445  0.00  0.00     0.178 C 
ATOM     10  C   UNL d   1       0.580  -0.394   0.642  0.00  0.00     0.064 A 
ATOM     11  C   UNL d   1       0.771   0.987   0.655  0.00  0.00     0.038 A 
ATOM     12  C   UNL d   1       1.637  -1.312   0.708  0.00  0.00     0.032 A 
ATOM     13  C   UNL d   1       2.087   1.484   0.747  0.00  0.00     0.017 A 
ATOM     14  C   UNL d   1       3.157   0.579   0.811  0.00  0.00     0.001 A 
ATOM     15  C   UNL d   1       2.932  -0.796   0.788  0.00  0.00     0.002 A 
ENDBRANCH   1   5
BRANCH   2  16
ATOM     16  C   UNL d   1      -2.165   4.954   0.187  0.00  0.00     0.251 C 
BRANCH  16  17
ATOM     17  N   UNL d   1      -0.964   5.781   0.177  0.00  0.00    -0.294 N 
ATOM     18  N   UNL d   1       0.266   5.298   0.458  0.00  0.00    -0.294 N 
ATOM     19  C   UNL d   1       1.066   6.388   0.463  0.00  0.00     0.133 A 
ATOM     20  HN  UNL d   1       0.532   4.328   0.628  1.00  0.00     0.187 HD
ATOM     21  C   UNL d   1       0.324   7.560   0.158  0.00  0.00     0.054 A 
ATOM     22  C   UNL d   1      -0.968   7.135  -0.028  0.00  0.00     0.113 A 
BRANCH  19  23
ATOM     23  C   UNL d   1       2.538   6.337   0.782  0.00  0.00     0.433 C 
ATOM     24  F   UNL d   1       3.009   5.069   0.927  0.00  0.00    -0.165 F 
ATOM     25  F   UNL d   1       3.286   6.923  -0.192  0.00  0.00    -0.165 F 
ATOM     26  F   UNL d   1       2.822   6.996   1.937  0.00  0.00    -0.165 F 
ENDBRANCH  19  23
ENDBRANCH  16  17
ENDBRANCH   2  16
TORSDOF 4
