REMARK  5 active torsions:
REMARK  status: ('A' for Active; 'I' for Inactive)
REMARK    1  A    between atoms: S_4  and  C_1 
REMARK    2  A    between atoms: C_3  and  C_2 
REMARK       I    between atoms: N_5  and  C_3 
REMARK    3  A    between atoms: C_8  and  S_4 
REMARK    4  A    between atoms: C_11  and  N_5 
REMARK    5  A    between atoms: C_13  and  C_11 
ROOT
ATOM      1  C   UNL d   1      -0.693   0.904  -0.347  0.00  0.00     0.090 A 
ATOM      2  C   UNL d   1       0.430   1.319   0.369  0.00  0.00     0.065 A 
ATOM      3  N   UNL d   1      -0.863  -0.394  -0.722  0.00  0.00    -0.359 N 
ATOM      4  HN  UNL d   1      -1.725  -0.697  -1.176  1.00  0.00     0.166 HD
ATOM      5  C   UNL d   1       1.468   0.390   0.558  0.00  0.00     0.021 A 
ATOM      6  C   UNL d   1       0.133  -1.271  -0.481  0.00  0.00     0.089 A 
ATOM      7  C   UNL d   1       1.323  -0.922   0.121  0.00  0.00     0.018 A 
ENDROOT
BRANCH   2   8
ATOM      8  C   UNL d   1       0.612   2.643   1.021  0.00  0.00     0.254 C 
ATOM      9  N   UNL d   1      -0.508   3.226   1.567  0.00  0.00    -0.353 N 
ATOM     10  H   UNL d   1      -1.406   2.765   1.495  0.00  0.00     0.163 HD
ATOM     11  O   UNL d   1       1.739   3.107   1.147  0.00  0.00    -0.268 OA
BRANCH   9  12
ATOM     12  C   UNL d   1      -0.425   4.362   2.462  0.00  0.00     0.161 C 
BRANCH  12  13
ATOM     13  C   UNL d   1      -1.660   5.221   2.375  0.00  0.00    -0.041 A 
ATOM     14  C   UNL d   1      -2.355   5.603   3.531  0.00  0.00     0.009 A 
ATOM     15  C   UNL d   1      -3.497   6.405   3.440  0.00  0.00     0.007 A 
ATOM     16  C   UNL d   1      -3.958   6.848   2.195  0.00  0.00    -0.062 A 
ATOM     17  C   UNL d   1      -3.258   6.479   1.041  0.00  0.00     0.007 A 
ATOM     18  C   UNL d   1      -5.209   7.670   2.101  0.00  0.00     0.048 C 
ATOM     19  C   UNL d   1      -2.115   5.684   1.133  0.00  0.00     0.009 A 
ENDBRANCH  12  13
ENDBRANCH   9  12
ENDBRANCH   2   8
BRANCH   1  20
ATOM     20  S   UNL d   1      -2.016   1.992  -0.861  0.00  0.00    -0.072 SA
BRANCH  20  21
ATOM     21  C   UNL d   1      -1.893   1.974  -2.649  0.00  0.00     0.008 A 
ATOM     22  C   UNL d   1      -1.921   3.193  -3.338  0.00  0.00     0.042 A 
ATOM     23  C   UNL d   1      -1.889   3.210  -4.736  0.00  0.00     0.035 A 
ATOM     24 CL   UNL d   1      -1.952   4.713  -5.574  0.00  0.00    -0.084 Cl
ATOM     25  C   UNL d   1      -1.823   2.023  -5.463  0.00  0.00     0.024 A 
ATOM     26  C   UNL d   1      -1.804   0.809  -4.785  0.00  0.00     0.003 A 
ATOM     27  C   UNL d   1      -1.851   0.786  -3.390  0.00  0.00     0.019 A 
ENDBRANCH  20  21
ENDBRANCH   1  20
TORSDOF 5
