REMARK  4 active torsions:
REMARK  status: ('A' for Active; 'I' for Inactive)
REMARK    1  A    between atoms: C_2  and  C_1 
REMARK       I    between atoms: N_6  and  C_2 
REMARK    2  A    between atoms: C_16  and  C_5 
REMARK    3  A    between atoms: C_21  and  N_9 
REMARK    4  A    between atoms: C_20  and  C_21 
ROOT
ATOM      1  C   UNL d   1       0.331  -2.599   0.229  0.00  0.00     0.258 C 
ATOM      2  N   UNL d   1      -0.631  -3.607   0.010  0.00  0.00    -0.344 N 
ATOM      3  N   UNL d   1      -3.041  -5.327   0.205  0.00  0.00     0.095 N 
ATOM      4  O   UNL d   1       1.082  -2.644   1.197  0.00  0.00    -0.267 OA
ATOM      5  C   UNL d   1      -1.643  -3.627  -1.048  0.00  0.00     0.156 C 
ATOM      6  C   UNL d   1      -0.604  -4.825   0.830  0.00  0.00     0.156 C 
ATOM      7  C   UNL d   1      -2.018  -5.270   1.273  0.00  0.00     0.292 C 
ATOM      8  C   UNL d   1      -3.029  -4.065  -0.549  0.00  0.00     0.292 C 
ENDROOT
BRANCH   1   9
ATOM      9  C   UNL d   1       0.425  -1.481  -0.711  0.00  0.00     0.092 C 
ATOM     10  C   UNL d   1       0.664  -0.077  -0.445  0.00  0.00     0.083 C 
ATOM     11  N   UNL d   1       0.662   0.603  -1.606  0.00  0.00    -0.259 N 
ATOM     12  O   UNL d   1       0.544  -0.303  -2.611  0.00  0.00    -0.241 OA
ATOM     13  HN  UNL d   1       0.735   1.615  -1.712  1.00  0.00     0.195 HD
ATOM     14  C   UNL d   1       0.460  -1.550  -2.097  0.00  0.00     0.090 C 
ATOM     15  C   UNL d   1       0.448  -2.605  -3.129  0.00  0.00     0.080 C 
BRANCH  10  16
ATOM     16  C   UNL d   1       0.875   0.706   0.785  0.00  0.00    -0.006 A 
ATOM     17  C   UNL d   1       0.323   0.367   2.024  0.00  0.00     0.014 A 
ATOM     18  C   UNL d   1       0.484   1.223   3.128  0.00  0.00     0.001 A 
ATOM     19  C   UNL d   1       1.194   2.418   3.010  0.00  0.00     0.000 A 
ATOM     20  C   UNL d   1       1.769   2.760   1.794  0.00  0.00     0.001 A 
ATOM     21  C   UNL d   1       1.613   1.906   0.697  0.00  0.00     0.014 A 
ENDBRANCH  10  16
ENDBRANCH   1   9
BRANCH   3  22
ATOM     22  C   UNL d   1      -2.920  -6.499  -0.676  0.00  0.00     0.311 C 
BRANCH  22  23
ATOM     23  C   UNL d   1      -3.244  -7.791   0.044  0.00  0.00    -0.027 A 
ATOM     24  C   UNL d   1      -2.321  -8.848   0.057  0.00  0.00     0.048 A 
ATOM     25  C   UNL d   1      -2.639  -9.976   0.782  0.00  0.00     0.105 A 
ATOM     26  O   UNL d   1      -1.851 -11.076   0.921  0.00  0.00    -0.323 OA
ATOM     27  C   UNL d   1      -3.824 -10.089   1.472  0.00  0.00     0.105 A 
ATOM     28  C   UNL d   1      -2.685 -11.900   1.763  0.00  0.00     0.352 A 
ATOM     29  O   UNL d   1      -3.925 -11.268   2.140  0.00  0.00    -0.323 OA
ATOM     30  C   UNL d   1      -4.768  -9.087   1.460  0.00  0.00     0.040 A 
ATOM     31  C   UNL d   1      -4.476  -7.932   0.731  0.00  0.00     0.012 A 
ENDBRANCH  22  23
ENDBRANCH   3  22
TORSDOF 4
