REMARK  3 active torsions:
REMARK  status: ('A' for Active; 'I' for Inactive)
REMARK    1  A    between atoms: C_2  and  S_1 
REMARK    2  A    between atoms: O_3  and  S_1 
REMARK    3  A    between atoms: C_6  and  O_3 
ROOT
ATOM      1  S   UNL d   1       1.417  -0.356   0.591  0.00  0.00     0.306 S 
ATOM      2  O   UNL d   1       2.514  -0.894   1.371  0.00  0.00    -0.193 OA
ATOM      3  O   UNL d   1       1.691   0.566  -0.498  0.00  0.00    -0.193 OA
ENDROOT
BRANCH   1   4
ATOM      4  C   UNL d   1       0.332   0.502   1.699  0.00  0.00     0.125 A 
ATOM      5  C   UNL d   1       0.241   0.098   3.027  0.00  0.00     0.143 A 
ATOM      6  C   UNL d   1      -0.541   0.816   3.929  0.00  0.00     0.086 A 
ATOM      7  F   UNL d   1       0.881  -0.988   3.474  0.00  0.00    -0.204 F 
ATOM      8  C   UNL d   1      -1.236   1.935   3.485  0.00  0.00     0.119 A 
ATOM      9  C   UNL d   1      -1.163   2.345   2.157  0.00  0.00     0.044 A 
ATOM     10  F   UNL d   1      -1.986   2.630   4.348  0.00  0.00    -0.206 F 
ATOM     11  C   UNL d   1      -0.370   1.631   1.256  0.00  0.00     0.032 A 
ENDBRANCH   1   4
BRANCH   1  12
ATOM     12  O   UNL d   1       0.497  -1.576   0.025  0.00  0.00    -0.228 OA
BRANCH  12  13
ATOM     13  C   UNL d   1       0.949  -2.468  -0.920  0.00  0.00     0.102 A 
ATOM     14  C   UNL d   1       0.025  -3.422  -1.408  0.00  0.00     0.027 A 
ATOM     15  C   UNL d   1       0.443  -4.357  -2.360  0.00  0.00     0.045 A 
ATOM     16  C   UNL d   1      -1.350  -3.696  -1.146  0.00  0.00     0.033 A 
ATOM     17  N   UNL d   1      -0.640  -5.157  -2.653  0.00  0.00    -0.365 N 
ATOM     18  C   UNL d   1       1.747  -4.397  -2.859  0.00  0.00     0.030 A 
ATOM     19  C   UNL d   1      -1.730  -4.766  -1.923  0.00  0.00     0.089 A 
ATOM     20  H   UNL d   1      -0.623  -5.923  -3.312  0.00  0.00     0.165 HD
ATOM     21  C   UNL d   1       2.649  -3.454  -2.369  0.00  0.00     0.005 A 
ATOM     22  C   UNL d   1       2.261  -2.506  -1.419  0.00  0.00     0.039 A 
ENDBRANCH  12  13
ENDBRANCH   1  12
TORSDOF 3
