REMARK  4 active torsions:
REMARK  status: ('A' for Active; 'I' for Inactive)
REMARK    1  A    between atoms: N_3  and  S_1 
REMARK    2  A    between atoms: C_5  and  C_2 
REMARK    3  A    between atoms: C_4  and  N_3 
REMARK    4  A    between atoms: O_10  and  C_5 
ROOT
ATOM      1  C   UNL d   1       2.192  -0.436  -2.979  0.00  0.00     0.061 A 
ATOM      2  C   UNL d   1       0.887  -0.699  -2.522  0.00  0.00     0.038 A 
ATOM      3  C   UNL d   1       2.423  -0.258  -4.353  0.00  0.00     0.019 A 
ATOM      4  C   UNL d   1      -0.157  -0.816  -3.446  0.00  0.00     0.025 A 
ATOM      5  C   UNL d   1       1.369  -0.355  -5.263  0.00  0.00     0.001 A 
ATOM      6  C   UNL d   1       0.083  -0.636  -4.810  0.00  0.00     0.002 A 
ENDROOT
BRANCH   2   7
ATOM      7  N   UNL d   1       0.584  -0.921  -1.133  0.00  0.00    -0.185 NA
ATOM      8  H   UNL d   1       1.200  -0.381  -0.502  0.00  0.00     0.146 HD
BRANCH   7   9
ATOM      9  S   UNL d   1       0.630  -2.531  -0.594  0.00  0.00     0.210 S 
ATOM     10  O   UNL d   1       0.965  -2.469   0.813  0.00  0.00    -0.211 OA
ATOM     11  O   UNL d   1       1.401  -3.333  -1.517  0.00  0.00    -0.211 OA
ATOM     12  C   UNL d   1      -1.084  -2.995  -0.706  0.00  0.00     0.180 C 
ENDBRANCH   7   9
ENDBRANCH   2   7
BRANCH   1  13
ATOM     13  C   UNL d   1       3.301  -0.268  -2.010  0.00  0.00     0.294 C 
ATOM     14  O   UNL d   1       3.121   0.075  -0.852  0.00  0.00    -0.259 OA
BRANCH  13  15
ATOM     15  O   UNL d   1       4.490  -0.537  -2.602  0.00  0.00    -0.322 OA
ATOM     16  C   UNL d   1       5.645  -0.398  -1.771  0.00  0.00     0.213 C 
ENDBRANCH  13  15
ENDBRANCH   1  13
TORSDOF 4
