REMARK  4 active torsions:
REMARK  status: ('A' for Active; 'I' for Inactive)
REMARK    1  A    between atoms: C_3  and  C_1 
REMARK    2  A    between atoms: N_4  and  C_2 
REMARK    3  A    between atoms: O_16  and  C_3 
REMARK    4  A    between atoms: C_9  and  N_4 
ROOT
ATOM      1  N   UNL d   1       2.212  -1.460  -0.178  0.00  0.00    -0.262 NA
ATOM      2  H   UNL d   1       2.075  -2.008  -1.033  0.00  0.00     0.133 HD
ENDROOT
BRANCH   1   3
ATOM      3  C   UNL d   1       1.150  -0.581  -0.010  0.00  0.00     0.012 C 
ATOM      4  C   UNL d   1       0.360  -0.075  -0.981  0.00  0.00     0.044 C 
ATOM      5  C   UNL d   1      -0.721   0.863  -0.565  0.00  0.00     0.120 C 
ATOM      6  S   UNL d   1      -0.864   0.667   1.232  0.00  0.00    -0.159 SA
ATOM      7  C   UNL d   1       0.707  -0.232   1.395  0.00  0.00     0.126 C 
BRANCH   4   8
ATOM      8  C   UNL d   1       0.452  -0.351  -2.429  0.00  0.00     0.291 C 
ATOM      9  O   UNL d   1      -0.062   0.373  -3.273  0.00  0.00    -0.260 OA
BRANCH   8  10
ATOM     10  O   UNL d   1       1.077  -1.532  -2.660  0.00  0.00    -0.323 OA
ATOM     11  C   UNL d   1       1.149  -1.953  -4.026  0.00  0.00     0.213 C 
ENDBRANCH   8  10
ENDBRANCH   4   8
ENDBRANCH   1   3
BRANCH   1  12
ATOM     12  C   UNL d   1       3.575  -1.037  -0.169  0.00  0.00     0.015 A 
ATOM     13  C   UNL d   1       4.527  -1.836  -0.825  0.00  0.00     0.063 A 
ATOM     14  C   UNL d   1       5.889  -1.535  -0.756  0.00  0.00     0.103 A 
ATOM     15  O   UNL d   1       6.745  -2.381  -1.417  0.00  0.00    -0.346 OA
ATOM     16  C   UNL d   1       6.327  -0.425  -0.034  0.00  0.00     0.102 A 
ATOM     17  C   UNL d   1       8.079  -2.250  -0.914  0.00  0.00     0.202 C 
ATOM     18  C   UNL d   1       8.480  -0.786  -0.823  0.00  0.00     0.202 C 
ATOM     19  O   UNL d   1       7.645  -0.076   0.098  0.00  0.00    -0.346 OA
ATOM     20  C   UNL d   1       5.401   0.373   0.627  0.00  0.00     0.041 A 
ATOM     21  C   UNL d   1       4.036   0.066   0.562  0.00  0.00     0.027 A 
ENDBRANCH   1  12
TORSDOF 4
