REMARK  3 active torsions:
REMARK  status: ('A' for Active; 'I' for Inactive)
REMARK    1  A    between atoms: N_8  and  C_1 
REMARK    2  A    between atoms: C_11  and  C_2 
REMARK       I    between atoms: C_7  and  N_8 
REMARK       I    between atoms: N_9  and  C_7 
REMARK    3  A    between atoms: N_10  and  N_9 
ROOT
ATOM      1  C   UNL d   1      -0.032  -1.275   0.425  0.00  0.00     0.097 A 
ATOM      2  C   UNL d   1      -1.047  -1.240   1.359  0.00  0.00     0.137 A 
ATOM      3  O   UNL d   1      -1.537   0.025   1.443  0.00  0.00    -0.235 OA
ATOM      4  N   UNL d   1      -0.842   0.847   0.575  0.00  0.00    -0.263 N 
ATOM      5  HN  UNL d   1      -0.985   1.847   0.431  1.00  0.00     0.194 HD
ATOM      6  C   UNL d   1       0.054   0.065  -0.037  0.00  0.00     0.058 A 
ATOM      7  C   UNL d   1       0.900   0.641  -1.114  0.00  0.00     0.072 C 
ENDROOT
BRANCH   1   8
ATOM      8  N   UNL d   1       0.644  -2.431   0.066  0.00  0.00    -0.304 N 
ATOM      9  C   UNL d   1       1.984  -2.613  -0.167  0.00  0.00     0.335 C 
ATOM     10  N   UNL d   1       2.809  -1.618   0.323  0.00  0.00    -0.271 N 
ATOM     11  O   UNL d   1       2.364  -3.675  -0.655  0.00  0.00    -0.246 OA
ATOM     12  H   UNL d   1       2.366  -0.936   0.930  0.00  0.00     0.185 HD
ATOM     13  H   UNL d   1       0.146  -3.310   0.155  0.00  0.00     0.171 HD
BRANCH  10  14
ATOM     14  N   UNL d   1       4.188  -1.791   0.566  0.00  0.00    -0.227 NA
ATOM     15  C   UNL d   1       4.572  -3.065   1.191  0.00  0.00     0.113 C 
ATOM     16  C   UNL d   1       5.986  -2.935   1.761  0.00  0.00     0.016 C 
ATOM     17  C   UNL d   1       6.989  -2.457   0.711  0.00  0.00     0.002 C 
ATOM     18  C   UNL d   1       6.460  -1.266  -0.092  0.00  0.00     0.016 C 
ATOM     19  C   UNL d   1       5.033  -1.494  -0.591  0.00  0.00     0.113 C 
ENDBRANCH  10  14
ENDBRANCH   1   8
BRANCH   2  20
ATOM     20  C   UNL d   1      -1.569  -2.188   2.329  0.00  0.00     0.002 A 
ATOM     21  C   UNL d   1      -0.676  -2.914   3.134  0.00  0.00     0.016 A 
ATOM     22  C   UNL d   1      -1.147  -3.818   4.087  0.00  0.00     0.024 A 
ATOM     23  C   UNL d   1      -2.519  -4.005   4.235  0.00  0.00     0.034 A 
ATOM     24  C   UNL d   1      -3.419  -3.292   3.444  0.00  0.00     0.024 A 
ATOM     25 CL   UNL d   1      -3.105  -5.118   5.407  0.00  0.00    -0.084 Cl
ATOM     26  C   UNL d   1      -2.946  -2.379   2.497  0.00  0.00     0.016 A 
ENDBRANCH   2  20
TORSDOF 3
