REMARK  1 active torsions:
REMARK  status: ('A' for Active; 'I' for Inactive)
REMARK    1  A    between atoms: N_8  and  N_6 
ROOT
ATOM      1  C   UNL d   1       2.531   0.091   0.059  0.00  0.00     0.162 A 
ATOM      2  N   UNL d   1       1.627  -0.956  -0.025  0.00  0.00    -0.330 N 
ATOM      3  S   UNL d   1       1.663   1.666   0.054  0.00  0.00    -0.051 SA
ATOM      4  C   UNL d   1       0.282  -0.568  -0.024  0.00  0.00     0.053 A 
ATOM      5  C   UNL d   1       0.097   0.826   0.006  0.00  0.00     0.035 A 
ATOM      6  N   UNL d   1       3.829  -0.021   0.121  0.00  0.00    -0.303 N 
ATOM      7  HN  UNL d   1       4.279  -0.935   0.077  1.00  0.00     0.182 HD
ATOM      8  C   UNL d   1       2.007  -2.350  -0.004  0.00  0.00     0.158 C 
ATOM      9  C   UNL d   1      -0.837  -1.391  -0.042  0.00  0.00     0.031 A 
ATOM     10  C   UNL d   1      -1.161   1.410   0.011  0.00  0.00     0.021 A 
ATOM     11  C   UNL d   1      -2.115  -0.817  -0.029  0.00  0.00     0.002 A 
ATOM     12  C   UNL d   1      -2.276   0.575  -0.006  0.00  0.00     0.002 A 
ENDROOT
BRANCH   6  13
ATOM     13  N   UNL d   1       4.562   1.112   0.246  0.00  0.00    -0.248 NA
ATOM     14  H   UNL d   1       5.481   1.001  -0.182  0.00  0.00     0.143 HD
ATOM     15  H   UNL d   1       4.107   1.929  -0.166  0.00  0.00     0.143 HD
ENDBRANCH   6  13
TORSDOF 1
