REMARK  17 active torsions:
REMARK  status: ('A' for Active; 'I' for Inactive)
REMARK    1  A    between atoms: C_5  and  C_1 
REMARK    2  A    between atoms: C_6  and  C_2 
REMARK    3  A    between atoms: C_7  and  C_3 
REMARK    4  A    between atoms: C_8  and  C_4 
REMARK    5  A    between atoms: O_24  and  C_5 
REMARK    6  A    between atoms: O_22  and  C_6 
REMARK    7  A    between atoms: O_21  and  C_7 
REMARK    8  A    between atoms: O_23  and  C_8 
REMARK    9  A    between atoms: C_19  and  C_26 
REMARK   10  A    between atoms: C_25  and  C_20 
REMARK   11  A    between atoms: C_29  and  O_21 
REMARK   12  A    between atoms: C_27  and  O_22 
REMARK   13  A    between atoms: C_30  and  O_23 
REMARK   14  A    between atoms: C_28  and  O_24 
REMARK   15  A    between atoms: C_32  and  C_25 
REMARK   16  A    between atoms: C_26  and  C_31 
REMARK   17  A    between atoms: C_31  and  C_32 
ROOT
ATOM      1  C   UNL d   1      -3.155   3.899   0.775  0.00  0.00     0.005 C 
ENDROOT
BRANCH   1   2
ATOM      2  C   UNL d   1      -4.682   3.911   0.893  0.00  0.00     0.038 C 
BRANCH   2   3
ATOM      3  C   UNL d   1      -5.196   5.292   1.185  0.00  0.00    -0.056 A 
ATOM      4  C   UNL d   1      -5.457   6.182   0.135  0.00  0.00     0.024 A 
ATOM      5  C   UNL d   1      -5.849   7.495   0.402  0.00  0.00     0.041 A 
ATOM      6  C   UNL d   1      -5.995   7.921   1.727  0.00  0.00     0.035 A 
ATOM      7  C   UNL d   1      -5.724   7.042   2.781  0.00  0.00     0.041 A 
ATOM      8  C   UNL d   1      -5.332   5.726   2.506  0.00  0.00     0.024 A 
BRANCH   5   9
ATOM      9  C   UNL d   1      -5.961   8.433  -0.751  0.00  0.00     0.293 C 
ATOM     10  O   UNL d   1      -5.764   8.113  -1.908  0.00  0.00    -0.259 OA
BRANCH   9  11
ATOM     11  O   UNL d   1      -6.170   9.692  -0.286  0.00  0.00    -0.318 OA
BRANCH  11  12
ATOM     12  C   UNL d   1      -5.840  10.750  -1.192  0.00  0.00     0.174 C 
ATOM     13  C   UNL d   1      -4.372  11.088  -1.000  0.00  0.00     0.034 C 
ENDBRANCH  11  12
ENDBRANCH   9  11
ENDBRANCH   5   9
BRANCH   7  14
ATOM     14  C   UNL d   1      -5.721   7.591   4.162  0.00  0.00     0.293 C 
ATOM     15  O   UNL d   1      -5.962   8.758   4.421  0.00  0.00    -0.259 OA
BRANCH  14  16
ATOM     16  O   UNL d   1      -5.267   6.654   5.028  0.00  0.00    -0.318 OA
BRANCH  16  17
ATOM     17  C   UNL d   1      -4.687   7.164   6.234  0.00  0.00     0.174 C 
ATOM     18  C   UNL d   1      -3.211   7.404   5.968  0.00  0.00     0.034 C 
ENDBRANCH  16  17
ENDBRANCH  14  16
ENDBRANCH   7  14
ENDBRANCH   2   3
ENDBRANCH   1   2
BRANCH   1  19
ATOM     19  C   UNL d   1      -2.611   2.510   0.455  0.00  0.00     0.005 C 
BRANCH  19  20
ATOM     20  C   UNL d   1      -3.099   1.995  -0.901  0.00  0.00     0.038 C 
BRANCH  20  21
ATOM     21  C   UNL d   1      -2.564   0.618  -1.167  0.00  0.00    -0.056 A 
ATOM     22  C   UNL d   1      -3.284  -0.505  -0.749  0.00  0.00     0.024 A 
ATOM     23  C   UNL d   1      -2.761  -1.790  -0.919  0.00  0.00     0.041 A 
ATOM     24  C   UNL d   1      -1.507  -1.954  -1.520  0.00  0.00     0.035 A 
ATOM     25  C   UNL d   1      -0.782  -0.830  -1.944  0.00  0.00     0.041 A 
ATOM     26  C   UNL d   1      -1.316   0.450  -1.768  0.00  0.00     0.024 A 
BRANCH  23  27
ATOM     27  C   UNL d   1      -3.535  -2.920  -0.345  0.00  0.00     0.293 C 
ATOM     28  O   UNL d   1      -4.625  -2.786   0.186  0.00  0.00    -0.259 OA
BRANCH  27  29
ATOM     29  O   UNL d   1      -2.779  -4.043  -0.352  0.00  0.00    -0.318 OA
BRANCH  29  30
ATOM     30  C   UNL d   1      -3.096  -4.981   0.684  0.00  0.00     0.174 C 
ATOM     31  C   UNL d   1      -2.295  -4.586   1.913  0.00  0.00     0.034 C 
ENDBRANCH  29  30
ENDBRANCH  27  29
ENDBRANCH  23  27
BRANCH  25  32
ATOM     32  C   UNL d   1       0.534  -0.933  -2.620  0.00  0.00     0.293 C 
ATOM     33  O   UNL d   1       1.111   0.019  -3.118  0.00  0.00    -0.259 OA
BRANCH  32  34
ATOM     34  O   UNL d   1       0.923  -2.228  -2.678  0.00  0.00    -0.318 OA
BRANCH  34  35
ATOM     35  C   UNL d   1       1.907  -2.516  -3.678  0.00  0.00     0.174 C 
ATOM     36  C   UNL d   1       1.172  -2.794  -4.978  0.00  0.00     0.034 C 
ENDBRANCH  34  35
ENDBRANCH  32  34
ENDBRANCH  25  32
ENDBRANCH  20  21
ENDBRANCH  19  20
ENDBRANCH   1  19
TORSDOF 17
