REMARK  4 active torsions:
REMARK  status: ('A' for Active; 'I' for Inactive)
REMARK    1  A    between atoms: C_9  and  C_3 
REMARK    2  A    between atoms: C_10  and  N_4 
REMARK    3  A    between atoms: C_8  and  C_9 
REMARK    4  A    between atoms: N_14  and  C_11 
ROOT
ATOM      1  N   UNL d   1       1.128  -0.729  -0.183  0.00  0.00    -0.287 N 
ATOM      2  HN  UNL d   1       1.986  -1.203  -0.466  1.00  0.00     0.188 HD
ATOM      3  C   UNL d   1       1.108   0.559   0.033  0.00  0.00     0.149 C 
ATOM      4  N   UNL d   1      -0.046  -1.425  -0.016  0.00  0.00    -0.267 N 
ATOM      5  C   UNL d   1      -0.176   1.252   0.456  0.00  0.00     0.205 C 
ATOM      6  C   UNL d   1      -1.426   0.528   0.211  0.00  0.00     0.076 C 
ATOM      7  C   UNL d   1      -1.269  -0.781   0.023  0.00  0.00     0.120 C 
ATOM      8  O   UNL d   1      -0.167   2.346   1.001  0.00  0.00    -0.286 OA
ENDROOT
BRANCH   3   9
ATOM      9  C   UNL d   1       2.365   1.355  -0.217  0.00  0.00     0.205 C 
ATOM     10  O   UNL d   1       2.247   2.466  -0.730  0.00  0.00    -0.286 OA
BRANCH   9  11
ATOM     11  C   UNL d   1       3.729   0.829   0.057  0.00  0.00     0.074 C 
ATOM     12  C   UNL d   1       4.051  -0.369   0.561  0.00  0.00     0.088 C 
BRANCH  12  13
ATOM     13  N   UNL d   1       5.303  -0.939   0.764  0.00  0.00    -0.398 N 
ATOM     14  C   UNL d   1       6.576  -0.302   0.423  0.00  0.00     0.148 C 
ATOM     15  C   UNL d   1       5.441  -2.339   1.179  0.00  0.00     0.148 C 
ENDBRANCH  12  13
ENDBRANCH   9  11
ENDBRANCH   3   9
BRANCH   4  16
ATOM     16  C   UNL d   1       0.083  -2.846   0.084  0.00  0.00     0.056 A 
ATOM     17  C   UNL d   1      -0.864  -3.620   0.787  0.00  0.00     0.034 A 
ATOM     18  C   UNL d   1      -0.736  -5.008   0.888  0.00  0.00     0.044 A 
ATOM     19  C   UNL d   1       0.343  -5.640   0.288  0.00  0.00     0.116 A 
ATOM     20  C   UNL d   1       1.303  -4.909  -0.398  0.00  0.00     0.044 A 
ATOM     21  F   UNL d   1       0.463  -6.971   0.379  0.00  0.00    -0.206 F 
ATOM     22  C   UNL d   1       1.178  -3.519  -0.491  0.00  0.00     0.034 A 
ENDBRANCH   4  16
TORSDOF 4
