REMARK  8 active torsions:
REMARK  status: ('A' for Active; 'I' for Inactive)
REMARK    1  A    between atoms: C_9  and  C_2 
REMARK    2  A    between atoms: C_7  and  C_10 
REMARK       I    between atoms: N_19  and  C_7 
REMARK    3  A    between atoms: N_8  and  C_12 
REMARK    4  A    between atoms: C_12  and  C_21 
REMARK    5  A    between atoms: O_20  and  C_22 
REMARK    6  A    between atoms: C_23  and  O_20 
REMARK    7  A    between atoms: C_21  and  C_23 
REMARK    8  A    between atoms: O_26  and  C_21 
ROOT
ATOM      1  C   UNL d   1       7.067  -5.929  -1.090  0.00  0.00     0.170 C 
ENDROOT
BRANCH   1   2
ATOM      2  C   UNL d   1       7.066  -6.489   0.356  0.00  0.00     0.306 C 
BRANCH   2   3
ATOM      3  N   UNL d   1       8.310  -7.184   0.792  0.00  0.00     0.091 N 
ATOM      4  C   UNL d   1       9.480  -6.299   0.644  0.00  0.00     0.273 C 
ATOM      5  C   UNL d   1      10.763  -6.873   1.261  0.00  0.00     0.044 C 
ATOM      6  C   UNL d   1      10.565  -7.224   2.732  0.00  0.00     0.081 C 
ATOM      7  C   UNL d   1       9.399  -8.204   2.832  0.00  0.00     0.044 C 
ATOM      8  C   UNL d   1       8.126  -7.647   2.181  0.00  0.00     0.273 C 
BRANCH   6   9
ATOM      9  C   UNL d   1      10.390  -5.965   3.577  0.00  0.00     0.219 C 
ATOM     10  O   UNL d   1      10.566  -4.819   3.170  0.00  0.00    -0.273 OA
ATOM     11  N   UNL d   1      10.049  -6.152   4.886  0.00  0.00    -0.370 N 
ATOM     12  H   UNL d   1      10.180  -7.045   5.333  0.00  0.00     0.159 HD
ATOM     13  H   UNL d   1      10.030  -5.325   5.466  0.00  0.00     0.159 HD
ENDBRANCH   6   9
ENDBRANCH   2   3
ENDBRANCH   1   2
BRANCH   1  14
ATOM     14  C   UNL d   1       5.722  -5.248  -1.417  0.00  0.00     0.209 C 
BRANCH  14  15
ATOM     15  O   UNL d   1       5.902  -4.486  -2.612  0.00  0.00    -0.349 OA
BRANCH  15  16
ATOM     16  C   UNL d   1       4.819  -3.874  -3.166  0.00  0.00     0.068 A 
ATOM     17  C   UNL d   1       5.133  -2.951  -4.170  0.00  0.00     0.037 A 
ATOM     18  C   UNL d   1       4.125  -2.262  -4.848  0.00  0.00     0.016 A 
ATOM     19  C   UNL d   1       2.781  -2.497  -4.549  0.00  0.00    -0.008 A 
ATOM     20  C   UNL d   1       2.467  -3.420  -3.541  0.00  0.00     0.016 A 
ATOM     21  C   UNL d   1       3.485  -4.101  -2.851  0.00  0.00     0.037 A 
BRANCH  19  22
ATOM     22  C   UNL d   1       1.751  -1.774  -5.290  0.00  0.00     0.063 A 
ATOM     23  N   UNL d   1       2.011  -0.523  -5.846  0.00  0.00    -0.292 N 
ATOM     24  N   UNL d   1       0.964  -0.039  -6.493  0.00  0.00    -0.061 NA
ATOM     25  HN  UNL d   1       2.904  -0.037  -5.763  1.00  0.00     0.183 HD
ATOM     26  S   UNL d   1      -0.348  -1.073  -6.469  0.00  0.00    -0.010 SA
ATOM     27  C   UNL d   1       0.477  -2.256  -5.539  0.00  0.00     0.096 A 
ENDBRANCH  19  22
ENDBRANCH  15  16
ENDBRANCH  14  15
ENDBRANCH   1  14
BRANCH   1  28
ATOM     28  O   UNL d   1       7.297  -6.977  -2.044  0.00  0.00    -0.392 OA
ATOM     29  H   UNL d   1       7.093  -7.824  -1.612  0.00  0.00     0.210 HD
ENDBRANCH   1  28
TORSDOF 8
