REMARK  9 active torsions:
REMARK  status: ('A' for Active; 'I' for Inactive)
REMARK    1  A    between atoms: N_2  and  C_1 
REMARK    2  A    between atoms: N_12  and  C_4 
REMARK    3  A    between atoms: N_13  and  C_8 
REMARK    4  A    between atoms: C_16  and  N_12 
REMARK    5  A    between atoms: C_17  and  N_13 
REMARK    6  A    between atoms: O_14  and  C_19 
REMARK    7  A    between atoms: O_15  and  C_18 
REMARK    8  A    between atoms: C_19  and  C_16 
REMARK    9  A    between atoms: C_18  and  C_17 
ROOT
ATOM      1  C   UNL d   1       1.532   1.196  -0.008  0.00  0.00     0.130 A 
ATOM      2  C   UNL d   1      -0.539  -0.009   0.100  0.00  0.00     0.094 A 
ATOM      3  C   UNL d   1       0.122   1.251   0.078  0.00  0.00     0.084 A 
ATOM      4  C   UNL d   1      -1.973  -0.093   0.086  0.00  0.00     0.103 C 
ATOM      5  N   UNL d   1      -3.131  -0.190   0.101  0.00  0.00    -0.191 NA
ATOM      6  C   UNL d   1       2.262   0.005  -0.071  0.00  0.00     0.040 A 
ATOM      7  C   UNL d   1       0.186  -1.244   0.102  0.00  0.00     0.031 A 
ATOM      8  C   UNL d   1       1.583  -1.204  -0.033  0.00  0.00     0.027 A 
ENDROOT
BRANCH   3   9
ATOM      9  N   UNL d   1      -0.489   2.494   0.239  0.00  0.00    -0.385 N 
ATOM     10  H   UNL d   1      -0.175   3.224  -0.413  0.00  0.00     0.159 HD
BRANCH   9  11
ATOM     11  C   UNL d   1      -1.828   2.759   0.760  0.00  0.00     0.146 C 
BRANCH  11  12
ATOM     12  C   UNL d   1      -1.919   4.219   1.222  0.00  0.00     0.183 C 
BRANCH  12  13
ATOM     13  O   UNL d   1      -1.828   5.094   0.098  0.00  0.00    -0.399 OA
ATOM     14  H   UNL d   1      -1.915   6.001   0.440  0.00  0.00     0.209 HD
ENDBRANCH  12  13
ENDBRANCH  11  12
ENDBRANCH   9  11
ENDBRANCH   3   9
BRANCH   7  15
ATOM     15  N   UNL d   1      -0.488  -2.490   0.114  0.00  0.00    -0.290 NA
ATOM     16  H   UNL d   1      -1.428  -2.410   0.517  0.00  0.00     0.127 HD
BRANCH  15  17
ATOM     17  C   UNL d   1       0.198  -3.627   0.749  0.00  0.00     0.118 C 
BRANCH  17  18
ATOM     18  C   UNL d   1      -0.835  -4.629   1.278  0.00  0.00     0.178 C 
BRANCH  18  19
ATOM     19  O   UNL d   1      -1.653  -3.986   2.258  0.00  0.00    -0.400 OA
ATOM     20  H   UNL d   1      -2.253  -4.662   2.620  0.00  0.00     0.209 HD
ENDBRANCH  18  19
ENDBRANCH  17  18
ENDBRANCH  15  17
ENDBRANCH   7  15
BRANCH   1  21
ATOM     21  N   UNL d   1       2.310   2.425   0.003  0.00  0.00    -0.113 N 
ATOM     22  O   UNL d   1       2.101   3.239  -0.910  0.00  0.00    -0.532 OA
ATOM     23  O   UNL d   1       3.157   2.550   0.899  0.00  0.00    -0.532 OA
ENDBRANCH   1  21
TORSDOF 9
