REMARK  3 active torsions:
REMARK  status: ('A' for Active; 'I' for Inactive)
REMARK    1  A    between atoms: C_4  and  C_1 
REMARK    2  A    between atoms: N_11  and  C_7 
REMARK    3  A    between atoms: C_12  and  N_11 
ROOT
ATOM      1  C   UNL d   1      -3.730  -0.042   0.000  0.00  0.00     0.103 C 
ATOM      2  C   UNL d   1      -4.394   1.132  -0.009  0.00  0.00     0.115 C 
ATOM      3  C   UNL d   1      -2.302  -0.054  -0.016  0.00  0.00     0.104 C 
ATOM      4  N   UNL d   1      -1.142  -0.085  -0.028  0.00  0.00    -0.191 NA
ENDROOT
BRANCH   1   5
ATOM      5  C   UNL d   1      -4.500  -1.248   0.023  0.00  0.00     0.128 A 
ATOM      6  N   UNL d   1      -5.811  -1.420   0.055  0.00  0.00    -0.339 N 
ATOM      7  C   UNL d   1      -6.028  -2.776   0.020  0.00  0.00     0.060 A 
ATOM      8  HN  UNL d   1      -6.522  -0.690   0.097  1.00  0.00     0.167 HD
ATOM      9  C   UNL d   1      -7.230  -3.499   0.018  0.00  0.00     0.032 A 
ATOM     10  C   UNL d   1      -4.823  -3.463  -0.024  0.00  0.00     0.060 A 
ATOM     11  C   UNL d   1      -7.172  -4.899  -0.028  0.00  0.00     0.002 A 
ATOM     12  C   UNL d   1      -5.944  -5.562  -0.072  0.00  0.00     0.002 A 
ATOM     13  C   UNL d   1      -4.735  -4.855  -0.071  0.00  0.00     0.032 A 
ATOM     14  N   UNL d   1      -3.869  -2.476  -0.014  0.00  0.00    -0.339 N 
ATOM     15  H   UNL d   1      -2.871  -2.639  -0.044  0.00  0.00     0.167 HD
ENDBRANCH   1   5
BRANCH   2  16
ATOM     16  N   UNL d   1      -3.897   2.414  -0.090  0.00  0.00    -0.364 N 
ATOM     17  H   UNL d   1      -2.897   2.521  -0.236  0.00  0.00     0.165 HD
BRANCH  16  18
ATOM     18  C   UNL d   1      -4.589   3.625   0.090  0.00  0.00     0.031 A 
ATOM     19  C   UNL d   1      -5.825   3.717   0.738  0.00  0.00     0.030 A 
ATOM     20  C   UNL d   1      -6.485   4.946   0.858  0.00  0.00     0.009 A 
ATOM     21  C   UNL d   1      -5.936   6.106   0.304  0.00  0.00    -0.062 A 
ATOM     22  C   UNL d   1      -4.715   6.020  -0.368  0.00  0.00     0.009 A 
ATOM     23  C   UNL d   1      -6.652   7.416   0.445  0.00  0.00     0.048 C 
ATOM     24  C   UNL d   1      -4.053   4.792  -0.473  0.00  0.00     0.030 A 
ENDBRANCH  16  18
ENDBRANCH   2  16
TORSDOF 3
