REMARK  7 active torsions:
REMARK  status: ('A' for Active; 'I' for Inactive)
REMARK    1  A    between atoms: N_2  and  S_1 
REMARK    2  A    between atoms: C_3  and  S_1 
REMARK    3  A    between atoms: C_6  and  N_2 
REMARK    4  A    between atoms: C_4  and  C_7 
REMARK    5  A    between atoms: C_5  and  C_8 
REMARK    6  A    between atoms: C_15  and  C_6 
REMARK    7  A    between atoms: C_9  and  C_18 
REMARK       I    between atoms: N_30  and  C_9 
ROOT
ATOM      1  S   UNL d   1       1.008  -0.083   0.094  0.00  0.00     0.264 S 
ATOM      2  O   UNL d   1       0.300  -1.003   0.957  0.00  0.00    -0.200 OA
ATOM      3  O   UNL d   1       2.437  -0.154  -0.105  0.00  0.00    -0.200 OA
ENDROOT
BRANCH   1   4
ATOM      4  N   UNL d   1       0.589   1.445   0.617  0.00  0.00    -0.265 N 
ATOM      5  H   UNL d   1      -0.189   1.410   1.270  0.00  0.00     0.180 HD
BRANCH   4   6
ATOM      6  C   UNL d   1       1.339   2.620   0.494  0.00  0.00     0.118 C 
ATOM      7  N   UNL d   1       2.601   2.599   0.247  0.00  0.00    -0.384 N 
ATOM      8  H   UNL d   1       2.947   1.626   0.214  0.00  0.00     0.157 HD
ATOM      9  HN  UNL d   1       3.180   3.427   0.105  1.00  0.00     0.157 HD
BRANCH   6  10
ATOM     10  C   UNL d   1       0.602   3.911   0.616  0.00  0.00     0.008 A 
ATOM     11  C   UNL d   1      -0.791   3.988   0.757  0.00  0.00     0.016 A 
ATOM     12  C   UNL d   1      -1.432   5.235   0.748  0.00  0.00     0.018 A 
ATOM     13  C   UNL d   1      -0.690   6.415   0.606  0.00  0.00     0.031 A 
ATOM     14  C   UNL d   1       0.698   6.345   0.467  0.00  0.00     0.018 A 
ATOM     15  C   UNL d   1       1.336   5.101   0.476  0.00  0.00     0.016 A 
BRANCH  13  16
ATOM     16  C   UNL d   1      -1.413   7.712   0.558  0.00  0.00     0.249 C 
ATOM     17  O   UNL d   1      -2.575   7.782   0.182  0.00  0.00    -0.268 OA
ATOM     18  N   UNL d   1      -0.735   8.819   0.983  0.00  0.00    -0.366 N 
ATOM     19  H   UNL d   1       0.129   8.768   1.503  0.00  0.00     0.159 HD
ATOM     20  H   UNL d   1      -1.261   9.683   1.030  0.00  0.00     0.159 HD
ENDBRANCH  13  16
ENDBRANCH   6  10
ENDBRANCH   4   6
ENDBRANCH   1   4
BRANCH   1  21
ATOM     21  C   UNL d   1       0.236  -0.147  -1.514  0.00  0.00     0.081 A 
ATOM     22  C   UNL d   1       0.560   0.819  -2.474  0.00  0.00     0.041 A 
ATOM     23  C   UNL d   1      -0.058   0.796  -3.733  0.00  0.00     0.050 A 
ATOM     24  C   UNL d   1      -0.989  -0.221  -4.016  0.00  0.00     0.032 A 
ATOM     25  C   UNL d   1      -1.301  -1.212  -3.067  0.00  0.00     0.050 A 
ATOM     26  C   UNL d   1      -0.689  -1.159  -1.805  0.00  0.00     0.041 A 
BRANCH  23  27
ATOM     27  C   UNL d   1       0.261   1.838  -4.783  0.00  0.00     0.417 C 
ATOM     28  F   UNL d   1       1.213   2.728  -4.393  0.00  0.00    -0.166 F 
ATOM     29  F   UNL d   1       0.712   1.284  -5.941  0.00  0.00    -0.166 F 
ATOM     30  F   UNL d   1      -0.830   2.578  -5.120  0.00  0.00    -0.166 F 
ENDBRANCH  23  27
BRANCH  25  31
ATOM     31  C   UNL d   1      -2.271  -2.317  -3.428  0.00  0.00     0.417 C 
ATOM     32  F   UNL d   1      -2.436  -3.239  -2.440  0.00  0.00    -0.166 F 
ATOM     33  F   UNL d   1      -3.514  -1.842  -3.711  0.00  0.00    -0.166 F 
ATOM     34  F   UNL d   1      -1.875  -3.012  -4.528  0.00  0.00    -0.166 F 
ENDBRANCH  25  31
ENDBRANCH   1  21
TORSDOF 7
