REMARK  4 active torsions:
REMARK  status: ('A' for Active; 'I' for Inactive)
REMARK    1  A    between atoms: C_3  and  S_1 
REMARK    2  A    between atoms: N_6  and  S_1 
REMARK    3  A    between atoms: C_15  and  C_5 
REMARK    4  A    between atoms: C_10  and  N_6 
ROOT
ATOM      1  C   UNL d   1       0.314   1.572   0.625  0.00  0.00     0.120 A 
ATOM      2  S   UNL d   1       0.777   2.898  -0.348  0.00  0.00    -0.075 SA
ATOM      3  C   UNL d   1      -0.224   3.989   0.520  0.00  0.00     0.033 A 
ATOM      4  C   UNL d   1      -0.587   1.946   1.601  0.00  0.00     0.034 A 
ATOM      5  C   UNL d   1      -0.916   3.329   1.521  0.00  0.00     0.023 A 
ENDROOT
BRANCH   1   6
ATOM      6  S   UNL d   1       1.045   0.010   0.225  0.00  0.00     0.265 S 
ATOM      7  O   UNL d   1       0.396  -0.953   1.084  0.00  0.00    -0.200 OA
ATOM      8  O   UNL d   1       2.478   0.219   0.256  0.00  0.00    -0.200 OA
BRANCH   6   9
ATOM      9  N   UNL d   1       0.668  -0.361  -1.374  0.00  0.00    -0.309 N 
ATOM     10  H   UNL d   1       1.506  -0.685  -1.861  0.00  0.00     0.172 HD
BRANCH   9  11
ATOM     11  C   UNL d   1      -0.618  -1.003  -1.721  0.00  0.00     0.108 C 
ATOM     12  C   UNL d   1      -0.718  -2.433  -1.203  0.00  0.00     0.166 C 
ATOM     13  S   UNL d   1      -1.898  -3.228  -2.263  0.00  0.00     0.146 S 
ATOM     14  O   UNL d   1      -3.219  -3.046  -1.701  0.00  0.00    -0.228 OA
ATOM     15  O   UNL d   1      -1.385  -4.531  -2.636  0.00  0.00    -0.228 OA
ATOM     16  C   UNL d   1      -1.733  -2.126  -3.648  0.00  0.00     0.142 C 
ATOM     17  C   UNL d   1      -0.693  -1.087  -3.255  0.00  0.00     0.041 C 
ENDBRANCH   9  11
ENDBRANCH   6   9
ENDBRANCH   1   6
BRANCH   3  18
ATOM     18  C   UNL d   1      -0.300   5.410   0.162  0.00  0.00     0.049 A 
ATOM     19  N   UNL d   1      -1.533   5.953   0.318  0.00  0.00    -0.365 N 
ATOM     20  C   UNL d   1      -1.671   7.268   0.042  0.00  0.00     0.088 A 
ATOM     21  HN  UNL d   1      -2.325   5.390   0.630  1.00  0.00     0.165 HD
ATOM     22  C   UNL d   1      -0.630   8.082  -0.369  0.00  0.00     0.017 A 
ATOM     23  C   UNL d   1       0.629   7.512  -0.516  0.00  0.00     0.004 A 
ATOM     24  C   UNL d   1       0.801   6.155  -0.251  0.00  0.00     0.031 A 
ENDBRANCH   3  18
TORSDOF 4
