REMARK  3 active torsions:
REMARK  status: ('A' for Active; 'I' for Inactive)
REMARK    1  A    between atoms: C_15  and  C_5 
REMARK    2  A    between atoms: C_22  and  C_9 
REMARK    3  A    between atoms: N_11  and  C_10 
ROOT
ATOM      1  C   UNL d   1      -0.132  -1.153   0.014  0.00  0.00     0.082 A 
ATOM      2  C   UNL d   1      -0.254  -2.579   0.084  0.00  0.00     0.191 A 
ATOM      3  N   UNL d   1      -1.401  -3.227   0.067  0.00  0.00    -0.316 N 
ATOM      4  HN  UNL d   1      -2.340  -2.851  -0.066  1.00  0.00     0.169 HD
ATOM      5  C   UNL d   1      -1.026  -4.529   0.271  0.00  0.00     0.162 A 
ATOM      6  S   UNL d   1       1.397  -0.378  -0.006  0.00  0.00    -0.065 SA
ATOM      7  N   UNL d   1      -0.686   1.115  -0.021  0.00  0.00    -0.352 N 
ATOM      8  HN  UNL d   1      -1.294   1.933  -0.010  1.00  0.00     0.166 HD
ATOM      9  C   UNL d   1       0.631   1.162  -0.043  0.00  0.00     0.085 A 
ATOM     10  C   UNL d   1      -1.135  -0.198  -0.014  0.00  0.00     0.027 A 
ATOM     11  N   UNL d   1       0.297  -4.717   0.370  0.00  0.00    -0.240 N 
ATOM     12  HN  UNL d   1       0.803  -5.591   0.511  1.00  0.00     0.196 HD
ATOM     13  O   UNL d   1       0.814  -3.430   0.234  0.00  0.00    -0.216 OA
ATOM     14  C   UNL d   1      -2.606  -0.430  -0.018  0.00  0.00     0.070 C 
ENDROOT
BRANCH   5  15
ATOM     15  C   UNL d   1      -2.015  -5.637   0.412  0.00  0.00     0.123 A 
ATOM     16  O   UNL d   1      -3.372  -5.499   0.252  0.00  0.00    -0.285 OA
ATOM     17  C   UNL d   1      -3.912  -6.726   0.474  0.00  0.00     0.215 A 
ATOM     18  C   UNL d   1      -2.951  -7.655   0.793  0.00  0.00     0.066 A 
ATOM     19  C   UNL d   1      -1.722  -6.952   0.742  0.00  0.00     0.046 A 
BRANCH  17  20
ATOM     20  N   UNL d   1      -5.331  -6.838   0.343  0.00  0.00    -0.090 N 
ATOM     21  O   UNL d   1      -5.809  -7.965   0.528  0.00  0.00    -0.530 OA
ATOM     22  O   UNL d   1      -5.968  -5.817   0.054  0.00  0.00    -0.530 OA
ENDBRANCH  17  20
ENDBRANCH   5  15
BRANCH   9  23
ATOM     23  C   UNL d   1       1.406   2.415  -0.071  0.00  0.00    -0.002 A 
ATOM     24  C   UNL d   1       2.678   2.512  -0.657  0.00  0.00     0.014 A 
ATOM     25  C   UNL d   1       3.351   3.737  -0.712  0.00  0.00     0.001 A 
ATOM     26  C   UNL d   1       2.766   4.882  -0.177  0.00  0.00     0.000 A 
ATOM     27  C   UNL d   1       1.510   4.804   0.419  0.00  0.00     0.001 A 
ATOM     28  C   UNL d   1       0.836   3.581   0.468  0.00  0.00     0.014 A 
ENDBRANCH   9  23
TORSDOF 3
