REMARK  1 active torsions:
REMARK  status: ('A' for Active; 'I' for Inactive)
REMARK    1  A    between atoms: C_6  and  N_1 
ROOT
ATOM      1  C   UNL d   1       2.073  -1.519  -0.067  0.00  0.00     0.077 A 
ATOM      2  N   UNL d   1       0.890  -2.706  -3.218  0.00  0.00    -0.191 NA
ATOM      3  C   UNL d   1       2.387  -2.411  -1.121  0.00  0.00     0.073 A 
ATOM      4  C   UNL d   1       1.560  -2.547  -2.287  0.00  0.00     0.102 C 
ATOM      5  C   UNL d   1       2.987  -1.457   1.006  0.00  0.00     0.033 A 
ATOM      6  C   UNL d   1       3.561  -3.187  -1.085  0.00  0.00     0.025 A 
ATOM      7  C   UNL d   1       4.161  -2.220   1.028  0.00  0.00     0.002 A 
ATOM      8  C   UNL d   1       4.448  -3.087  -0.018  0.00  0.00     0.002 A 
ENDROOT
BRANCH   1   9
ATOM      9  N   UNL d   1       0.917  -0.700  -0.060  0.00  0.00    -0.257 N 
ATOM     10  C   UNL d   1       0.650   0.542   0.497  0.00  0.00     0.036 A 
ATOM     11  C   UNL d   1      -0.661   0.832   0.438  0.00  0.00     0.102 A 
ATOM     12  C   UNL d   1       1.669   1.507   1.001  0.00  0.00     0.070 C 
ATOM     13  C   UNL d   1      -1.301  -0.367  -0.140  0.00  0.00     0.262 A 
ATOM     14  N   UNL d   1      -0.287  -1.234  -0.486  0.00  0.00    -0.259 N 
ATOM     15  O   UNL d   1      -2.501  -0.540  -0.235  0.00  0.00    -0.267 OA
ATOM     16  H   UNL d   1      -0.446  -2.216  -0.660  0.00  0.00     0.191 HD
ENDBRANCH   1   9
TORSDOF 1
