REMARK  11 active torsions:
REMARK  status: ('A' for Active; 'I' for Inactive)
REMARK    1  A    between atoms: S_2  and  C_1 
REMARK    2  A    between atoms: C_16  and  S_2 
REMARK    3  A    between atoms: C_6  and  C_3 
REMARK    4  A    between atoms: C_7  and  C_3 
REMARK    5  A    between atoms: N_8  and  C_4 
REMARK    6  A    between atoms: C_5  and  N_8 
REMARK    7  A    between atoms: O_18  and  C_6 
REMARK    8  A    between atoms: O_17  and  C_7 
REMARK    9  A    between atoms: C_21  and  C_16 
REMARK   10  A    between atoms: C_20  and  O_17 
REMARK   11  A    between atoms: C_19  and  O_18 
ROOT
ATOM      1  N   UNL d   1       2.605  -1.385   0.085  0.00  0.00    -0.363 N 
ATOM      2  H   UNL d   1       2.449  -2.379  -0.114  0.00  0.00     0.165 HD
ENDROOT
BRANCH   1   3
ATOM      3  C   UNL d   1       3.957  -1.076   0.119  0.00  0.00     0.112 C 
ATOM      4  C   UNL d   1       5.044  -1.871   0.033  0.00  0.00     0.129 C 
BRANCH   4   5
ATOM      5  C   UNL d   1       4.985  -3.348  -0.117  0.00  0.00     0.300 C 
ATOM      6  O   UNL d   1       5.920  -4.044  -0.476  0.00  0.00    -0.259 OA
BRANCH   5   7
ATOM      7  O   UNL d   1       3.731  -3.814   0.143  0.00  0.00    -0.318 OA
BRANCH   7   8
ATOM      8  C   UNL d   1       3.469  -5.180  -0.216  0.00  0.00     0.174 C 
ATOM      9  C   UNL d   1       3.415  -6.043   1.028  0.00  0.00     0.034 C 
ENDBRANCH   7   8
ENDBRANCH   5   7
ENDBRANCH   4   5
BRANCH   4  10
ATOM     10  C   UNL d   1       6.334  -1.141  -0.056  0.00  0.00     0.300 C 
ATOM     11  O   UNL d   1       6.437   0.008  -0.460  0.00  0.00    -0.259 OA
BRANCH  10  12
ATOM     12  O   UNL d   1       7.370  -1.922   0.339  0.00  0.00    -0.318 OA
BRANCH  12  13
ATOM     13  C   UNL d   1       8.669  -1.472  -0.076  0.00  0.00     0.174 C 
ATOM     14  C   UNL d   1       8.940  -2.004  -1.472  0.00  0.00     0.034 C 
ENDBRANCH  12  13
ENDBRANCH  10  12
ENDBRANCH   4  10
ENDBRANCH   1   3
BRANCH   1  15
ATOM     15  C   UNL d   1       1.539  -0.534   0.094  0.00  0.00     0.060 A 
ATOM     16  C   UNL d   1       0.162  -0.937   0.029  0.00  0.00     0.092 A 
ATOM     17  C   UNL d   1      -0.697   0.145   0.047  0.00  0.00     0.075 A 
ATOM     18  S   UNL d   1       0.126   1.635   0.125  0.00  0.00    -0.110 SA
ATOM     19  C   UNL d   1       1.641   0.845   0.135  0.00  0.00     0.080 A 
BRANCH  16  20
ATOM     20  S   UNL d   1      -0.419  -2.561  -0.138  0.00  0.00     0.178 S 
ATOM     21  O   UNL d   1      -1.856  -2.433  -0.268  0.00  0.00    -0.223 OA
ATOM     22  O   UNL d   1       0.407  -3.124  -1.188  0.00  0.00    -0.223 OA
BRANCH  20  23
ATOM     23  C   UNL d   1      -0.046  -3.404   1.387  0.00  0.00     0.145 C 
BRANCH  23  24
ATOM     24  C   UNL d   1      -0.625  -4.822   1.341  0.00  0.00     0.011 C 
ATOM     25  C   UNL d   1      -0.320  -5.629   2.589  0.00  0.00     0.006 C 
ENDBRANCH  23  24
ENDBRANCH  20  23
ENDBRANCH  16  20
ENDBRANCH   1  15
TORSDOF 11
