REMARK  13 active torsions:
REMARK  status: ('A' for Active; 'I' for Inactive)
REMARK    1  A    between atoms: C_7  and  C_1 
REMARK    2  A    between atoms: N_8  and  C_7 
REMARK    3  A    between atoms: C_10  and  N_8 
REMARK    4  A    between atoms: N_9  and  C_11 
REMARK    5  A    between atoms: C_16  and  N_9 
REMARK    6  A    between atoms: C_17  and  N_9 
REMARK    7  A    between atoms: C_11  and  C_10 
REMARK    8  A    between atoms: C_26  and  C_25 
REMARK    9  A    between atoms: O_30  and  C_25 
REMARK   10  A    between atoms: O_29  and  C_26 
REMARK   11  A    between atoms: C_34  and  C_33 
REMARK   12  A    between atoms: O_38  and  C_33 
REMARK   13  A    between atoms: O_37  and  C_34 
ROOT
ATOM      1  C   UNL d   2       1.621   0.705  -2.597  0.00  0.00     0.243 C 
ATOM      2  O   UNL d   2       2.226   1.460  -1.857  0.00  0.00    -0.642 OA
ENDROOT
BRANCH   1   3
ATOM      3  C   UNL d   2       0.535   1.233  -3.556  0.00  0.00     0.243 C 
ATOM      4  O   UNL d   2      -0.494   0.646  -3.818  0.00  0.00    -0.642 OA
BRANCH   3   5
ATOM      5  O   UNL d   2       0.913   2.428  -4.059  0.00  0.00    -0.769 OA
ATOM      6  H   UNL d   2       1.757   2.722  -3.651  0.00  0.00     0.168 HD
ENDBRANCH   3   5
ENDBRANCH   1   3
BRANCH   1   7
ATOM      7  O   UNL d   2       1.946  -0.571  -2.799  0.00  0.00    -0.769 OA
ATOM      8  H   UNL d   2       2.740  -0.761  -2.247  0.00  0.00     0.168 HD
ENDBRANCH   1   7
TORSDOF 13
