REMARK  9 active torsions:
REMARK  status: ('A' for Active; 'I' for Inactive)
REMARK    1  A    between atoms: C_12  and  N_1 
REMARK    2  A    between atoms: N_2  and  C_11 
REMARK    3  A    between atoms: C_11  and  C_18 
REMARK    4  A    between atoms: C_17  and  C_12 
REMARK    5  A    between atoms: C_20  and  C_17 
REMARK    6  A    between atoms: C_18  and  C_19 
REMARK    7  A    between atoms: C_19  and  C_23 
REMARK    8  A    between atoms: C_24  and  C_20 
REMARK    9  A    between atoms: C_23  and  C_24 
ROOT
ATOM      1  C   UNL d   1       7.787   2.328  -0.401  0.00  0.00     0.085 C 
ENDROOT
BRANCH   1   2
ATOM      2  C   UNL d   1       8.412   3.715  -0.461  0.00  0.00     0.128 C 
ATOM      3  O   UNL d   1       7.835   4.656  -1.010  0.00  0.00    -0.298 OA
BRANCH   2   4
ATOM      4  C   UNL d   1       9.819   3.869   0.088  0.00  0.00     0.098 C 
BRANCH   4   5
ATOM      5  C   UNL d   1      10.148   5.309   0.481  0.00  0.00     0.143 C 
BRANCH   5   6
ATOM      6  N   UNL d   1       9.421   5.894   1.602  0.00  0.00    -0.280 N 
ATOM      7  C   UNL d   1       8.469   5.295   2.382  0.00  0.00     0.261 A 
ATOM      8  C   UNL d   1       8.034   6.291   3.359  0.00  0.00     0.048 A 
ATOM      9  O   UNL d   1       8.030   4.162   2.349  0.00  0.00    -0.267 OA
ATOM     10  C   UNL d   1       7.092   6.199   4.366  0.00  0.00     0.018 A 
ATOM     11  C   UNL d   1       8.762   7.444   3.138  0.00  0.00     0.048 A 
ATOM     12  C   UNL d   1       6.903   7.328   5.169  0.00  0.00     0.001 A 
ATOM     13  C   UNL d   1       7.648   8.505   4.947  0.00  0.00     0.001 A 
ATOM     14  C   UNL d   1       8.594   8.572   3.917  0.00  0.00     0.018 A 
ATOM     15  C   UNL d   1       9.659   7.185   2.013  0.00  0.00     0.261 A 
ATOM     16  O   UNL d   1      10.459   7.994   1.579  0.00  0.00    -0.267 OA
ENDBRANCH   5   6
ENDBRANCH   4   5
ENDBRANCH   2   4
ENDBRANCH   1   2
BRANCH   1  17
ATOM     17  C   UNL d   1       6.267   2.438  -0.327  0.00  0.00     0.085 C 
BRANCH  17  18
ATOM     18  C   UNL d   1       5.535   1.107  -0.284  0.00  0.00     0.128 C 
ATOM     19  O   UNL d   1       6.127   0.031  -0.337  0.00  0.00    -0.298 OA
BRANCH  18  20
ATOM     20  C   UNL d   1       4.018   1.204  -0.185  0.00  0.00     0.098 C 
BRANCH  20  21
ATOM     21  C   UNL d   1       3.337  -0.159  -0.151  0.00  0.00     0.143 C 
BRANCH  21  22
ATOM     22  N   UNL d   1       1.891  -0.049   0.001  0.00  0.00    -0.280 N 
ATOM     23  C   UNL d   1       1.256   0.035   1.210  0.00  0.00     0.261 A 
ATOM     24  C   UNL d   1      -0.180   0.073   0.929  0.00  0.00     0.048 A 
ATOM     25  O   UNL d   1       1.734   0.082   2.327  0.00  0.00    -0.267 OA
ATOM     26  C   UNL d   1      -1.260   0.107   1.790  0.00  0.00     0.018 A 
ATOM     27  C   UNL d   1      -0.337   0.047  -0.445  0.00  0.00     0.048 A 
ATOM     28  C   UNL d   1      -2.536   0.110   1.218  0.00  0.00     0.001 A 
ATOM     29  C   UNL d   1      -2.699   0.082  -0.183  0.00  0.00     0.001 A 
ATOM     30  C   UNL d   1      -1.588   0.053  -1.034  0.00  0.00     0.018 A 
ATOM     31  C   UNL d   1       1.001  -0.007  -1.040  0.00  0.00     0.261 A 
ATOM     32  O   UNL d   1       1.218  -0.004  -2.236  0.00  0.00    -0.267 OA
ENDBRANCH  21  22
ENDBRANCH  20  21
ENDBRANCH  18  20
ENDBRANCH  17  18
ENDBRANCH   1  17
TORSDOF 9
