REMARK  3 active torsions:
REMARK  status: ('A' for Active; 'I' for Inactive)
REMARK    1  A    between atoms: N_8  and  C_1 
REMARK    2  A    between atoms: S_15  and  C_5 
REMARK    3  A    between atoms: C_16  and  S_15 
ROOT
ATOM      1  N   UNL d   1      -1.316  -6.331  -0.490  0.00  0.00    -0.197 NA
ATOM      2  C   UNL d   1      -1.370  -5.179  -0.369  0.00  0.00     0.069 C 
ATOM      3  C   UNL d   1      -1.427  -3.691  -0.214  0.00  0.00     0.205 C 
ENDROOT
BRANCH   3   4
ATOM      4  S   UNL d   1       0.253  -2.963  -0.334  0.00  0.00    -0.089 SA
BRANCH   4   5
ATOM      5  C   UNL d   1      -0.053  -1.262  -0.097  0.00  0.00     0.131 A 
ATOM      6  S   UNL d   1       1.051  -0.046  -0.607  0.00  0.00    -0.026 SA
ATOM      7  C   UNL d   1      -0.039   1.091   0.034  0.00  0.00     0.172 A 
ATOM      8  N   UNL d   1      -1.123   0.583   0.582  0.00  0.00    -0.278 N 
ATOM      9  N   UNL d   1      -1.131  -0.800   0.498  0.00  0.00    -0.286 N 
ATOM     10  HN  UNL d   1      -1.863   1.137   1.014  1.00  0.00     0.189 HD
ATOM     11  HN  UNL d   1      -1.883  -1.389   0.855  1.00  0.00     0.188 HD
BRANCH   7  12
ATOM     12  N   UNL d   1       0.223   2.465  -0.031  0.00  0.00    -0.312 N 
ATOM     13  C   UNL d   1       1.302   3.122  -0.605  0.00  0.00     0.098 A 
ATOM     14  C   UNL d   1       1.151   4.483  -0.442  0.00  0.00     0.019 A 
ATOM     15  C   UNL d   1      -0.055   4.690   0.256  0.00  0.00     0.019 A 
ATOM     16  C   UNL d   1      -0.603   3.450   0.493  0.00  0.00     0.098 A 
ENDBRANCH   7  12
ENDBRANCH   4   5
ENDBRANCH   3   4
TORSDOF 3
