REMARK  1 active torsions:
REMARK  status: ('A' for Active; 'I' for Inactive)
REMARK    1  A    between atoms: C_12  and  N_3 
ROOT
ATOM      1  C   UNL d   1      -0.422   0.762   0.015  0.00  0.00     0.096 A 
ATOM      2  C   UNL d   1       0.662   1.703   0.021  0.00  0.00     0.282 A 
ATOM      3  N   UNL d   1       1.952   1.093  -0.029  0.00  0.00    -0.220 N 
ATOM      4  C   UNL d   1      -0.166  -0.570  -0.022  0.00  0.00     0.140 A 
ATOM      5  N   UNL d   1       2.166  -0.313  -0.098  0.00  0.00    -0.292 N 
ATOM      6  HN  UNL d   1       3.113  -0.687  -0.167  1.00  0.00     0.187 HD
ATOM      7  C   UNL d   1       1.140  -1.117  -0.074  0.00  0.00     0.059 A 
ATOM      8  O   UNL d   1      -1.313  -1.278  -0.020  0.00  0.00    -0.235 OA
ATOM      9  N   UNL d   1      -2.380  -0.379   0.011  0.00  0.00    -0.264 N 
ATOM     10  HN  UNL d   1      -3.374  -0.605   0.020  1.00  0.00     0.194 HD
ATOM     11  C   UNL d   1      -1.826   0.848   0.024  0.00  0.00     0.047 A 
ATOM     12  O   UNL d   1       0.423   2.906   0.042  0.00  0.00    -0.265 OA
ATOM     13  C   UNL d   1       1.329  -2.604  -0.091  0.00  0.00     0.072 C 
ATOM     14  C   UNL d   1      -2.667   2.066   0.035  0.00  0.00     0.071 C 
ENDROOT
BRANCH   3  15
ATOM     15  C   UNL d   1       3.170   1.849   0.037  0.00  0.00     0.060 A 
ATOM     16  C   UNL d   1       3.223   3.129   0.609  0.00  0.00     0.033 A 
ATOM     17  C   UNL d   1       4.430   3.837   0.692  0.00  0.00     0.026 A 
ATOM     18  C   UNL d   1       5.598   3.278   0.190  0.00  0.00     0.034 A 
ATOM     19  C   UNL d   1       5.573   2.015  -0.391  0.00  0.00     0.026 A 
ATOM     20 CL   UNL d   1       7.078   4.147   0.296  0.00  0.00    -0.084 Cl
ATOM     21  C   UNL d   1       4.369   1.302  -0.455  0.00  0.00     0.033 A 
ENDBRANCH   3  15
TORSDOF 1
