REMARK  6 active torsions:
REMARK  status: ('A' for Active; 'I' for Inactive)
REMARK    1  A    between atoms: C_2  and  S_1 
REMARK    2  A    between atoms: N_12  and  S_1 
REMARK    3  A    between atoms: S_5  and  C_3 
REMARK    4  A    between atoms: C_7  and  C_4 
REMARK    5  A    between atoms: C_6  and  S_5 
REMARK    6  A    between atoms: O_16  and  C_7 
ROOT
ATOM      1  C   UNL d   1       0.703   0.518  -1.643  0.00  0.00     0.091 A 
ATOM      2  C   UNL d   1       0.185  -0.603  -2.331  0.00  0.00     0.030 A 
ATOM      3  C   UNL d   1      -0.377  -0.375  -3.603  0.00  0.00     0.044 A 
ATOM      4  C   UNL d   1       0.583   1.812  -2.197  0.00  0.00     0.028 A 
ATOM      5  C   UNL d   1      -0.470   0.907  -4.146  0.00  0.00     0.035 A 
ATOM      6  C   UNL d   1      -0.007   2.006  -3.440  0.00  0.00     0.025 A 
ATOM      7 CL   UNL d   1      -1.152   1.122  -5.708  0.00  0.00    -0.084 Cl
ENDROOT
BRANCH   2   8
ATOM      8  S   UNL d   1       0.219  -2.352  -1.900  0.00  0.00    -0.088 SA
BRANCH   8   9
ATOM      9  C   UNL d   1      -1.365  -2.608  -1.087  0.00  0.00     0.022 A 
ATOM     10  C   UNL d   1      -2.608  -2.949  -1.669  0.00  0.00     0.054 A 
ATOM     11  C   UNL d   1      -3.760  -3.003  -0.849  0.00  0.00     0.020 A 
ATOM     12  C   UNL d   1      -3.691  -2.721   0.514  0.00  0.00     0.001 A 
ATOM     13  C   UNL d   1      -2.460  -2.455   1.094  0.00  0.00     0.001 A 
ATOM     14  C   UNL d   1      -1.310  -2.430   0.307  0.00  0.00     0.020 A 
BRANCH  10  15
ATOM     15  C   UNL d   1      -2.881  -3.215  -3.112  0.00  0.00     0.177 C 
ATOM     16  O   UNL d   1      -3.986  -3.042  -3.605  0.00  0.00    -0.646 OA
BRANCH  15  17
ATOM     17  O   UNL d   1      -1.857  -3.715  -3.829  0.00  0.00    -0.773 OA
ATOM     18  H   UNL d   1      -1.043  -3.888  -3.318  0.00  0.00     0.167 HD
ENDBRANCH  15  17
ENDBRANCH  10  15
ENDBRANCH   8   9
ENDBRANCH   2   8
BRANCH   1  19
ATOM     19  S   UNL d   1       1.554   0.516  -0.078  0.00  0.00     0.240 S 
ATOM     20  O   UNL d   1       1.855  -0.843   0.335  0.00  0.00    -0.206 OA
ATOM     21  O   UNL d   1       0.893   1.449   0.799  0.00  0.00    -0.206 OA
BRANCH  19  22
ATOM     22  N   UNL d   1       3.063   1.172  -0.481  0.00  0.00    -0.225 NA
ATOM     23  H   UNL d   1       3.546   0.610  -1.178  0.00  0.00     0.136 HD
ATOM     24  H   UNL d   1       3.629   1.236   0.370  0.00  0.00     0.136 HD
ENDBRANCH  19  22
ENDBRANCH   1  19
TORSDOF 6
