REMARK  4 active torsions:
REMARK  status: ('A' for Active; 'I' for Inactive)
REMARK    1  A    between atoms: C_8  and  C_1 
REMARK    2  A    between atoms: C_9  and  N_4 
REMARK    3  A    between atoms: C_12  and  C_5 
REMARK    4  A    between atoms: O_16  and  C_8 
ROOT
ATOM      1  C   UNL d   1       1.883   1.651  -0.247  0.00  0.00     0.059 A 
ATOM      2  C   UNL d   1       2.429   5.174   0.859  0.00  0.00    -0.078 C 
ATOM      3  C   UNL d   1       2.280   6.220   1.423  0.00  0.00     0.018 C 
ATOM      4  C   UNL d   1       1.697   2.883   0.399  0.00  0.00     0.052 A 
ATOM      5  C   UNL d   1       2.601   3.924   0.179  0.00  0.00     0.019 A 
ATOM      6  C   UNL d   1       2.946   1.489  -1.146  0.00  0.00     0.031 A 
ATOM      7  C   UNL d   1       3.840   2.538  -1.366  0.00  0.00     0.004 A 
ATOM      8  C   UNL d   1       3.672   3.751  -0.698  0.00  0.00     0.021 A 
ENDROOT
BRANCH   1   9
ATOM      9  N   UNL d   1       0.978   0.589   0.016  0.00  0.00    -0.239 N 
ATOM     10  C   UNL d   1       1.178  -0.796   0.032  0.00  0.00     0.102 C 
ATOM     11  C   UNL d   1      -0.127  -1.294   0.092  0.00  0.00     0.154 C 
ATOM     12  N   UNL d   1      -1.011  -0.251   0.205  0.00  0.00    -0.278 N 
ATOM     13  N   UNL d   1      -0.322   0.873   0.269  0.00  0.00    -0.235 N 
ATOM     14  HN  UNL d   1      -2.028  -0.330   0.236  1.00  0.00     0.189 HD
ATOM     15  HN  UNL d   1      -0.703   1.797   0.474  1.00  0.00     0.209 HD
BRANCH  10  16
ATOM     16  C   UNL d   1       2.487  -1.474   0.052  0.00  0.00    -0.005 A 
ATOM     17  C   UNL d   1       3.572  -0.931   0.762  0.00  0.00     0.014 A 
ATOM     18  C   UNL d   1       4.829  -1.542   0.749  0.00  0.00     0.001 A 
ATOM     19  C   UNL d   1       5.006  -2.750   0.082  0.00  0.00     0.000 A 
ATOM     20  C   UNL d   1       3.933  -3.329  -0.588  0.00  0.00     0.001 A 
ATOM     21  C   UNL d   1       2.692  -2.685  -0.623  0.00  0.00     0.014 A 
ENDBRANCH  10  16
BRANCH  11  22
ATOM     22  C   UNL d   1      -0.591  -2.675   0.104  0.00  0.00     0.313 C 
ATOM     23  O   UNL d   1       0.077  -3.627   0.491  0.00  0.00    -0.257 OA
BRANCH  22  24
ATOM     24  O   UNL d   1      -1.852  -2.800  -0.412  0.00  0.00    -0.321 OA
ATOM     25  C   UNL d   1      -2.311  -4.148  -0.509  0.00  0.00     0.213 C 
ENDBRANCH  22  24
ENDBRANCH  11  22
ENDBRANCH   1   9
TORSDOF 4
