REMARK  4 active torsions:
REMARK  status: ('A' for Active; 'I' for Inactive)
REMARK       I    between atoms: N_2  and  C_1 
REMARK    1  A    between atoms: C_5  and  C_1 
REMARK    2  A    between atoms: C_14  and  N_2 
REMARK    3  A    between atoms: O_10  and  C_6 
REMARK    4  A    between atoms: C_12  and  O_10 
ROOT
ATOM      1  N   UNL d   1       1.149  -3.393  -3.380  0.00  0.00    -0.344 N 
ATOM      2  HN  UNL d   1       0.841  -3.679  -4.309  1.00  0.00     0.167 HD
ATOM      3  C   UNL d   1       2.209  -3.968  -2.781  0.00  0.00     0.148 A 
ATOM      4  C   UNL d   1       0.896  -1.960  -1.434  0.00  0.00     0.050 A 
ATOM      5  C   UNL d   1       0.510  -2.417  -2.693  0.00  0.00     0.119 A 
ATOM      6  C   UNL d   1       2.717  -3.545  -1.562  0.00  0.00     0.059 A 
ATOM      7  C   UNL d   1       2.051  -2.519  -0.883  0.00  0.00     0.035 A 
ENDROOT
BRANCH   4   8
ATOM      8  N   UNL d   1       0.186  -0.977  -0.704  0.00  0.00    -0.322 N 
ATOM      9  C   UNL d   1      -1.112  -0.587  -0.989  0.00  0.00     0.256 C 
ATOM     10  O   UNL d   1      -1.845  -1.099  -1.830  0.00  0.00    -0.267 OA
ATOM     11  H   UNL d   1       0.603  -0.651   0.159  0.00  0.00     0.169 HD
BRANCH   9  12
ATOM     12  C   UNL d   1      -1.678   0.518  -0.176  0.00  0.00     0.034 A 
ATOM     13  C   UNL d   1      -3.058   0.504   0.070  0.00  0.00     0.041 A 
ATOM     14  C   UNL d   1      -3.652   1.570   0.736  0.00  0.00     0.035 A 
ATOM     15 CL   UNL d   1      -5.348   1.560   1.022  0.00  0.00    -0.084 Cl
ATOM     16  C   UNL d   1      -2.884   2.655   1.155  0.00  0.00     0.024 A 
ATOM     17  C   UNL d   1      -1.508   2.670   0.912  0.00  0.00     0.003 A 
ATOM     18  C   UNL d   1      -0.900   1.602   0.246  0.00  0.00     0.017 A 
ENDBRANCH   9  12
ENDBRANCH   4   8
BRANCH   3  19
ATOM     19  O   UNL d   1       2.829  -5.043  -3.403  0.00  0.00    -0.292 OA
BRANCH  19  20
ATOM     20  C   UNL d   1       2.049  -5.800  -4.246  0.00  0.00     0.094 A 
ATOM     21  C   UNL d   1       0.769  -6.251  -3.914  0.00  0.00     0.064 A 
ATOM     22  C   UNL d   1       0.059  -7.011  -4.835  0.00  0.00     0.052 A 
ATOM     23 CL   UNL d   1      -1.535  -7.543  -4.483  0.00  0.00    -0.083 Cl
ATOM     24  C   UNL d   1       0.666  -7.330  -6.041  0.00  0.00     0.111 A 
ATOM     25  N   UNL d   1       1.923  -6.946  -6.380  0.00  0.00    -0.371 N 
ATOM     26  C   UNL d   1       2.582  -6.185  -5.470  0.00  0.00     0.124 A 
ATOM     27  HN  UNL d   1       2.348  -7.215  -7.267  1.00  0.00     0.164 HD
ENDBRANCH  19  20
ENDBRANCH   3  19
TORSDOF 4
