REMARK  6 active torsions:
REMARK  status: ('A' for Active; 'I' for Inactive)
REMARK    1  A    between atoms: N_2  and  S_1 
REMARK    2  A    between atoms: C_6  and  S_1 
REMARK    3  A    between atoms: S_7  and  N_2 
REMARK    4  A    between atoms: S_5  and  C_4 
REMARK    5  A    between atoms: C_16  and  S_5 
REMARK    6  A    between atoms: C_17  and  S_7 
ROOT
ATOM      1  C   UNL d   1      -0.350   0.745  -3.730  0.00  0.00     0.072 A 
ATOM      2  C   UNL d   1       0.485   0.634  -1.544  0.00  0.00     0.122 A 
ATOM      3  C   UNL d   1      -0.034  -0.087  -2.608  0.00  0.00     0.057 A 
ATOM      4  S   UNL d   1       0.550   2.307  -1.903  0.00  0.00    -0.087 SA
ATOM      5  C   UNL d   1      -0.073   2.072  -3.478  0.00  0.00     0.074 A 
ENDROOT
BRANCH   2   6
ATOM      6  S   UNL d   1       1.051   0.118   0.083  0.00  0.00     0.276 S 
ATOM      7  O   UNL d   1       1.390   1.324   0.806  0.00  0.00    -0.199 OA
ATOM      8  O   UNL d   1      -0.028  -0.740   0.540  0.00  0.00    -0.199 OA
BRANCH   6   9
ATOM      9  N   UNL d   1       2.412  -0.857  -0.183  0.00  0.00    -0.236 N 
ATOM     10  HN  UNL d   1       2.327  -1.695  -0.759  1.00  0.00     0.189 HD
BRANCH   9  11
ATOM     11  S   UNL d   1       3.879  -0.465   0.482  0.00  0.00     0.061 S 
ATOM     12  O   UNL d   1       4.382   0.795   0.000  0.00  0.00    -0.244 OA
ATOM     13  C   UNL d   1       4.999  -1.760   0.037  0.00  0.00     0.143 C 
BRANCH  11  14
ATOM     14  C   UNL d   1       3.688  -0.490   2.220  0.00  0.00     0.038 A 
ATOM     15  C   UNL d   1       3.314  -1.667   2.872  0.00  0.00     0.022 A 
ATOM     16  C   UNL d   1       3.222  -1.677   4.266  0.00  0.00     0.001 A 
ATOM     17  C   UNL d   1       3.498  -0.518   4.994  0.00  0.00     0.000 A 
ATOM     18  C   UNL d   1       3.850   0.658   4.332  0.00  0.00     0.001 A 
ATOM     19  C   UNL d   1       3.943   0.676   2.941  0.00  0.00     0.022 A 
ENDBRANCH  11  14
ENDBRANCH   9  11
ENDBRANCH   6   9
ENDBRANCH   2   6
BRANCH   1  20
ATOM     20  S   UNL d   1      -0.945   0.163  -5.255  0.00  0.00     0.207 S 
ATOM     21  O   UNL d   1      -0.415   1.091  -6.231  0.00  0.00    -0.217 OA
ATOM     22  O   UNL d   1      -0.602  -1.244  -5.260  0.00  0.00    -0.217 OA
BRANCH  20  23
ATOM     23  C   UNL d   1      -2.710   0.328  -5.209  0.00  0.00     0.064 A 
ATOM     24  C   UNL d   1      -3.306   1.506  -5.670  0.00  0.00     0.024 A 
ATOM     25  C   UNL d   1      -4.697   1.608  -5.706  0.00  0.00     0.002 A 
ATOM     26  C   UNL d   1      -5.488   0.531  -5.304  0.00  0.00     0.000 A 
ATOM     27  C   UNL d   1      -4.891  -0.652  -4.866  0.00  0.00     0.002 A 
ATOM     28  C   UNL d   1      -3.500  -0.760  -4.818  0.00  0.00     0.024 A 
ENDBRANCH  20  23
ENDBRANCH   1  20
TORSDOF 6
