REMARK  3 active torsions:
REMARK  status: ('A' for Active; 'I' for Inactive)
REMARK    1  A    between atoms: N_3  and  C_1 
REMARK       I    between atoms: C_2  and  N_5 
REMARK    2  A    between atoms: C_6  and  C_2 
REMARK    3  A    between atoms: N_8  and  C_4 
REMARK       I    between atoms: N_5  and  C_7 
REMARK       I    between atoms: C_7  and  N_8 
ROOT
ATOM      1  C   UNL d   1       0.733   6.322   1.869  0.00  0.00     0.263 C 
ATOM      2  N   UNL d   1       1.338   5.274   1.192  0.00  0.00    -0.275 N 
ATOM      3  C   UNL d   1       0.879   4.002   0.938  0.00  0.00     0.327 C 
ATOM      4  N   UNL d   1      -0.235   3.604   1.630  0.00  0.00    -0.306 N 
ATOM      5  O   UNL d   1      -0.306   6.163   2.503  0.00  0.00    -0.267 OA
ATOM      6  O   UNL d   1       1.454   3.346   0.074  0.00  0.00    -0.247 OA
ATOM      7  H   UNL d   1       2.191   5.454   0.679  0.00  0.00     0.173 HD
ATOM      8  H   UNL d   1      -0.735   4.378   2.063  0.00  0.00     0.171 HD
ENDROOT
BRANCH   4   9
ATOM      9  C   UNL d   1      -0.918   2.366   1.446  0.00  0.00     0.076 C 
ATOM     10  C   UNL d   1      -0.302   1.157   1.058  0.00  0.00     0.130 C 
ATOM     11  C   UNL d   1      -1.054   0.030   0.694  0.00  0.00     0.039 C 
ATOM     12  C   UNL d   1      -2.440   0.081   0.740  0.00  0.00     0.010 C 
ATOM     13  C   UNL d   1      -3.092   1.230   1.207  0.00  0.00    -0.054 C 
ATOM     14  C   UNL d   1      -4.600   1.203   1.268  0.00  0.00     0.049 C 
ATOM     15  C   UNL d   1      -2.335   2.365   1.609  0.00  0.00    -0.027 C 
ATOM     16  C   UNL d   1      -3.040   3.584   2.162  0.00  0.00     0.051 C 
BRANCH  10  17
ATOM     17  N   UNL d   1       1.131   0.924   1.229  0.00  0.00    -0.113 N 
ATOM     18  O   UNL d   1       1.643   1.288   2.299  0.00  0.00    -0.532 OA
ATOM     19  O   UNL d   1       1.710   0.268   0.349  0.00  0.00    -0.532 OA
ENDBRANCH  10  17
ENDBRANCH   4   9
BRANCH   1  20
ATOM     20  C   UNL d   1       1.406   7.665   1.779  0.00  0.00     0.075 A 
ATOM     21  C   UNL d   1       0.631   8.847   1.776  0.00  0.00     0.051 A 
ATOM     22 CL   UNL d   1      -1.100   8.866   1.792  0.00  0.00    -0.083 Cl
ATOM     23  C   UNL d   1       1.242  10.110   1.702  0.00  0.00     0.025 A 
ATOM     24  C   UNL d   1       2.623  10.228   1.614  0.00  0.00     0.003 A 
ATOM     25  C   UNL d   1       3.402   9.079   1.609  0.00  0.00     0.025 A 
ATOM     26  C   UNL d   1       2.808   7.809   1.703  0.00  0.00     0.051 A 
ATOM     27 CL   UNL d   1       3.923   6.484   1.742  0.00  0.00    -0.083 Cl
ENDBRANCH   1  20
TORSDOF 3
