REMARK  2 active torsions:
REMARK  status: ('A' for Active; 'I' for Inactive)
REMARK    1  A    between atoms: C_9  and  C_1 
REMARK    2  A    between atoms: C_3  and  C_2 
REMARK       I    between atoms: N_7  and  C_3 
REMARK       I    between atoms: C_6  and  N_7 
REMARK       I    between atoms: N_8  and  C_6 
ROOT
ATOM      1  C   UNL d   1      -0.067  -2.624   0.212  0.00  0.00     0.274 C 
ATOM      2  C   UNL d   1      -2.127  -3.734  -0.826  0.00  0.00     0.676 C 
ATOM      3  N   UNL d   1      -0.822  -3.646  -0.364  0.00  0.00    -0.156 N 
ATOM      4  N   UNL d   1      -2.992  -2.703  -1.090  0.00  0.00    -0.213 N 
ATOM      5  O   UNL d   1      -4.898  -0.944  -2.353  0.00  0.00    -0.378 OA
ATOM      6  N   UNL d   1      -2.533  -4.949  -1.012  0.00  0.00    -0.234 N 
ATOM      7  HN  UNL d   1      -3.460  -5.180  -1.367  1.00  0.00     0.174 HD
ATOM      8  C   UNL d   1      -4.453  -2.938  -1.050  0.00  0.00     0.172 C 
ATOM      9  C   UNL d   1      -2.652  -1.290  -1.316  0.00  0.00     0.172 C 
ATOM     10  O   UNL d   1      -0.386  -1.444   0.267  0.00  0.00    -0.267 OA
ATOM     11  C   UNL d   1      -5.116  -2.363  -2.309  0.00  0.00     0.136 C 
ATOM     12  C   UNL d   1      -3.493  -0.662  -2.462  0.00  0.00     0.136 C 
ATOM     13  C   UNL d   1      -3.355   0.856  -2.476  0.00  0.00     0.041 C 
ATOM     14  C   UNL d   1      -6.620  -2.599  -2.311  0.00  0.00     0.041 C 
ATOM     15  H   UNL d   1      -0.361  -4.536  -0.357  0.00  0.00     0.187 HD
ATOM     16  H   UNL d   1      -1.839  -5.650  -0.771  0.00  0.00     0.174 HD
ENDROOT
BRANCH   1  17
ATOM     17  C   UNL d   1       1.230  -3.053   0.733  0.00  0.00     0.093 A 
ATOM     18  C   UNL d   1       1.665  -4.237   1.424  0.00  0.00     0.086 A 
ATOM     19  N   UNL d   1       2.959  -4.125   1.766  0.00  0.00    -0.259 N 
ATOM     20  O   UNL d   1       3.393  -2.917   1.291  0.00  0.00    -0.241 OA
ATOM     21  HN  UNL d   1       3.513  -4.809   2.281  1.00  0.00     0.195 HD
ATOM     22  C   UNL d   1       2.373  -2.272   0.683  0.00  0.00     0.090 A 
ATOM     23  C   UNL d   1       2.715  -0.946   0.134  0.00  0.00     0.080 C 
BRANCH  18  24
ATOM     24  C   UNL d   1       0.950  -5.450   1.841  0.00  0.00     0.037 A 
ATOM     25  C   UNL d   1       1.452  -6.729   1.510  0.00  0.00     0.048 A 
ATOM     26 CL   UNL d   1       2.800  -6.967   0.443  0.00  0.00    -0.083 Cl
ATOM     27  C   UNL d   1       0.854  -7.895   2.008  0.00  0.00     0.025 A 
ATOM     28  C   UNL d   1      -0.272  -7.813   2.817  0.00  0.00     0.003 A 
ATOM     29  C   UNL d   1      -0.800  -6.565   3.133  0.00  0.00     0.025 A 
ATOM     30  C   UNL d   1      -0.189  -5.391   2.666  0.00  0.00     0.048 A 
ATOM     31 CL   UNL d   1      -0.888  -3.902   3.202  0.00  0.00    -0.083 Cl
ENDBRANCH  18  24
ENDBRANCH   1  17
TORSDOF 2
