REMARK  5 active torsions:
REMARK  status: ('A' for Active; 'I' for Inactive)
REMARK    1  A    between atoms: C_3  and  N_1 
REMARK    2  A    between atoms: N_2  and  C_4 
REMARK    3  A    between atoms: C_8  and  C_7 
REMARK    4  A    between atoms: N_20  and  C_9 
REMARK    5  A    between atoms: N_19  and  C_10 
ROOT
ATOM      1  C   UNL d   1      -0.986  -1.173   0.536  0.00  0.00     0.124 A 
ATOM      2  C   UNL d   1      -1.716   0.035   0.520  0.00  0.00     0.050 A 
ATOM      3  C   UNL d   1      -1.172   1.210  -0.023  0.00  0.00    -0.023 A 
ATOM      4  C   UNL d   1       0.293  -1.262  -0.044  0.00  0.00     0.039 A 
ATOM      5  C   UNL d   1       0.123   1.124  -0.557  0.00  0.00     0.014 A 
ATOM      6  C   UNL d   1       0.842  -0.081  -0.556  0.00  0.00     0.027 A 
ENDROOT
BRANCH   3   7
ATOM      7  C   UNL d   1      -1.915   2.492  -0.001  0.00  0.00    -0.023 A 
ATOM      8  C   UNL d   1      -1.819   3.417  -1.054  0.00  0.00     0.050 A 
ATOM      9  C   UNL d   1      -2.494   4.656  -1.007  0.00  0.00     0.124 A 
ATOM     10  C   UNL d   1      -3.337   4.988   0.068  0.00  0.00     0.039 A 
ATOM     11  C   UNL d   1      -3.406   4.076   1.128  0.00  0.00     0.027 A 
ATOM     12  C   UNL d   1      -2.722   2.853   1.089  0.00  0.00     0.014 A 
BRANCH   9  13
ATOM     13  N   UNL d   1      -2.305   5.576  -2.137  0.00  0.00    -0.114 N 
ATOM     14  O   UNL d   1      -1.319   5.394  -2.867  0.00  0.00    -0.532 OA
ATOM     15  O   UNL d   1      -3.151   6.467  -2.317  0.00  0.00    -0.532 OA
ENDBRANCH   9  13
BRANCH  10  16
ATOM     16  N   UNL d   1      -3.910   6.256   0.265  0.00  0.00    -0.301 NA
ATOM     17  H   UNL d   1      -4.740   6.263   0.851  0.00  0.00     0.124 HD
ATOM     18  H   UNL d   1      -4.056   6.781  -0.603  0.00  0.00     0.124 HD
ENDBRANCH  10  16
ENDBRANCH   3   7
BRANCH   1  19
ATOM     19  N   UNL d   1      -1.621  -2.346   1.155  0.00  0.00    -0.114 N 
ATOM     20  O   UNL d   1      -2.571  -2.141   1.927  0.00  0.00    -0.532 OA
ATOM     21  O   UNL d   1      -1.194  -3.472   0.859  0.00  0.00    -0.532 OA
ENDBRANCH   1  19
BRANCH   4  22
ATOM     22  N   UNL d   1       1.142  -2.375   0.072  0.00  0.00    -0.301 NA
ATOM     23  H   UNL d   1       0.644  -3.260   0.207  0.00  0.00     0.124 HD
ATOM     24  H   UNL d   1       1.849  -2.450  -0.654  0.00  0.00     0.124 HD
ENDBRANCH   4  22
TORSDOF 5
