REMARK  8 active torsions:
REMARK  status: ('A' for Active; 'I' for Inactive)
REMARK    1  A    between atoms: S_2  and  N_1 
REMARK    2  A    between atoms: S_3  and  N_1 
REMARK    3  A    between atoms: C_5  and  N_1 
REMARK    4  A    between atoms: C_4  and  S_2 
REMARK    5  A    between atoms: C_10  and  S_3 
REMARK    6  A    between atoms: C_13  and  C_5 
REMARK    7  A    between atoms: C_6  and  C_8 
REMARK    8  A    between atoms: C_7  and  C_9 
ROOT
ATOM      1  N   UNL d   1       1.033   0.275  -0.059  0.00  0.00    -0.190 N 
ENDROOT
BRANCH   1   2
ATOM      2  S   UNL d   1       0.371   1.456   0.936  0.00  0.00     0.274 S 
ATOM      3  O   UNL d   1      -0.833   2.031   0.382  0.00  0.00    -0.199 OA
ATOM      4  O   UNL d   1       0.349   0.919   2.284  0.00  0.00    -0.199 OA
BRANCH   2   5
ATOM      5  C   UNL d   1       1.558   2.798   0.950  0.00  0.00     0.082 A 
ATOM      6  C   UNL d   1       1.845   3.490  -0.232  0.00  0.00     0.041 A 
ATOM      7  C   UNL d   1       2.788   4.531  -0.221  0.00  0.00     0.050 A 
ATOM      8  C   UNL d   1       3.406   4.881   0.996  0.00  0.00     0.032 A 
ATOM      9  C   UNL d   1       3.090   4.218   2.195  0.00  0.00     0.050 A 
ATOM     10  C   UNL d   1       2.160   3.169   2.160  0.00  0.00     0.041 A 
BRANCH   7  11
ATOM     11  C   UNL d   1       3.158   5.271  -1.488  0.00  0.00     0.417 C 
ATOM     12  F   UNL d   1       2.466   4.856  -2.582  0.00  0.00    -0.166 F 
ATOM     13  F   UNL d   1       2.945   6.611  -1.389  0.00  0.00    -0.166 F 
ATOM     14  F   UNL d   1       4.475   5.121  -1.798  0.00  0.00    -0.166 F 
ENDBRANCH   7  11
BRANCH   9  15
ATOM     15  C   UNL d   1       3.752   4.636   3.490  0.00  0.00     0.417 C 
ATOM     16  F   UNL d   1       3.295   3.962   4.579  0.00  0.00    -0.166 F 
ATOM     17  F   UNL d   1       5.098   4.441   3.464  0.00  0.00    -0.166 F 
ATOM     18  F   UNL d   1       3.570   5.958   3.761  0.00  0.00    -0.166 F 
ENDBRANCH   9  15
ENDBRANCH   2   5
ENDBRANCH   1   2
BRANCH   1  19
ATOM     19  S   UNL d   1       0.423   0.121  -1.609  0.00  0.00     0.274 S 
ATOM     20  O   UNL d   1      -1.015   0.238  -1.650  0.00  0.00    -0.199 OA
ATOM     21  O   UNL d   1       1.277   0.908  -2.476  0.00  0.00    -0.199 OA
BRANCH  19  22
ATOM     22  C   UNL d   1       0.727  -1.601  -1.990  0.00  0.00     0.080 A 
ATOM     23  C   UNL d   1       0.145  -2.586  -1.182  0.00  0.00     0.027 A 
ATOM     24  C   UNL d   1       0.354  -3.933  -1.485  0.00  0.00     0.025 A 
ATOM     25  C   UNL d   1       1.123  -4.284  -2.595  0.00  0.00     0.034 A 
ATOM     26  C   UNL d   1       1.698  -3.300  -3.402  0.00  0.00     0.025 A 
ATOM     27 CL   UNL d   1       1.351  -5.944  -2.984  0.00  0.00    -0.084 Cl
ATOM     28  C   UNL d   1       1.502  -1.950  -3.100  0.00  0.00     0.027 A 
ENDBRANCH  19  22
ENDBRANCH   1  19
BRANCH   1  29
ATOM     29  C   UNL d   1       2.470  -0.024   0.085  0.00  0.00     0.200 C 
BRANCH  29  30
ATOM     30  C   UNL d   1       2.797  -0.702   1.379  0.00  0.00     0.002 A 
ATOM     31  S   UNL d   1       4.050  -0.072   2.369  0.00  0.00    -0.105 SA
ATOM     32  C   UNL d   1       3.879  -1.334   3.506  0.00  0.00     0.050 A 
ATOM     33  C   UNL d   1       2.894  -2.224   3.144  0.00  0.00     0.008 A 
ATOM     34  C   UNL d   1       2.268  -1.859   1.917  0.00  0.00     0.017 A 
ENDBRANCH  29  30
ENDBRANCH   1  29
TORSDOF 8
