REMARK  6 active torsions:
REMARK  status: ('A' for Active; 'I' for Inactive)
REMARK    1  A    between atoms: N_2  and  C_1 
REMARK    2  A    between atoms: O_8  and  C_3 
REMARK    3  A    between atoms: C_5  and  C_6 
REMARK    4  A    between atoms: N_19  and  C_5 
REMARK    5  A    between atoms: C_14  and  O_8 
REMARK    6  A    between atoms: O_23  and  N_12 
ROOT
ATOM      1  C   UNL d   1      -4.257   4.332   0.741  0.00  0.00     0.137 A 
ATOM      2  C   UNL d   1      -5.165   3.309   0.459  0.00  0.00     0.109 A 
ATOM      3  C   UNL d   1      -2.870   4.120   0.728  0.00  0.00     0.053 A 
ATOM      4  C   UNL d   1      -2.374   2.844   0.435  0.00  0.00     0.006 A 
ATOM      5  C   UNL d   1      -4.646   2.058   0.095  0.00  0.00     0.041 A 
ATOM      6  C   UNL d   1      -3.271   1.816   0.126  0.00  0.00     0.018 A 
ENDROOT
BRANCH   2   7
ATOM      7  O   UNL d   1      -6.521   3.569   0.506  0.00  0.00    -0.308 OA
BRANCH   7   8
ATOM      8  C   UNL d   1      -7.375   2.513   0.739  0.00  0.00     0.077 A 
ATOM      9  C   UNL d   1      -7.153   1.578   1.756  0.00  0.00     0.062 A 
ATOM     10  C   UNL d   1      -7.951   0.435   1.836  0.00  0.00     0.058 A 
ATOM     11 CL   UNL d   1      -7.514  -0.763   3.002  0.00  0.00    -0.082 Cl
ATOM     12  C   UNL d   1      -9.023   0.270   0.952  0.00  0.00     0.056 A 
ATOM     13  C   UNL d   1      -9.302   1.260   0.003  0.00  0.00     0.028 A 
ATOM     14 CL   UNL d   1     -10.022  -1.139   0.963  0.00  0.00    -0.083 Cl
ATOM     15  C   UNL d   1      -8.478   2.383  -0.104  0.00  0.00     0.039 A 
ENDBRANCH   7   8
ENDBRANCH   2   7
BRANCH   1  16
ATOM     16  N   UNL d   1      -4.732   5.665   1.048  0.00  0.00    -0.113 N 
ATOM     17  O   UNL d   1      -5.466   5.796   2.039  0.00  0.00    -0.532 OA
ATOM     18  O   UNL d   1      -4.340   6.582   0.315  0.00  0.00    -0.532 OA
ENDBRANCH   1  16
BRANCH   4  19
ATOM     19  C   UNL d   1      -0.899   2.587   0.448  0.00  0.00     0.108 C 
ATOM     20  N   UNL d   1      -0.097   3.586   0.690  0.00  0.00    -0.258 N 
ATOM     21  HN  UNL d   1      -0.403   4.537   0.898  1.00  0.00     0.195 HD
BRANCH  20  22
ATOM     22  O   UNL d   1       1.246   3.177   0.624  0.00  0.00    -0.289 OA
ATOM     23  H   UNL d   1       1.720   4.005   0.827  0.00  0.00     0.244 HD
ENDBRANCH  20  22
BRANCH  19  24
ATOM     24  N   UNL d   1      -0.419   1.322   0.205  0.00  0.00    -0.287 NA
ATOM     25  H   UNL d   1      -0.827   0.839  -0.585  0.00  0.00     0.125 HD
ATOM     26  H   UNL d   1       0.596   1.367   0.117  0.00  0.00     0.125 HD
ENDBRANCH  19  24
ENDBRANCH   4  19
TORSDOF 6
