REMARK  1 active torsions:
REMARK  status: ('A' for Active; 'I' for Inactive)
REMARK    1  A    between atoms: S_13  and  C_3 
ROOT
ATOM      1  N   UNL d   1      -2.812   1.132  -0.100  0.00  0.00    -0.335 N 
ATOM      2  HN  UNL d   1      -3.141   2.096  -0.165  1.00  0.00     0.168 HD
ATOM      3  C   UNL d   1      -3.534   0.040  -0.064  0.00  0.00     0.142 A 
ATOM      4  N   UNL d   1      -2.776  -1.086   0.044  0.00  0.00    -0.335 N 
ATOM      5  C   UNL d   1      -1.511   0.691  -0.030  0.00  0.00     0.064 A 
ATOM      6  C   UNL d   1      -1.460  -0.701   0.069  0.00  0.00     0.064 A 
ATOM      7  C   UNL d   1      -0.315   1.421  -0.063  0.00  0.00     0.071 A 
ATOM      8  C   UNL d   1      -0.267  -1.419   0.155  0.00  0.00     0.071 A 
ATOM      9  C   UNL d   1       0.915  -0.675   0.081  0.00  0.00     0.104 A 
ATOM     10  C   UNL d   1       0.897   0.722  -0.023  0.00  0.00     0.104 A 
ATOM     11  O   UNL d   1       2.082  -1.400   0.105  0.00  0.00    -0.346 OA
ATOM     12  O   UNL d   1       2.032   1.486  -0.134  0.00  0.00    -0.346 OA
ATOM     13  C   UNL d   1       3.136  -0.667  -0.524  0.00  0.00     0.202 C 
ATOM     14  C   UNL d   1       3.237   0.737   0.050  0.00  0.00     0.202 C 
ATOM     15  H   UNL d   1      -3.132  -2.031   0.070  0.00  0.00     0.168 HD
ENDROOT
BRANCH   3  16
ATOM     16  S   UNL d   1      -5.246  -0.056  -0.153  0.00  0.00    -0.107 SA
ATOM     17  H   UNL d   1      -5.463   1.264  -0.245  0.00  0.00     0.110 HD
ENDBRANCH   3  16
TORSDOF 1
