REMARK  1 active torsions:
REMARK  status: ('A' for Active; 'I' for Inactive)
REMARK    1  A    between atoms: S_7  and  C_2 
ROOT
ATOM      1  C   UNL d   1       0.525   0.630  -0.040  0.00  0.00     0.042 A 
ATOM      2  C   UNL d   1       1.893   0.854  -0.089  0.00  0.00     0.056 A 
ATOM      3  S   UNL d   1       2.775  -0.617  -0.070  0.00  0.00    -0.074 SA
ATOM      4  C   UNL d   1       1.364  -1.543   0.018  0.00  0.00     0.060 A 
ATOM      5  C   UNL d   1       0.214  -0.790   0.007  0.00  0.00    -0.018 A 
ATOM      6  C   UNL d   1      -0.539   1.640  -0.016  0.00  0.00     0.162 C 
ATOM      7 BR   UNL d   1       1.412  -3.416   0.137  0.00  0.00    -0.042 Br
ATOM      8  O   UNL d   1      -0.345   2.843  -0.180  0.00  0.00    -0.292 OA
ATOM      9  C   UNL d   1      -1.202  -1.289   0.073  0.00  0.00     0.042 C 
ATOM     10  C   UNL d   1      -1.941   1.123   0.283  0.00  0.00     0.084 C 
ATOM     11  C   UNL d   1      -2.194  -0.221  -0.398  0.00  0.00     0.012 C 
ENDROOT
BRANCH   2  12
ATOM     12  S   UNL d   1       2.765   2.385  -0.077  0.00  0.00    -0.126 SA
ATOM     13  C   UNL d   1       2.881   2.728  -1.846  0.00  0.00     0.096 C 
ENDBRANCH   2  12
TORSDOF 1
