REMARK  5 active torsions:
REMARK  status: ('A' for Active; 'I' for Inactive)
REMARK    1  A    between atoms: C_2  and  S_1 
REMARK    2  A    between atoms: N_3  and  S_1 
REMARK    3  A    between atoms: C_10  and  N_3 
REMARK    4  A    between atoms: C_4  and  C_8 
REMARK    5  A    between atoms: O_13  and  C_4 
ROOT
ATOM      1  N   UNL d   1       0.110   1.450  -0.155  0.00  0.00    -0.281 N 
ATOM      2  H   UNL d   1      -0.555   1.234  -0.897  0.00  0.00     0.179 HD
ENDROOT
BRANCH   1   3
ATOM      3  S   UNL d   1       1.046   0.134   0.307  0.00  0.00     0.264 S 
ATOM      4  O   UNL d   1       0.394  -1.050  -0.207  0.00  0.00    -0.200 OA
ATOM      5  O   UNL d   1       2.428   0.399  -0.043  0.00  0.00    -0.200 OA
BRANCH   3   6
ATOM      6  C   UNL d   1       0.895   0.168   2.079  0.00  0.00     0.096 A 
ATOM      7  C   UNL d   1      -0.210  -0.319   2.789  0.00  0.00     0.029 A 
ATOM      8  I   UNL d   1      -2.003  -1.031   1.961  0.00  0.00    -0.043 I 
ATOM      9  C   UNL d   1      -0.183  -0.294   4.195  0.00  0.00     0.020 A 
ATOM     10  C   UNL d   1       0.914   0.226   4.884  0.00  0.00     0.001 A 
ATOM     11  C   UNL d   1       1.999   0.729   4.178  0.00  0.00     0.002 A 
ATOM     12  C   UNL d   1       1.995   0.694   2.784  0.00  0.00     0.027 A 
ENDBRANCH   3   6
ENDBRANCH   1   3
BRANCH   1  13
ATOM     13  C   UNL d   1       0.616   2.773  -0.067  0.00  0.00     0.042 A 
ATOM     14  C   UNL d   1       1.607   3.230  -0.938  0.00  0.00     0.031 A 
ATOM     15  C   UNL d   1       1.945   4.587  -0.961  0.00  0.00     0.020 A 
ATOM     16  C   UNL d   1       1.273   5.488  -0.131  0.00  0.00     0.037 A 
ATOM     17  C   UNL d   1       0.315   5.021   0.779  0.00  0.00     0.020 A 
ATOM     18  C   UNL d   1      -0.022   3.665   0.797  0.00  0.00     0.031 A 
BRANCH  16  19
ATOM     19  C   UNL d   1       1.581   6.933  -0.251  0.00  0.00     0.176 C 
ATOM     20  O   UNL d   1       2.701   7.365  -0.456  0.00  0.00    -0.646 OA
BRANCH  19  21
ATOM     21  O   UNL d   1       0.479   7.711  -0.182  0.00  0.00    -0.773 OA
ATOM     22  H   UNL d   1      -0.368   7.229  -0.218  0.00  0.00     0.167 HD
ENDBRANCH  19  21
ENDBRANCH  16  19
ENDBRANCH   1  13
TORSDOF 5
