REMARK  3 active torsions:
REMARK  status: ('A' for Active; 'I' for Inactive)
REMARK    1  A    between atoms: C_2  and  C_1 
REMARK    2  A    between atoms: O_7  and  C_1 
REMARK    3  A    between atoms: C_4  and  O_7 
ROOT
ATOM      1  C   UNL d   1       0.380   0.998  -0.950  0.00  0.00     0.157 C 
ATOM      2  O   UNL d   1      -1.422   3.088  -0.074  0.00  0.00    -0.310 OA
ATOM      3  C   UNL d   1      -1.129   0.909  -1.117  0.00  0.00    -0.006 A 
ATOM      4  C   UNL d   1       0.805   2.448  -0.820  0.00  0.00    -0.006 A 
ATOM      5  C   UNL d   1      -1.937   1.936  -0.619  0.00  0.00     0.083 A 
ATOM      6  C   UNL d   1      -0.125   3.405  -0.399  0.00  0.00     0.083 A 
ATOM      7  C   UNL d   1       2.116   2.857  -1.108  0.00  0.00     0.011 A 
ATOM      8  C   UNL d   1      -1.742  -0.189  -1.739  0.00  0.00     0.011 A 
ATOM      9  C   UNL d   1       0.234   4.748  -0.291  0.00  0.00     0.038 A 
ATOM     10  C   UNL d   1      -3.329   1.848  -0.680  0.00  0.00     0.038 A 
ATOM     11  C   UNL d   1       2.480   4.199  -0.986  0.00  0.00     0.001 A 
ATOM     12  C   UNL d   1      -3.135  -0.262  -1.830  0.00  0.00     0.001 A 
ATOM     13  C   UNL d   1       1.536   5.146  -0.591  0.00  0.00     0.003 A 
ATOM     14  C   UNL d   1      -3.929   0.748  -1.289  0.00  0.00     0.003 A 
ENDROOT
BRANCH   1  15
ATOM     15  C   UNL d   1       0.874   0.083   0.178  0.00  0.00     0.277 C 
ATOM     16  O   UNL d   1       0.476  -1.064   0.368  0.00  0.00    -0.264 OA
BRANCH  15  17
ATOM     17  O   UNL d   1       1.907   0.678   0.912  0.00  0.00    -0.276 OA
BRANCH  17  18
ATOM     18  C   UNL d   1       2.464  -0.009   2.011  0.00  0.00     0.102 A 
ATOM     19  C   UNL d   1       1.643  -0.540   3.004  0.00  0.00     0.064 A 
ATOM     20  C   UNL d   1       2.214  -1.168   4.113  0.00  0.00     0.058 A 
ATOM     21 CL   UNL d   1       1.145  -1.814   5.306  0.00  0.00    -0.082 Cl
ATOM     22  C   UNL d   1       3.608  -1.246   4.234  0.00  0.00     0.057 A 
ATOM     23  C   UNL d   1       4.429  -0.682   3.251  0.00  0.00     0.052 A 
ATOM     24 CL   UNL d   1       4.377  -2.014   5.578  0.00  0.00    -0.082 Cl
ATOM     25  C   UNL d   1       3.858  -0.056   2.141  0.00  0.00     0.069 A 
ATOM     26 CL   UNL d   1       4.899   0.653   0.964  0.00  0.00    -0.081 Cl
ENDBRANCH  17  18
ENDBRANCH  15  17
ENDBRANCH   1  15
TORSDOF 3
