REMARK  3 active torsions:
REMARK  status: ('A' for Active; 'I' for Inactive)
REMARK    1  A    between atoms: S_2  and  C_1 
REMARK    2  A    between atoms: C_8  and  S_2 
REMARK    3  A    between atoms: C_11  and  C_3 
ROOT
ATOM      1  C   UNL d   1       1.091   0.872  -0.035  0.00  0.00     0.110 A 
ATOM      2  C   UNL d   1      -0.299   1.188  -0.028  0.00  0.00     0.081 A 
ATOM      3  N   UNL d   1      -1.015   0.042  -0.008  0.00  0.00    -0.299 N 
ATOM      4  HN  UNL d   1      -2.030  -0.048   0.045  1.00  0.00     0.187 HD
ATOM      5  C   UNL d   1       1.161  -0.509  -0.077  0.00  0.00     0.133 A 
ATOM      6  N   UNL d   1      -0.120  -0.947  -0.071  0.00  0.00    -0.310 N 
ATOM      7  H   UNL d   1      -0.459  -1.905  -0.085  0.00  0.00     0.186 HD
ENDROOT
BRANCH   1   8
ATOM      8  S   UNL d   1       2.470   1.889   0.081  0.00  0.00     0.210 S 
ATOM      9  O   UNL d   1       3.582   0.975   0.251  0.00  0.00    -0.217 OA
ATOM     10  O   UNL d   1       2.393   2.782  -1.060  0.00  0.00    -0.217 OA
BRANCH   8  11
ATOM     11  C   UNL d   1       2.356   2.819   1.577  0.00  0.00     0.064 A 
ATOM     12  C   UNL d   1       1.831   2.229   2.732  0.00  0.00     0.025 A 
ATOM     13  C   UNL d   1       1.885   2.923   3.942  0.00  0.00     0.025 A 
ATOM     14  C   UNL d   1       2.466   4.190   3.991  0.00  0.00     0.034 A 
ATOM     15  C   UNL d   1       2.963   4.789   2.833  0.00  0.00     0.025 A 
ATOM     16 CL   UNL d   1       2.603   5.004   5.500  0.00  0.00    -0.084 Cl
ATOM     17  C   UNL d   1       2.902   4.106   1.616  0.00  0.00     0.025 A 
ENDBRANCH   8  11
ENDBRANCH   1   8
BRANCH   2  18
ATOM     18  C   UNL d   1      -1.041   2.460  -0.021  0.00  0.00    -0.006 A 
ATOM     19  C   UNL d   1      -0.587   3.606  -0.683  0.00  0.00     0.015 A 
ATOM     20  C   UNL d   1      -1.370   4.766  -0.746  0.00  0.00     0.024 A 
ATOM     21  C   UNL d   1      -2.637   4.782  -0.175  0.00  0.00     0.034 A 
ATOM     22  C   UNL d   1      -3.114   3.660   0.491  0.00  0.00     0.024 A 
ATOM     23 CL   UNL d   1      -3.630   6.176  -0.335  0.00  0.00    -0.084 Cl
ATOM     24  C   UNL d   1      -2.316   2.512   0.575  0.00  0.00     0.015 A 
ENDBRANCH   2  18
TORSDOF 3
