REMARK  6 active torsions:
REMARK  status: ('A' for Active; 'I' for Inactive)
REMARK    1  A    between atoms: C_2  and  O_9 
REMARK    2  A    between atoms: C_4  and  C_20 
REMARK    3  A    between atoms: C_6  and  O_9 
REMARK    4  A    between atoms: C_11  and  C_6 
REMARK    5  A    between atoms: C_19  and  C_12 
REMARK    6  A    between atoms: O_21  and  C_20 
ROOT
ATOM      1  C   UNL d   1       2.478   1.560   2.302  0.00  0.00     0.293 C 
ATOM      2  O   UNL d   1       2.186   1.873   3.447  0.00  0.00    -0.259 OA
ENDROOT
BRANCH   1   3
ATOM      3  O   UNL d   1       1.768   0.721   1.508  0.00  0.00    -0.311 OA
BRANCH   3   4
ATOM      4  C   UNL d   1       0.353   0.666   1.756  0.00  0.00     0.141 C 
ATOM      5  C   UNL d   1      -0.311   0.658   0.371  0.00  0.00     0.066 C 
ATOM      6  C   UNL d   1      -0.852  -0.755   0.158  0.00  0.00     0.139 C 
ATOM      7  C   UNL d   1      -0.317  -1.612   1.287  0.00  0.00     0.033 C 
ATOM      8  O   UNL d   1      -0.370  -1.323  -1.056  0.00  0.00    -0.316 OA
ATOM      9  C   UNL d   1      -0.047  -0.646   2.447  0.00  0.00     0.046 C 
ATOM     10  C   UNL d   1       0.910  -2.266   0.678  0.00  0.00     0.118 C 
ATOM     11  C   UNL d   1       0.620  -2.220  -0.791  0.00  0.00     0.259 C 
ATOM     12  O   UNL d   1       1.212  -2.858  -1.645  0.00  0.00    -0.265 OA
BRANCH   9  13
ATOM     13  C   UNL d   1      -1.304  -0.445   3.307  0.00  0.00     0.171 C 
BRANCH  13  14
ATOM     14  O   UNL d   1      -2.374   0.083   2.535  0.00  0.00    -0.400 OA
ATOM     15  H   UNL d   1      -2.622   0.945   2.917  0.00  0.00     0.209 HD
ENDBRANCH  13  14
ENDBRANCH   9  13
ENDBRANCH   3   4
ENDBRANCH   1   3
BRANCH   1  16
ATOM     16  C   UNL d   1       3.548   2.208   1.490  0.00  0.00     0.039 A 
ATOM     17  C   UNL d   1       4.258   3.278   2.043  0.00  0.00     0.018 A 
ATOM     18  C   UNL d   1       5.107   4.054   1.240  0.00  0.00     0.013 A 
ATOM     19  C   UNL d   1       5.279   3.782  -0.131  0.00  0.00    -0.026 A 
ATOM     20  C   UNL d   1       4.622   2.650  -0.643  0.00  0.00     0.013 A 
ATOM     21  C   UNL d   1       3.766   1.875   0.149  0.00  0.00     0.018 A 
BRANCH  19  22
ATOM     22  C   UNL d   1       6.065   4.679  -1.015  0.00  0.00    -0.026 A 
ATOM     23  C   UNL d   1       5.670   4.914  -2.348  0.00  0.00     0.012 A 
ATOM     24  C   UNL d   1       6.385   5.775  -3.188  0.00  0.00     0.001 A 
ATOM     25  C   UNL d   1       7.510   6.435  -2.709  0.00  0.00     0.000 A 
ATOM     26  C   UNL d   1       7.922   6.229  -1.396  0.00  0.00     0.001 A 
ATOM     27  C   UNL d   1       7.210   5.357  -0.562  0.00  0.00     0.012 A 
ENDBRANCH  19  22
ENDBRANCH   1  16
TORSDOF 6
