REMARK  7 active torsions:
REMARK  status: ('A' for Active; 'I' for Inactive)
REMARK    1  A    between atoms: C_2  and  S_1 
REMARK    2  A    between atoms: C_9  and  S_1 
REMARK    3  A    between atoms: C_3  and  C_6 
REMARK    4  A    between atoms: C_8  and  O_20 
REMARK    5  A    between atoms: C_10  and  C_8 
REMARK    6  A    between atoms: C_22  and  C_9 
REMARK    7  A    between atoms: O_20  and  C_22 
ROOT
ATOM      1  S   UNL d   1       0.922   0.026   0.158  0.00  0.00     0.193 S 
ATOM      2  O   UNL d   1       2.328   0.256   0.442  0.00  0.00    -0.221 OA
ATOM      3  O   UNL d   1       0.514  -0.634  -1.069  0.00  0.00    -0.221 OA
ENDROOT
BRANCH   1   4
ATOM      4  C   UNL d   1       0.133   1.623   0.163  0.00  0.00     0.129 A 
ATOM      5  N   UNL d   1      -0.744   1.822   1.179  0.00  0.00    -0.351 N 
ATOM      6  C   UNL d   1      -1.375   3.017   1.209  0.00  0.00     0.007 A 
ATOM      7  HN  UNL d   1      -0.917   1.107   1.885  1.00  0.00     0.166 HD
ATOM      8  C   UNL d   1      -2.358   3.250   2.317  0.00  0.00     0.068 C 
ATOM      9  C   UNL d   1      -1.146   4.008   0.256  0.00  0.00     0.041 A 
ATOM     10  C   UNL d   1      -0.231   3.775  -0.784  0.00  0.00     0.052 A 
ATOM     11  C   UNL d   1       0.426   2.543  -0.831  0.00  0.00     0.058 A 
BRANCH  10  12
ATOM     12  C   UNL d   1       0.016   4.843  -1.817  0.00  0.00     0.417 C 
ATOM     13  F   UNL d   1       0.925   4.487  -2.763  0.00  0.00    -0.166 F 
ATOM     14  F   UNL d   1      -1.117   5.181  -2.491  0.00  0.00    -0.166 F 
ATOM     15  F   UNL d   1       0.480   5.997  -1.264  0.00  0.00    -0.166 F 
ENDBRANCH  10  12
ENDBRANCH   1   4
BRANCH   1  16
ATOM     16  C   UNL d   1       0.219  -0.853   1.531  0.00  0.00     0.174 C 
BRANCH  16  17
ATOM     17  C   UNL d   1       0.799  -2.253   1.617  0.00  0.00     0.194 C 
BRANCH  17  18
ATOM     18  O   UNL d   1       0.259  -2.970   2.749  0.00  0.00    -0.317 OA
BRANCH  18  19
ATOM     19  C   UNL d   1      -0.964  -3.525   2.548  0.00  0.00     0.293 C 
ATOM     20  O   UNL d   1      -1.637  -3.399   1.538  0.00  0.00    -0.259 OA
BRANCH  19  21
ATOM     21  C   UNL d   1      -1.411  -4.318   3.725  0.00  0.00     0.041 A 
ATOM     22  C   UNL d   1      -0.624  -4.488   4.870  0.00  0.00     0.041 A 
ATOM     23  C   UNL d   1      -1.111  -5.256   5.931  0.00  0.00     0.035 A 
ATOM     24 CL   UNL d   1      -0.147  -5.473   7.341  0.00  0.00    -0.084 Cl
ATOM     25  C   UNL d   1      -2.370  -5.853   5.864  0.00  0.00     0.024 A 
ATOM     26  C   UNL d   1      -3.156  -5.685   4.726  0.00  0.00     0.003 A 
ATOM     27  C   UNL d   1      -2.678  -4.920   3.661  0.00  0.00     0.018 A 
ENDBRANCH  19  21
ENDBRANCH  18  19
ENDBRANCH  17  18
ENDBRANCH  16  17
ENDBRANCH   1  16
TORSDOF 7
