REMARK  4 active torsions:
REMARK  status: ('A' for Active; 'I' for Inactive)
REMARK    1  A    between atoms: C_11  and  C_7 
REMARK    2  A    between atoms: O_17  and  C_8 
REMARK    3  A    between atoms: O_19  and  C_9 
REMARK    4  A    between atoms: O_18  and  C_10 
ROOT
ATOM      1  C   UNL d   1       5.043   3.648   0.306  0.00  0.00     0.135 A 
ATOM      2  C   UNL d   1       3.957   3.434   1.186  0.00  0.00     0.105 A 
ATOM      3  C   UNL d   1       5.249   2.750  -0.759  0.00  0.00     0.105 A 
ATOM      4  C   UNL d   1       3.409   1.375   0.023  0.00  0.00    -0.030 A 
ATOM      5  C   UNL d   1       4.420   1.631  -0.899  0.00  0.00     0.051 A 
ATOM      6  C   UNL d   1       3.184   2.273   1.066  0.00  0.00     0.051 A 
ENDROOT
BRANCH   4   7
ATOM      7  C   UNL d   1       2.571   0.186  -0.111  0.00  0.00     0.034 C 
ATOM      8  C   UNL d   1       2.770  -0.991   0.511  0.00  0.00     0.101 A 
ATOM      9  C   UNL d   1       1.801  -2.076   0.205  0.00  0.00     0.265 A 
ATOM     10  C   UNL d   1       3.889  -1.265   1.450  0.00  0.00     0.265 A 
ATOM     11  N   UNL d   1       2.083  -3.284   0.769  0.00  0.00    -0.275 N 
ATOM     12  O   UNL d   1       0.807  -1.919  -0.496  0.00  0.00    -0.267 OA
ATOM     13  C   UNL d   1       3.133  -3.579   1.583  0.00  0.00     0.329 A 
ATOM     14  H   UNL d   1       1.437  -4.038   0.579  0.00  0.00     0.173 HD
ATOM     15  N   UNL d   1       3.997  -2.566   1.853  0.00  0.00    -0.275 N 
ATOM     16  O   UNL d   1       3.281  -4.696   2.060  0.00  0.00    -0.246 OA
ATOM     17  H   UNL d   1       4.753  -2.775   2.490  0.00  0.00     0.173 HD
ATOM     18  O   UNL d   1       4.668  -0.421   1.877  0.00  0.00    -0.267 OA
ENDBRANCH   4   7
BRANCH   3  19
ATOM     19  O   UNL d   1       6.149   2.867  -1.788  0.00  0.00    -0.353 OA
ATOM     20  C   UNL d   1       7.423   3.407  -1.470  0.00  0.00     0.210 C 
ENDBRANCH   3  19
BRANCH   2  21
ATOM     21  O   UNL d   1       3.676   4.413   2.112  0.00  0.00    -0.353 OA
ATOM     22  C   UNL d   1       2.378   4.383   2.697  0.00  0.00     0.210 C 
ENDBRANCH   2  21
BRANCH   1  23
ATOM     23  O   UNL d   1       5.804   4.790   0.351  0.00  0.00    -0.351 OA
ATOM     24  C   UNL d   1       6.400   5.084   1.614  0.00  0.00     0.210 C 
ENDBRANCH   1  23
TORSDOF 4
