REMARK  6 active torsions:
REMARK  status: ('A' for Active; 'I' for Inactive)
REMARK    1  A    between atoms: N_2  and  C_1 
REMARK    2  A    between atoms: C_3  and  C_1 
REMARK    3  A    between atoms: C_4  and  C_1 
REMARK    4  A    between atoms: N_5  and  C_1 
REMARK       I    between atoms: C_6  and  N_2 
REMARK    5  A    between atoms: C_7  and  N_5 
REMARK    6  A    between atoms: C_9  and  C_6 
ROOT
ATOM      1  C   UNL d   1       0.932   0.072   0.125  0.00  0.00     0.306 C 
ENDROOT
BRANCH   1   2
ATOM      2  N   UNL d   1       0.470   1.430   0.452  0.00  0.00    -0.315 N 
ATOM      3  C   UNL d   1      -0.723   1.670   1.070  0.00  0.00     0.254 C 
ATOM      4  O   UNL d   1      -1.474   0.752   1.374  0.00  0.00    -0.268 OA
ATOM      5  H   UNL d   1       1.115   2.158   0.195  0.00  0.00     0.165 HD
BRANCH   3   6
ATOM      6  C   UNL d   1      -1.063   3.083   1.408  0.00  0.00     0.032 A 
ATOM      7  C   UNL d   1      -0.448   4.186   0.800  0.00  0.00     0.017 A 
ATOM      8  C   UNL d   1      -0.839   5.484   1.144  0.00  0.00     0.001 A 
ATOM      9  C   UNL d   1      -1.841   5.690   2.092  0.00  0.00     0.000 A 
ATOM     10  C   UNL d   1      -2.451   4.599   2.707  0.00  0.00     0.001 A 
ATOM     11  C   UNL d   1      -2.065   3.301   2.366  0.00  0.00     0.017 A 
ENDBRANCH   3   6
ENDBRANCH   1   2
BRANCH   1  12
ATOM     12  C   UNL d   1       0.197  -0.552  -1.124  0.00  0.00     0.441 C 
ATOM     13  F   UNL d   1      -0.785   0.254  -1.604  0.00  0.00    -0.166 F 
ATOM     14  F   UNL d   1       1.088  -0.687  -2.157  0.00  0.00    -0.166 F 
ATOM     15  F   UNL d   1      -0.331  -1.779  -0.953  0.00  0.00    -0.166 F 
ENDBRANCH   1  12
BRANCH   1  16
ATOM     16  C   UNL d   1       0.797  -1.037   1.226  0.00  0.00     0.441 C 
ATOM     17  F   UNL d   1       1.103  -0.583   2.469  0.00  0.00    -0.166 F 
ATOM     18  F   UNL d   1      -0.429  -1.595   1.325  0.00  0.00    -0.166 F 
ATOM     19  F   UNL d   1       1.661  -2.059   0.970  0.00  0.00    -0.166 F 
ENDBRANCH   1  16
BRANCH   1  20
ATOM     20  N   UNL d   1       2.378   0.380  -0.265  0.00  0.00    -0.348 N 
ATOM     21  H   UNL d   1       2.688  -0.286  -0.974  0.00  0.00     0.162 HD
BRANCH  20  22
ATOM     22  C   UNL d   1       3.413   0.700   0.620  0.00  0.00     0.036 A 
ATOM     23  C   UNL d   1       4.753   0.668   0.166  0.00  0.00    -0.036 A 
ATOM     24  C   UNL d   1       5.141   0.203  -1.216  0.00  0.00     0.050 C 
ATOM     25  C   UNL d   1       5.804   1.024   1.039  0.00  0.00     0.009 A 
ATOM     26  C   UNL d   1       5.544   1.461   2.331  0.00  0.00     0.001 A 
ATOM     27  C   UNL d   1       4.234   1.560   2.764  0.00  0.00     0.002 A 
ATOM     28  C   UNL d   1       3.187   1.206   1.903  0.00  0.00     0.030 A 
ENDBRANCH  20  22
ENDBRANCH   1  20
TORSDOF 6
