REMARK  1 active torsions:
REMARK  status: ('A' for Active; 'I' for Inactive)
REMARK    1  A    between atoms: O_18  and  C_16 
ROOT
ATOM      1  N   UNL d   1       0.888   0.521  -0.004  0.00  0.00    -0.090 N 
ATOM      2  C   UNL d   1       1.618  -0.619  -0.004  0.00  0.00     0.722 A 
ATOM      3  C   UNL d   1       1.785   1.551  -0.002  0.00  0.00     0.360 A 
ATOM      4  N   UNL d   1       1.034  -1.859  -0.005  0.00  0.00    -0.130 N 
ATOM      5  HN  UNL d   1       1.618  -2.696  -0.006  1.00  0.00     0.205 HD
ATOM      6  N   UNL d   1       2.909  -0.432  -0.003  0.00  0.00    -0.126 N 
ATOM      7  HN  UNL d   1       3.648  -1.136  -0.003  1.00  0.00     0.206 HD
ATOM      8  N   UNL d   1      -0.223  -1.970  -0.004  0.00  0.00    -0.284 N 
ATOM      9  HN  UNL d   1      -0.652  -2.895  -0.004  1.00  0.00     0.187 HD
ATOM     10  C   UNL d   1      -0.494   0.478  -0.003  0.00  0.00     0.090 A 
ATOM     11  C   UNL d   1      -1.037  -0.812  -0.003  0.00  0.00     0.079 A 
ATOM     12  N   UNL d   1       3.040   0.936  -0.002  0.00  0.00    -0.236 N 
ATOM     13  C   UNL d   1      -2.426  -0.957  -0.000  0.00  0.00     0.070 A 
ATOM     14  C   UNL d   1      -1.317   1.603  -0.002  0.00  0.00     0.036 A 
ATOM     15  O   UNL d   1       1.588   2.755   0.000  0.00  0.00    -0.244 OA
ATOM     16  C   UNL d   1      -3.267   0.162   0.001  0.00  0.00     0.070 A 
ATOM     17  C   UNL d   1      -2.706   1.441  -0.001  0.00  0.00     0.039 A 
ATOM     18  H   UNL d   1       3.938   1.402   0.001  0.00  0.00     0.192 HD
ENDROOT
BRANCH  16  19
ATOM     19  O   UNL d   1      -4.603  -0.129   0.003  0.00  0.00    -0.356 OA
ATOM     20  C   UNL d   1      -5.505   0.971   0.004  0.00  0.00     0.210 C 
ENDBRANCH  16  19
TORSDOF 1
