REMARK  5 active torsions:
REMARK  status: ('A' for Active; 'I' for Inactive)
REMARK    1  A    between atoms: C_2  and  C_1 
REMARK    2  A    between atoms: C_7  and  C_2 
REMARK    3  A    between atoms: C_3  and  O_8 
REMARK    4  A    between atoms: C_10  and  C_4 
REMARK    5  A    between atoms: O_8  and  C_16 
ROOT
ATOM      1  C   UNL d   1       0.963  -0.029  -0.208  0.00  0.00     0.096 C 
ATOM      2  C   UNL d   1       0.360   0.431  -1.323  0.00  0.00     0.038 C 
ATOM      3  C   UNL d   1       0.238  -0.601   0.874  0.00  0.00     0.103 C 
ATOM      4  N   UNL d   1      -0.340  -1.049   1.776  0.00  0.00    -0.191 NA
ENDROOT
BRANCH   1   5
ATOM      5  C   UNL d   1       2.458   0.064  -0.160  0.00  0.00     0.202 C 
ATOM      6  O   UNL d   1       3.131   0.071  -1.187  0.00  0.00    -0.286 OA
BRANCH   5   7
ATOM      7  C   UNL d   1       3.155   0.137   1.158  0.00  0.00     0.016 A 
ATOM      8  C   UNL d   1       4.430  -0.433   1.276  0.00  0.00     0.018 A 
ATOM      9  C   UNL d   1       5.120  -0.397   2.497  0.00  0.00     0.038 A 
ATOM     10  C   UNL d   1       4.530   0.189   3.615  0.00  0.00     0.078 A 
ATOM     11  C   UNL d   1       3.290   0.819   3.478  0.00  0.00     0.038 A 
ATOM     12  C   UNL d   1       2.608   0.805   2.257  0.00  0.00     0.018 A 
BRANCH  10  13
ATOM     13  O   UNL d   1       5.091   0.298   4.849  0.00  0.00    -0.255 OA
BRANCH  13  14
ATOM     14  C   UNL d   1       5.880  -0.769   5.359  0.00  0.00     0.530 C 
ATOM     15  F   UNL d   1       5.981  -1.832   4.535  0.00  0.00    -0.144 F 
ATOM     16  F   UNL d   1       7.121  -0.308   5.625  0.00  0.00    -0.144 F 
ATOM     17  F   UNL d   1       5.332  -1.194   6.520  0.00  0.00    -0.144 F 
ENDBRANCH  13  14
ENDBRANCH  10  13
ENDBRANCH   5   7
ENDBRANCH   1   5
BRANCH   2  18
ATOM     18  C   UNL d   1      -1.092   0.471  -1.527  0.00  0.00    -0.035 A 
ATOM     19  C   UNL d   1      -1.805   1.630  -1.194  0.00  0.00     0.013 A 
ATOM     20  C   UNL d   1      -3.189   1.684  -1.379  0.00  0.00     0.024 A 
ATOM     21  C   UNL d   1      -3.861   0.579  -1.897  0.00  0.00     0.034 A 
ATOM     22  C   UNL d   1      -3.162  -0.580  -2.228  0.00  0.00     0.024 A 
ATOM     23 CL   UNL d   1      -5.564   0.650  -2.135  0.00  0.00    -0.084 Cl
ATOM     24  C   UNL d   1      -1.776  -0.636  -2.042  0.00  0.00     0.013 A 
ENDBRANCH   2  18
TORSDOF 5
