REMARK  6 active torsions:
REMARK  status: ('A' for Active; 'I' for Inactive)
REMARK    1  A    between atoms: C_2  and  C_1 
REMARK    2  A    between atoms: C_8  and  C_4 
REMARK    3  A    between atoms: S_19  and  C_11 
REMARK    4  A    between atoms: C_30  and  S_19 
REMARK    5  A    between atoms: C_21  and  N_23 
REMARK    6  A    between atoms: C_22  and  C_30 
REMARK       I    between atoms: N_23  and  C_22 
ROOT
ATOM      1  C   UNL d   1       0.152   1.155  -0.039  0.00  0.00     0.143 A 
ATOM      2  N   UNL d   1       1.059   0.156   0.268  0.00  0.00    -0.315 N 
ATOM      3  N   UNL d   1      -1.063   0.652   0.052  0.00  0.00    -0.282 N 
ATOM      4  HN  UNL d   1      -1.930   1.162  -0.120  1.00  0.00     0.188 HD
ATOM      5  C   UNL d   1       0.297  -0.943   0.566  0.00  0.00     0.163 A 
ATOM      6  N   UNL d   1      -0.972  -0.663   0.413  0.00  0.00    -0.278 N 
ATOM      7  HN  UNL d   1      -1.751  -1.309   0.539  1.00  0.00     0.189 HD
ATOM      8  C   UNL d   1       2.495   0.237   0.339  0.00  0.00     0.160 C 
ENDROOT
BRANCH   1   9
ATOM      9  C   UNL d   1       0.404   2.539  -0.328  0.00  0.00     0.074 C 
ATOM     10  S   UNL d   1       1.796   3.081  -1.166  0.00  0.00    -0.064 SA
ATOM     11  C   UNL d   1       1.334   4.711  -0.909  0.00  0.00     0.104 C 
ATOM     12  N   UNL d   1       0.149   4.874  -0.358  0.00  0.00    -0.351 N 
ATOM     13  C   UNL d   1      -0.411   3.634  -0.057  0.00  0.00     0.027 C 
ATOM     14  HN  UNL d   1      -0.293   5.775  -0.179  1.00  0.00     0.166 HD
ATOM     15  C   UNL d   1      -1.777   3.621   0.546  0.00  0.00     0.070 C 
BRANCH  11  16
ATOM     16  C   UNL d   1       2.223   5.858  -1.290  0.00  0.00     0.091 A 
ATOM     17  N   UNL d   1       3.438   5.685  -1.831  0.00  0.00    -0.258 N 
ATOM     18  O   UNL d   1       3.935   6.955  -2.052  0.00  0.00    -0.242 OA
ATOM     19  HN  UNL d   1       3.900   4.799  -2.036  1.00  0.00     0.195 HD
ATOM     20  C   UNL d   1       3.025   7.876  -1.640  0.00  0.00     0.074 A 
ATOM     21  C   UNL d   1       1.925   7.231  -1.131  0.00  0.00     0.068 A 
ATOM     22  C   UNL d   1       3.400   9.286  -1.839  0.00  0.00     0.079 C 
ENDBRANCH  11  16
ENDBRANCH   1   9
BRANCH   5  23
ATOM     23  S   UNL d   1       0.910  -2.385   1.301  0.00  0.00    -0.083 SA
BRANCH  23  24
ATOM     24  C   UNL d   1      -0.522  -3.493   1.265  0.00  0.00     0.185 C 
BRANCH  24  25
ATOM     25  C   UNL d   1      -1.630  -3.236   2.284  0.00  0.00     0.231 C 
ATOM     26  N   UNL d   1      -1.711  -1.967   2.814  0.00  0.00    -0.326 N 
ATOM     27  H   UNL d   1      -1.079  -1.287   2.412  0.00  0.00     0.169 HD
ATOM     28  O   UNL d   1      -2.424  -4.147   2.529  0.00  0.00    -0.272 OA
BRANCH  26  29
ATOM     29  C   UNL d   1      -2.738  -1.425   3.612  0.00  0.00     0.037 A 
ATOM     30  C   UNL d   1      -3.739  -2.185   4.215  0.00  0.00     0.053 A 
ATOM     31  C   UNL d   1      -4.766  -1.553   4.922  0.00  0.00     0.037 A 
ATOM     32 CL   UNL d   1      -6.013  -2.499   5.636  0.00  0.00    -0.084 Cl
ATOM     33  C   UNL d   1      -4.799  -0.167   5.045  0.00  0.00     0.048 A 
ATOM     34  C   UNL d   1      -3.783   0.587   4.470  0.00  0.00     0.037 A 
ATOM     35  C   UNL d   1      -2.751  -0.032   3.764  0.00  0.00     0.053 A 
ATOM     36 CL   UNL d   1      -3.809   2.303   4.608  0.00  0.00    -0.084 Cl
ENDBRANCH  26  29
ENDBRANCH  24  25
ENDBRANCH  23  24
ENDBRANCH   5  23
TORSDOF 6
