REMARK  3 active torsions:
REMARK  status: ('A' for Active; 'I' for Inactive)
REMARK    1  A    between atoms: C_11  and  N_3 
REMARK    2  A    between atoms: C_15  and  C_7 
REMARK    3  A    between atoms: C_21  and  C_15 
ROOT
ATOM      1  C   UNL d   1       0.205  -0.639  -0.025  0.00  0.00     0.186 A 
ATOM      2  C   UNL d   1       0.212   0.737  -0.004  0.00  0.00     0.047 A 
ATOM      3  N   UNL d   1       1.523  -1.058   0.011  0.00  0.00    -0.233 N 
ATOM      4  N   UNL d   1       2.358   0.016   0.094  0.00  0.00    -0.295 N 
ATOM      5  HN  UNL d   1       3.375  -0.002   0.175  1.00  0.00     0.187 HD
ATOM      6  C   UNL d   1       1.572   1.102   0.046  0.00  0.00     0.037 A 
ATOM      7  C   UNL d   1      -1.063   1.373  -0.034  0.00  0.00    -0.036 A 
ATOM      8  O   UNL d   1      -0.843  -1.450  -0.059  0.00  0.00    -0.255 OA
ATOM      9  C   UNL d   1      -2.075  -0.879  -0.090  0.00  0.00     0.290 A 
ATOM     10  C   UNL d   1      -2.166   0.601  -0.067  0.00  0.00     0.090 A 
ATOM     11  O   UNL d   1      -3.102  -1.549  -0.135  0.00  0.00    -0.260 OA
ATOM     12  C   UNL d   1       2.244   2.426   0.054  0.00  0.00     0.070 C 
ENDROOT
BRANCH   3  13
ATOM     13  C   UNL d   1       2.065  -2.379  -0.041  0.00  0.00     0.060 A 
ATOM     14  C   UNL d   1       3.447  -2.560   0.151  0.00  0.00     0.055 A 
ATOM     15  C   UNL d   1       4.002  -3.838   0.089  0.00  0.00     0.036 A 
ATOM     16 CL   UNL d   1       5.691  -4.054   0.338  0.00  0.00    -0.084 Cl
ATOM     17  C   UNL d   1       3.200  -4.948  -0.169  0.00  0.00     0.024 A 
ATOM     18  C   UNL d   1       1.831  -4.778  -0.362  0.00  0.00     0.004 A 
ATOM     19  C   UNL d   1       1.264  -3.502  -0.296  0.00  0.00     0.032 A 
ENDBRANCH   3  13
BRANCH   7  20
ATOM     20  C   UNL d   1      -1.162   2.870   0.025  0.00  0.00     0.039 C 
BRANCH  20  21
ATOM     21  C   UNL d   1      -1.067   3.516  -1.360  0.00  0.00     0.000 C 
ATOM     22  C   UNL d   1      -1.131   5.032  -1.266  0.00  0.00     0.005 C 
ENDBRANCH  20  21
ENDBRANCH   7  20
TORSDOF 3
