REMARK  4 active torsions:
REMARK  status: ('A' for Active; 'I' for Inactive)
REMARK    1  A    between atoms: C_2  and  S_1 
REMARK    2  A    between atoms: N_4  and  S_1 
REMARK    3  A    between atoms: C_12  and  N_4 
REMARK    4  A    between atoms: C_6  and  C_12 
ROOT
ATOM      1  S   UNL d   1       0.823   0.120   0.109  0.00  0.00     0.244 S 
ATOM      2  O   UNL d   1       0.174  -0.926  -0.653  0.00  0.00    -0.206 OA
ATOM      3  O   UNL d   1       2.262   0.193   0.235  0.00  0.00    -0.206 OA
ENDROOT
BRANCH   1   4
ATOM      4  C   UNL d   1       0.174  -0.029   1.746  0.00  0.00     0.113 A 
ATOM      5  C   UNL d   1      -0.747   0.868   2.273  0.00  0.00     0.142 A 
ATOM      6  C   UNL d   1      -1.255   0.684   3.557  0.00  0.00     0.086 A 
ATOM      7  F   UNL d   1      -1.192   1.915   1.567  0.00  0.00    -0.204 F 
ATOM      8  C   UNL d   1      -0.847  -0.417   4.300  0.00  0.00     0.119 A 
ATOM      9  C   UNL d   1       0.064  -1.333   3.785  0.00  0.00     0.044 A 
ATOM     10  F   UNL d   1      -1.347  -0.606   5.527  0.00  0.00    -0.206 F 
ATOM     11  C   UNL d   1       0.583  -1.138   2.504  0.00  0.00     0.031 A 
ENDBRANCH   1   4
BRANCH   1  12
ATOM     12  N   UNL d   1       0.275   1.581  -0.529  0.00  0.00    -0.211 NA
ATOM     13  H   UNL d   1      -0.718   1.719  -0.326  0.00  0.00     0.140 HD
BRANCH  12  14
ATOM     14  C   UNL d   1       1.078   2.778  -0.210  0.00  0.00     0.146 C 
BRANCH  14  15
ATOM     15  C   UNL d   1       0.531   4.032  -0.853  0.00  0.00    -0.006 A 
ATOM     16  C   UNL d   1       0.746   5.269  -0.230  0.00  0.00     0.126 A 
ATOM     17  C   UNL d   1       0.311   6.460  -0.800  0.00  0.00     0.085 A 
ATOM     18  F   UNL d   1       1.390   5.316   0.945  0.00  0.00    -0.205 F 
ATOM     19  C   UNL d   1      -0.343   6.419  -2.022  0.00  0.00     0.119 A 
ATOM     20  C   UNL d   1      -0.560   5.211  -2.678  0.00  0.00     0.043 A 
ATOM     21  F   UNL d   1      -0.764   7.559  -2.584  0.00  0.00    -0.206 F 
ATOM     22  C   UNL d   1      -0.115   4.019  -2.101  0.00  0.00     0.014 A 
ENDBRANCH  14  15
ENDBRANCH  12  14
ENDBRANCH   1  12
TORSDOF 4
