REMARK  4 active torsions:
REMARK  status: ('A' for Active; 'I' for Inactive)
REMARK    1  A    between atoms: C_10  and  C_4 
REMARK       I    between atoms: C_9  and  N_7 
REMARK    2  A    between atoms: O_15  and  C_9 
REMARK    3  A    between atoms: N_11  and  O_15 
REMARK    4  A    between atoms: C_18  and  C_16 
ROOT
ATOM      1  N   UNL d   1      -0.397  -0.645   0.259  0.00  0.00    -0.304 N 
ATOM      2  HN  UNL d   1      -1.179  -1.253   0.502  1.00  0.00     0.171 HD
ATOM      3  C   UNL d   1       0.859  -0.962   0.064  0.00  0.00     0.253 A 
ATOM      4  C   UNL d   1      -0.395   0.721   0.052  0.00  0.00     0.139 A 
ATOM      5  N   UNL d   1       0.802   1.216  -0.304  0.00  0.00    -0.240 N 
ATOM      6  HN  UNL d   1       1.043   2.180  -0.534  1.00  0.00     0.196 HD
ATOM      7  N   UNL d   1       1.387  -2.214   0.146  0.00  0.00    -0.265 N 
ATOM      8  O   UNL d   1       1.635   0.103  -0.283  0.00  0.00    -0.199 OA
ATOM      9  C   UNL d   1       2.711  -2.450  -0.071  0.00  0.00     0.389 C 
ATOM     10  O   UNL d   1       3.594  -1.606  -0.172  0.00  0.00    -0.236 OA
ATOM     11  H   UNL d   1       0.750  -2.985   0.245  0.00  0.00     0.174 HD
ENDROOT
BRANCH   4  12
ATOM     12  C   UNL d   1      -1.587   1.542   0.232  0.00  0.00     0.010 A 
ATOM     13  C   UNL d   1      -2.761   0.977   0.749  0.00  0.00     0.022 A 
ATOM     14  C   UNL d   1      -3.909   1.756   0.949  0.00  0.00    -0.061 A 
ATOM     15  C   UNL d   1      -5.164   1.149   1.504  0.00  0.00     0.048 C 
ATOM     16  C   UNL d   1      -3.877   3.116   0.619  0.00  0.00     0.007 A 
ATOM     17  C   UNL d   1      -2.715   3.691   0.107  0.00  0.00     0.002 A 
ATOM     18  C   UNL d   1      -1.572   2.910  -0.086  0.00  0.00     0.015 A 
ENDBRANCH   4  12
BRANCH   9  19
ATOM     19  O   UNL d   1       2.923  -3.805  -0.203  0.00  0.00    -0.181 OA
BRANCH  19  20
ATOM     20  N   UNL d   1       3.833  -3.980  -1.255  0.00  0.00    -0.267 N 
ATOM     21  C   UNL d   1       4.228  -5.205  -1.347  0.00  0.00     0.126 C 
ATOM     22  HN  UNL d   1       4.144  -3.231  -1.873  1.00  0.00     0.194 HD
BRANCH  21  23
ATOM     23  C   UNL d   1       5.095  -5.604  -2.473  0.00  0.00    -0.019 A 
ATOM     24  C   UNL d   1       5.438  -4.660  -3.450  0.00  0.00     0.013 A 
ATOM     25  C   UNL d   1       6.204  -5.039  -4.550  0.00  0.00     0.001 A 
ATOM     26  C   UNL d   1       6.627  -6.361  -4.671  0.00  0.00     0.000 A 
ATOM     27  C   UNL d   1       6.292  -7.301  -3.693  0.00  0.00     0.001 A 
ATOM     28  C   UNL d   1       5.522  -6.925  -2.588  0.00  0.00     0.013 A 
ENDBRANCH  21  23
ENDBRANCH  19  20
ENDBRANCH   9  19
TORSDOF 4
