REMARK  6 active torsions:
REMARK  status: ('A' for Active; 'I' for Inactive)
REMARK    1  A    between atoms: C_7  and  C_1 
REMARK    2  A    between atoms: N_6  and  C_2 
REMARK    3  A    between atoms: C_9  and  C_4 
REMARK       I    between atoms: C_8  and  N_6 
REMARK    4  A    between atoms: C_15  and  C_8 
REMARK    5  A    between atoms: S_10  and  C_15 
REMARK    6  A    between atoms: C_16  and  S_10 
ROOT
ATOM      1  C   UNL d   1       0.069   1.249   0.070  0.00  0.00     0.077 A 
ATOM      2  C   UNL d   1       1.368   0.834  -0.181  0.00  0.00     0.057 A 
ATOM      3  S   UNL d   1      -0.994  -0.083   0.211  0.00  0.00    -0.084 SA
ATOM      4  C   UNL d   1       0.243  -1.232  -0.059  0.00  0.00     0.018 A 
ATOM      5  C   UNL d   1       1.459  -0.596  -0.224  0.00  0.00     0.051 A 
ENDROOT
BRANCH   2   6
ATOM      6  N   UNL d   1       2.427   1.730  -0.341  0.00  0.00    -0.325 N 
ATOM      7  C   UNL d   1       3.605   1.421  -0.999  0.00  0.00     0.231 C 
ATOM      8  O   UNL d   1       3.777   0.409  -1.680  0.00  0.00    -0.272 OA
ATOM      9  H   UNL d   1       2.244   2.703  -0.098  0.00  0.00     0.169 HD
BRANCH   7  10
ATOM     10  C   UNL d   1       4.696   2.480  -0.916  0.00  0.00     0.182 C 
BRANCH  10  11
ATOM     11  S   UNL d   1       5.125   2.805   0.827  0.00  0.00    -0.121 SA
BRANCH  11  12
ATOM     12  C   UNL d   1       6.484   3.959   0.707  0.00  0.00     0.001 A 
ATOM     13  C   UNL d   1       6.623   4.886   1.750  0.00  0.00     0.020 A 
ATOM     14  C   UNL d   1       7.695   5.785   1.776  0.00  0.00     0.025 A 
ATOM     15  C   UNL d   1       8.641   5.756   0.757  0.00  0.00     0.034 A 
ATOM     16  C   UNL d   1       8.522   4.840  -0.285  0.00  0.00     0.025 A 
ATOM     17 CL   UNL d   1       9.975   6.841   0.798  0.00  0.00    -0.084 Cl
ATOM     18  C   UNL d   1       7.447   3.941  -0.309  0.00  0.00     0.020 A 
ENDBRANCH  11  12
ENDBRANCH  10  11
ENDBRANCH   7  10
ENDBRANCH   2   6
BRANCH   1  19
ATOM     19  C   UNL d   1      -0.425   2.619   0.152  0.00  0.00     0.164 C 
ATOM     20  O   UNL d   1       0.304   3.585  -0.098  0.00  0.00    -0.292 OA
ATOM     21  C   UNL d   1      -1.871   2.865   0.527  0.00  0.00     0.097 C 
ENDBRANCH   1  19
BRANCH   4  22
ATOM     22  C   UNL d   1      -0.067  -2.672  -0.063  0.00  0.00    -0.019 A 
ATOM     23  C   UNL d   1      -1.265  -3.164  -0.612  0.00  0.00     0.014 A 
ATOM     24  C   UNL d   1      -1.557  -4.536  -0.608  0.00  0.00     0.024 A 
ATOM     25  C   UNL d   1      -0.648  -5.425  -0.062  0.00  0.00     0.034 A 
ATOM     26  C   UNL d   1       0.554  -4.969   0.478  0.00  0.00     0.024 A 
ATOM     27 CL   UNL d   1      -1.006  -7.109  -0.058  0.00  0.00    -0.084 Cl
ATOM     28  C   UNL d   1       0.841  -3.598   0.475  0.00  0.00     0.014 A 
ENDBRANCH   4  22
TORSDOF 6
