REMARK  4 active torsions:
REMARK  status: ('A' for Active; 'I' for Inactive)
REMARK    1  A    between atoms: C_6  and  N_1 
REMARK    2  A    between atoms: C_7  and  C_10 
REMARK    3  A    between atoms: O_16  and  C_7 
REMARK    4  A    between atoms: C_19  and  O_16 
ROOT
ATOM      1  N   UNL d   1       1.726  -0.733   0.065  0.00  0.00    -0.252 N 
ATOM      2  C   UNL d   1       1.789   0.643   0.157  0.00  0.00     0.232 C 
ATOM      3  C   UNL d   1       0.427  -1.166  -0.103  0.00  0.00     0.240 C 
ATOM      4  C   UNL d   1      -0.502   0.023  -0.062  0.00  0.00     0.050 C 
ATOM      5  C   UNL d   1       0.426   1.224  -0.075  0.00  0.00     0.123 C 
ATOM      6  O   UNL d   1       2.764   1.364   0.325  0.00  0.00    -0.273 OA
ATOM      7  O   UNL d   1       0.007  -2.311  -0.203  0.00  0.00    -0.272 OA
ATOM      8  C   UNL d   1      -1.509   0.002  -1.210  0.00  0.00     0.020 C 
ATOM      9  C   UNL d   1      -1.401  -0.021   1.177  0.00  0.00     0.020 C 
ATOM     10  C   UNL d   1      -2.681   0.842  -0.720  0.00  0.00     0.001 C 
ATOM     11  C   UNL d   1      -2.617   0.821   0.806  0.00  0.00     0.001 C 
ENDROOT
BRANCH   1  12
ATOM     12  C   UNL d   1       2.860  -1.603   0.117  0.00  0.00     0.045 A 
ATOM     13  C   UNL d   1       4.093  -1.173   0.632  0.00  0.00     0.031 A 
ATOM     14  C   UNL d   1       5.205  -2.023   0.675  0.00  0.00     0.020 A 
ATOM     15  C   UNL d   1       5.109  -3.333   0.199  0.00  0.00     0.039 A 
ATOM     16  C   UNL d   1       3.894  -3.787  -0.307  0.00  0.00     0.020 A 
ATOM     17  C   UNL d   1       2.790  -2.928  -0.351  0.00  0.00     0.031 A 
BRANCH  15  18
ATOM     18  C   UNL d   1       6.240  -4.282   0.295  0.00  0.00     0.293 C 
ATOM     19  O   UNL d   1       6.104  -5.492   0.373  0.00  0.00    -0.259 OA
BRANCH  18  20
ATOM     20  O   UNL d   1       7.402  -3.589   0.343  0.00  0.00    -0.318 OA
BRANCH  20  21
ATOM     21  C   UNL d   1       8.529  -4.312   0.850  0.00  0.00     0.174 C 
ATOM     22  C   UNL d   1       8.573  -4.087   2.350  0.00  0.00     0.034 C 
ENDBRANCH  20  21
ENDBRANCH  18  20
ENDBRANCH  15  18
ENDBRANCH   1  12
TORSDOF 4
