REMARK  3 active torsions:
REMARK  status: ('A' for Active; 'I' for Inactive)
REMARK    1  A    between atoms: C_2  and  C_1 
REMARK    2  A    between atoms: O_15  and  C_12 
REMARK    3  A    between atoms: C_18  and  O_15 
ROOT
ATOM      1  C   UNL d   1       1.978  -2.473  -0.012  0.00  0.00     0.135 A 
ATOM      2  N   UNL d   1       1.844  -3.358  -1.012  0.00  0.00    -0.321 N 
ATOM      3  HN  UNL d   1       1.155  -3.236  -1.754  1.00  0.00     0.169 HD
ATOM      4  N   UNL d   1       2.859  -2.583   1.004  0.00  0.00    -0.344 N 
ATOM      5  HN  UNL d   1       2.910  -1.884   1.744  1.00  0.00     0.167 HD
ATOM      6  C   UNL d   1       2.669  -4.411  -0.978  0.00  0.00     0.145 A 
ATOM      7  C   UNL d   1       3.620  -4.611  -0.006  0.00  0.00     0.080 A 
ATOM      8  C   UNL d   1       3.670  -3.662   0.994  0.00  0.00     0.011 A 
ATOM      9  C   UNL d   1       4.621  -3.793   2.144  0.00  0.00     0.068 C 
ENDROOT
BRANCH   1  10
ATOM     10  C   UNL d   1       1.080  -1.317  -0.021  0.00  0.00     0.084 A 
ATOM     11  N   UNL d   1       0.121  -1.113  -1.013  0.00  0.00    -0.351 N 
ATOM     12  C   UNL d   1      -0.555  -0.011  -0.773  0.00  0.00     0.047 A 
ATOM     13  HN  UNL d   1      -0.033  -1.730  -1.811  1.00  0.00     0.166 HD
ATOM     14  C   UNL d   1      -1.659   0.497  -1.630  0.00  0.00     0.076 C 
ATOM     15  S   UNL d   1      -0.090   0.850   0.638  0.00  0.00    -0.087 SA
ATOM     16  C   UNL d   1       1.103  -0.338   0.958  0.00  0.00     0.084 A 
ENDBRANCH   1  10
BRANCH   6  17
ATOM     17  O   UNL d   1       2.599  -5.356  -1.985  0.00  0.00    -0.336 OA
BRANCH  17  18
ATOM     18  C   UNL d   1       1.339  -5.334  -2.663  0.00  0.00     0.173 C 
ATOM     19  C   UNL d   1       1.384  -6.344  -3.795  0.00  0.00     0.034 C 
ENDBRANCH  17  18
ENDBRANCH   6  17
TORSDOF 3
