REMARK  2 active torsions:
REMARK  status: ('A' for Active; 'I' for Inactive)
REMARK    1  A    between atoms: S_12  and  C_3 
REMARK    2  A    between atoms: O_14  and  N_10 
ROOT
ATOM      1  C   UNL d   1      -2.198  -0.616  -0.298  0.00  0.00     0.021 C 
ATOM      2  C   UNL d   1      -1.983   0.631  -1.016  0.00  0.00    -0.015 C 
ATOM      3  C   UNL d   1      -3.475  -0.694   0.239  0.00  0.00     0.055 C 
ATOM      4  S   UNL d   1      -4.449   0.621  -0.312  0.00  0.00    -0.070 SA
ATOM      5  C   UNL d   1      -3.154   1.337  -1.118  0.00  0.00     0.083 C 
ATOM      6  C   UNL d   1      -1.073  -1.538  -0.185  0.00  0.00     0.045 C 
ATOM      7  C   UNL d   1      -0.630   1.054  -1.544  0.00  0.00     0.050 C 
ATOM      8  C   UNL d   1       0.470  -0.046  -1.432  0.00  0.00    -0.038 C 
ATOM      9  C   UNL d   1       0.287  -0.865  -0.125  0.00  0.00     0.069 C 
ATOM     10  N   UNL d   1      -1.108  -2.829  -0.322  0.00  0.00    -0.273 N 
ATOM     11  HN  UNL d   1      -0.302  -3.436  -0.168  1.00  0.00     0.194 HD
ATOM     12 CL   UNL d   1      -3.400   2.830  -1.937  0.00  0.00    -0.076 Cl
ATOM     13  C   UNL d   1       1.858   0.617  -1.416  0.00  0.00     0.015 C 
ATOM     14  C   UNL d   1       0.407  -0.978  -2.663  0.00  0.00     0.015 C 
ENDROOT
BRANCH  10  15
ATOM     15  O   UNL d   1      -2.367  -3.299  -0.703  0.00  0.00    -0.290 OA
ATOM     16  H   UNL d   1      -2.228  -4.262  -0.788  0.00  0.00     0.244 HD
ENDBRANCH  10  15
BRANCH   3  17
ATOM     17  S   UNL d   1      -4.234  -1.854   1.334  0.00  0.00    -0.126 SA
ATOM     18  C   UNL d   1      -2.900  -2.364   2.431  0.00  0.00     0.096 C 
ENDBRANCH   3  17
TORSDOF 2
