REMARK  1 active torsions:
REMARK  status: ('A' for Active; 'I' for Inactive)
REMARK    1  A    between atoms: C_2  and  C_1 
REMARK       I    between atoms: N_3  and  C_1 
ROOT
ATOM      1  C   UNL d   1       0.822  -0.284   0.017  0.00  0.00     0.255 C 
ATOM      2  N   UNL d   1       0.201   0.325  -1.080  0.00  0.00    -0.346 N 
ATOM      3  O   UNL d   1       1.791  -1.028  -0.109  0.00  0.00    -0.267 OA
ATOM      4  S   UNL d   1      -1.956   0.070  -3.396  0.00  0.00    -0.166 SA
ATOM      5  C   UNL d   1       0.651  -0.046  -2.426  0.00  0.00     0.136 C 
ATOM      6  C   UNL d   1      -0.945   1.245  -1.062  0.00  0.00     0.136 C 
ATOM      7  C   UNL d   1      -0.404  -0.874  -3.159  0.00  0.00     0.093 C 
ATOM      8  C   UNL d   1      -2.206   0.611  -1.669  0.00  0.00     0.093 C 
ENDROOT
BRANCH   1   9
ATOM      9  C   UNL d   1       0.277  -0.103   1.392  0.00  0.00     0.053 A 
ATOM     10  C   UNL d   1       1.090   0.220   2.483  0.00  0.00     0.049 A 
ATOM     11 CL   UNL d   1       2.780   0.549   2.344  0.00  0.00    -0.083 Cl
ATOM     12  C   UNL d   1       0.530   0.312   3.766  0.00  0.00     0.025 A 
ATOM     13  C   UNL d   1      -0.837   0.096   3.961  0.00  0.00     0.002 A 
ATOM     14  C   UNL d   1      -1.642  -0.256   2.887  0.00  0.00     0.001 A 
ATOM     15  C   UNL d   1      -1.082  -0.392   1.616  0.00  0.00     0.019 A 
ENDBRANCH   1   9
TORSDOF 1
