REMARK  9 active torsions:
REMARK  status: ('A' for Active; 'I' for Inactive)
REMARK    1  A    between atoms: O_10  and  C_1 
REMARK    2  A    between atoms: O_11  and  C_2 
REMARK    3  A    between atoms: N_12  and  C_9 
REMARK    4  A    between atoms: C_14  and  O_10 
REMARK    5  A    between atoms: C_15  and  O_11 
REMARK    6  A    between atoms: C_29  and  N_12 
REMARK    7  A    between atoms: C_13  and  S_16 
REMARK    8  A    between atoms: S_16  and  C_33 
REMARK    9  A    between atoms: C_33  and  C_29 
ROOT
ATOM      1  C   UNL d   1       0.766  -0.964  -0.036  0.00  0.00     0.234 A 
ATOM      2  C   UNL d   1      -1.288  -0.133  -0.048  0.00  0.00     0.234 A 
ATOM      3  N   UNL d   1      -0.529  -1.223  -0.082  0.00  0.00    -0.287 N 
ATOM      4  HN  UNL d   1      -0.909  -2.167  -0.139  1.00  0.00     0.173 HD
ATOM      5  N   UNL d   1      -0.850   1.124  -0.034  0.00  0.00    -0.298 N 
ATOM      6  HN  UNL d   1      -1.482   1.924  -0.044  1.00  0.00     0.172 HD
ATOM      7  N   UNL d   1       1.313   0.247   0.048  0.00  0.00    -0.298 N 
ATOM      8  HN  UNL d   1       2.318   0.385   0.149  1.00  0.00     0.172 HD
ATOM      9  C   UNL d   1       0.466   1.259  -0.007  0.00  0.00     0.163 A 
ENDROOT
BRANCH   9  10
ATOM     10  N   UNL d   1       1.052   2.506  -0.106  0.00  0.00    -0.263 NA
ATOM     11  H   UNL d   1       2.030   2.424   0.163  0.00  0.00     0.130 HD
BRANCH  10  12
ATOM     12  C   UNL d   1       0.366   3.640   0.493  0.00  0.00     0.105 C 
BRANCH  12  13
ATOM     13  C   UNL d   1       0.691   3.793   1.987  0.00  0.00     0.089 C 
BRANCH  13  14
ATOM     14  S   UNL d   1       2.487   4.079   2.244  0.00  0.00    -0.159 SA
BRANCH  14  15
ATOM     15  C   UNL d   1       2.582   4.378   4.069  0.00  0.00    -0.003 C 
ATOM     16  C   UNL d   1       2.169   3.119   4.840  0.00  0.00     0.026 C 
ATOM     17  C   UNL d   1       4.052   4.701   4.385  0.00  0.00     0.026 C 
ATOM     18  C   UNL d   1       1.714   5.573   4.479  0.00  0.00     0.026 C 
ENDBRANCH  14  15
ENDBRANCH  13  14
ENDBRANCH  12  13
ENDBRANCH  10  12
ENDBRANCH   9  10
BRANCH   2  19
ATOM     19  O   UNL d   1      -2.671  -0.273  -0.062  0.00  0.00    -0.279 OA
BRANCH  19  20
ATOM     20  C   UNL d   1      -3.211  -1.389   0.537  0.00  0.00     0.079 A 
ATOM     21  C   UNL d   1      -2.710  -1.948   1.718  0.00  0.00     0.040 A 
ATOM     22  C   UNL d   1      -3.312  -3.076   2.271  0.00  0.00     0.045 A 
ATOM     23  C   UNL d   1      -4.441  -3.614   1.664  0.00  0.00     0.116 A 
ATOM     24  C   UNL d   1      -4.979  -3.041   0.516  0.00  0.00     0.045 A 
ATOM     25  F   UNL d   1      -5.022  -4.696   2.197  0.00  0.00    -0.206 F 
ATOM     26  C   UNL d   1      -4.364  -1.922  -0.047  0.00  0.00     0.040 A 
ENDBRANCH  19  20
ENDBRANCH   2  19
BRANCH   1  27
ATOM     27  O   UNL d   1       1.587  -2.084  -0.029  0.00  0.00    -0.279 OA
BRANCH  27  28
ATOM     28  C   UNL d   1       2.856  -1.961  -0.549  0.00  0.00     0.079 A 
ATOM     29  C   UNL d   1       3.853  -2.732   0.057  0.00  0.00     0.040 A 
ATOM     30  C   UNL d   1       5.163  -2.674  -0.423  0.00  0.00     0.045 A 
ATOM     31  C   UNL d   1       5.463  -1.852  -1.504  0.00  0.00     0.116 A 
ATOM     32  C   UNL d   1       4.474  -1.103  -2.131  0.00  0.00     0.045 A 
ATOM     33  F   UNL d   1       6.722  -1.785  -1.955  0.00  0.00    -0.206 F 
ATOM     34  C   UNL d   1       3.163  -1.173  -1.665  0.00  0.00     0.040 A 
ENDBRANCH  27  28
ENDBRANCH   1  27
TORSDOF 9
