REMARK  6 active torsions:
REMARK  status: ('A' for Active; 'I' for Inactive)
REMARK    1  A    between atoms: C_8  and  N_3 
REMARK    2  A    between atoms: S_13  and  C_7 
REMARK    3  A    between atoms: C_12  and  C_23 
REMARK       I    between atoms: N_15  and  C_12 
REMARK    4  A    between atoms: C_23  and  S_13 
REMARK       I    between atoms: C_14  and  N_16 
REMARK    5  A    between atoms: C_17  and  N_15 
REMARK    6  A    between atoms: N_16  and  C_19 
ROOT
ATOM      1  N   UNL d   1      -0.291  -1.371   0.263  0.00  0.00    -0.259 N 
ATOM      2  HN  UNL d   1      -0.457  -2.362   0.083  1.00  0.00     0.191 HD
ATOM      3  N   UNL d   1       0.861  -0.655   0.187  0.00  0.00    -0.178 N 
ATOM      4  N   UNL d   1       0.687   0.678   0.378  0.00  0.00     0.003 NA
ATOM      5  N   UNL d   1      -0.599   0.828   0.678  0.00  0.00    -0.261 N 
ATOM      6  HN  UNL d   1      -1.082   1.700   0.894  1.00  0.00     0.186 HD
ATOM      7  C   UNL d   1      -1.141  -0.419   0.637  0.00  0.00     0.174 A 
ENDROOT
BRANCH   7   8
ATOM      8  S   UNL d   1      -2.744  -0.847   1.142  0.00  0.00    -0.082 SA
BRANCH   8   9
ATOM      9  C   UNL d   1      -3.724  -0.153  -0.196  0.00  0.00     0.185 C 
BRANCH   9  10
ATOM     10  C   UNL d   1      -3.736  -0.923  -1.508  0.00  0.00     0.231 C 
ATOM     11  N   UNL d   1      -2.895  -2.016  -1.622  0.00  0.00    -0.326 N 
ATOM     12  H   UNL d   1      -2.405  -2.311  -0.781  0.00  0.00     0.169 HD
ATOM     13  O   UNL d   1      -4.510  -0.545  -2.386  0.00  0.00    -0.272 OA
BRANCH  11  14
ATOM     14  C   UNL d   1      -2.774  -2.862  -2.747  0.00  0.00     0.036 A 
ATOM     15  C   UNL d   1      -3.273  -2.534  -4.014  0.00  0.00     0.056 A 
ATOM     16  C   UNL d   1      -3.200  -3.452  -5.063  0.00  0.00     0.074 A 
ATOM     17 CL   UNL d   1      -3.840  -3.029  -6.605  0.00  0.00    -0.081 Cl
ATOM     18  C   UNL d   1      -2.620  -4.699  -4.854  0.00  0.00     0.138 A 
ATOM     19  C   UNL d   1      -2.075  -5.021  -3.615  0.00  0.00     0.046 A 
ATOM     20  F   UNL d   1      -2.574  -5.608  -5.840  0.00  0.00    -0.204 F 
ATOM     21  C   UNL d   1      -2.138  -4.100  -2.567  0.00  0.00     0.032 A 
ENDBRANCH  11  14
ENDBRANCH   9  10
ENDBRANCH   8   9
ENDBRANCH   7   8
BRANCH   3  22
ATOM     22  C   UNL d   1       2.122  -1.269  -0.005  0.00  0.00     0.075 A 
ATOM     23  C   UNL d   1       2.173  -2.652  -0.251  0.00  0.00     0.062 A 
ATOM     24  C   UNL d   1       3.394  -3.299  -0.436  0.00  0.00     0.036 A 
ATOM     25  C   UNL d   1       4.574  -2.551  -0.336  0.00  0.00     0.029 A 
ATOM     26  C   UNL d   1       4.529  -1.175  -0.083  0.00  0.00     0.005 A 
ATOM     27  C   UNL d   1       3.304  -0.526   0.072  0.00  0.00     0.033 A 
BRANCH  24  28
ATOM     28  N   UNL d   1       3.509  -4.674  -0.737  0.00  0.00    -0.327 N 
ATOM     29  C   UNL d   1       2.477  -5.577  -0.935  0.00  0.00     0.218 C 
ATOM     30  O   UNL d   1       1.275  -5.355  -0.842  0.00  0.00    -0.274 OA
ATOM     31  C   UNL d   1       2.958  -6.957  -1.313  0.00  0.00     0.117 C 
ATOM     32  H   UNL d   1       4.453  -5.021  -0.853  0.00  0.00     0.169 HD
ENDBRANCH  24  28
ENDBRANCH   3  22
TORSDOF 6
