REMARK  8 active torsions:
REMARK  status: ('A' for Active; 'I' for Inactive)
REMARK    1  A    between atoms: N_7  and  C_1 
REMARK    2  A    between atoms: S_4  and  C_2 
REMARK    3  A    between atoms: C_9  and  C_3 
REMARK    4  A    between atoms: C_17  and  S_4 
REMARK    5  A    between atoms: N_11  and  N_7 
REMARK    6  A    between atoms: C_8  and  C_10 
REMARK    7  A    between atoms: O_18  and  C_9 
REMARK       I    between atoms: C_10  and  N_11 
REMARK    8  A    between atoms: C_23  and  C_17 
ROOT
ATOM      1  C   UNL d   1       1.434   0.819   0.118  0.00  0.00     0.093 A 
ATOM      2  C   UNL d   1       1.464  -0.623   0.046  0.00  0.00     0.095 A 
ATOM      3  C   UNL d   1       0.121   1.292   0.110  0.00  0.00     0.109 A 
ATOM      4  S   UNL d   1      -1.017  -0.006   0.098  0.00  0.00    -0.092 SA
ATOM      5  C   UNL d   1       0.203  -1.177   0.026  0.00  0.00     0.076 A 
ENDROOT
BRANCH   1   6
ATOM      6  N   UNL d   1       2.557   1.593   0.131  0.00  0.00    -0.295 N 
ATOM      7  H   UNL d   1       3.401   1.347  -0.409  0.00  0.00     0.187 HD
BRANCH   6   8
ATOM      8  N   UNL d   1       2.620   2.864   0.708  0.00  0.00    -0.265 N 
ATOM      9  C   UNL d   1       3.667   3.713   0.412  0.00  0.00     0.271 C 
ATOM     10  O   UNL d   1       4.550   3.438  -0.396  0.00  0.00    -0.266 OA
ATOM     11  H   UNL d   1       1.835   3.168   1.287  0.00  0.00     0.190 HD
BRANCH   9  12
ATOM     12  C   UNL d   1       3.658   5.040   1.103  0.00  0.00     0.055 A 
ATOM     13  C   UNL d   1       3.231   5.242   2.425  0.00  0.00     0.049 A 
ATOM     14 CL   UNL d   1       2.712   3.966   3.472  0.00  0.00    -0.083 Cl
ATOM     15  C   UNL d   1       3.261   6.529   2.986  0.00  0.00     0.025 A 
ATOM     16  C   UNL d   1       3.724   7.615   2.245  0.00  0.00     0.002 A 
ATOM     17  C   UNL d   1       4.172   7.422   0.942  0.00  0.00     0.001 A 
ATOM     18  C   UNL d   1       4.144   6.142   0.376  0.00  0.00     0.019 A 
ENDBRANCH   9  12
ENDBRANCH   6   8
ENDBRANCH   1   6
BRANCH   2  19
ATOM     19  S   UNL d   1       2.878  -1.630  -0.042  0.00  0.00     0.178 S 
ATOM     20  O   UNL d   1       2.356  -2.978  -0.159  0.00  0.00    -0.223 OA
ATOM     21  O   UNL d   1       3.674  -1.018  -1.090  0.00  0.00    -0.223 OA
BRANCH  19  22
ATOM     22  C   UNL d   1       3.724  -1.475   1.519  0.00  0.00     0.145 C 
BRANCH  22  23
ATOM     23  C   UNL d   1       4.867  -2.488   1.605  0.00  0.00     0.011 C 
ATOM     24  C   UNL d   1       5.660  -2.354   2.894  0.00  0.00     0.006 C 
ENDBRANCH  22  23
ENDBRANCH  19  22
ENDBRANCH   2  19
BRANCH   3  25
ATOM     25  C   UNL d   1      -0.410   2.650   0.117  0.00  0.00     0.302 C 
ATOM     26  O   UNL d   1       0.086   3.615   0.692  0.00  0.00    -0.259 OA
BRANCH  25  27
ATOM     27  O   UNL d   1      -1.575   2.702  -0.595  0.00  0.00    -0.322 OA
ATOM     28  C   UNL d   1      -2.270   3.949  -0.606  0.00  0.00     0.213 C 
ENDBRANCH  25  27
ENDBRANCH   3  25
TORSDOF 8
