REMARK  6 active torsions:
REMARK  status: ('A' for Active; 'I' for Inactive)
REMARK    1  A    between atoms: N_2  and  C_1 
REMARK    2  A    between atoms: N_3  and  C_1 
REMARK    3  A    between atoms: C_9  and  N_2 
REMARK    4  A    between atoms: C_6  and  N_3 
REMARK    5  A    between atoms: C_4  and  C_6 
REMARK    6  A    between atoms: C_8  and  C_4 
ROOT
ATOM      1  N   UNL d   1       0.248  -1.087  -0.086  0.00  0.00    -0.360 N 
ATOM      2  H   UNL d   1       0.692  -2.000  -0.002  0.00  0.00     0.162 HD
ENDROOT
BRANCH   1   3
ATOM      3  C   UNL d   1       1.041   0.002   0.077  0.00  0.00     0.172 C 
ATOM      4  S   UNL d   1       0.701   1.515  -0.542  0.00  0.00    -0.041 SA
BRANCH   3   5
ATOM      5  N   UNL d   1       2.206  -0.187   0.767  0.00  0.00    -0.333 N 
ATOM      6  H   UNL d   1       2.877   0.563   0.648  0.00  0.00     0.168 HD
BRANCH   5   7
ATOM      7  C   UNL d   1       2.497  -1.108   1.804  0.00  0.00     0.034 A 
ATOM      8  C   UNL d   1       1.541  -1.930   2.412  0.00  0.00     0.029 A 
ATOM      9  C   UNL d   1       1.887  -2.782   3.466  0.00  0.00     0.002 A 
ATOM     10  C   UNL d   1       3.191  -2.802   3.941  0.00  0.00     0.000 A 
ATOM     11  C   UNL d   1       4.150  -1.973   3.365  0.00  0.00     0.002 A 
ATOM     12  C   UNL d   1       3.804  -1.127   2.304  0.00  0.00     0.029 A 
ENDBRANCH   5   7
ENDBRANCH   3   5
ENDBRANCH   1   3
BRANCH   1  13
ATOM     13  C   UNL d   1      -1.206  -1.105  -0.160  0.00  0.00     0.206 C 
BRANCH  13  14
ATOM     14  C   UNL d   1      -1.661  -2.560  -0.156  0.00  0.00     0.177 C 
ATOM     15  O   UNL d   1      -0.852  -3.493  -0.133  0.00  0.00    -0.291 OA
BRANCH  14  16
ATOM     16  C   UNL d   1      -3.122  -2.855  -0.152  0.00  0.00     0.011 A 
ATOM     17  C   UNL d   1      -4.088  -1.845  -0.079  0.00  0.00     0.015 A 
ATOM     18  C   UNL d   1      -5.446  -2.177  -0.072  0.00  0.00     0.001 A 
ATOM     19  C   UNL d   1      -5.843  -3.512  -0.137  0.00  0.00     0.000 A 
ATOM     20  C   UNL d   1      -4.887  -4.522  -0.208  0.00  0.00     0.001 A 
ATOM     21  C   UNL d   1      -3.530  -4.195  -0.214  0.00  0.00     0.015 A 
ENDBRANCH  14  16
ENDBRANCH  13  14
ENDBRANCH   1  13
TORSDOF 6
