REMARK  1 active torsions:
REMARK  status: ('A' for Active; 'I' for Inactive)
REMARK    1  A    between atoms: C_2  and  C_1 
REMARK       I    between atoms: N_12  and  C_1 
ROOT
ATOM      1  C   UNL d   1       0.325  -1.184  -0.377  0.00  0.00     0.034 A 
ATOM      2  C   UNL d   1      -1.478  -2.247  -1.505  0.00  0.00     0.106 A 
ATOM      3  C   UNL d   1      -0.792  -1.086  -1.218  0.00  0.00     0.056 A 
ATOM      4  C   UNL d   1      -1.105  -3.461  -0.977  0.00  0.00     0.105 A 
ATOM      5  O   UNL d   1      -2.566  -2.347  -2.314  0.00  0.00    -0.323 OA
ATOM      6  O   UNL d   1      -1.916  -4.474  -1.382  0.00  0.00    -0.323 OA
ATOM      7  C   UNL d   1      -2.817  -3.766  -2.260  0.00  0.00     0.352 A 
ATOM      8  C   UNL d   1       0.703  -2.430   0.171  0.00  0.00     0.020 A 
ATOM      9  C   UNL d   1      -0.023  -3.586  -0.130  0.00  0.00     0.041 A 
ENDROOT
BRANCH   1  10
ATOM     10  C   UNL d   1       1.078   0.055  -0.066  0.00  0.00     0.249 C 
ATOM     11  O   UNL d   1       0.531   1.150  -0.040  0.00  0.00    -0.268 OA
ATOM     12  N   UNL d   1       2.421  -0.072   0.144  0.00  0.00    -0.366 N 
ATOM     13  H   UNL d   1       2.932  -0.900  -0.127  0.00  0.00     0.159 HD
ATOM     14  H   UNL d   1       2.941   0.792   0.236  0.00  0.00     0.159 HD
ENDBRANCH   1  10
TORSDOF 1
