REMARK  5 active torsions:
REMARK  status: ('A' for Active; 'I' for Inactive)
REMARK    1  A    between atoms: C_2  and  N_1 
REMARK    2  A    between atoms: C_5  and  O_8 
REMARK    3  A    between atoms: O_8  and  C_6 
REMARK    4  A    between atoms: O_12  and  C_7 
REMARK    5  A    between atoms: C_15  and  O_12 
ROOT
ATOM      1  O   UNL d   1      -1.642   2.593   3.854  0.00  0.00    -0.291 OA
ENDROOT
BRANCH   1   2
ATOM      2  C   UNL d   1      -1.688   3.957   4.050  0.00  0.00     0.111 A 
ATOM      3  C   UNL d   1      -1.870   4.832   2.970  0.00  0.00     0.103 A 
ATOM      4  C   UNL d   1      -1.902   6.213   3.217  0.00  0.00     0.040 A 
ATOM      5  C   UNL d   1      -1.736   6.724   4.505  0.00  0.00     0.003 A 
ATOM      6  C   UNL d   1      -1.531   5.856   5.570  0.00  0.00     0.003 A 
ATOM      7  C   UNL d   1      -1.490   4.482   5.341  0.00  0.00     0.040 A 
BRANCH   3   8
ATOM      8  O   UNL d   1      -2.127   4.524   1.662  0.00  0.00    -0.344 OA
BRANCH   8   9
ATOM      9  C   UNL d   1      -1.496   3.390   1.067  0.00  0.00     0.121 C 
ATOM     10  C   UNL d   1      -2.534   2.289   0.874  0.00  0.00     0.040 C 
ATOM     11  C   UNL d   1      -0.986   3.842  -0.304  0.00  0.00     0.040 C 
ENDBRANCH   8   9
ENDBRANCH   3   8
ENDBRANCH   1   2
BRANCH   1  12
ATOM     12  C   UNL d   1      -2.379   1.800   4.724  0.00  0.00     0.148 A 
ATOM     13  C   UNL d   1      -1.860   0.543   5.018  0.00  0.00     0.059 A 
ATOM     14  C   UNL d   1      -2.580  -0.288   5.878  0.00  0.00     0.041 A 
ATOM     15  C   UNL d   1      -3.793   0.170   6.396  0.00  0.00     0.118 A 
ATOM     16  C   UNL d   1      -4.246   1.431   6.039  0.00  0.00     0.126 A 
ATOM     17  N   UNL d   1      -3.560   2.252   5.205  0.00  0.00    -0.344 N 
ATOM     18  HN  UNL d   1      -3.919   3.173   4.952  1.00  0.00     0.167 HD
BRANCH  15  19
ATOM     19  N   UNL d   1      -4.586  -0.653   7.297  0.00  0.00    -0.114 N 
ATOM     20  O   UNL d   1      -5.654  -0.187   7.720  0.00  0.00    -0.532 OA
ATOM     21  O   UNL d   1      -4.142  -1.775   7.591  0.00  0.00    -0.532 OA
ENDBRANCH  15  19
ENDBRANCH   1  12
TORSDOF 5
