REMARK  3 active torsions:
REMARK  status: ('A' for Active; 'I' for Inactive)
REMARK    1  A    between atoms: C_2  and  S_1 
REMARK    2  A    between atoms: O_10  and  S_1 
REMARK    3  A    between atoms: C_11  and  O_10 
ROOT
ATOM      1  S   UNL d   1       0.896  -0.076   0.015  0.00  0.00     0.305 S 
ATOM      2  O   UNL d   1       0.168  -0.874   0.987  0.00  0.00    -0.193 OA
ATOM      3  O   UNL d   1       2.346  -0.052   0.020  0.00  0.00    -0.193 OA
ENDROOT
BRANCH   1   4
ATOM      4  C   UNL d   1       0.392   1.583   0.278  0.00  0.00     0.116 A 
ATOM      5  C   UNL d   1       0.247   2.525  -0.761  0.00  0.00     0.091 A 
ATOM      6  N   UNL d   1       0.434   2.339  -2.077  0.00  0.00    -0.309 N 
ATOM      7  C   UNL d   1      -0.158   3.946  -0.430  0.00  0.00     0.068 A 
ATOM      8  S   UNL d   1       0.136   3.795  -2.819  0.00  0.00     0.068 SA
ATOM      9  HN  UNL d   1       0.706   1.469  -2.535  1.00  0.00     0.176 HD
ATOM     10  N   UNL d   1      -0.254   4.735  -1.510  0.00  0.00    -0.310 N 
ATOM     11  HN  UNL d   1      -0.517   5.720  -1.523  1.00  0.00     0.176 HD
ATOM     12  C   UNL d   1      -0.397   4.347   0.907  0.00  0.00     0.032 A 
ATOM     13  C   UNL d   1      -0.240   3.360   1.894  0.00  0.00     0.004 A 
ATOM     14  C   UNL d   1       0.137   2.032   1.594  0.00  0.00     0.028 A 
ENDBRANCH   1   4
BRANCH   1  15
ATOM     15  O   UNL d   1       0.367  -0.499  -1.467  0.00  0.00    -0.229 OA
BRANCH  15  16
ATOM     16  C   UNL d   1       0.661  -1.718  -2.029  0.00  0.00     0.092 A 
ATOM     17  C   UNL d   1       1.387  -2.739  -1.409  0.00  0.00     0.062 A 
ATOM     18  C   UNL d   1       1.627  -3.935  -2.089  0.00  0.00     0.038 A 
ATOM     19 CL   UNL d   1       2.530  -5.182  -1.320  0.00  0.00    -0.084 Cl
ATOM     20  C   UNL d   1       1.146  -4.132  -3.380  0.00  0.00     0.048 A 
ATOM     21  C   UNL d   1       0.418  -3.116  -3.991  0.00  0.00     0.038 A 
ATOM     22  C   UNL d   1       0.174  -1.913  -3.325  0.00  0.00     0.062 A 
ATOM     23 CL   UNL d   1      -0.189  -3.348  -5.585  0.00  0.00    -0.084 Cl
ENDBRANCH  15  16
ENDBRANCH   1  15
TORSDOF 3
