REMARK  4 active torsions:
REMARK  status: ('A' for Active; 'I' for Inactive)
REMARK    1  A    between atoms: C_11  and  C_1 
REMARK    2  A    between atoms: C_2  and  C_5 
REMARK    3  A    between atoms: C_7  and  N_3 
REMARK    4  A    between atoms: N_10  and  C_11 
ROOT
ATOM      1  N   UNL d   1      -2.830  -2.484   0.566  0.00  0.00    -0.364 N 
ATOM      2  N   UNL d   1      -0.070  -3.492   0.012  0.00  0.00     0.095 N 
ATOM      3  C   UNL d   1      -1.774  -2.410   1.588  0.00  0.00     0.154 C 
ATOM      4  C   UNL d   1      -2.323  -2.505  -0.823  0.00  0.00     0.154 C 
ATOM      5  C   UNL d   1      -0.687  -3.484   1.349  0.00  0.00     0.292 C 
ATOM      6  C   UNL d   1      -1.115  -3.452  -1.024  0.00  0.00     0.292 C 
ENDROOT
BRANCH   2   7
ATOM      7  C   UNL d   1       1.006  -2.500  -0.153  0.00  0.00     0.314 C 
BRANCH   7   8
ATOM      8  C   UNL d   1       2.331  -2.948   0.470  0.00  0.00     0.006 A 
ATOM      9  C   UNL d   1       3.330  -2.023   0.833  0.00  0.00     0.088 A 
ATOM     10  C   UNL d   1       4.562  -2.458   1.348  0.00  0.00     0.001 A 
ATOM     11  O   UNL d   1       3.076  -0.692   0.627  0.00  0.00    -0.325 OA
ATOM     12  C   UNL d   1       5.608  -1.456   1.730  0.00  0.00     0.212 C 
ATOM     13  C   UNL d   1       4.807  -3.825   1.520  0.00  0.00     0.036 A 
ATOM     14  O   UNL d   1       5.412  -0.262   0.986  0.00  0.00    -0.362 OA
ATOM     15  C   UNL d   1       4.075   0.186   1.158  0.00  0.00     0.345 C 
ATOM     16  C   UNL d   1       3.842  -4.749   1.137  0.00  0.00     0.035 A 
ATOM     17  C   UNL d   1       2.625  -4.320   0.608  0.00  0.00     0.035 A 
ATOM     18 CL   UNL d   1       4.159  -6.431   1.309  0.00  0.00    -0.084 Cl
ENDBRANCH   7   8
ENDBRANCH   2   7
BRANCH   1  19
ATOM     19  C   UNL d   1      -3.955  -1.651   0.719  0.00  0.00     0.103 A 
ATOM     20  N   UNL d   1      -4.610  -1.241  -0.393  0.00  0.00    -0.352 N 
ATOM     21  C   UNL d   1      -5.697  -0.438  -0.278  0.00  0.00     0.106 A 
ATOM     22  HN  UNL d   1      -4.287  -1.536  -1.315  1.00  0.00     0.166 HD
ATOM     23  C   UNL d   1      -6.204   0.018   0.922  0.00  0.00     0.063 A 
ATOM     24  C   UNL d   1      -5.553  -0.424   2.074  0.00  0.00     0.021 A 
ATOM     25  C   UNL d   1      -4.442  -1.266   1.969  0.00  0.00     0.049 A 
BRANCH  23  26
ATOM     26  C   UNL d   1      -7.379   0.942   0.969  0.00  0.00     0.418 C 
ATOM     27  F   UNL d   1      -7.884   1.248  -0.255  0.00  0.00    -0.166 F 
ATOM     28  F   UNL d   1      -8.420   0.429   1.685  0.00  0.00    -0.166 F 
ATOM     29  F   UNL d   1      -7.077   2.131   1.556  0.00  0.00    -0.166 F 
ENDBRANCH  23  26
ENDBRANCH   1  19
TORSDOF 4
