REMARK  8 active torsions:
REMARK  status: ('A' for Active; 'I' for Inactive)
REMARK    1  A    between atoms: C_6  and  C_1 
REMARK    2  A    between atoms: C_13  and  C_1 
REMARK    3  A    between atoms: N_3  and  C_2 
REMARK    4  A    between atoms: S_7  and  C_2 
REMARK    5  A    between atoms: C_5  and  C_9 
REMARK    6  A    between atoms: N_10  and  C_6 
REMARK    7  A    between atoms: C_9  and  S_7 
REMARK    8  A    between atoms: N_17  and  C_8 
ROOT
ATOM      1  C   UNL d   1       0.924   0.064  -0.016  0.00  0.00     0.105 C 
ATOM      2  C   UNL d   1       0.218   0.839  -0.883  0.00  0.00     0.094 C 
ENDROOT
BRANCH   2   3
ATOM      3  N   UNL d   1      -1.154   0.826  -1.062  0.00  0.00    -0.346 N 
ATOM      4  C   UNL d   1      -1.735  -0.315  -1.246  0.00  0.00     0.178 C 
ATOM      5  HN  UNL d   1      -1.693   1.692  -1.048  1.00  0.00     0.167 HD
BRANCH   4   6
ATOM      6  N   UNL d   1      -3.066  -0.534  -1.518  0.00  0.00    -0.386 N 
ATOM      7  C   UNL d   1      -3.973   0.553  -1.843  0.00  0.00     0.149 C 
ATOM      8  C   UNL d   1      -3.696  -1.804  -1.189  0.00  0.00     0.149 C 
ENDBRANCH   4   6
ENDBRANCH   2   3
BRANCH   2   9
ATOM      9  S   UNL d   1       1.161   2.018  -1.847  0.00  0.00    -0.106 SA
BRANCH   9  10
ATOM     10  C   UNL d   1      -0.129   2.982  -2.688  0.00  0.00     0.123 C 
BRANCH  10  11
ATOM     11  C   UNL d   1       0.482   4.082  -3.537  0.00  0.00    -0.005 A 
ATOM     12  C   UNL d   1       0.927   3.830  -4.852  0.00  0.00     0.042 A 
ATOM     13 CL   UNL d   1       0.789   2.268  -5.587  0.00  0.00    -0.084 Cl
ATOM     14  C   UNL d   1       1.505   4.840  -5.634  0.00  0.00     0.024 A 
ATOM     15  C   UNL d   1       1.664   6.123  -5.120  0.00  0.00     0.003 A 
ATOM     16  C   UNL d   1       1.246   6.394  -3.822  0.00  0.00     0.024 A 
ATOM     17  C   UNL d   1       0.669   5.385  -3.035  0.00  0.00     0.042 A 
ATOM     18 CL   UNL d   1       0.205   5.832  -1.429  0.00  0.00    -0.084 Cl
ENDBRANCH  10  11
ENDBRANCH   9  10
ENDBRANCH   2   9
BRANCH   1  19
ATOM     19  C   UNL d   1       2.445   0.064  -0.016  0.00  0.00    -0.030 C 
BRANCH  19  20
ATOM     20  N   UNL d   1       3.705   0.064  -0.016  0.00  0.00    -0.365 N 
ATOM     21  HN2 UNL d   1       2.685   0.064  -0.016  1.00  0.00     0.165 HD
ATOM     22  HN1 UNL d   1       4.726   0.064  -0.016  1.00  0.00     0.165 HD
ENDBRANCH  19  20
ENDBRANCH   1  19
BRANCH   1  23
ATOM     23  C   UNL d   1       0.358  -0.949   0.932  0.00  0.00     0.167 C 
ATOM     24  O   UNL d   1      -0.785  -0.842   1.392  0.00  0.00    -0.292 OA
ATOM     25  C   UNL d   1       1.224  -2.123   1.361  0.00  0.00     0.097 C 
ENDBRANCH   1  23
TORSDOF 8
