REMARK  5 active torsions:
REMARK  status: ('A' for Active; 'I' for Inactive)
REMARK    1  A    between atoms: C_11  and  N_1 
REMARK    2  A    between atoms: C_8  and  C_5 
REMARK    3  A    between atoms: S_6  and  N_10 
REMARK    4  A    between atoms: C_15  and  S_6 
REMARK    5  A    between atoms: N_10  and  C_22 
ROOT
ATOM      1  C   UNL d   1       2.161  -1.407  -0.142  0.00  0.00     0.057 A 
ATOM      2  C   UNL d   1       4.483  -2.945  -0.357  0.00  0.00     0.042 A 
ATOM      3  C   UNL d   1       2.289  -2.350  -1.171  0.00  0.00     0.034 A 
ATOM      4  C   UNL d   1       3.224  -1.200   0.749  0.00  0.00     0.034 A 
ATOM      5  C   UNL d   1       4.376  -1.989   0.653  0.00  0.00     0.032 A 
ATOM      6  C   UNL d   1       3.449  -3.118  -1.274  0.00  0.00     0.032 A 
ENDROOT
BRANCH   1   7
ATOM      7  N   UNL d   1       0.954  -0.668   0.009  0.00  0.00    -0.255 N 
ATOM      8  C   UNL d   1      -0.345  -1.056  -0.296  0.00  0.00     0.076 C 
ATOM      9  C   UNL d   1      -1.098   0.100  -0.250  0.00  0.00     0.069 C 
ATOM     10  C   UNL d   1      -0.804  -2.409  -0.473  0.00  0.00     0.033 A 
ATOM     11  C   UNL d   1      -0.245   1.091   0.295  0.00  0.00     0.135 C 
ATOM     12  N   UNL d   1       0.988   0.595   0.515  0.00  0.00    -0.289 N 
ATOM     13  HN  UNL d   1       1.775   1.064   0.964  1.00  0.00     0.187 HD
ATOM     14  S   UNL d   1      -2.038  -2.812  -1.591  0.00  0.00    -0.100 SA
ATOM     15  C   UNL d   1      -0.390  -3.525   0.234  0.00  0.00     0.021 A 
ATOM     16  C   UNL d   1      -2.007  -4.462  -1.138  0.00  0.00     0.050 A 
ATOM     17  C   UNL d   1      -1.073  -4.710  -0.158  0.00  0.00     0.008 A 
BRANCH  11  18
ATOM     18  C   UNL d   1      -0.660   2.494   0.657  0.00  0.00     0.434 C 
ATOM     19  F   UNL d   1       0.313   3.216   1.269  0.00  0.00    -0.165 F 
ATOM     20  F   UNL d   1      -1.042   3.200  -0.443  0.00  0.00    -0.165 F 
ATOM     21  F   UNL d   1      -1.732   2.490   1.497  0.00  0.00    -0.165 F 
ENDBRANCH  11  18
ENDBRANCH   1   7
BRANCH   2  22
ATOM     22  N   UNL d   1       5.633  -3.769  -0.469  0.00  0.00    -0.281 N 
ATOM     23  H   UNL d   1       6.541  -3.308  -0.510  0.00  0.00     0.179 HD
BRANCH  22  24
ATOM     24  S   UNL d   1       5.708  -5.178   0.464  0.00  0.00     0.263 S 
ATOM     25  O   UNL d   1       7.025  -5.737   0.238  0.00  0.00    -0.200 OA
ATOM     26  O   UNL d   1       5.245  -4.876   1.800  0.00  0.00    -0.200 OA
BRANCH  24  27
ATOM     27  C   UNL d   1       4.542  -6.261  -0.322  0.00  0.00     0.079 A 
ATOM     28  C   UNL d   1       4.718  -6.608  -1.666  0.00  0.00     0.025 A 
ATOM     29  C   UNL d   1       3.787  -7.443  -2.286  0.00  0.00     0.002 A 
ATOM     30  C   UNL d   1       2.701  -7.939  -1.561  0.00  0.00     0.000 A 
ATOM     31  C   UNL d   1       2.540  -7.604  -0.215  0.00  0.00     0.002 A 
ATOM     32  C   UNL d   1       3.461  -6.762   0.409  0.00  0.00     0.025 A 
ENDBRANCH  24  27
ENDBRANCH  22  24
ENDBRANCH   2  22
TORSDOF 5
