REMARK  4 active torsions:
REMARK  status: ('A' for Active; 'I' for Inactive)
REMARK       I    between atoms: N_3  and  C_1 
REMARK    1  A    between atoms: C_4  and  C_1 
REMARK    2  A    between atoms: C_2  and  C_8 
REMARK       I    between atoms: N_7  and  C_2 
REMARK    3  A    between atoms: C_8  and  N_3 
REMARK    4  A    between atoms: N_12  and  N_7 
ROOT
ATOM      1  C   UNL d   1       1.101   0.122   0.073  0.00  0.00     0.252 C 
ATOM      2  N   UNL d   1       0.354   1.149   0.596  0.00  0.00    -0.348 N 
ATOM      3  O   UNL d   1       2.318   0.057   0.208  0.00  0.00    -0.268 OA
ATOM      4  H   UNL d   1      -0.660   1.119   0.615  0.00  0.00     0.163 HD
ENDROOT
BRANCH   2   5
ATOM      5  C   UNL d   1       1.001   2.206   1.346  0.00  0.00     0.227 C 
BRANCH   5   6
ATOM      6  C   UNL d   1      -0.003   3.254   1.814  0.00  0.00     0.249 C 
ATOM      7  O   UNL d   1      -1.207   3.197   1.564  0.00  0.00    -0.270 OA
ATOM      8  N   UNL d   1       0.583   4.287   2.542  0.00  0.00    -0.293 N 
ATOM      9  H   UNL d   1       1.541   4.194   2.878  0.00  0.00     0.183 HD
BRANCH   8  10
ATOM     10  N   UNL d   1      -0.236   5.286   3.112  0.00  0.00    -0.247 NA
ATOM     11  H   UNL d   1      -1.214   5.005   2.953  0.00  0.00     0.143 HD
ATOM     12  H   UNL d   1      -0.129   6.139   2.557  0.00  0.00     0.143 HD
ENDBRANCH   8  10
ENDBRANCH   5   6
ENDBRANCH   2   5
BRANCH   1  13
ATOM     13  C   UNL d   1       0.371  -0.952  -0.657  0.00  0.00     0.032 A 
ATOM     14  C   UNL d   1      -0.846  -0.719  -1.308  0.00  0.00     0.018 A 
ATOM     15  C   UNL d   1      -1.472  -1.756  -2.007  0.00  0.00     0.020 A 
ATOM     16  C   UNL d   1      -0.882  -3.019  -2.056  0.00  0.00     0.011 A 
ATOM     17  C   UNL d   1       0.332  -3.258  -1.415  0.00  0.00     0.020 A 
ATOM     18 BR   UNL d   1      -1.727  -4.414  -3.011  0.00  0.00    -0.051 Br
ATOM     19  C   UNL d   1       0.962  -2.222  -0.721  0.00  0.00     0.018 A 
ENDBRANCH   1  13
TORSDOF 4
