REMARK  4 active torsions:
REMARK  status: ('A' for Active; 'I' for Inactive)
REMARK    1  A    between atoms: C_12  and  C_3 
REMARK    2  A    between atoms: C_14  and  C_4 
REMARK    3  A    between atoms: S_15  and  C_9 
REMARK    4  A    between atoms: C_13  and  C_11 
REMARK       I    between atoms: N_23  and  C_14 
ROOT
ATOM      1  N   UNL d   1       0.333   0.565   0.012  0.00  0.00    -0.233 N 
ATOM      2  C   UNL d   1       0.176  -0.827   0.009  0.00  0.00     0.146 A 
ATOM      3  C   UNL d   1      -0.777   1.401   0.020  0.00  0.00     0.144 A 
ATOM      4  C   UNL d   1       1.453  -1.375  -0.023  0.00  0.00     0.112 A 
ATOM      5  N   UNL d   1       1.630   0.903   0.008  0.00  0.00    -0.284 N 
ATOM      6  HN  UNL d   1       2.020   1.845   0.021  1.00  0.00     0.188 HD
ATOM      7  N   UNL d   1      -1.061  -1.421   0.034  0.00  0.00    -0.336 N 
ATOM      8  HN  UNL d   1      -1.160  -2.436   0.037  1.00  0.00     0.167 HD
ATOM      9  C   UNL d   1       2.302  -0.246  -0.015  0.00  0.00     0.104 A 
ATOM     10  C   UNL d   1      -2.013   0.862   0.034  0.00  0.00     0.071 A 
ATOM     11  C   UNL d   1      -2.109  -0.636   0.054  0.00  0.00     0.120 A 
ENDROOT
BRANCH   4  12
ATOM     12  C   UNL d   1       1.783  -2.789  -0.052  0.00  0.00     0.256 C 
ATOM     13  O   UNL d   1       2.925  -3.237  -0.071  0.00  0.00    -0.268 OA
ATOM     14  N   UNL d   1       0.719  -3.644  -0.064  0.00  0.00    -0.366 N 
ATOM     15  H   UNL d   1      -0.235  -3.300  -0.042  0.00  0.00     0.159 HD
ATOM     16  H   UNL d   1       0.893  -4.639  -0.084  0.00  0.00     0.159 HD
ENDBRANCH   4  12
BRANCH   9  17
ATOM     17  S   UNL d   1       4.052  -0.217  -0.031  0.00  0.00    -0.114 SA
ATOM     18  C   UNL d   1       4.389   1.562   0.001  0.00  0.00     0.097 C 
ENDBRANCH   9  17
BRANCH   3  19
ATOM     19  C   UNL d   1      -0.570   2.873   0.011  0.00  0.00     0.434 C 
ATOM     20  F   UNL d   1       0.707   3.312  -0.055  0.00  0.00    -0.165 F 
ATOM     21  F   UNL d   1      -1.222   3.434  -1.044  0.00  0.00    -0.165 F 
ATOM     22  F   UNL d   1      -1.114   3.433   1.125  0.00  0.00    -0.165 F 
ENDBRANCH   3  19
BRANCH  11  23
ATOM     23  C   UNL d   1      -3.516  -1.247   0.110  0.00  0.00     0.432 C 
ATOM     24  F   UNL d   1      -4.497  -0.304   0.122  0.00  0.00    -0.165 F 
ATOM     25  F   UNL d   1      -3.766  -2.051  -0.957  0.00  0.00    -0.165 F 
ATOM     26  F   UNL d   1      -3.696  -2.005   1.224  0.00  0.00    -0.165 F 
ENDBRANCH  11  23
TORSDOF 4
