REMARK  6 active torsions:
REMARK  status: ('A' for Active; 'I' for Inactive)
REMARK    1  A    between atoms: O_17  and  C_1 
REMARK    2  A    between atoms: C_3  and  O_13 
REMARK    3  A    between atoms: C_8  and  C_3 
REMARK    4  A    between atoms: C_11  and  C_4 
REMARK    5  A    between atoms: O_13  and  N_5 
REMARK    6  A    between atoms: O_21  and  C_7 
ROOT
ATOM      1  N   UNL d   1      -1.893  -2.589  -0.164  0.00  0.00    -0.268 N 
ATOM      2  HN  UNL d   1      -2.474  -1.750  -0.156  1.00  0.00     0.194 HD
ATOM      3  C   UNL d   1      -0.600  -2.569  -0.064  0.00  0.00     0.127 C 
ENDROOT
BRANCH   1   4
ATOM      4  O   UNL d   1      -2.407  -3.897  -0.283  0.00  0.00    -0.195 OA
BRANCH   4   5
ATOM      5  C   UNL d   1      -3.773  -3.798  -0.356  0.00  0.00     0.315 C 
ATOM      6  O   UNL d   1      -4.435  -2.766  -0.340  0.00  0.00    -0.257 OA
BRANCH   5   7
ATOM      7  C   UNL d   1      -4.433  -5.129  -0.449  0.00  0.00     0.041 A 
ATOM      8  C   UNL d   1      -5.837  -5.149  -0.443  0.00  0.00     0.018 A 
ATOM      9  C   UNL d   1      -6.534  -6.355  -0.528  0.00  0.00     0.007 A 
ATOM     10  C   UNL d   1      -5.838  -7.563  -0.624  0.00  0.00    -0.062 A 
ATOM     11  C   UNL d   1      -4.437  -7.545  -0.627  0.00  0.00     0.007 A 
ATOM     12  C   UNL d   1      -6.605  -8.850  -0.711  0.00  0.00     0.048 C 
ATOM     13  C   UNL d   1      -3.733  -6.335  -0.541  0.00  0.00     0.018 A 
ENDBRANCH   5   7
ENDBRANCH   4   5
ENDBRANCH   1   4
BRANCH   3  14
ATOM     14  C   UNL d   1       0.096  -1.263   0.089  0.00  0.00     0.006 A 
ATOM     15  C   UNL d   1       1.496  -1.132   0.142  0.00  0.00     0.081 A 
ATOM     16  C   UNL d   1       2.088   0.152   0.309  0.00  0.00     0.124 A 
ATOM     17 CL   UNL d   1       2.481  -2.544  -0.096  0.00  0.00    -0.080 Cl
ATOM     18  C   UNL d   1       1.258   1.291   0.381  0.00  0.00     0.103 A 
ATOM     19  C   UNL d   1      -0.130   1.137   0.302  0.00  0.00     0.040 A 
ATOM     20  C   UNL d   1      -0.707  -0.118   0.161  0.00  0.00     0.017 A 
BRANCH  16  21
ATOM     21  O   UNL d   1       3.445   0.358   0.244  0.00  0.00    -0.351 OA
ATOM     22  C   UNL d   1       4.236  -0.353   1.194  0.00  0.00     0.210 C 
ENDBRANCH  16  21
BRANCH  18  23
ATOM     23  O   UNL d   1       1.597   2.612   0.498  0.00  0.00    -0.353 OA
ATOM     24  C   UNL d   1       2.939   2.978   0.764  0.00  0.00     0.210 C 
ENDBRANCH  18  23
ENDBRANCH   3  14
TORSDOF 6
