REMARK  4 active torsions:
REMARK  status: ('A' for Active; 'I' for Inactive)
REMARK    1  A    between atoms: C_7  and  C_1 
REMARK    2  A    between atoms: C_8  and  C_3 
REMARK    3  A    between atoms: O_13  and  C_7 
REMARK    4  A    between atoms: C_19  and  O_13 
ROOT
ATOM      1  C   UNL d   1       1.442   1.052   0.042  0.00  0.00     0.066 C 
ATOM      2  C   UNL d   1       1.366  -0.298   0.003  0.00  0.00     0.024 C 
ATOM      3  C   UNL d   1       0.191   1.898  -0.069  0.00  0.00     0.161 C 
ATOM      4  C   UNL d   1      -1.071  -0.230  -0.012  0.00  0.00     0.321 C 
ATOM      5  N   UNL d   1       0.120  -0.881  -0.095  0.00  0.00    -0.312 N 
ATOM      6  N   UNL d   1      -1.005   1.109   0.160  0.00  0.00    -0.330 N 
ATOM      7  O   UNL d   1      -2.143  -0.826  -0.048  0.00  0.00    -0.247 OA
ATOM      8  C   UNL d   1       2.489  -1.301   0.033  0.00  0.00     0.069 C 
ATOM      9  H   UNL d   1       0.039  -1.891  -0.152  0.00  0.00     0.170 HD
ATOM     10  H   UNL d   1      -1.901   1.574   0.191  0.00  0.00     0.165 HD
ENDROOT
BRANCH   3  11
ATOM     11  C   UNL d   1       0.132   3.113   0.846  0.00  0.00    -0.031 A 
ATOM     12  C   UNL d   1      -0.041   4.396   0.299  0.00  0.00     0.011 A 
ATOM     13  C   UNL d   1      -0.001   5.528   1.115  0.00  0.00     0.019 A 
ATOM     14  C   UNL d   1       0.196   5.382   2.486  0.00  0.00     0.011 A 
ATOM     15  C   UNL d   1       0.322   4.115   3.053  0.00  0.00     0.019 A 
ATOM     16 BR   UNL d   1       0.322   6.916   3.582  0.00  0.00    -0.051 Br
ATOM     17  C   UNL d   1       0.281   2.983   2.237  0.00  0.00     0.011 A 
ENDBRANCH   3  11
BRANCH   1  18
ATOM     18  C   UNL d   1       2.757   1.739   0.175  0.00  0.00     0.293 C 
ATOM     19  O   UNL d   1       3.736   1.243   0.714  0.00  0.00    -0.259 OA
BRANCH  18  20
ATOM     20  O   UNL d   1       2.726   2.984  -0.358  0.00  0.00    -0.318 OA
BRANCH  20  21
ATOM     21  C   UNL d   1       3.940   3.749  -0.218  0.00  0.00     0.174 C 
ATOM     22  C   UNL d   1       4.171   4.222   1.210  0.00  0.00     0.034 C 
ENDBRANCH  20  21
ENDBRANCH  18  20
ENDBRANCH   1  18
TORSDOF 4
