REMARK  3 active torsions:
REMARK  status: ('A' for Active; 'I' for Inactive)
REMARK    1  A    between atoms: C_2  and  S_1 
REMARK    2  A    between atoms: C_3  and  S_1 
REMARK    3  A    between atoms: C_14  and  C_5 
ROOT
ATOM      1  C   UNL d   1       0.505  -0.046  -1.684  0.00  0.00     0.144 C 
ATOM      2  C   UNL d   1      -0.275  -1.025  -2.189  0.00  0.00     0.046 C 
ATOM      3  C   UNL d   1       0.986  -0.016  -0.345  0.00  0.00     0.112 C 
ATOM      4  N   UNL d   1       1.406  -0.004   0.741  0.00  0.00    -0.191 NA
ENDROOT
BRANCH   1   5
ATOM      5  S   UNL d   1       0.908   1.295  -2.705  0.00  0.00     0.218 S 
ATOM      6  O   UNL d   1       0.433   2.512  -2.066  0.00  0.00    -0.216 OA
ATOM      7  O   UNL d   1       0.533   1.046  -4.088  0.00  0.00    -0.216 OA
BRANCH   5   8
ATOM      8  C   UNL d   1       2.690   1.379  -2.705  0.00  0.00     0.086 A 
ATOM      9  C   UNL d   1       3.478   0.328  -3.185  0.00  0.00     0.057 A 
ATOM     10  C   UNL d   1       4.872   0.465  -3.210  0.00  0.00     0.049 A 
ATOM     11 CL   UNL d   1       2.845  -1.167  -3.767  0.00  0.00    -0.083 Cl
ATOM     12  C   UNL d   1       5.468   1.647  -2.772  0.00  0.00     0.035 A 
ATOM     13  C   UNL d   1       4.687   2.699  -2.304  0.00  0.00     0.025 A 
ATOM     14 CL   UNL d   1       7.179   1.809  -2.821  0.00  0.00    -0.084 Cl
ATOM     15  C   UNL d   1       3.297   2.569  -2.272  0.00  0.00     0.027 A 
ENDBRANCH   5   8
ENDBRANCH   1   5
BRANCH   2  16
ATOM     16  C   UNL d   1      -0.704  -2.200  -1.427  0.00  0.00    -0.033 A 
ATOM     17  C   UNL d   1      -1.913  -2.162  -0.719  0.00  0.00     0.021 A 
ATOM     18  C   UNL d   1      -2.277  -3.278   0.015  0.00  0.00    -0.022 A 
ATOM     19  C   UNL d   1      -3.505  -3.531   0.798  0.00  0.00     0.068 C 
ATOM     20  C   UNL d   1      -1.477  -4.408   0.038  0.00  0.00     0.075 A 
ATOM     21  C   UNL d   1      -3.098  -4.832   1.493  0.00  0.00     0.180 C 
ATOM     22  O   UNL d   1      -1.995  -5.437   0.777  0.00  0.00    -0.350 OA
ATOM     23  C   UNL d   1      -0.286  -4.473  -0.654  0.00  0.00     0.038 A 
ATOM     24  C   UNL d   1       0.106  -3.353  -1.392  0.00  0.00     0.014 A 
ENDBRANCH   2  16
TORSDOF 3
