REMARK  7 active torsions:
REMARK  status: ('A' for Active; 'I' for Inactive)
REMARK    1  A    between atoms: C_3  and  C_1 
REMARK    2  A    between atoms: O_6  and  C_2 
REMARK    3  A    between atoms: C_5  and  O_6 
REMARK       I    between atoms: N_8  and  C_12 
REMARK    4  A    between atoms: C_11  and  N_8 
REMARK    5  A    between atoms: C_12  and  C_26 
REMARK    6  A    between atoms: S_18  and  C_13 
REMARK    7  A    between atoms: C_26  and  S_18 
ROOT
ATOM      1  C   UNL d   1      -3.877  -7.433  -0.645  0.00  0.00     0.175 A 
ATOM      2  C   UNL d   1      -2.642  -7.407  -1.310  0.00  0.00     0.086 A 
ATOM      3  N   UNL d   1      -4.733  -6.372  -0.650  0.00  0.00    -0.345 N 
ATOM      4  HN  UNL d   1      -5.605  -6.404  -0.121  1.00  0.00     0.167 HD
ATOM      5  C   UNL d   1      -2.324  -6.229  -2.005  0.00  0.00     0.035 A 
ATOM      6  C   UNL d   1      -4.405  -5.280  -1.366  0.00  0.00     0.090 A 
ATOM      7  C   UNL d   1      -3.221  -5.165  -2.061  0.00  0.00     0.019 A 
ENDROOT
BRANCH   2   8
ATOM      8  N   UNL d   1      -1.624  -8.380  -1.311  0.00  0.00    -0.323 N 
ATOM      9  C   UNL d   1      -1.624  -9.742  -1.384  0.00  0.00     0.231 C 
ATOM     10  O   UNL d   1      -0.527 -10.305  -1.292  0.00  0.00    -0.272 OA
ATOM     11  H   UNL d   1      -0.676  -8.034  -1.408  0.00  0.00     0.169 HD
BRANCH   9  12
ATOM     12  C   UNL d   1      -2.865 -10.532  -1.714  0.00  0.00     0.184 C 
BRANCH  12  13
ATOM     13  S   UNL d   1      -3.026 -10.719  -3.524  0.00  0.00    -0.103 SA
BRANCH  13  14
ATOM     14  C   UNL d   1      -4.666 -11.418  -3.582  0.00  0.00     0.070 A 
ATOM     15  C   UNL d   1      -5.259 -11.707  -4.803  0.00  0.00     0.038 A 
ATOM     16  C   UNL d   1      -6.574 -12.170  -4.808  0.00  0.00     0.020 A 
ATOM     17  C   UNL d   1      -7.266 -12.326  -3.603  0.00  0.00     0.063 A 
ATOM     18  C   UNL d   1      -6.579 -12.041  -2.436  0.00  0.00     0.105 A 
ATOM     19  N   UNL d   1      -5.303 -11.601  -2.407  0.00  0.00    -0.360 N 
ATOM     20  HN  UNL d   1      -4.834 -11.413  -1.521  1.00  0.00     0.166 HD
BRANCH  17  21
ATOM     21  C   UNL d   1      -8.700 -12.753  -3.556  0.00  0.00     0.418 C 
ATOM     22  F   UNL d   1      -9.217 -12.795  -2.297  0.00  0.00    -0.166 F 
ATOM     23  F   UNL d   1      -8.894 -13.991  -4.083  0.00  0.00    -0.166 F 
ATOM     24  F   UNL d   1      -9.509 -11.914  -4.260  0.00  0.00    -0.166 F 
ENDBRANCH  17  21
ENDBRANCH  13  14
ENDBRANCH  12  13
ENDBRANCH   9  12
ENDBRANCH   2   8
BRANCH   1  25
ATOM     25  O   UNL d   1      -4.213  -8.501   0.181  0.00  0.00    -0.291 OA
BRANCH  25  26
ATOM     26  C   UNL d   1      -5.561  -8.744   0.375  0.00  0.00     0.084 A 
ATOM     27  C   UNL d   1      -6.000  -9.168   1.622  0.00  0.00    -0.017 A 
ATOM     28  C   UNL d   1      -7.368  -9.344   1.878  0.00  0.00    -0.043 A 
ATOM     29  C   UNL d   1      -5.181  -9.429   2.845  0.00  0.00     0.042 C 
ATOM     30  C   UNL d   1      -7.613  -9.725   3.305  0.00  0.00     0.040 C 
ATOM     31  C   UNL d   1      -8.330  -9.113   0.895  0.00  0.00    -0.055 A 
ATOM     32  C   UNL d   1      -6.204  -9.977   3.852  0.00  0.00     0.009 C 
ATOM     33  C   UNL d   1      -7.881  -8.780  -0.386  0.00  0.00     0.010 A 
ATOM     34  C   UNL d   1      -9.796  -9.204   1.191  0.00  0.00     0.049 C 
ATOM     35  C   UNL d   1      -6.512  -8.620  -0.647  0.00  0.00     0.038 A 
ENDBRANCH  25  26
ENDBRANCH   1  25
TORSDOF 7
