REMARK  3 active torsions:
REMARK  status: ('A' for Active; 'I' for Inactive)
REMARK    1  A    between atoms: N_2  and  S_1 
REMARK    2  A    between atoms: C_13  and  S_1 
REMARK    3  A    between atoms: C_8  and  C_3 
ROOT
ATOM      1  N   UNL d   1       0.390  -1.583  -0.512  0.00  0.00    -0.257 N 
ATOM      2  C   UNL d   1      -0.639  -3.188  -1.668  0.00  0.00     0.010 A 
ATOM      3  C   UNL d   1      -0.565  -1.818  -1.466  0.00  0.00     0.122 A 
ATOM      4  C   UNL d   1       0.987  -2.755  -0.133  0.00  0.00     0.110 A 
ATOM      5  C   UNL d   1       0.348  -3.772  -0.812  0.00  0.00     0.033 A 
ENDROOT
BRANCH   2   6
ATOM      6  C   UNL d   1      -1.589  -3.824  -2.576  0.00  0.00     0.060 A 
ATOM      7  N   UNL d   1      -2.370  -3.014  -3.331  0.00  0.00    -0.353 N 
ATOM      8  C   UNL d   1      -3.278  -3.612  -4.136  0.00  0.00     0.060 A 
ATOM      9  HN  UNL d   1      -2.277  -1.999  -3.295  1.00  0.00     0.166 HD
ATOM     10  C   UNL d   1      -4.137  -2.840  -4.912  0.00  0.00     0.039 A 
ATOM     11  C   UNL d   1      -3.393  -5.020  -4.200  0.00  0.00     0.059 A 
ATOM     12  C   UNL d   1      -5.121  -3.412  -5.738  0.00  0.00    -0.054 A 
ATOM     13  C   UNL d   1      -6.049  -2.518  -6.515  0.00  0.00     0.049 C 
ATOM     14  C   UNL d   1      -5.233  -4.809  -5.793  0.00  0.00    -0.054 A 
ATOM     15  C   UNL d   1      -4.355  -5.588  -5.024  0.00  0.00     0.039 A 
ATOM     16  C   UNL d   1      -6.285  -5.490  -6.626  0.00  0.00     0.049 C 
ATOM     17  N   UNL d   1      -2.602  -5.822  -3.466  0.00  0.00    -0.362 N 
ATOM     18  C   UNL d   1      -1.712  -5.204  -2.654  0.00  0.00     0.119 A 
ATOM     19  HN  UNL d   1      -2.669  -6.839  -3.517  1.00  0.00     0.165 HD
ENDBRANCH   2   6
BRANCH   1  20
ATOM     20  S   UNL d   1       0.861  -0.043   0.041  0.00  0.00     0.268 S 
ATOM     21  O   UNL d   1       1.380  -0.270   1.376  0.00  0.00    -0.200 OA
ATOM     22  O   UNL d   1      -0.260   0.837  -0.223  0.00  0.00    -0.200 OA
BRANCH  20  23
ATOM     23  C   UNL d   1       2.209   0.481  -0.988  0.00  0.00     0.080 A 
ATOM     24  C   UNL d   1       2.281   0.132  -2.340  0.00  0.00     0.027 A 
ATOM     25  C   UNL d   1       3.348   0.601  -3.115  0.00  0.00     0.025 A 
ATOM     26  C   UNL d   1       4.326   1.416  -2.540  0.00  0.00     0.034 A 
ATOM     27  C   UNL d   1       4.251   1.768  -1.194  0.00  0.00     0.025 A 
ATOM     28 CL   UNL d   1       5.627   1.997  -3.504  0.00  0.00    -0.084 Cl
ATOM     29  C   UNL d   1       3.191   1.300  -0.414  0.00  0.00     0.027 A 
ENDBRANCH  20  23
ENDBRANCH   1  20
TORSDOF 3
