REMARK  6 active torsions:
REMARK  status: ('A' for Active; 'I' for Inactive)
REMARK    1  A    between atoms: C_7  and  N_2 
REMARK    2  A    between atoms: C_4  and  C_12 
REMARK    3  A    between atoms: C_11  and  C_7 
REMARK       I    between atoms: C_8  and  N_9 
REMARK    4  A    between atoms: C_15  and  C_8 
REMARK    5  A    between atoms: N_9  and  N_14 
REMARK    6  A    between atoms: C_10  and  C_11 
REMARK       I    between atoms: N_14  and  C_10 
ROOT
ATOM      1  C   UNL d   1       4.012  -4.025  -0.091  0.00  0.00     0.237 C 
ATOM      2  N   UNL d   1       3.001  -4.966  -0.153  0.00  0.00    -0.267 N 
ATOM      3  O   UNL d   1       5.201  -4.325  -0.019  0.00  0.00    -0.272 OA
ATOM      4  H   UNL d   1       2.073  -4.727  -0.517  0.00  0.00     0.190 HD
ENDROOT
BRANCH   2   5
ATOM      5  N   UNL d   1       3.373  -6.313  -0.260  0.00  0.00    -0.263 N 
ATOM      6  C   UNL d   1       2.401  -7.267  -0.493  0.00  0.00     0.270 C 
ATOM      7  O   UNL d   1       1.205  -7.011  -0.605  0.00  0.00    -0.266 OA
ATOM      8  H   UNL d   1       4.317  -6.541   0.043  0.00  0.00     0.190 HD
BRANCH   6   9
ATOM      9  C   UNL d   1       2.892  -8.669  -0.578  0.00  0.00     0.033 A 
ATOM     10  C   UNL d   1       2.087  -9.712  -0.104  0.00  0.00     0.018 A 
ATOM     11  C   UNL d   1       2.551 -11.031  -0.145  0.00  0.00     0.017 A 
ATOM     12  C   UNL d   1       3.817 -11.327  -0.675  0.00  0.00     0.048 A 
ATOM     13  C   UNL d   1       4.595 -10.280  -1.195  0.00  0.00     0.017 A 
ATOM     14  C   UNL d   1       4.138  -8.960  -1.147  0.00  0.00     0.018 A 
BRANCH  12  15
ATOM     15  C   UNL d   1       4.360 -12.737  -0.683  0.00  0.00     0.417 C 
ATOM     16  F   UNL d   1       3.528 -13.649  -0.109  0.00  0.00    -0.166 F 
ATOM     17  F   UNL d   1       4.611 -13.195  -1.940  0.00  0.00    -0.166 F 
ATOM     18  F   UNL d   1       5.541 -12.835  -0.009  0.00  0.00    -0.166 F 
ENDBRANCH  12  15
ENDBRANCH   6   9
ENDBRANCH   2   5
BRANCH   1  19
ATOM     19  C   UNL d   1       3.524  -2.597  -0.018  0.00  0.00     0.125 C 
BRANCH  19  20
ATOM     20  C   UNL d   1       4.228  -1.686  -1.020  0.00  0.00     0.144 C 
BRANCH  20  21
ATOM     21  N   UNL d   1       4.012  -1.984  -2.423  0.00  0.00    -0.290 N 
ATOM     22  C   UNL d   1       2.867  -2.477  -3.022  0.00  0.00     0.372 A 
ATOM     23  O   UNL d   1       2.997  -2.515  -4.418  0.00  0.00    -0.259 OA
ATOM     24  O   UNL d   1       1.856  -2.852  -2.442  0.00  0.00    -0.237 OA
ATOM     25  C   UNL d   1       4.255  -1.972  -4.616  0.00  0.00     0.107 A 
ATOM     26  C   UNL d   1       4.858  -1.777  -5.841  0.00  0.00     0.040 A 
ATOM     27  C   UNL d   1       4.876  -1.620  -3.435  0.00  0.00     0.073 A 
ATOM     28  C   UNL d   1       6.130  -1.199  -5.847  0.00  0.00     0.003 A 
ATOM     29  C   UNL d   1       6.754  -0.820  -4.644  0.00  0.00     0.002 A 
ATOM     30  C   UNL d   1       6.122  -1.028  -3.414  0.00  0.00     0.033 A 
ENDBRANCH  20  21
ENDBRANCH  19  20
ENDBRANCH   1  19
TORSDOF 6
