REMARK  4 active torsions:
REMARK  status: ('A' for Active; 'I' for Inactive)
REMARK    1  A    between atoms: C_3  and  C_1 
REMARK    2  A    between atoms: C_4  and  C_2 
REMARK    3  A    between atoms: O_10  and  C_3 
REMARK    4  A    between atoms: O_11  and  C_4 
ROOT
ATOM      1  C   UNL d   1       0.784   1.292  -0.002  0.00  0.00     0.069 A 
ATOM      2  C   UNL d   1       1.558   0.128   0.003  0.00  0.00     0.059 A 
ATOM      3  N   UNL d   1      -1.228  -0.075  -0.107  0.00  0.00    -0.374 N 
ATOM      4  HN  UNL d   1      -2.244  -0.140  -0.164  1.00  0.00     0.164 HD
ATOM      5  C   UNL d   1      -0.599   1.126  -0.046  0.00  0.00     0.106 A 
ATOM      6  C   UNL d   1       0.925  -1.125  -0.032  0.00  0.00     0.036 A 
ATOM      7  C   UNL d   1      -0.454  -1.174  -0.088  0.00  0.00     0.088 A 
ENDROOT
BRANCH   1   8
ATOM      8  C   UNL d   1       1.238   2.687   0.151  0.00  0.00     0.178 C 
ATOM      9  O   UNL d   1       0.626   3.478   0.848  0.00  0.00    -0.646 OA
BRANCH   8  10
ATOM     10  O   UNL d   1       2.271   3.063  -0.623  0.00  0.00    -0.773 OA
ATOM     11  H   UNL d   1       2.727   2.348  -1.113  0.00  0.00     0.167 HD
ENDBRANCH   8  10
ENDBRANCH   1   8
BRANCH   2  12
ATOM     12  C   UNL d   1       3.026   0.077   0.122  0.00  0.00     0.294 C 
ATOM     13  O   UNL d   1       3.612  -0.743   0.807  0.00  0.00    -0.259 OA
BRANCH  12  14
ATOM     14  O   UNL d   1       3.599   0.954  -0.739  0.00  0.00    -0.322 OA
ATOM     15  C   UNL d   1       5.035   0.928  -0.726  0.00  0.00     0.213 C 
ENDBRANCH  12  14
ENDBRANCH   2  12
TORSDOF 4
