REMARK  9 active torsions:
REMARK  status: ('A' for Active; 'I' for Inactive)
REMARK    1  A    between atoms: C_14  and  C_1 
REMARK    2  A    between atoms: C_15  and  N_2 
REMARK    3  A    between atoms: C_17  and  N_3 
REMARK    4  A    between atoms: C_4  and  S_16 
REMARK    5  A    between atoms: O_20  and  C_7 
REMARK    6  A    between atoms: C_19  and  C_13 
REMARK    7  A    between atoms: O_21  and  C_14 
REMARK    8  A    between atoms: S_16  and  C_19 
REMARK    9  A    between atoms: C_27  and  O_21 
ROOT
ATOM      1  S   UNL d   1       0.226   3.566   0.829  0.00  0.00    -0.086 SA
ENDROOT
BRANCH   1   2
ATOM      2  C   UNL d   1       1.801   3.371   0.123  0.00  0.00     0.169 A 
ATOM      3  N   UNL d   1       2.925   2.875   0.771  0.00  0.00    -0.255 N 
ATOM      4  C   UNL d   1       3.914   2.997  -0.205  0.00  0.00     0.245 A 
ATOM      5  N   UNL d   1       3.441   3.583  -1.277  0.00  0.00    -0.263 N 
ATOM      6  N   UNL d   1       2.106   3.804  -1.079  0.00  0.00    -0.276 N 
ATOM      7  HN  UNL d   1       3.974   3.831  -2.111  1.00  0.00     0.190 HD
ATOM      8  HN  UNL d   1       1.461   4.228  -1.746  1.00  0.00     0.189 HD
BRANCH   3   9
ATOM      9  C   UNL d   1       3.085   2.339   2.090  0.00  0.00     0.045 A 
ATOM     10  C   UNL d   1       2.036   1.674   2.741  0.00  0.00     0.030 A 
ATOM     11  C   UNL d   1       2.226   1.053   3.977  0.00  0.00     0.002 A 
ATOM     12  C   UNL d   1       3.469   1.104   4.594  0.00  0.00     0.000 A 
ATOM     13  C   UNL d   1       4.513   1.788   3.980  0.00  0.00     0.002 A 
ATOM     14  C   UNL d   1       4.327   2.406   2.738  0.00  0.00     0.030 A 
ENDBRANCH   3   9
BRANCH   4  15
ATOM     15  O   UNL d   1       5.147   2.506  -0.156  0.00  0.00    -0.331 OA
ATOM     16  H   UNL d   1       5.131   1.731   0.431  0.00  0.00     0.221 HD
ENDBRANCH   4  15
ENDBRANCH   1   2
BRANCH   1  17
ATOM     17  C   UNL d   1      -0.724   2.392  -0.176  0.00  0.00     0.141 C 
BRANCH  17  18
ATOM     18  C   UNL d   1      -0.353   0.940  -0.033  0.00  0.00     0.038 A 
ATOM     19  C   UNL d   1      -1.237  -0.138   0.131  0.00  0.00     0.065 A 
ATOM     20  C   UNL d   1      -0.484  -1.297  -0.013  0.00  0.00     0.128 A 
ATOM     21  N   UNL d   1       0.827  -0.870  -0.107  0.00  0.00    -0.277 N 
ATOM     22  N   UNL d   1       0.901   0.492  -0.144  0.00  0.00    -0.301 N 
ATOM     23  HN  UNL d   1       1.746   1.056  -0.239  1.00  0.00     0.187 HD
BRANCH  20  24
ATOM     24  C   UNL d   1      -1.029  -2.625  -0.156  0.00  0.00     0.311 C 
ATOM     25  O   UNL d   1      -0.563  -3.537  -0.817  0.00  0.00    -0.258 OA
BRANCH  24  26
ATOM     26  O   UNL d   1      -2.241  -2.686   0.471  0.00  0.00    -0.317 OA
BRANCH  26  27
ATOM     27  C   UNL d   1      -3.042  -3.826   0.126  0.00  0.00     0.175 C 
ATOM     28  C   UNL d   1      -3.760  -3.548  -1.184  0.00  0.00     0.034 C 
ENDBRANCH  26  27
ENDBRANCH  24  26
ENDBRANCH  20  24
BRANCH  21  29
ATOM     29  C   UNL d   1       2.124  -1.588  -0.145  0.00  0.00     0.043 C 
ATOM     30  C   UNL d   1       2.072  -3.124  -0.137  0.00  0.00     0.039 C 
ATOM     31  C   UNL d   1       2.898  -1.155  -1.411  0.00  0.00     0.039 C 
ATOM     32  C   UNL d   1       2.966  -1.202   1.092  0.00  0.00     0.039 C 
ENDBRANCH  21  29
ENDBRANCH  17  18
ENDBRANCH   1  17
TORSDOF 9
