REMARK  3 active torsions:
REMARK  status: ('A' for Active; 'I' for Inactive)
REMARK    1  A    between atoms: C_6  and  C_1 
REMARK       I    between atoms: N_9  and  C_6 
REMARK    2  A    between atoms: C_7  and  N_8 
REMARK    3  A    between atoms: N_8  and  N_9 
ROOT
ATOM      1  C   UNL d   1      -0.623  -2.680  -0.001  0.00  0.00     0.289 C 
ATOM      2  N   UNL d   1      -1.874  -3.070   0.436  0.00  0.00    -0.264 N 
ATOM      3  O   UNL d   1       0.184  -3.486  -0.458  0.00  0.00    -0.264 OA
ATOM      4  H   UNL d   1      -2.380  -2.475   1.079  0.00  0.00     0.190 HD
ENDROOT
BRANCH   2   5
ATOM      5  N   UNL d   1      -2.084  -4.437   0.625  0.00  0.00    -0.295 N 
ATOM      6  H   UNL d   1      -1.233  -5.000   0.482  0.00  0.00     0.187 HD
BRANCH   5   7
ATOM      7  C   UNL d   1      -3.224  -5.076   0.053  0.00  0.00     0.091 A 
ATOM      8  C   UNL d   1      -4.300  -4.462  -0.622  0.00  0.00     0.063 A 
ATOM      9 CL   UNL d   1      -4.340  -2.801  -1.103  0.00  0.00    -0.082 Cl
ATOM     10  C   UNL d   1      -5.436  -5.202  -1.004  0.00  0.00     0.026 A 
ATOM     11  C   UNL d   1      -5.538  -6.562  -0.725  0.00  0.00     0.003 A 
ATOM     12  C   UNL d   1      -4.493  -7.200  -0.077  0.00  0.00     0.026 A 
ATOM     13  C   UNL d   1      -3.356  -6.469   0.305  0.00  0.00     0.063 A 
ATOM     14 CL   UNL d   1      -2.107  -7.349   1.127  0.00  0.00    -0.082 Cl
ENDBRANCH   5   7
ENDBRANCH   2   5
BRANCH   1  15
ATOM     15  C   UNL d   1      -0.293  -1.224   0.170  0.00  0.00     0.138 C 
ATOM     16  C   UNL d   1       0.966  -0.763   0.097  0.00  0.00     0.050 C 
ATOM     17  C   UNL d   1       0.853   0.707   0.215  0.00  0.00     0.313 C 
ATOM     18  C   UNL d   1       2.304  -1.378  -0.061  0.00  0.00     0.057 C 
ATOM     19  O   UNL d   1       1.770   1.503   0.125  0.00  0.00    -0.258 OA
ATOM     20  O   UNL d   1      -0.468   1.016   0.413  0.00  0.00    -0.192 OA
ATOM     21  N   UNL d   1      -1.176  -0.195   0.469  0.00  0.00    -0.247 N 
ATOM     22  C   UNL d   1      -2.565  -0.009   0.108  0.00  0.00     0.186 C 
ENDBRANCH   1  15
TORSDOF 3
