REMARK  3 active torsions:
REMARK  status: ('A' for Active; 'I' for Inactive)
REMARK    1  A    between atoms: N_7  and  C_1 
REMARK    2  A    between atoms: N_4  and  N_7 
REMARK    3  A    between atoms: C_11  and  C_9 
ROOT
ATOM      1  N   UNL d   1      -8.749  -0.789  -2.054  0.00  0.00    -0.191 NA
ATOM      2  C   UNL d   1      -7.588  -0.778  -2.082  0.00  0.00     0.099 C 
ATOM      3  C   UNL d   1      -6.156  -0.768  -2.113  0.00  0.00     0.044 A 
ATOM      4  C   UNL d   1      -3.360  -0.765  -2.153  0.00  0.00    -0.019 A 
ATOM      5  C   UNL d   1      -5.464  -1.840  -2.687  0.00  0.00     0.023 A 
ATOM      6  C   UNL d   1      -5.444   0.308  -1.567  0.00  0.00     0.023 A 
ATOM      7  C   UNL d   1      -4.069  -1.838  -2.707  0.00  0.00     0.014 A 
ATOM      8  C   UNL d   1      -4.045   0.313  -1.587  0.00  0.00     0.014 A 
ENDROOT
BRANCH   4   9
ATOM      9  C   UNL d   1      -1.883  -0.775  -2.155  0.00  0.00     0.118 C 
ATOM     10  N   UNL d   1      -1.235  -1.784  -2.641  0.00  0.00    -0.309 N 
ATOM     11  HN  UNL d   1      -1.712  -2.592  -3.041  1.00  0.00     0.186 HD
BRANCH  10  12
ATOM     12  N   UNL d   1       0.125  -1.701  -2.586  0.00  0.00    -0.277 N 
ATOM     13  H   UNL d   1       0.585  -0.885  -2.195  0.00  0.00     0.189 HD
BRANCH  12  14
ATOM     14  C   UNL d   1       0.902  -2.727  -3.054  0.00  0.00     0.184 C 
ATOM     15  S   UNL d   1       2.558  -2.684  -3.014  0.00  0.00    -0.040 SA
ATOM     16  N   UNL d   1       0.220  -3.786  -3.552  0.00  0.00    -0.375 N 
ATOM     17  H   UNL d   1       0.688  -4.588  -3.946  0.00  0.00     0.158 HD
ATOM     18  H   UNL d   1      -0.790  -3.710  -3.568  0.00  0.00     0.158 HD
ENDBRANCH  12  14
ENDBRANCH  10  12
ENDBRANCH   4   9
TORSDOF 3
