REMARK  6 active torsions:
REMARK  status: ('A' for Active; 'I' for Inactive)
REMARK    1  A    between atoms: C_8  and  C_1 
REMARK    2  A    between atoms: N_7  and  C_12 
REMARK    3  A    between atoms: S_20  and  C_11 
REMARK    4  A    between atoms: C_18  and  C_22 
REMARK    5  A    between atoms: C_21  and  C_18 
REMARK    6  A    between atoms: C_22  and  S_20 
ROOT
ATOM      1  C   UNL d   1       2.081  -2.573  -0.015  0.00  0.00     0.065 A 
ATOM      2  N   UNL d   1       2.569  -3.152   1.098  0.00  0.00    -0.335 N 
ATOM      3  HN  UNL d   1       2.586  -2.662   1.993  1.00  0.00     0.168 HD
ATOM      4  C   UNL d   1       3.034  -4.406   0.972  0.00  0.00     0.145 A 
ATOM      5  N   UNL d   1       3.032  -5.113  -0.169  0.00  0.00    -0.347 N 
ATOM      6  HN  UNL d   1       3.385  -6.070  -0.209  1.00  0.00     0.167 HD
ATOM      7  C   UNL d   1       2.051  -3.214  -1.236  0.00  0.00     0.049 A 
ATOM      8  C   UNL d   1       2.541  -4.495  -1.255  0.00  0.00     0.092 A 
ENDROOT
BRANCH   4   9
ATOM      9  S   UNL d   1       3.659  -5.185   2.441  0.00  0.00    -0.086 SA
BRANCH   9  10
ATOM     10  C   UNL d   1       4.342  -6.706   1.713  0.00  0.00     0.166 C 
BRANCH  10  11
ATOM     11  C   UNL d   1       4.876  -7.606   2.805  0.00  0.00     0.169 C 
ATOM     12  O   UNL d   1       6.076  -7.624   3.083  0.00  0.00    -0.291 OA
BRANCH  11  13
ATOM     13  C   UNL d   1       3.945  -8.502   3.567  0.00  0.00     0.011 A 
ATOM     14  C   UNL d   1       2.572  -8.589   3.292  0.00  0.00     0.017 A 
ATOM     15  C   UNL d   1       1.744  -9.413   4.065  0.00  0.00     0.037 A 
ATOM     16  C   UNL d   1       2.289 -10.153   5.122  0.00  0.00     0.102 A 
ATOM     17  C   UNL d   1       3.660 -10.096   5.393  0.00  0.00     0.037 A 
ATOM     18  C   UNL d   1       4.481  -9.273   4.614  0.00  0.00     0.017 A 
BRANCH  16  19
ATOM     19  N   UNL d   1       1.412 -10.980   5.962  0.00  0.00    -0.116 N 
ATOM     20  O   UNL d   1       0.201 -10.985   5.698  0.00  0.00    -0.532 OA
ATOM     21  O   UNL d   1       1.933 -11.618   6.887  0.00  0.00    -0.532 OA
ENDBRANCH  16  19
ENDBRANCH  11  13
ENDBRANCH  10  11
ENDBRANCH   9  10
ENDBRANCH   4   9
BRANCH   1  22
ATOM     22  C   UNL d   1       1.549  -1.222   0.149  0.00  0.00     0.089 A 
ATOM     23  N   UNL d   1       2.144  -0.204   0.888  0.00  0.00    -0.304 N 
ATOM     24  C   UNL d   1       1.329   0.920   0.755  0.00  0.00     0.112 A 
ATOM     25  C   UNL d   1       3.333  -0.175   1.627  0.00  0.00     0.099 A 
ATOM     26  C   UNL d   1       1.732   2.115   1.416  0.00  0.00     0.049 A 
ATOM     27  N   UNL d   1       0.282   0.678   0.001  0.00  0.00    -0.344 N 
ATOM     28  C   UNL d   1       2.872   2.136   2.129  0.00  0.00     0.005 A 
ATOM     29  C   UNL d   1       3.711   0.956   2.245  0.00  0.00     0.018 A 
ATOM     30  C   UNL d   1       0.394  -0.637  -0.372  0.00  0.00     0.036 A 
ATOM     31  HN  UNL d   1      -0.458   1.331  -0.254  1.00  0.00     0.167 HD
ATOM     32  C   UNL d   1      -0.673  -1.230  -1.215  0.00  0.00     0.070 C 
ENDBRANCH   1  22
TORSDOF 6
