REMARK  2 active torsions:
REMARK  status: ('A' for Active; 'I' for Inactive)
REMARK       I    between atoms: C_3  and  N_1 
REMARK    1  A    between atoms: C_5  and  C_3 
REMARK    2  A    between atoms: C_21  and  C_10 
ROOT
ATOM      1  N   UNL d   1      -1.153  -0.540  -0.983  0.00  0.00    -0.216 N 
ATOM      2  C   UNL d   1      -0.325  -1.235  -0.106  0.00  0.00     0.097 C 
ATOM      3  C   UNL d   1      -2.497  -0.807  -1.356  0.00  0.00     0.303 C 
ATOM      4  C   UNL d   1      -0.552  -2.545   0.425  0.00  0.00     0.130 A 
ATOM      5  C   UNL d   1      -1.230  -3.620  -0.109  0.00  0.00     0.074 A 
ATOM      6  N   UNL d   1      -0.312  -4.282   1.844  0.00  0.00    -0.260 N 
ATOM      7  HN  UNL d   1      -0.026  -4.842   2.647  1.00  0.00     0.195 HD
ATOM      8  O   UNL d   1       0.009  -2.963   1.601  0.00  0.00    -0.235 OA
ATOM      9  C   UNL d   1      -1.074  -4.682   0.817  0.00  0.00     0.068 A 
ATOM     10  N   UNL d   1      -0.513   0.561  -1.490  0.00  0.00    -0.302 N 
ATOM     11  HN  UNL d   1      -0.830   1.179  -2.237  1.00  0.00     0.186 HD
ATOM     12  C   UNL d   1       0.783  -0.435   0.089  0.00  0.00     0.053 C 
ATOM     13  O   UNL d   1      -3.148  -1.502  -0.576  0.00  0.00    -0.263 OA
ATOM     14  C   UNL d   1       0.619   0.643  -0.787  0.00  0.00     0.110 C 
ENDROOT
BRANCH   3  15
ATOM     15  C   UNL d   1      -3.055  -0.330  -2.602  0.00  0.00     0.169 A 
ATOM     16  O   UNL d   1      -4.382  -0.577  -2.819  0.00  0.00    -0.233 OA
ATOM     17  N   UNL d   1      -4.740  -0.142  -4.083  0.00  0.00    -0.272 N 
ATOM     18  C   UNL d   1      -3.625   0.362  -4.612  0.00  0.00     0.117 A 
ATOM     19  HN  UNL d   1      -5.661  -0.196  -4.518  1.00  0.00     0.194 HD
ATOM     20  C   UNL d   1      -2.539   0.281  -3.724  0.00  0.00     0.064 A 
ENDBRANCH   3  15
BRANCH   9  21
ATOM     21  C   UNL d   1      -1.607  -6.040   0.724  0.00  0.00    -0.007 A 
ATOM     22  C   UNL d   1      -0.933  -7.107   1.334  0.00  0.00     0.014 A 
ATOM     23  C   UNL d   1      -1.436  -8.408   1.253  0.00  0.00     0.001 A 
ATOM     24  C   UNL d   1      -2.622  -8.654   0.564  0.00  0.00     0.000 A 
ATOM     25  C   UNL d   1      -3.301  -7.604  -0.049  0.00  0.00     0.001 A 
ATOM     26  C   UNL d   1      -2.797  -6.302   0.028  0.00  0.00     0.014 A 
ENDBRANCH   9  21
TORSDOF 2
