REMARK  2 active torsions:
REMARK  status: ('A' for Active; 'I' for Inactive)
REMARK    1  A    between atoms: C_2  and  S_1 
REMARK    2  A    between atoms: C_12  and  C_3 
ROOT
ATOM      1  C   UNL d   1       0.882  -0.094   2.276  0.00  0.00     0.139 C 
ATOM      2  C   UNL d   1      -0.398   0.321   2.302  0.00  0.00     0.046 C 
ATOM      3  C   UNL d   1       1.969   0.681   1.803  0.00  0.00     0.111 C 
ATOM      4  N   UNL d   1       2.847   1.317   1.389  0.00  0.00    -0.191 NA
ENDROOT
BRANCH   1   5
ATOM      5  S   UNL d   1       1.243  -1.705   2.832  0.00  0.00     0.181 S 
ATOM      6  O   UNL d   1       0.183  -2.174   3.708  0.00  0.00    -0.222 OA
ATOM      7  O   UNL d   1       2.623  -1.780   3.274  0.00  0.00    -0.222 OA
ATOM      8  C   UNL d   1       1.125  -2.659   1.337  0.00  0.00     0.168 C 
ENDBRANCH   1   5
BRANCH   2   9
ATOM      9  C   UNL d   1      -0.870   1.625   1.823  0.00  0.00    -0.034 A 
ATOM     10  C   UNL d   1      -0.921   2.733   2.678  0.00  0.00     0.021 A 
ATOM     11  C   UNL d   1      -1.418   3.968   2.220  0.00  0.00    -0.024 A 
ATOM     12  C   UNL d   1      -1.494   5.145   3.149  0.00  0.00     0.044 C 
ATOM     13  C   UNL d   1      -1.821   4.088   0.889  0.00  0.00     0.076 A 
ATOM     14  C   UNL d   1      -2.442   6.201   2.591  0.00  0.00     0.042 C 
ATOM     15  C   UNL d   1      -2.180   6.450   1.097  0.00  0.00     0.061 C 
ATOM     16  O   UNL d   1      -2.300   5.240   0.329  0.00  0.00    -0.340 OA
ATOM     17  C   UNL d   1      -3.255   7.396   0.548  0.00  0.00     0.046 C 
ATOM     18  C   UNL d   1      -0.802   7.077   0.836  0.00  0.00     0.046 C 
ATOM     19  C   UNL d   1      -1.778   2.983   0.040  0.00  0.00     0.038 A 
ATOM     20  C   UNL d   1      -1.307   1.755   0.503  0.00  0.00     0.014 A 
ENDBRANCH   2   9
TORSDOF 2
