REMARK  6 active torsions:
REMARK  status: ('A' for Active; 'I' for Inactive)
REMARK    1  A    between atoms: C_2  and  S_1 
REMARK    2  A    between atoms: N_8  and  S_1 
REMARK    3  A    between atoms: C_3  and  C_5 
REMARK    4  A    between atoms: C_4  and  C_6 
REMARK    5  A    between atoms: C_24  and  N_8 
REMARK    6  A    between atoms: C_16  and  C_24 
ROOT
ATOM      1  C   UNL d   1       0.231  -1.358  -5.786  0.00  0.00     0.049 A 
ATOM      2  C   UNL d   1      -0.730   0.867  -6.085  0.00  0.00     0.049 A 
ATOM      3  C   UNL d   1      -0.469  -0.425  -6.566  0.00  0.00     0.032 A 
ATOM      4  C   UNL d   1      -0.321   1.206  -4.783  0.00  0.00     0.024 A 
ATOM      5  C   UNL d   1       0.640  -0.991  -4.493  0.00  0.00     0.024 A 
ATOM      6  C   UNL d   1       0.360   0.285  -3.975  0.00  0.00    -0.043 A 
ENDROOT
BRANCH   6   7
ATOM      7  C   UNL d   1       0.853   0.683  -2.599  0.00  0.00     0.143 C 
BRANCH   7   8
ATOM      8  N   UNL d   1       0.422  -0.267  -1.569  0.00  0.00    -0.211 NA
ATOM      9  H   UNL d   1      -0.551  -0.570  -1.633  0.00  0.00     0.140 HD
BRANCH   8  10
ATOM     10  S   UNL d   1       0.870   0.082   0.021  0.00  0.00     0.244 S 
ATOM     11  O   UNL d   1       0.666  -1.112   0.809  0.00  0.00    -0.206 OA
ATOM     12  O   UNL d   1       2.147   0.754  -0.022  0.00  0.00    -0.206 OA
BRANCH  10  13
ATOM     13  C   UNL d   1      -0.339   1.258   0.545  0.00  0.00     0.113 A 
ATOM     14  C   UNL d   1      -1.672   0.863   0.618  0.00  0.00     0.142 A 
ATOM     15  C   UNL d   1      -2.644   1.741   1.084  0.00  0.00     0.086 A 
ATOM     16  F   UNL d   1      -2.050  -0.357   0.215  0.00  0.00    -0.204 F 
ATOM     17  C   UNL d   1      -2.267   3.021   1.472  0.00  0.00     0.119 A 
ATOM     18  C   UNL d   1      -0.937   3.431   1.405  0.00  0.00     0.044 A 
ATOM     19  F   UNL d   1      -3.197   3.875   1.917  0.00  0.00    -0.206 F 
ATOM     20  C   UNL d   1       0.039   2.545   0.944  0.00  0.00     0.031 A 
ENDBRANCH  10  13
ENDBRANCH   8  10
ENDBRANCH   7   8
ENDBRANCH   6   7
BRANCH   2  21
ATOM     21  C   UNL d   1      -1.392   1.904  -6.962  0.00  0.00     0.417 C 
ATOM     22  F   UNL d   1      -1.680   1.455  -8.215  0.00  0.00    -0.166 F 
ATOM     23  F   UNL d   1      -2.566   2.356  -6.443  0.00  0.00    -0.166 F 
ATOM     24  F   UNL d   1      -0.608   3.005  -7.131  0.00  0.00    -0.166 F 
ENDBRANCH   2  21
BRANCH   1  25
ATOM     25  C   UNL d   1       0.585  -2.721  -6.337  0.00  0.00     0.417 C 
ATOM     26  F   UNL d   1       0.125  -2.928  -7.602  0.00  0.00    -0.166 F 
ATOM     27  F   UNL d   1       1.930  -2.920  -6.394  0.00  0.00    -0.166 F 
ATOM     28  F   UNL d   1       0.083  -3.737  -5.585  0.00  0.00    -0.166 F 
ENDBRANCH   1  25
TORSDOF 6
