REMARK  2 active torsions:
REMARK  status: ('A' for Active; 'I' for Inactive)
REMARK    1  A    between atoms: C_4  and  C_1 
REMARK    2  A    between atoms: O_8  and  C_4 
ROOT
ATOM      1  C   UNL d   1       2.163  -0.952  -0.002  0.00  0.00     0.081 A 
ATOM      2  S   UNL d   1       1.800   0.716   0.005  0.00  0.00    -0.084 SA
ATOM      3  C   UNL d   1       1.005  -1.707  -0.003  0.00  0.00     0.038 A 
ATOM      4  C   UNL d   1       0.099   0.442   0.003  0.00  0.00     0.016 A 
ATOM      5  C   UNL d   1      -0.193  -0.923  -0.002  0.00  0.00    -0.018 A 
ATOM      6  C   UNL d   1      -0.924   1.410   0.006  0.00  0.00     0.019 A 
ATOM      7  C   UNL d   1      -1.550  -1.323  -0.006  0.00  0.00     0.013 A 
ATOM      8  C   UNL d   1      -2.568  -0.366  -0.005  0.00  0.00     0.001 A 
ATOM      9  C   UNL d   1      -2.257   0.986   0.001  0.00  0.00     0.001 A 
ENDROOT
BRANCH   1  10
ATOM     10  C   UNL d   1       3.515  -1.480  -0.006  0.00  0.00     0.299 C 
ATOM     11  O   UNL d   1       3.786  -2.677  -0.006  0.00  0.00    -0.259 OA
BRANCH  10  12
ATOM     12  O   UNL d   1       4.457  -0.492  -0.012  0.00  0.00    -0.322 OA
ATOM     13  C   UNL d   1       5.799  -0.980  -0.023  0.00  0.00     0.213 C 
ENDBRANCH  10  12
ENDBRANCH   1  10
TORSDOF 2
