REMARK  6 active torsions:
REMARK  status: ('A' for Active; 'I' for Inactive)
REMARK    1  A    between atoms: C_4  and  C_1 
REMARK       I    between atoms: C_2  and  N_5 
REMARK       I    between atoms: N_7  and  C_2 
REMARK    2  A    between atoms: O_6  and  C_3 
REMARK    3  A    between atoms: N_5  and  C_4 
REMARK    4  A    between atoms: C_10  and  O_6 
REMARK    5  A    between atoms: C_11  and  N_7 
REMARK    6  A    between atoms: O_25  and  C_14 
ROOT
ATOM      1  C   UNL d   1       0.430   1.118  -0.193  0.00  0.00     0.015 A 
ATOM      2  C   UNL d   1       1.805   0.863  -0.380  0.00  0.00     0.085 A 
ATOM      3  C   UNL d   1      -0.418   0.024   0.072  0.00  0.00     0.044 A 
ATOM      4 CL   UNL d   1      -2.113   0.230   0.362  0.00  0.00    -0.084 Cl
ATOM      5  C   UNL d   1       2.275  -0.461  -0.412  0.00  0.00     0.038 A 
ATOM      6  C   UNL d   1       1.415  -1.528  -0.167  0.00  0.00     0.004 A 
ATOM      7  C   UNL d   1       0.072  -1.283   0.095  0.00  0.00     0.024 A 
ENDROOT
BRANCH   1   8
ATOM      8  C   UNL d   1      -0.122   2.514  -0.332  0.00  0.00     0.167 C 
BRANCH   8   9
ATOM      9  N   UNL d   1      -0.391   3.153   0.939  0.00  0.00    -0.338 N 
ATOM     10  C   UNL d   1      -1.036   4.335   1.172  0.00  0.00     0.320 C 
ATOM     11  N   UNL d   1      -1.736   4.853   0.115  0.00  0.00    -0.309 N 
ATOM     12  O   UNL d   1      -0.929   4.833   2.289  0.00  0.00    -0.247 OA
ATOM     13  H   UNL d   1      -1.829   4.261  -0.693  0.00  0.00     0.170 HD
ATOM     14  H   UNL d   1       0.181   2.881   1.728  0.00  0.00     0.164 HD
BRANCH  11  15
ATOM     15  C   UNL d   1      -2.424   6.082   0.042  0.00  0.00     0.036 A 
ATOM     16  C   UNL d   1      -2.471   7.017   1.077  0.00  0.00     0.031 A 
ATOM     17  C   UNL d   1      -3.160   8.225   0.912  0.00  0.00     0.026 A 
ATOM     18  C   UNL d   1      -3.803   8.503  -0.290  0.00  0.00     0.034 A 
ATOM     19  C   UNL d   1      -3.769   7.579  -1.330  0.00  0.00     0.026 A 
ATOM     20 CL   UNL d   1      -4.636   9.994  -0.498  0.00  0.00    -0.084 Cl
ATOM     21  C   UNL d   1      -3.084   6.372  -1.162  0.00  0.00     0.031 A 
ENDBRANCH  11  15
ENDBRANCH   8   9
ENDBRANCH   1   8
BRANCH   2  22
ATOM     22  O   UNL d   1       2.627   1.966  -0.562  0.00  0.00    -0.310 OA
BRANCH  22  23
ATOM     23  C   UNL d   1       3.988   1.781  -0.505  0.00  0.00     0.076 A 
ATOM     24  C   UNL d   1       4.727   2.073  -1.649  0.00  0.00     0.040 A 
ATOM     25  C   UNL d   1       6.097   1.800  -1.681  0.00  0.00     0.039 A 
ATOM     26  C   UNL d   1       6.725   1.239  -0.566  0.00  0.00     0.068 A 
ATOM     27  C   UNL d   1       5.991   1.034   0.606  0.00  0.00     0.039 A 
ATOM     28  C   UNL d   1       4.625   1.322   0.648  0.00  0.00     0.040 A 
BRANCH  26  29
ATOM     29  O   UNL d   1       8.037   0.858  -0.499  0.00  0.00    -0.356 OA
ATOM     30  C   UNL d   1       8.729   0.755  -1.738  0.00  0.00     0.210 C 
ENDBRANCH  26  29
ENDBRANCH  22  23
ENDBRANCH   2  22
TORSDOF 6
