REMARK  6 active torsions:
REMARK  status: ('A' for Active; 'I' for Inactive)
REMARK    1  A    between atoms: N_2  and  C_1 
REMARK    2  A    between atoms: C_3  and  C_6 
REMARK    3  A    between atoms: S_7  and  C_3 
REMARK    4  A    between atoms: O_9  and  C_5 
REMARK    5  A    between atoms: C_14  and  S_7 
REMARK    6  A    between atoms: C_15  and  O_9 
ROOT
ATOM      1  C   UNL d   1       1.465  -0.465   0.364  0.00  0.00     0.137 A 
ATOM      2  C   UNL d   1       0.470  -1.453   0.362  0.00  0.00     0.055 A 
ATOM      3  C   UNL d   1       1.144   0.892   0.281  0.00  0.00     0.109 A 
ATOM      4  C   UNL d   1      -0.880  -1.077   0.323  0.00  0.00     0.024 A 
ATOM      5  C   UNL d   1      -0.207   1.258   0.312  0.00  0.00     0.041 A 
ATOM      6  C   UNL d   1      -1.214   0.284   0.336  0.00  0.00     0.019 A 
ENDROOT
BRANCH   4   7
ATOM      7  C   UNL d   1      -1.903  -2.159   0.299  0.00  0.00     0.224 C 
ATOM      8  O   UNL d   1      -1.638  -3.254   0.777  0.00  0.00    -0.279 OA
BRANCH   7   9
ATOM      9  S   UNL d   1      -3.378  -1.843  -0.598  0.00  0.00    -0.048 SA
BRANCH   9  10
ATOM     10  C   UNL d   1      -4.711  -2.369   0.463  0.00  0.00     0.008 A 
ATOM     11  C   UNL d   1      -5.937  -1.698   0.329  0.00  0.00     0.021 A 
ATOM     12  C   UNL d   1      -7.056  -2.084   1.075  0.00  0.00     0.025 A 
ATOM     13  C   UNL d   1      -6.957  -3.149   1.965  0.00  0.00     0.034 A 
ATOM     14  C   UNL d   1      -5.751  -3.827   2.111  0.00  0.00     0.025 A 
ATOM     15 CL   UNL d   1      -8.333  -3.639   2.872  0.00  0.00    -0.084 Cl
ATOM     16  C   UNL d   1      -4.635  -3.442   1.357  0.00  0.00     0.021 A 
ENDBRANCH   9  10
ENDBRANCH   7   9
ENDBRANCH   4   7
BRANCH   1  17
ATOM     17  N   UNL d   1       2.841  -0.908   0.494  0.00  0.00    -0.113 N 
ATOM     18  O   UNL d   1       3.229  -1.760  -0.319  0.00  0.00    -0.532 OA
ATOM     19  O   UNL d   1       3.503  -0.444   1.427  0.00  0.00    -0.532 OA
ENDBRANCH   1  17
BRANCH   3  20
ATOM     20  O   UNL d   1       2.025   1.944   0.261  0.00  0.00    -0.308 OA
BRANCH  20  21
ATOM     21  C   UNL d   1       3.048   1.982  -0.661  0.00  0.00     0.076 A 
ATOM     22  C   UNL d   1       3.090   1.274  -1.865  0.00  0.00     0.039 A 
ATOM     23  C   UNL d   1       4.231   1.340  -2.672  0.00  0.00     0.026 A 
ATOM     24  C   UNL d   1       5.303   2.152  -2.301  0.00  0.00     0.034 A 
ATOM     25  C   UNL d   1       5.237   2.914  -1.138  0.00  0.00     0.026 A 
ATOM     26 CL   UNL d   1       6.713   2.212  -3.284  0.00  0.00    -0.084 Cl
ATOM     27  C   UNL d   1       4.109   2.828  -0.321  0.00  0.00     0.039 A 
ENDBRANCH  20  21
ENDBRANCH   3  20
TORSDOF 6
