REMARK  3 active torsions:
REMARK  status: ('A' for Active; 'I' for Inactive)
REMARK    1  A    between atoms: C_6  and  C_1 
REMARK    2  A    between atoms: C_4  and  C_16 
REMARK       I    between atoms: N_17  and  C_6 
REMARK    3  A    between atoms: N_14  and  N_17 
ROOT
ATOM      1  N   UNL d   1      -3.972   0.526  -0.100  0.00  0.00    -0.307 N 
ATOM      2  HN  UNL d   1      -3.133   1.101  -0.186  1.00  0.00     0.186 HD
ATOM      3  C   UNL d   1      -5.145   1.065  -0.084  0.00  0.00     0.139 C 
ENDROOT
BRANCH   1   4
ATOM      4  N   UNL d   1      -3.883  -0.832   0.002  0.00  0.00    -0.265 N 
ATOM      5  C   UNL d   1      -2.621  -1.414  -0.000  0.00  0.00     0.288 C 
ATOM      6  O   UNL d   1      -1.569  -0.784  -0.104  0.00  0.00    -0.264 OA
ATOM      7  H   UNL d   1      -4.707  -1.419   0.098  0.00  0.00     0.190 HD
BRANCH   5   8
ATOM      8  C   UNL d   1      -2.607  -2.869   0.129  0.00  0.00     0.126 A 
ATOM      9  N   UNL d   1      -3.721  -3.613   0.257  0.00  0.00    -0.256 N 
ATOM     10  O   UNL d   1      -3.283  -4.929   0.347  0.00  0.00    -0.242 OA
ATOM     11  HN  UNL d   1      -4.685  -3.281   0.283  1.00  0.00     0.195 HD
ATOM     12  C   UNL d   1      -1.925  -4.966   0.272  0.00  0.00     0.075 A 
ATOM     13  C   UNL d   1      -1.449  -3.689   0.138  0.00  0.00     0.071 A 
ATOM     14  C   UNL d   1      -1.279  -6.289   0.341  0.00  0.00     0.079 C 
ENDBRANCH   5   8
ENDBRANCH   1   4
BRANCH   3  15
ATOM     15  C   UNL d   1      -5.262   2.513  -0.172  0.00  0.00     0.088 A 
ATOM     16  C   UNL d   1      -4.250   3.503  -0.323  0.00  0.00     0.080 A 
ATOM     17  C   UNL d   1      -4.912   4.706  -0.322  0.00  0.00     0.133 A 
ATOM     18 CL   UNL d   1      -2.573   3.298  -0.472  0.00  0.00    -0.080 Cl
ATOM     19  N   UNL d   1      -6.230   4.406  -0.186  0.00  0.00    -0.310 N 
ATOM     20  N   UNL d   1      -6.481   3.087  -0.098  0.00  0.00    -0.298 N 
ATOM     21  H   UNL d   1      -7.015   5.049  -0.143  0.00  0.00     0.186 HD
ATOM     22  HN  UNL d   1      -7.385   2.626   0.001  1.00  0.00     0.187 HD
ENDBRANCH   3  15
TORSDOF 3
