REMARK  4 active torsions:
REMARK  status: ('A' for Active; 'I' for Inactive)
REMARK    1  A    between atoms: C_4  and  C_1 
REMARK    2  A    between atoms: C_2  and  C_4 
REMARK    3  A    between atoms: C_12  and  C_3 
REMARK    4  A    between atoms: O_17  and  C_5 
ROOT
ATOM      1  C   UNL d   1      -1.918  -3.387   0.164  0.00  0.00     0.076 C 
ATOM      2  C   UNL d   1      -2.785  -3.302  -0.977  0.00  0.00     0.083 C 
ATOM      3  N   UNL d   1      -3.853  -4.096  -0.791  0.00  0.00    -0.259 N 
ATOM      4  HN  UNL d   1      -4.583  -4.299  -1.474  1.00  0.00     0.195 HD
ATOM      5  O   UNL d   1      -3.776  -4.580   0.487  0.00  0.00    -0.241 OA
ATOM      6  C   UNL d   1      -2.636  -4.145   1.073  0.00  0.00     0.089 C 
ATOM      7  C   UNL d   1      -2.448  -4.572   2.476  0.00  0.00     0.080 C 
ENDROOT
BRANCH   1   8
ATOM      8  C   UNL d   1      -0.612  -2.784   0.371  0.00  0.00     0.203 C 
ATOM      9  O   UNL d   1      -0.356  -1.653  -0.028  0.00  0.00    -0.286 OA
BRANCH   8  10
ATOM     10  C   UNL d   1       0.381  -3.595   1.064  0.00  0.00     0.091 C 
ATOM     11  C   UNL d   1       0.543  -4.975   1.069  0.00  0.00     0.173 C 
ATOM     12  N   UNL d   1       1.536  -5.228   1.982  0.00  0.00    -0.275 N 
ATOM     13  C   UNL d   1       1.953  -6.516   2.484  0.00  0.00     0.180 C 
ATOM     14  N   UNL d   1       2.127  -4.119   2.454  0.00  0.00    -0.300 N 
ATOM     15  C   UNL d   1       1.445  -3.118   1.885  0.00  0.00     0.040 C 
ATOM     16  HN  UNL d   1       2.916  -4.054   3.098  1.00  0.00     0.187 HD
ATOM     17  C   UNL d   1       1.825  -1.712   2.179  0.00  0.00     0.071 C 
BRANCH  11  18
ATOM     18  O   UNL d   1      -0.055  -5.980   0.433  0.00  0.00    -0.344 OA
ATOM     19  H   UNL d   1      -0.656  -5.638  -0.253  0.00  0.00     0.219 HD
ENDBRANCH  11  18
ENDBRANCH   8  10
ENDBRANCH   1   8
BRANCH   2  20
ATOM     20  C   UNL d   1      -2.611  -2.602  -2.255  0.00  0.00     0.015 A 
ATOM     21  C   UNL d   1      -3.667  -1.923  -2.898  0.00  0.00     0.046 A 
ATOM     22 CL   UNL d   1      -5.234  -1.706  -2.188  0.00  0.00    -0.083 Cl
ATOM     23  C   UNL d   1      -3.479  -1.345  -4.161  0.00  0.00     0.025 A 
ATOM     24  C   UNL d   1      -2.238  -1.409  -4.789  0.00  0.00     0.002 A 
ATOM     25  C   UNL d   1      -1.178  -2.047  -4.155  0.00  0.00     0.001 A 
ATOM     26  C   UNL d   1      -1.363  -2.645  -2.903  0.00  0.00     0.015 A 
ENDBRANCH   2  20
TORSDOF 4
