REMARK  3 active torsions:
REMARK  status: ('A' for Active; 'I' for Inactive)
REMARK    1  A    between atoms: C_2  and  S_1 
REMARK    2  A    between atoms: C_6  and  S_1 
REMARK    3  A    between atoms: C_11  and  C_6 
ROOT
ATOM      1  S   UNL d   1       0.940   0.014   0.156  0.00  0.00     0.181 S 
ATOM      2  O   UNL d   1       0.258  -0.063   1.433  0.00  0.00    -0.222 OA
ATOM      3  O   UNL d   1       2.385   0.174   0.110  0.00  0.00    -0.222 OA
ENDROOT
BRANCH   1   4
ATOM      4  C   UNL d   1       0.263   1.450  -0.661  0.00  0.00     0.081 A 
ATOM      5  C   UNL d   1      -1.103   1.602  -0.899  0.00  0.00     0.057 A 
ATOM      6  C   UNL d   1      -1.580   2.809  -1.425  0.00  0.00     0.049 A 
ATOM      7 CL   UNL d   1      -2.296   0.409  -0.548  0.00  0.00    -0.083 Cl
ATOM      8  C   UNL d   1      -0.714   3.878  -1.676  0.00  0.00     0.041 A 
ATOM      9  C   UNL d   1       0.657   3.750  -1.429  0.00  0.00    -0.039 A 
ATOM     10 CL   UNL d   1      -1.417   5.343  -2.262  0.00  0.00    -0.084 Cl
ATOM     11  C   UNL d   1       1.135   2.521  -0.933  0.00  0.00     0.033 A 
ATOM     12  C   UNL d   1       1.645   4.873  -1.599  0.00  0.00     0.050 C 
ENDBRANCH   1   4
BRANCH   1  13
ATOM     13  C   UNL d   1       0.531  -1.416  -0.839  0.00  0.00     0.184 C 
BRANCH  13  14
ATOM     14  C   UNL d   1       1.078  -2.656  -0.169  0.00  0.00    -0.041 A 
ATOM     15  C   UNL d   1       2.336  -3.165  -0.518  0.00  0.00     0.050 A 
ATOM     16  C   UNL d   1       2.830  -4.301   0.118  0.00  0.00     0.117 A 
ATOM     17  F   UNL d   1       4.034  -4.777  -0.228  0.00  0.00    -0.206 F 
ATOM     18  C   UNL d   1       2.097  -4.949   1.104  0.00  0.00     0.042 A 
ATOM     19  C   UNL d   1       0.847  -4.452   1.465  0.00  0.00     0.004 A 
ATOM     20  C   UNL d   1       0.340  -3.312   0.832  0.00  0.00     0.008 A 
ENDBRANCH  13  14
ENDBRANCH   1  13
TORSDOF 3
