REMARK  4 active torsions:
REMARK  status: ('A' for Active; 'I' for Inactive)
REMARK    1  A    between atoms: C_2  and  N_1 
REMARK    2  A    between atoms: O_10  and  C_6 
REMARK    3  A    between atoms: C_11  and  O_10 
REMARK    4  A    between atoms: O_18  and  C_13 
ROOT
ATOM      1  C   UNL d   1       0.828   5.823   1.534  0.00  0.00     0.118 A 
ATOM      2  N   UNL d   1       0.422   5.358  -0.788  0.00  0.00    -0.344 N 
ATOM      3  HN  UNL d   1       0.753   5.305  -1.751  1.00  0.00     0.167 HD
ATOM      4  C   UNL d   1      -0.850   5.018  -0.460  0.00  0.00     0.148 A 
ATOM      5  C   UNL d   1       1.234   5.770   0.212  0.00  0.00     0.126 A 
ATOM      6  C   UNL d   1      -0.467   5.412   1.866  0.00  0.00     0.041 A 
ATOM      7  C   UNL d   1      -1.324   4.997   0.844  0.00  0.00     0.059 A 
ENDROOT
BRANCH   4   8
ATOM      8  O   UNL d   1      -1.749   4.699  -1.470  0.00  0.00    -0.294 OA
BRANCH   8   9
ATOM      9  C   UNL d   1      -1.554   5.325  -2.684  0.00  0.00     0.078 A 
ATOM     10  C   UNL d   1      -1.709   4.557  -3.838  0.00  0.00     0.040 A 
ATOM     11  C   UNL d   1      -1.474   5.129  -5.095  0.00  0.00     0.039 A 
ATOM     12  C   UNL d   1      -1.089   6.468  -5.193  0.00  0.00     0.068 A 
ATOM     13  C   UNL d   1      -1.008   7.250  -4.041  0.00  0.00     0.039 A 
ATOM     14  C   UNL d   1      -1.253   6.684  -2.790  0.00  0.00     0.040 A 
BRANCH  12  15
ATOM     15  O   UNL d   1      -0.809   7.125  -6.359  0.00  0.00    -0.356 OA
ATOM     16  C   UNL d   1      -0.235   6.321  -7.384  0.00  0.00     0.210 C 
ENDBRANCH  12  15
ENDBRANCH   8   9
ENDBRANCH   4   8
BRANCH   1  17
ATOM     17  N   UNL d   1       1.746   6.329   2.544  0.00  0.00    -0.114 N 
ATOM     18  O   UNL d   1       2.854   6.729   2.171  0.00  0.00    -0.532 OA
ATOM     19  O   UNL d   1       1.356   6.333   3.721  0.00  0.00    -0.532 OA
ENDBRANCH   1  17
TORSDOF 4
