REMARK  2 active torsions:
REMARK  status: ('A' for Active; 'I' for Inactive)
REMARK    1  A    between atoms: N_2  and  S_1 
REMARK    2  A    between atoms: C_5  and  S_1 
REMARK       I    between atoms: C_3  and  N_2 
REMARK       I    between atoms: N_4  and  C_3 
ROOT
ATOM      1  N   UNL d   1       1.108  -0.729  -1.847  0.00  0.00    -0.113 N 
ATOM      2  C   UNL d   1       0.742   0.262  -2.749  0.00  0.00     0.683 C 
ATOM      3  N   UNL d   1       1.389   1.465  -2.636  0.00  0.00    -0.213 N 
ATOM      4  O   UNL d   1       2.204   4.159  -2.113  0.00  0.00    -0.378 OA
ATOM      5  N   UNL d   1      -0.186   0.061  -3.614  0.00  0.00    -0.234 N 
ATOM      6  HN  UNL d   1      -0.568   0.776  -4.232  1.00  0.00     0.174 HD
ATOM      7  C   UNL d   1       2.667   1.744  -1.965  0.00  0.00     0.172 C 
ATOM      8  C   UNL d   1       1.026   2.567  -3.557  0.00  0.00     0.172 C 
ATOM      9  C   UNL d   1       0.947   3.882  -2.759  0.00  0.00     0.136 C 
ATOM     10  C   UNL d   1       2.563   3.092  -1.215  0.00  0.00     0.136 C 
ATOM     11  C   UNL d   1       0.620   5.059  -3.667  0.00  0.00     0.041 C 
ATOM     12  C   UNL d   1       3.887   3.468  -0.565  0.00  0.00     0.041 C 
ATOM     13  H   UNL d   1       1.943  -0.616  -1.293  0.00  0.00     0.197 HD
ATOM     14  H   UNL d   1      -0.490  -0.919  -3.597  0.00  0.00     0.174 HD
ENDROOT
BRANCH   1  15
ATOM     15  S   UNL d   1       0.571  -2.302  -1.754  0.00  0.00     0.276 S 
ATOM     16  O   UNL d   1       1.643  -3.055  -1.145  0.00  0.00    -0.200 OA
ATOM     17  O   UNL d   1      -0.009  -2.687  -3.023  0.00  0.00    -0.200 OA
BRANCH  15  18
ATOM     18  C   UNL d   1      -0.767  -2.220  -0.578  0.00  0.00     0.082 A 
ATOM     19  C   UNL d   1      -2.050  -1.871  -1.014  0.00  0.00     0.050 A 
ATOM     20  C   UNL d   1      -3.135  -1.975  -0.136  0.00  0.00     0.057 A 
ATOM     21 CL   UNL d   1      -4.700  -1.558  -0.739  0.00  0.00    -0.083 Cl
ATOM     22  C   UNL d   1      -2.937  -2.431   1.174  0.00  0.00     0.055 A 
ATOM     23  C   UNL d   1      -1.649  -2.768   1.607  0.00  0.00     0.027 A 
ATOM     24 CL   UNL d   1      -4.236  -2.630   2.295  0.00  0.00    -0.083 Cl
ATOM     25  C   UNL d   1      -0.563  -2.667   0.732  0.00  0.00     0.027 A 
ENDBRANCH  15  18
ENDBRANCH   1  15
TORSDOF 2
