REMARK  1 active torsions:
REMARK  status: ('A' for Active; 'I' for Inactive)
REMARK    1  A    between atoms: N_12  and  N_3 
ROOT
ATOM      1  C   UNL d   1      -0.125  -0.763  -0.008  0.00  0.00     0.101 A 
ATOM      2  C   UNL d   1       1.111  -1.479   0.142  0.00  0.00     0.282 A 
ATOM      3  N   UNL d   1       2.205  -0.601   0.238  0.00  0.00    -0.237 N 
ATOM      4  N   UNL d   1       0.932   1.432   0.071  0.00  0.00    -0.350 N 
ATOM      5  HN  UNL d   1       0.881   2.450   0.036  1.00  0.00     0.166 HD
ATOM      6  C   UNL d   1      -0.193   0.603  -0.036  0.00  0.00     0.056 A 
ATOM      7  C   UNL d   1       2.047   0.781   0.218  0.00  0.00     0.204 A 
ATOM      8  S   UNL d   1      -1.655  -1.484  -0.125  0.00  0.00    -0.094 SA
ATOM      9  C   UNL d   1      -1.513   1.094  -0.142  0.00  0.00     0.038 A 
ATOM     10  C   UNL d   1      -2.423   0.056  -0.191  0.00  0.00     0.053 A 
ATOM     11  O   UNL d   1       1.235  -2.702   0.210  0.00  0.00    -0.265 OA
ENDROOT
BRANCH   3  12
ATOM     12  N   UNL d   1       3.497  -1.136   0.539  0.00  0.00    -0.234 NA
ATOM     13  C   UNL d   1       4.338  -1.205  -0.653  0.00  0.00     0.133 C 
ATOM     14  H   UNL d   1       3.336  -2.098   0.867  0.00  0.00     0.146 HD
ENDBRANCH   3  12
TORSDOF 1
