REMARK  4 active torsions:
REMARK  status: ('A' for Active; 'I' for Inactive)
REMARK    1  A    between atoms: C_6  and  C_1 
REMARK    2  A    between atoms: S_13  and  C_3 
REMARK       I    between atoms: N_8  and  C_6 
REMARK       I    between atoms: C_7  and  N_9 
REMARK       I    between atoms: N_10  and  C_7 
REMARK    3  A    between atoms: N_9  and  N_8 
REMARK    4  A    between atoms: C_16  and  N_10 
ROOT
ATOM      1  C   UNL d   1      -2.564  -2.035   0.237  0.00  0.00     0.277 C 
ATOM      2  N   UNL d   1      -2.101  -3.261   0.686  0.00  0.00    -0.261 N 
ATOM      3  O   UNL d   1      -3.771  -1.891   0.005  0.00  0.00    -0.265 OA
ATOM      4  H   UNL d   1      -1.111  -3.462   0.817  0.00  0.00     0.190 HD
ENDROOT
BRANCH   2   5
ATOM      5  N   UNL d   1      -2.994  -4.364   0.780  0.00  0.00    -0.248 N 
ATOM      6  C   UNL d   1      -2.457  -5.626   0.545  0.00  0.00     0.339 C 
ATOM      7  N   UNL d   1      -3.402  -6.630   0.675  0.00  0.00    -0.308 N 
ATOM      8  O   UNL d   1      -1.259  -5.769   0.319  0.00  0.00    -0.245 OA
ATOM      9  H   UNL d   1      -4.349  -6.331   0.857  0.00  0.00     0.170 HD
ATOM     10  H   UNL d   1      -3.938  -4.156   0.462  0.00  0.00     0.192 HD
BRANCH   7  11
ATOM     11  C   UNL d   1      -3.168  -8.028   0.685  0.00  0.00     0.036 A 
ATOM     12  C   UNL d   1      -1.896  -8.600   0.587  0.00  0.00     0.031 A 
ATOM     13  C   UNL d   1      -1.720  -9.986   0.674  0.00  0.00     0.026 A 
ATOM     14  C   UNL d   1      -2.820 -10.818   0.851  0.00  0.00     0.034 A 
ATOM     15  C   UNL d   1      -4.098 -10.272   0.925  0.00  0.00     0.026 A 
ATOM     16 CL   UNL d   1      -2.596 -12.517   0.991  0.00  0.00    -0.084 Cl
ATOM     17  C   UNL d   1      -4.271  -8.882   0.843  0.00  0.00     0.031 A 
ENDBRANCH   7  11
ENDBRANCH   2   5
BRANCH   1  18
ATOM     18  C   UNL d   1      -1.576  -0.968   0.057  0.00  0.00     0.082 A 
ATOM     19  S   UNL d   1       0.105  -1.272   0.232  0.00  0.00    -0.076 SA
ATOM     20  C   UNL d   1       0.542   0.344  -0.138  0.00  0.00     0.052 A 
ATOM     21  C   UNL d   1      -0.578   1.109  -0.389  0.00  0.00    -0.005 A 
ATOM     22  C   UNL d   1      -1.804   0.370  -0.259  0.00  0.00    -0.023 A 
ATOM     23  C   UNL d   1      -0.598   2.501  -0.723  0.00  0.00     0.010 A 
ATOM     24  C   UNL d   1      -3.150   1.027  -0.441  0.00  0.00     0.045 A 
ATOM     25  C   UNL d   1      -3.103   2.532  -0.787  0.00  0.00     0.032 A 
ATOM     26  C   UNL d   1      -1.747   3.165  -0.917  0.00  0.00    -0.025 A 
BRANCH  20  27
ATOM     27  S   UNL d   1       2.235   0.837  -0.077  0.00  0.00    -0.126 SA
ATOM     28  C   UNL d   1       2.579   1.194  -1.815  0.00  0.00     0.096 C 
ENDBRANCH  20  27
ENDBRANCH   1  18
TORSDOF 4
