REMARK  4 active torsions:
REMARK  status: ('A' for Active; 'I' for Inactive)
REMARK    1  A    between atoms: C_11  and  N_1 
REMARK    2  A    between atoms: C_7  and  C_5 
REMARK       I    between atoms: C_9  and  N_10 
REMARK    3  A    between atoms: C_13  and  C_9 
REMARK    4  A    between atoms: N_10  and  C_25 
ROOT
ATOM      1  C   UNL d   1       2.058  -1.398   0.010  0.00  0.00     0.057 A 
ATOM      2  C   UNL d   1       2.092  -2.526  -0.818  0.00  0.00     0.034 A 
ATOM      3  C   UNL d   1       3.205  -1.030   0.720  0.00  0.00     0.034 A 
ATOM      4  C   UNL d   1       4.391  -2.964  -0.157  0.00  0.00     0.035 A 
ATOM      5  C   UNL d   1       3.252  -3.301  -0.897  0.00  0.00     0.032 A 
ATOM      6  C   UNL d   1       4.358  -1.823   0.649  0.00  0.00     0.032 A 
ENDROOT
BRANCH   1   7
ATOM      7  N   UNL d   1       0.871  -0.625   0.133  0.00  0.00    -0.255 N 
ATOM      8  C   UNL d   1      -0.451  -1.044   0.038  0.00  0.00     0.076 C 
ATOM      9  C   UNL d   1      -1.198   0.110  -0.083  0.00  0.00     0.069 C 
ATOM     10  C   UNL d   1      -0.920  -2.397   0.186  0.00  0.00     0.033 A 
ATOM     11  C   UNL d   1      -0.299   1.176   0.169  0.00  0.00     0.135 C 
ATOM     12  N   UNL d   1       0.949   0.712   0.373  0.00  0.00    -0.289 N 
ATOM     13  HN  UNL d   1       1.773   1.247   0.647  1.00  0.00     0.187 HD
ATOM     14  S   UNL d   1      -2.240  -3.007  -0.717  0.00  0.00    -0.100 SA
ATOM     15  C   UNL d   1      -0.437  -3.346   1.070  0.00  0.00     0.021 A 
ATOM     16  C   UNL d   1      -2.154  -4.530   0.060  0.00  0.00     0.050 A 
ATOM     17  C   UNL d   1      -1.140  -4.579   0.990  0.00  0.00     0.008 A 
BRANCH  11  18
ATOM     18  C   UNL d   1      -0.678   2.630   0.271  0.00  0.00     0.434 C 
ATOM     19  F   UNL d   1       0.346   3.444   0.636  0.00  0.00    -0.165 F 
ATOM     20  F   UNL d   1      -1.157   3.105  -0.911  0.00  0.00    -0.165 F 
ATOM     21  F   UNL d   1      -1.670   2.818   1.186  0.00  0.00    -0.165 F 
ENDBRANCH  11  18
ENDBRANCH   1   7
BRANCH   4  22
ATOM     22  N   UNL d   1       5.511  -3.811  -0.289  0.00  0.00    -0.323 N 
ATOM     23  C   UNL d   1       6.741  -3.676   0.327  0.00  0.00     0.256 C 
ATOM     24  O   UNL d   1       7.070  -2.813   1.130  0.00  0.00    -0.267 OA
ATOM     25  H   UNL d   1       5.368  -4.630  -0.865  0.00  0.00     0.169 HD
BRANCH  23  26
ATOM     26  C   UNL d   1       7.739  -4.732  -0.018  0.00  0.00     0.032 A 
ATOM     27  C   UNL d   1       7.793  -5.329  -1.288  0.00  0.00     0.020 A 
ATOM     28  C   UNL d   1       8.740  -6.322  -1.549  0.00  0.00     0.043 A 
ATOM     29  C   UNL d   1       9.633  -6.704  -0.552  0.00  0.00     0.116 A 
ATOM     30  C   UNL d   1       9.606  -6.104   0.701  0.00  0.00     0.043 A 
ATOM     31  F   UNL d   1      10.535  -7.659  -0.808  0.00  0.00    -0.206 F 
ATOM     32  C   UNL d   1       8.662  -5.114   0.970  0.00  0.00     0.020 A 
ENDBRANCH  23  26
ENDBRANCH   4  22
TORSDOF 4
