REMARK  2 active torsions:
REMARK  status: ('A' for Active; 'I' for Inactive)
REMARK    1  A    between atoms: N_7  and  C_1 
REMARK    2  A    between atoms: C_11  and  N_7 
ROOT
ATOM      1  C   UNL d   1      -1.123  -1.500  -0.156  0.00  0.00     0.090 A 
ATOM      2  C   UNL d   1      -1.598  -0.249  -0.037  0.00  0.00     0.110 A 
ATOM      3  C   UNL d   1       0.357  -1.708  -0.243  0.00  0.00     0.206 A 
ATOM      4  C   UNL d   1      -0.718   0.950   0.039  0.00  0.00     0.206 A 
ATOM      5  C   UNL d   1       1.256  -0.554  -0.101  0.00  0.00     0.030 A 
ATOM      6  C   UNL d   1       0.740   0.731   0.006  0.00  0.00     0.030 A 
ATOM      7  O   UNL d   1       0.808  -2.834  -0.438  0.00  0.00    -0.285 OA
ATOM      8  O   UNL d   1      -1.155   2.092   0.131  0.00  0.00    -0.286 OA
ATOM      9 CL   UNL d   1      -3.303   0.073  -0.014  0.00  0.00    -0.078 Cl
ATOM     10  C   UNL d   1       1.611   1.827   0.083  0.00  0.00     0.016 A 
ATOM     11  C   UNL d   1       2.644  -0.756  -0.097  0.00  0.00     0.016 A 
ATOM     12  C   UNL d   1       2.992   1.627   0.073  0.00  0.00     0.001 A 
ATOM     13  C   UNL d   1       3.509   0.335  -0.007  0.00  0.00     0.001 A 
ENDROOT
BRANCH   1  14
ATOM     14  N   UNL d   1      -1.866  -2.680  -0.288  0.00  0.00    -0.255 NA
ATOM     15  H   UNL d   1      -1.247  -3.411  -0.668  0.00  0.00     0.134 HD
BRANCH  14  16
ATOM     16  C   UNL d   1      -2.572  -3.295   0.782  0.00  0.00     0.013 A 
ATOM     17  C   UNL d   1      -3.397  -4.389   0.478  0.00  0.00     0.030 A 
ATOM     18  C   UNL d   1      -4.079  -5.090   1.480  0.00  0.00    -0.060 A 
ATOM     19  C   UNL d   1      -4.980  -6.241   1.142  0.00  0.00     0.048 C 
ATOM     20  C   UNL d   1      -3.923  -4.694   2.812  0.00  0.00     0.007 A 
ATOM     21  C   UNL d   1      -3.104  -3.611   3.131  0.00  0.00     0.002 A 
ATOM     22  C   UNL d   1      -2.436  -2.913   2.123  0.00  0.00     0.024 A 
ENDBRANCH  14  16
ENDBRANCH   1  14
TORSDOF 2
