REMARK  2 active torsions:
REMARK  status: ('A' for Active; 'I' for Inactive)
REMARK       I    between atoms: N_2  and  C_1 
REMARK    1  A    between atoms: C_3  and  C_1 
REMARK    2  A    between atoms: C_4  and  N_2 
ROOT
ATOM      1  C   UNL d   1      -1.220  -0.600   1.121  0.00  0.00     0.256 C 
ATOM      2  N   UNL d   1       0.156  -0.508   1.208  0.00  0.00    -0.322 N 
ATOM      3  O   UNL d   1      -1.969  -1.171   1.908  0.00  0.00    -0.267 OA
ATOM      4  H   UNL d   1       0.603   0.237   0.694  0.00  0.00     0.169 HD
ENDROOT
BRANCH   1   5
ATOM      5  C   UNL d   1      -1.838   0.117  -0.011  0.00  0.00     0.034 A 
ATOM      6  C   UNL d   1      -2.937   0.947   0.239  0.00  0.00     0.042 A 
ATOM      7  C   UNL d   1      -3.619   1.536  -0.827  0.00  0.00     0.056 A 
ATOM      8 CL   UNL d   1      -4.968   2.550  -0.458  0.00  0.00    -0.083 Cl
ATOM      9  C   UNL d   1      -3.207   1.284  -2.143  0.00  0.00     0.055 A 
ATOM     10  C   UNL d   1      -2.102   0.460  -2.385  0.00  0.00     0.026 A 
ATOM     11 CL   UNL d   1      -4.034   1.937  -3.512  0.00  0.00    -0.083 Cl
ATOM     12  C   UNL d   1      -1.410  -0.122  -1.318  0.00  0.00     0.019 A 
ENDBRANCH   1   5
BRANCH   2  13
ATOM     13  C   UNL d   1       0.925  -1.184   2.183  0.00  0.00     0.041 A 
ATOM     14  C   UNL d   1       2.076  -0.592   2.722  0.00  0.00    -0.035 A 
ATOM     15  C   UNL d   1       2.844  -1.320   3.657  0.00  0.00     0.015 A 
ATOM     16  C   UNL d   1       2.514   0.816   2.426  0.00  0.00     0.050 C 
ATOM     17  C   UNL d   1       2.479  -2.612   4.057  0.00  0.00    -0.061 A 
ATOM     18  C   UNL d   1       1.329  -3.184   3.516  0.00  0.00     0.009 A 
ATOM     19  C   UNL d   1       3.297  -3.344   5.079  0.00  0.00     0.048 C 
ATOM     20  C   UNL d   1       0.560  -2.475   2.590  0.00  0.00     0.030 A 
ENDBRANCH   2  13
TORSDOF 2
