REMARK  5 active torsions:
REMARK  status: ('A' for Active; 'I' for Inactive)
REMARK    1  A    between atoms: C_7  and  N_1 
REMARK    2  A    between atoms: S_10  and  C_2 
REMARK    3  A    between atoms: C_21  and  S_10 
REMARK    4  A    between atoms: C_12  and  C_14 
REMARK    5  A    between atoms: C_14  and  C_21 
ROOT
ATOM      1  N   UNL d   1      -0.074  -1.287  -0.016  0.00  0.00    -0.218 N 
ATOM      2  C   UNL d   1       1.072  -0.620  -0.442  0.00  0.00     0.177 A 
ATOM      3  N   UNL d   1       0.920   0.673  -0.248  0.00  0.00    -0.264 N 
ATOM      4  HN  UNL d   1       1.601   1.405  -0.449  1.00  0.00     0.186 HD
ATOM      5  N   UNL d   1      -0.944  -0.324   0.407  0.00  0.00     0.001 NA
ATOM      6  N   UNL d   1      -0.326   0.838   0.274  0.00  0.00    -0.006 NA
ENDROOT
BRANCH   2   7
ATOM      7  S   UNL d   1       2.449  -1.291  -1.262  0.00  0.00    -0.084 SA
BRANCH   7   8
ATOM      8  C   UNL d   1       3.682   0.012  -0.891  0.00  0.00     0.166 C 
BRANCH   8   9
ATOM      9  C   UNL d   1       5.111  -0.462  -1.101  0.00  0.00     0.169 C 
ATOM     10  O   UNL d   1       5.439  -1.648  -1.079  0.00  0.00    -0.291 OA
BRANCH   9  11
ATOM     11  C   UNL d   1       6.188   0.571  -1.290  0.00  0.00     0.013 A 
ATOM     12  C   UNL d   1       7.474   0.137  -1.659  0.00  0.00     0.055 A 
ATOM     13  C   UNL d   1       8.447   1.090  -1.879  0.00  0.00     0.105 A 
ATOM     14  O   UNL d   1       9.730   0.847  -2.268  0.00  0.00    -0.323 OA
ATOM     15  C   UNL d   1       8.198   2.431  -1.732  0.00  0.00     0.105 A 
ATOM     16  C   UNL d   1      10.233   2.192  -2.413  0.00  0.00     0.352 A 
ATOM     17  O   UNL d   1       9.280   3.202  -2.015  0.00  0.00    -0.323 OA
ATOM     18  C   UNL d   1       6.959   2.894  -1.338  0.00  0.00     0.040 A 
ATOM     19  C   UNL d   1       5.945   1.954  -1.113  0.00  0.00     0.018 A 
ENDBRANCH   9  11
ENDBRANCH   8   9
ENDBRANCH   7   8
ENDBRANCH   2   7
BRANCH   1  20
ATOM     20  C   UNL d   1      -0.431  -2.663   0.134  0.00  0.00     0.068 A 
ATOM     21  C   UNL d   1       0.470  -3.613   0.678  0.00  0.00    -0.033 A 
ATOM     22  C   UNL d   1       0.032  -4.943   0.874  0.00  0.00     0.015 A 
ATOM     23  C   UNL d   1       1.863  -3.342   1.183  0.00  0.00     0.050 C 
ATOM     24  C   UNL d   1      -1.282  -5.334   0.628  0.00  0.00    -0.061 A 
ATOM     25  C   UNL d   1      -2.169  -4.395   0.113  0.00  0.00     0.015 A 
ATOM     26  C   UNL d   1      -1.722  -6.734   0.943  0.00  0.00     0.048 C 
ATOM     27  C   UNL d   1      -1.767  -3.070  -0.158  0.00  0.00    -0.033 A 
ATOM     28  C   UNL d   1      -2.845  -2.194  -0.756  0.00  0.00     0.050 C 
ENDBRANCH   1  20
TORSDOF 5
