REMARK  6 active torsions:
REMARK  status: ('A' for Active; 'I' for Inactive)
REMARK    1  A    between atoms: C_8  and  C_1 
REMARK    2  A    between atoms: N_15  and  C_4 
REMARK    3  A    between atoms: C_11  and  C_8 
REMARK    4  A    between atoms: C_12  and  C_9 
REMARK    5  A    between atoms: O_22  and  C_12 
REMARK    6  A    between atoms: O_23  and  C_12 
ROOT
ATOM      1  C   UNL d   1      -2.150  -0.158   0.060  0.00  0.00     0.085 A 
ATOM      2  C   UNL d   1       0.277  -0.570   0.009  0.00  0.00     0.087 A 
ATOM      3  S   UNL d   1      -1.124  -1.527  -0.029  0.00  0.00    -0.065 SA
ATOM      4  C   UNL d   1      -1.408   1.013   0.051  0.00  0.00     0.060 A 
ATOM      5  C   UNL d   1       0.008   0.789   0.025  0.00  0.00     0.025 A 
ATOM      6  N   UNL d   1       1.485  -1.158   0.010  0.00  0.00    -0.349 N 
ATOM      7  HN  UNL d   1       1.599  -2.172   0.016  1.00  0.00     0.166 HD
ATOM      8  C   UNL d   1       2.542  -0.310   0.004  0.00  0.00     0.065 A 
ATOM      9  C   UNL d   1       1.131   1.648   0.015  0.00  0.00     0.018 A 
ATOM     10  C   UNL d   1       2.408   1.079   0.008  0.00  0.00     0.031 A 
ENDROOT
BRANCH   1  11
ATOM     11  C   UNL d   1      -3.602  -0.286   0.040  0.00  0.00     0.201 C 
ATOM     12  O   UNL d   1      -4.336   0.601  -0.400  0.00  0.00    -0.286 OA
BRANCH  11  13
ATOM     13  C   UNL d   1      -4.291  -1.500   0.570  0.00  0.00     0.015 A 
ATOM     14  C   UNL d   1      -5.450  -1.947  -0.081  0.00  0.00     0.017 A 
ATOM     15  C   UNL d   1      -6.144  -3.060   0.400  0.00  0.00     0.025 A 
ATOM     16  C   UNL d   1      -5.685  -3.724   1.537  0.00  0.00     0.034 A 
ATOM     17  C   UNL d   1      -4.547  -3.274   2.205  0.00  0.00     0.025 A 
ATOM     18 CL   UNL d   1      -6.536  -5.096   2.127  0.00  0.00    -0.084 Cl
ATOM     19  C   UNL d   1      -3.858  -2.153   1.733  0.00  0.00     0.017 A 
ENDBRANCH  11  13
ENDBRANCH   1  11
BRANCH   4  20
ATOM     20  N   UNL d   1      -1.974   2.244   0.079  0.00  0.00    -0.397 N 
ATOM     21  H   UNL d   1      -2.971   2.337  -0.132  0.00  0.00     0.156 HD
ATOM     22  H   UNL d   1      -1.446   3.083  -0.146  0.00  0.00     0.156 HD
ENDBRANCH   4  20
BRANCH   8  23
ATOM     23  C   UNL d   1       3.944  -0.934   0.074  0.00  0.00     0.309 C 
BRANCH  23  24
ATOM     24  O   UNL d   1       4.464  -0.911   1.411  0.00  0.00    -0.360 OA
ATOM     25  C   UNL d   1       3.781  -1.793   2.297  0.00  0.00     0.205 C 
ENDBRANCH  23  24
BRANCH  23  26
ATOM     26  O   UNL d   1       3.947  -2.242  -0.509  0.00  0.00    -0.360 OA
ATOM     27  C   UNL d   1       5.249  -2.777  -0.665  0.00  0.00     0.205 C 
ENDBRANCH  23  26
ENDBRANCH   8  23
TORSDOF 6
