REMARK  8 active torsions:
REMARK  status: ('A' for Active; 'I' for Inactive)
REMARK    1  A    between atoms: N_3  and  C_1 
REMARK    2  A    between atoms: C_7  and  C_2 
REMARK    3  A    between atoms: C_5  and  N_3 
REMARK    4  A    between atoms: N_9  and  C_5 
REMARK    5  A    between atoms: O_15  and  C_7 
REMARK    6  A    between atoms: C_17  and  C_8 
REMARK    7  A    between atoms: C_11  and  N_9 
REMARK    8  A    between atoms: C_21  and  O_15 
ROOT
ATOM      1  N   UNL d   1      -0.271   2.187  -0.227  0.00  0.00    -0.327 N 
ATOM      2  H   UNL d   1       0.418   2.934  -0.230  0.00  0.00     0.169 HD
ENDROOT
BRANCH   1   3
ATOM      3  C   UNL d   1       0.273   0.907  -0.030  0.00  0.00     0.093 C 
ATOM      4  C   UNL d   1       1.606   0.513  -0.038  0.00  0.00     0.074 C 
ATOM      5  C   UNL d   1       1.718  -0.922   0.106  0.00  0.00     0.035 C 
ATOM      6  C   UNL d   1       0.504  -1.547   0.243  0.00  0.00    -0.015 C 
ATOM      7  S   UNL d   1      -0.734  -0.405   0.391  0.00  0.00    -0.076 SA
BRANCH   4   8
ATOM      8  C   UNL d   1       2.775   1.384  -0.210  0.00  0.00     0.296 C 
ATOM      9  O   UNL d   1       2.716   2.603  -0.289  0.00  0.00    -0.259 OA
BRANCH   8  10
ATOM     10  O   UNL d   1       3.921   0.643  -0.232  0.00  0.00    -0.318 OA
BRANCH  10  11
ATOM     11  C   UNL d   1       5.198   1.291  -0.193  0.00  0.00     0.174 C 
ATOM     12  C   UNL d   1       5.797   1.355  -1.584  0.00  0.00     0.034 C 
ENDBRANCH  10  11
ENDBRANCH   8  10
ENDBRANCH   4   8
BRANCH   6  13
ATOM     13  C   UNL d   1       0.202  -3.010   0.262  0.00  0.00     0.042 C 
ATOM     14  C   UNL d   1       0.168  -3.563  -1.158  0.00  0.00     0.010 C 
ENDBRANCH   6  13
ENDBRANCH   1   3
BRANCH   1  15
ATOM     15  C   UNL d   1      -1.599   2.568  -0.500  0.00  0.00     0.177 C 
ATOM     16  S   UNL d   1      -2.909   1.598  -0.935  0.00  0.00    -0.040 SA
BRANCH  15  17
ATOM     17  N   UNL d   1      -1.698   3.978  -0.501  0.00  0.00    -0.333 N 
ATOM     18  H   UNL d   1      -1.055   4.396  -1.165  0.00  0.00     0.168 HD
BRANCH  17  19
ATOM     19  C   UNL d   1      -2.944   4.657  -0.384  0.00  0.00     0.035 A 
ATOM     20  C   UNL d   1      -3.352   5.540  -1.385  0.00  0.00     0.053 A 
ATOM     21  C   UNL d   1      -4.621   6.121  -1.311  0.00  0.00     0.036 A 
ATOM     22 CL   UNL d   1      -5.174   7.126  -2.596  0.00  0.00    -0.084 Cl
ATOM     23  C   UNL d   1      -5.461   5.874  -0.225  0.00  0.00     0.024 A 
ATOM     24  C   UNL d   1      -5.031   5.036   0.802  0.00  0.00     0.004 A 
ATOM     25  C   UNL d   1      -3.776   4.425   0.720  0.00  0.00     0.029 A 
ENDBRANCH  17  19
ENDBRANCH  15  17
ENDBRANCH   1  15
TORSDOF 8
