REMARK  2 active torsions:
REMARK  status: ('A' for Active; 'I' for Inactive)
REMARK    1  A    between atoms: C_6  and  C_3 
REMARK    2  A    between atoms: O_16  and  C_11 
ROOT
ATOM      1  N   UNL d   1       2.351  -0.739  -0.070  0.00  0.00    -0.294 N 
ATOM      2  HN  UNL d   1       3.229  -1.256  -0.102  1.00  0.00     0.187 HD
ATOM      3  C   UNL d   1       1.221  -1.380  -0.037  0.00  0.00     0.070 C 
ATOM      4  N   UNL d   1       2.362   0.630  -0.063  0.00  0.00    -0.261 N 
ATOM      5  C   UNL d   1       1.224   1.425  -0.106  0.00  0.00     0.272 C 
ATOM      6  C   UNL d   1      -0.065   0.718  -0.059  0.00  0.00     0.046 A 
ATOM      7  C   UNL d   1      -0.086  -0.669   0.060  0.00  0.00     0.009 A 
ATOM      8  O   UNL d   1       1.246   2.653  -0.153  0.00  0.00    -0.266 OA
ATOM      9  C   UNL d   1       3.661   1.272  -0.076  0.00  0.00     0.181 C 
ATOM     10  C   UNL d   1      -1.259   1.456  -0.080  0.00  0.00     0.018 A 
ATOM     11  C   UNL d   1      -1.322  -1.300   0.276  0.00  0.00     0.015 A 
ATOM     12  C   UNL d   1      -2.514  -0.570   0.236  0.00  0.00     0.001 A 
ATOM     13  C   UNL d   1      -2.485   0.807   0.039  0.00  0.00     0.001 A 
ENDROOT
BRANCH   3  14
ATOM     14  C   UNL d   1       1.303  -2.878  -0.113  0.00  0.00    -0.006 A 
ATOM     15  C   UNL d   1       2.373  -3.531   0.510  0.00  0.00     0.023 A 
ATOM     16  C   UNL d   1       2.478  -4.929   0.485  0.00  0.00    -0.027 A 
ATOM     17  C   UNL d   1       3.656  -5.613   1.120  0.00  0.00     0.051 C 
ATOM     18  C   UNL d   1       1.467  -5.674  -0.138  0.00  0.00     0.077 A 
ATOM     19  C   UNL d   1       0.396  -5.045  -0.786  0.00  0.00    -0.027 A 
ATOM     20  C   UNL d   1       0.368  -3.642  -0.822  0.00  0.00     0.023 A 
ATOM     21  C   UNL d   1      -0.731  -5.811  -1.419  0.00  0.00     0.051 C 
BRANCH  18  22
ATOM     22  O   UNL d   1       1.576  -7.037  -0.085  0.00  0.00    -0.360 OA
ATOM     23  H   UNL d   1       0.856  -7.445  -0.589  0.00  0.00     0.217 HD
ENDBRANCH  18  22
ENDBRANCH   3  14
TORSDOF 2
