REMARK  3 active torsions:
REMARK  status: ('A' for Active; 'I' for Inactive)
REMARK       I    between atoms: C_2  and  N_1 
REMARK       I    between atoms: C_3  and  N_1 
REMARK       I    between atoms: C_4  and  N_1 
REMARK    1  A    between atoms: C_8  and  C_2 
REMARK    2  A    between atoms: C_10  and  C_3 
REMARK    3  A    between atoms: C_9  and  C_4 
ROOT
ATOM      1  N   UNL d   1       1.002   0.324  -0.200  0.00  0.00    -0.208 N 
ATOM      2  C   UNL d   1       0.403   0.025  -1.422  0.00  0.00     0.267 C 
ATOM      3  C   UNL d   1       0.276   1.067   0.738  0.00  0.00     0.267 C 
ATOM      4  C   UNL d   1       2.387   0.488  -0.238  0.00  0.00     0.267 C 
ATOM      5  O   UNL d   1      -0.491   0.708  -1.926  0.00  0.00    -0.267 OA
ATOM      6  O   UNL d   1       0.781   1.922   1.470  0.00  0.00    -0.267 OA
ATOM      7  O   UNL d   1       3.013   0.683  -1.284  0.00  0.00    -0.267 OA
ENDROOT
BRANCH   2   8
ATOM      8  C   UNL d   1       0.932  -1.123  -2.232  0.00  0.00     0.033 A 
ATOM      9  C   UNL d   1       1.636  -2.200  -1.673  0.00  0.00     0.017 A 
ATOM     10  C   UNL d   1       2.128  -3.218  -2.498  0.00  0.00     0.001 A 
ATOM     11  C   UNL d   1       1.903  -3.181  -3.875  0.00  0.00     0.000 A 
ATOM     12  C   UNL d   1       1.176  -2.132  -4.433  0.00  0.00     0.001 A 
ATOM     13  C   UNL d   1       0.692  -1.111  -3.616  0.00  0.00     0.017 A 
ENDBRANCH   2   8
BRANCH   3  14
ATOM     14  C   UNL d   1      -1.210   0.914   0.845  0.00  0.00     0.033 A 
ATOM     15  C   UNL d   1      -1.886  -0.290   0.621  0.00  0.00     0.017 A 
ATOM     16  C   UNL d   1      -3.284  -0.331   0.701  0.00  0.00     0.001 A 
ATOM     17  C   UNL d   1      -4.005   0.817   1.032  0.00  0.00     0.000 A 
ATOM     18  C   UNL d   1      -3.336   2.008   1.299  0.00  0.00     0.001 A 
ATOM     19  C   UNL d   1      -1.946   2.056   1.207  0.00  0.00     0.017 A 
ENDBRANCH   3  14
BRANCH   4  20
ATOM     20  C   UNL d   1       3.181   0.530   1.027  0.00  0.00     0.033 A 
ATOM     21  C   UNL d   1       2.839  -0.199   2.172  0.00  0.00     0.017 A 
ATOM     22  C   UNL d   1       3.626  -0.092   3.325  0.00  0.00     0.001 A 
ATOM     23  C   UNL d   1       4.760   0.720   3.332  0.00  0.00     0.000 A 
ATOM     24  C   UNL d   1       5.124   1.424   2.187  0.00  0.00     0.001 A 
ATOM     25  C   UNL d   1       4.339   1.325   1.038  0.00  0.00     0.017 A 
ENDBRANCH   4  20
TORSDOF 3
