REMARK  6 active torsions:
REMARK  status: ('A' for Active; 'I' for Inactive)
REMARK    1  A    between atoms: C_2  and  S_1 
REMARK    2  A    between atoms: C_14  and  S_1 
REMARK    3  A    between atoms: N_6  and  C_3 
REMARK       I    between atoms: C_4  and  N_6 
REMARK       I    between atoms: N_13  and  C_4 
REMARK    4  A    between atoms: O_15  and  C_9 
REMARK    5  A    between atoms: C_16  and  N_13 
REMARK    6  A    between atoms: C_18  and  C_16 
ROOT
ATOM      1  C   UNL d   1       0.301   0.540   1.634  0.00  0.00     0.061 A 
ATOM      2  C   UNL d   1      -0.092   2.210   3.335  0.00  0.00     0.071 A 
ATOM      3  C   UNL d   1       0.295   1.876   2.040  0.00  0.00     0.055 A 
ATOM      4  C   UNL d   1      -0.527   1.188   4.195  0.00  0.00     0.092 A 
ATOM      5  C   UNL d   1      -0.120  -0.476   2.495  0.00  0.00     0.026 A 
ATOM      6  C   UNL d   1      -0.546  -0.147   3.783  0.00  0.00     0.040 A 
ENDROOT
BRANCH   2   7
ATOM      7  N   UNL d   1      -0.067   3.529   3.838  0.00  0.00    -0.306 N 
ATOM      8  C   UNL d   1       0.479   4.634   3.227  0.00  0.00     0.320 C 
ATOM      9  O   UNL d   1       1.057   4.647   2.146  0.00  0.00    -0.247 OA
ATOM     10  N   UNL d   1       0.338   5.770   3.991  0.00  0.00    -0.343 N 
ATOM     11  H   UNL d   1      -0.346   5.762   4.732  0.00  0.00     0.164 HD
ATOM     12  H   UNL d   1      -0.367   3.615   4.800  0.00  0.00     0.171 HD
BRANCH  10  13
ATOM     13  C   UNL d   1       0.798   7.053   3.497  0.00  0.00     0.124 C 
BRANCH  13  14
ATOM     14  C   UNL d   1      -0.245   7.758   2.630  0.00  0.00     0.015 C 
ATOM     15  C   UNL d   1      -1.421   8.273   3.447  0.00  0.00     0.006 C 
ENDBRANCH  13  14
ENDBRANCH  10  13
ENDBRANCH   2   7
BRANCH   4  16
ATOM     16  O   UNL d   1      -0.931   1.528   5.462  0.00  0.00    -0.358 OA
ATOM     17  H   UNL d   1      -1.239   0.722   5.911  0.00  0.00     0.217 HD
ENDBRANCH   4  16
BRANCH   1  18
ATOM     18  S   UNL d   1       0.848   0.158  -0.015  0.00  0.00     0.175 S 
ATOM     19  O   UNL d   1      -0.001   0.910  -0.916  0.00  0.00    -0.223 OA
ATOM     20  O   UNL d   1       0.941  -1.288  -0.109  0.00  0.00    -0.223 OA
BRANCH  18  21
ATOM     21  C   UNL d   1       2.509   0.814  -0.089  0.00  0.00     0.141 C 
ATOM     22  C   UNL d   1       3.122   0.620  -1.462  0.00  0.00     0.021 C 
ENDBRANCH  18  21
ENDBRANCH   1  18
TORSDOF 6
