REMARK  7 active torsions:
REMARK  status: ('A' for Active; 'I' for Inactive)
REMARK       I    between atoms: N_3  and  C_1 
REMARK       I    between atoms: N_4  and  C_1 
REMARK    1  A    between atoms: C_2  and  O_11 
REMARK    2  A    between atoms: C_8  and  N_3 
REMARK    3  A    between atoms: C_25  and  N_3 
REMARK    4  A    between atoms: C_15  and  N_4 
REMARK    5  A    between atoms: C_6  and  C_8 
REMARK    6  A    between atoms: O_11  and  C_19 
REMARK    7  A    between atoms: C_20  and  C_25 
ROOT
ATOM      1  N   UNL d   1       3.202  -4.300   3.338  0.00  0.00    -0.197 NA
ATOM      2  C   UNL d   1       2.607  -3.816   2.470  0.00  0.00     0.060 C 
ATOM      3  C   UNL d   1       1.852  -3.175   1.384  0.00  0.00     0.144 C 
ENDROOT
BRANCH   3   4
ATOM      4  C   UNL d   1       1.563  -1.716   1.742  0.00  0.00     0.142 C 
BRANCH   4   5
ATOM      5  N   UNL d   1       0.761  -1.001   0.734  0.00  0.00    -0.327 N 
ATOM      6  C   UNL d   1       1.238  -0.245  -0.334  0.00  0.00     0.323 C 
ATOM      7  N   UNL d   1       2.563   0.146  -0.257  0.00  0.00    -0.309 N 
ATOM      8  O   UNL d   1       0.482   0.097  -1.242  0.00  0.00    -0.247 OA
ATOM      9  H   UNL d   1       2.937   0.226   0.675  0.00  0.00     0.170 HD
BRANCH   7  10
ATOM     10  C   UNL d   1       3.186   0.993  -1.216  0.00  0.00     0.036 A 
ATOM     11  C   UNL d   1       4.201   1.855  -0.793  0.00  0.00     0.032 A 
ATOM     12  C   UNL d   1       4.725   2.815  -1.671  0.00  0.00     0.039 A 
ATOM     13  C   UNL d   1       4.254   2.912  -2.982  0.00  0.00     0.078 A 
ATOM     14  C   UNL d   1       3.345   1.966  -3.442  0.00  0.00     0.039 A 
ATOM     15  C   UNL d   1       2.805   1.020  -2.560  0.00  0.00     0.032 A 
BRANCH  13  16
ATOM     16  O   UNL d   1       4.784   3.914  -3.738  0.00  0.00    -0.255 OA
BRANCH  16  17
ATOM     17  C   UNL d   1       3.914   4.604  -4.633  0.00  0.00     0.530 C 
ATOM     18  F   UNL d   1       2.622   4.218  -4.573  0.00  0.00    -0.144 F 
ATOM     19  F   UNL d   1       3.962   5.926  -4.349  0.00  0.00    -0.144 F 
ATOM     20  F   UNL d   1       4.356   4.433  -5.898  0.00  0.00    -0.144 F 
ENDBRANCH  16  17
ENDBRANCH  13  16
ENDBRANCH   7  10
BRANCH   5  21
ATOM     21  C   UNL d   1      -0.700  -1.114   0.846  0.00  0.00     0.192 C 
BRANCH  21  22
ATOM     22  C   UNL d   1      -1.269  -2.266   0.098  0.00  0.00     0.070 A 
ATOM     23  O   UNL d   1      -1.756  -3.300   0.848  0.00  0.00    -0.325 OA
ATOM     24  C   UNL d   1      -2.364  -4.163  -0.008  0.00  0.00     0.142 A 
ATOM     25  C   UNL d   1      -2.259  -3.713  -1.301  0.00  0.00     0.027 A 
ATOM     26  C   UNL d   1      -1.540  -2.495  -1.238  0.00  0.00     0.036 A 
ENDBRANCH  21  22
ENDBRANCH   5  21
ENDBRANCH   4   5
ENDBRANCH   3   4
TORSDOF 7
