REMARK  8 active torsions:
REMARK  status: ('A' for Active; 'I' for Inactive)
REMARK       I    between atoms: N_3  and  C_1 
REMARK    1  A    between atoms: O_6  and  C_1 
REMARK    2  A    between atoms: C_2  and  C_4 
REMARK       I    between atoms: N_5  and  C_2 
REMARK    3  A    between atoms: C_4  and  N_3 
REMARK    4  A    between atoms: C_8  and  C_4 
REMARK    5  A    between atoms: C_11  and  N_5 
REMARK    6  A    between atoms: C_10  and  O_6 
REMARK    7  A    between atoms: C_12  and  C_8 
REMARK    8  A    between atoms: C_13  and  C_11 
ROOT
ATOM      1  C   UNL d   1       1.329  -2.159   1.337  0.00  0.00     0.183 C 
ENDROOT
BRANCH   1   2
ATOM      2  C   UNL d   1       1.815  -1.533   2.661  0.00  0.00     0.241 C 
ATOM      3  N   UNL d   1       3.076  -0.972   2.598  0.00  0.00    -0.355 N 
ATOM      4  H   UNL d   1       3.538  -0.902   1.698  0.00  0.00     0.162 HD
ATOM      5  O   UNL d   1       1.091  -1.441   3.651  0.00  0.00    -0.271 OA
BRANCH   3   6
ATOM      6  C   UNL d   1       3.671  -0.272   3.721  0.00  0.00     0.161 C 
BRANCH   6   7
ATOM      7  C   UNL d   1       5.026  -0.812   4.114  0.00  0.00    -0.041 A 
ATOM      8  C   UNL d   1       6.019   0.066   4.587  0.00  0.00     0.009 A 
ATOM      9  C   UNL d   1       7.246  -0.422   5.042  0.00  0.00     0.001 A 
ATOM     10  C   UNL d   1       7.500  -1.791   5.040  0.00  0.00     0.000 A 
ATOM     11  C   UNL d   1       6.525  -2.673   4.583  0.00  0.00     0.001 A 
ATOM     12  C   UNL d   1       5.293  -2.189   4.132  0.00  0.00     0.009 A 
ENDBRANCH   6   7
ENDBRANCH   3   6
ENDBRANCH   1   2
BRANCH   1  13
ATOM     13  N   UNL d   1       0.595  -1.110   0.616  0.00  0.00    -0.323 N 
ATOM     14  C   UNL d   1       1.166  -0.319  -0.329  0.00  0.00     0.362 C 
ATOM     15  O   UNL d   1       2.328  -0.417  -0.691  0.00  0.00    -0.238 OA
ATOM     16  H   UNL d   1      -0.301  -0.804   0.965  0.00  0.00     0.165 HD
BRANCH  14  17
ATOM     17  O   UNL d   1       0.250   0.569  -0.790  0.00  0.00    -0.294 OA
BRANCH  17  18
ATOM     18  C   UNL d   1       0.599   1.509  -1.845  0.00  0.00     0.061 C 
ATOM     19  C   UNL d   1       0.956   0.782  -3.148  0.00  0.00     0.046 C 
ATOM     20  C   UNL d   1      -0.667   2.346  -2.100  0.00  0.00     0.046 C 
ATOM     21  C   UNL d   1       1.714   2.456  -1.390  0.00  0.00     0.046 C 
ENDBRANCH  17  18
ENDBRANCH  14  17
ENDBRANCH   1  13
BRANCH   1  22
ATOM     22  C   UNL d   1       0.383  -3.345   1.571  0.00  0.00     0.073 C 
BRANCH  22  23
ATOM     23  C   UNL d   1       0.998  -4.615   2.113  0.00  0.00    -0.056 A 
ATOM     24  C   UNL d   1       0.980  -4.876   3.491  0.00  0.00     0.007 A 
ATOM     25  C   UNL d   1       1.398  -6.114   3.985  0.00  0.00     0.001 A 
ATOM     26  C   UNL d   1       1.851  -7.099   3.110  0.00  0.00     0.000 A 
ATOM     27  C   UNL d   1       1.913  -6.837   1.743  0.00  0.00     0.001 A 
ATOM     28  C   UNL d   1       1.496  -5.598   1.246  0.00  0.00     0.007 A 
ENDBRANCH  22  23
ENDBRANCH   1  22
TORSDOF 8
