REMARK  4 active torsions:
REMARK  status: ('A' for Active; 'I' for Inactive)
REMARK    1  A    between atoms: C_6  and  C_3 
REMARK    2  A    between atoms: N_9  and  C_4 
REMARK    3  A    between atoms: C_10  and  C_5 
REMARK    4  A    between atoms: O_17  and  C_10 
ROOT
ATOM      1  N   UNL d   1       1.242   0.565  -0.002  0.00  0.00    -0.185 N 
ATOM      2  HN  UNL d   1       2.144   1.039  -0.063  1.00  0.00     0.184 HD
ATOM      3  C   UNL d   1       1.194  -0.803   0.052  0.00  0.00     0.150 A 
ATOM      4  C   UNL d   1       0.112   1.283   0.025  0.00  0.00     0.680 A 
ATOM      5  C   UNL d   1      -0.014  -1.472   0.109  0.00  0.00     0.087 A 
ATOM      6  N   UNL d   1      -1.084   0.699   0.126  0.00  0.00    -0.201 N 
ATOM      7  HN  UNL d   1      -1.938   1.253   0.181  1.00  0.00     0.183 HD
ATOM      8  C   UNL d   1      -1.125  -0.652   0.153  0.00  0.00     0.126 A 
ENDROOT
BRANCH   4   9
ATOM      9  N   UNL d   1       0.185   2.652  -0.145  0.00  0.00    -0.214 N 
ATOM     10  C   UNL d   1      -0.849   3.444   0.532  0.00  0.00     0.167 C 
ATOM     11  C   UNL d   1      -0.813   4.888  -0.000  0.00  0.00     0.188 C 
ATOM     12  O   UNL d   1       0.497   5.470   0.119  0.00  0.00    -0.388 OA
ATOM     13  C   UNL d   1       1.456   4.688  -0.612  0.00  0.00     0.188 C 
ATOM     14  C   UNL d   1       1.525   3.250  -0.079  0.00  0.00     0.167 C 
ENDBRANCH   4   9
BRANCH   3  15
ATOM     15  C   UNL d   1       2.536  -1.504   0.053  0.00  0.00     0.434 C 
ATOM     16  F   UNL d   1       3.594  -0.636   0.045  0.00  0.00    -0.165 F 
ATOM     17  F   UNL d   1       2.736  -2.280   1.158  0.00  0.00    -0.165 F 
ATOM     18  F   UNL d   1       2.737  -2.302  -1.035  0.00  0.00    -0.165 F 
ENDBRANCH   3  15
BRANCH   5  19
ATOM     19  C   UNL d   1      -0.265  -2.927   0.113  0.00  0.00     0.296 C 
ATOM     20  O   UNL d   1      -1.391  -3.398   0.173  0.00  0.00    -0.259 OA
BRANCH  19  21
ATOM     21  O   UNL d   1       0.873  -3.639   0.017  0.00  0.00    -0.322 OA
ATOM     22  C   UNL d   1       0.686  -5.057  -0.031  0.00  0.00     0.213 C 
ENDBRANCH  19  21
ENDBRANCH   5  19
TORSDOF 4
