REMARK  6 active torsions:
REMARK  status: ('A' for Active; 'I' for Inactive)
REMARK    1  A    between atoms: N_2  and  C_1 
REMARK    2  A    between atoms: C_3  and  C_6 
REMARK    3  A    between atoms: S_7  and  C_3 
REMARK    4  A    between atoms: O_9  and  C_5 
REMARK    5  A    between atoms: C_14  and  S_7 
REMARK    6  A    between atoms: C_15  and  O_9 
ROOT
ATOM      1  C   UNL d   1       1.463  -0.445   0.363  0.00  0.00     0.137 A 
ATOM      2  C   UNL d   1       0.478  -1.444   0.377  0.00  0.00     0.055 A 
ATOM      3  C   UNL d   1       1.130   0.908   0.292  0.00  0.00     0.109 A 
ATOM      4  C   UNL d   1      -0.876  -1.080   0.383  0.00  0.00     0.024 A 
ATOM      5  C   UNL d   1      -0.223   1.260   0.374  0.00  0.00     0.041 A 
ATOM      6  C   UNL d   1      -1.220   0.277   0.426  0.00  0.00     0.019 A 
ENDROOT
BRANCH   4   7
ATOM      7  C   UNL d   1      -1.892  -2.166   0.363  0.00  0.00     0.224 C 
ATOM      8  O   UNL d   1      -1.601  -3.276   0.798  0.00  0.00    -0.279 OA
BRANCH   7   9
ATOM      9  S   UNL d   1      -3.395  -1.837  -0.481  0.00  0.00    -0.048 SA
BRANCH   9  10
ATOM     10  C   UNL d   1      -4.695  -2.383   0.609  0.00  0.00     0.008 A 
ATOM     11  C   UNL d   1      -5.937  -1.743   0.490  0.00  0.00     0.019 A 
ATOM     12  C   UNL d   1      -7.039  -2.158   1.246  0.00  0.00     0.008 A 
ATOM     13  C   UNL d   1      -6.923  -3.232   2.132  0.00  0.00    -0.062 A 
ATOM     14  C   UNL d   1      -5.680  -3.854   2.277  0.00  0.00     0.008 A 
ATOM     15  C   UNL d   1      -8.107  -3.686   2.933  0.00  0.00     0.048 C 
ATOM     16  C   UNL d   1      -4.581  -3.441   1.514  0.00  0.00     0.019 A 
ENDBRANCH   9  10
ENDBRANCH   7   9
ENDBRANCH   4   7
BRANCH   1  17
ATOM     17  N   UNL d   1       2.845  -0.873   0.469  0.00  0.00    -0.113 N 
ATOM     18  O   UNL d   1       3.227  -1.722  -0.347  0.00  0.00    -0.532 OA
ATOM     19  O   UNL d   1       3.522  -0.398   1.390  0.00  0.00    -0.532 OA
ENDBRANCH   1  17
BRANCH   3  20
ATOM     20  O   UNL d   1       1.996   1.970   0.232  0.00  0.00    -0.308 OA
BRANCH  20  21
ATOM     21  C   UNL d   1       3.003   2.002  -0.706  0.00  0.00     0.076 A 
ATOM     22  C   UNL d   1       3.035   1.272  -1.899  0.00  0.00     0.039 A 
ATOM     23  C   UNL d   1       4.170   1.325  -2.716  0.00  0.00     0.026 A 
ATOM     24  C   UNL d   1       5.242   2.147  -2.372  0.00  0.00     0.034 A 
ATOM     25  C   UNL d   1       5.182   2.935  -1.226  0.00  0.00     0.026 A 
ATOM     26 CL   UNL d   1       6.646   2.187  -3.365  0.00  0.00    -0.084 Cl
ATOM     27  C   UNL d   1       4.062   2.862  -0.396  0.00  0.00     0.039 A 
ENDBRANCH  20  21
ENDBRANCH   3  20
TORSDOF 6
