REMARK  6 active torsions:
REMARK  status: ('A' for Active; 'I' for Inactive)
REMARK    1  A    between atoms: S_5  and  C_1 
REMARK    2  A    between atoms: C_4  and  C_2 
REMARK    3  A    between atoms: C_3  and  C_6 
REMARK       I    between atoms: N_7  and  C_4 
REMARK    4  A    between atoms: C_12  and  S_5 
REMARK    5  A    between atoms: C_21  and  N_7 
REMARK    6  A    between atoms: C_20  and  C_21 
ROOT
ATOM      1  C   UNL d   1      -0.519   1.222  -0.731  0.00  0.00     0.090 C 
ATOM      2  C   UNL d   1       0.382   1.351   0.325  0.00  0.00     0.065 C 
ATOM      3  N   UNL d   1      -0.941   0.009  -1.185  0.00  0.00    -0.359 N 
ATOM      4  HN  UNL d   1      -1.660  -0.061  -1.905  1.00  0.00     0.166 HD
ATOM      5  C   UNL d   1       1.011   0.186   0.789  0.00  0.00     0.021 C 
ATOM      6  C   UNL d   1      -0.379  -1.095  -0.654  0.00  0.00     0.089 C 
ATOM      7  C   UNL d   1       0.630  -1.055   0.288  0.00  0.00     0.018 C 
ENDROOT
BRANCH   2   8
ATOM      8  C   UNL d   1       0.673   2.620   1.048  0.00  0.00     0.254 C 
ATOM      9  N   UNL d   1      -0.396   3.468   1.244  0.00  0.00    -0.353 N 
ATOM     10  H   UNL d   1      -1.320   3.161   0.964  0.00  0.00     0.163 HD
ATOM     11  O   UNL d   1       1.787   2.812   1.526  0.00  0.00    -0.268 OA
BRANCH   9  12
ATOM     12  C   UNL d   1      -0.334   4.612   2.135  0.00  0.00     0.161 C 
BRANCH  12  13
ATOM     13  C   UNL d   1      -1.291   5.725   1.755  0.00  0.00    -0.039 A 
ATOM     14  C   UNL d   1      -1.671   6.673   2.719  0.00  0.00     0.034 A 
ATOM     15  C   UNL d   1      -2.541   7.726   2.398  0.00  0.00     0.056 A 
ATOM     16 CL   UNL d   1      -2.942   8.850   3.648  0.00  0.00    -0.083 Cl
ATOM     17  C   UNL d   1      -3.045   7.842   1.099  0.00  0.00     0.055 A 
ATOM     18  C   UNL d   1      -2.662   6.922   0.128  0.00  0.00     0.026 A 
ATOM     19 CL   UNL d   1      -4.141   9.094   0.633  0.00  0.00    -0.083 Cl
ATOM     20  C   UNL d   1      -1.777   5.885   0.448  0.00  0.00     0.010 A 
ENDBRANCH  12  13
ENDBRANCH   9  12
ENDBRANCH   2   8
BRANCH   1  21
ATOM     21  S   UNL d   1      -1.151   2.590  -1.683  0.00  0.00    -0.072 SA
BRANCH  21  22
ATOM     22  C   UNL d   1       0.045   2.716  -3.011  0.00  0.00     0.007 A 
ATOM     23  C   UNL d   1       0.420   3.991  -3.453  0.00  0.00     0.035 A 
ATOM     24  C   UNL d   1       1.296   4.155  -4.543  0.00  0.00     0.049 A 
ATOM     25  C   UNL d   1       1.808   3.015  -5.181  0.00  0.00     0.016 A 
ATOM     26  C   UNL d   1       1.446   1.743  -4.744  0.00  0.00     0.002 A 
ATOM     27  C   UNL d   1       0.562   1.596  -3.673  0.00  0.00     0.019 A 
BRANCH  24  28
ATOM     28  C   UNL d   1       1.666   5.527  -5.048  0.00  0.00     0.417 C 
ATOM     29  F   UNL d   1       1.101   6.541  -4.336  0.00  0.00    -0.166 F 
ATOM     30  F   UNL d   1       3.009   5.751  -5.018  0.00  0.00    -0.166 F 
ATOM     31  F   UNL d   1       1.284   5.723  -6.341  0.00  0.00    -0.166 F 
ENDBRANCH  24  28
ENDBRANCH  21  22
ENDBRANCH   1  21
TORSDOF 6
