REMARK  2 active torsions:
REMARK  status: ('A' for Active; 'I' for Inactive)
REMARK    1  A    between atoms: C_2  and  C_1 
REMARK    2  A    between atoms: O_12  and  C_1 
ROOT
ATOM      1  C   UNL d   1       0.206  -0.036  -1.336  0.00  0.00     0.040 A 
ATOM      2  C   UNL d   1      -1.529   0.714  -2.777  0.00  0.00     0.106 A 
ATOM      3  C   UNL d   1      -0.878   0.821  -1.567  0.00  0.00     0.058 A 
ATOM      4  C   UNL d   1      -1.149  -0.206  -3.728  0.00  0.00     0.105 A 
ATOM      5  O   UNL d   1      -2.592   1.460  -3.177  0.00  0.00    -0.323 OA
ATOM      6  O   UNL d   1      -1.923  -0.149  -4.844  0.00  0.00    -0.323 OA
ATOM      7  C   UNL d   1      -2.839   0.909  -4.487  0.00  0.00     0.352 A 
ATOM      8  C   UNL d   1       0.585  -0.995  -2.304  0.00  0.00     0.021 A 
ATOM      9  C   UNL d   1      -0.098  -1.075  -3.522  0.00  0.00     0.041 A 
ENDROOT
BRANCH   1  10
ATOM     10  C   UNL d   1       0.907   0.066  -0.033  0.00  0.00     0.176 C 
ATOM     11  O   UNL d   1       0.336   0.338   1.007  0.00  0.00    -0.646 OA
BRANCH  10  12
ATOM     12  O   UNL d   1       2.239  -0.131  -0.123  0.00  0.00    -0.773 OA
ATOM     13  H   UNL d   1       2.593  -0.158  -1.031  0.00  0.00     0.167 HD
ENDBRANCH  10  12
ENDBRANCH   1  10
TORSDOF 2
