REMARK  3 active torsions:
REMARK  status: ('A' for Active; 'I' for Inactive)
REMARK       I    between atoms: N_2  and  C_1 
REMARK       I    between atoms: N_3  and  C_1 
REMARK    1  A    between atoms: C_13  and  N_3 
REMARK    2  A    between atoms: C_4  and  C_9 
REMARK    3  A    between atoms: C_5  and  C_4 
ROOT
ATOM      1  C   UNL d   1       0.779   0.147  -0.039  0.00  0.00     0.322 C 
ATOM      2  N   UNL d   1       0.114  -0.239   1.118  0.00  0.00    -0.334 N 
ATOM      3  N   UNL d   1       0.504  -0.579  -1.173  0.00  0.00    -0.309 N 
ATOM      4  O   UNL d   1       1.585   1.079  -0.002  0.00  0.00    -0.247 OA
ATOM      5  C   UNL d   1      -0.967  -1.211   1.271  0.00  0.00     0.128 C 
ATOM      6  C   UNL d   1       0.546   0.360   2.376  0.00  0.00     0.128 C 
ATOM      7  C   UNL d   1      -1.837   0.221   3.235  0.00  0.00     0.064 C 
ATOM      8  C   UNL d   1      -2.180  -0.571   1.957  0.00  0.00     0.032 C 
ATOM      9  C   UNL d   1      -0.605   1.109   3.030  0.00  0.00     0.032 C 
ATOM     10  H   UNL d   1      -0.137  -1.346  -1.088  0.00  0.00     0.170 HD
ENDROOT
BRANCH   3  11
ATOM     11  C   UNL d   1       1.184  -0.498  -2.414  0.00  0.00     0.036 A 
ATOM     12  C   UNL d   1       2.207   0.417  -2.686  0.00  0.00     0.031 A 
ATOM     13  C   UNL d   1       2.934   0.348  -3.878  0.00  0.00     0.026 A 
ATOM     14  C   UNL d   1       2.627  -0.626  -4.820  0.00  0.00     0.034 A 
ATOM     15  C   UNL d   1       1.569  -1.504  -4.597  0.00  0.00     0.026 A 
ATOM     16 CL   UNL d   1       3.571  -0.760  -6.251  0.00  0.00    -0.084 Cl
ATOM     17  C   UNL d   1       0.847  -1.436  -3.399  0.00  0.00     0.031 A 
ENDBRANCH   3  11
BRANCH   7  18
ATOM     18  C   UNL d   1      -1.679  -0.727   4.423  0.00  0.00     0.163 C 
ATOM     19  O   UNL d   1      -1.211  -1.857   4.301  0.00  0.00    -0.292 OA
BRANCH  18  20
ATOM     20  C   UNL d   1      -2.146  -0.294   5.771  0.00  0.00     0.010 A 
ATOM     21  C   UNL d   1      -2.667  -1.270   6.633  0.00  0.00     0.017 A 
ATOM     22  C   UNL d   1      -3.070  -0.928   7.926  0.00  0.00     0.025 A 
ATOM     23  C   UNL d   1      -2.936   0.387   8.366  0.00  0.00     0.034 A 
ATOM     24  C   UNL d   1      -2.430   1.367   7.513  0.00  0.00     0.025 A 
ATOM     25 CL   UNL d   1      -3.383   0.804   9.973  0.00  0.00    -0.084 Cl
ATOM     26  C   UNL d   1      -2.046   1.030   6.211  0.00  0.00     0.017 A 
ENDBRANCH  18  20
ENDBRANCH   7  18
TORSDOF 3
