REMARK  3 active torsions:
REMARK  status: ('A' for Active; 'I' for Inactive)
REMARK       I    between atoms: N_5  and  C_1 
REMARK       I    between atoms: N_6  and  C_1 
REMARK    1  A    between atoms: C_4  and  C_10 
REMARK    2  A    between atoms: C_14  and  N_5 
REMARK    3  A    between atoms: C_15  and  N_6 
ROOT
ATOM      1  C   UNL d   1       1.111  -0.120  -0.056  0.00  0.00     0.325 C 
ATOM      2  N   UNL d   1       0.499   0.980  -0.640  0.00  0.00    -0.309 N 
ATOM      3  N   UNL d   1       0.295  -0.718   0.891  0.00  0.00    -0.309 N 
ATOM      4  O   UNL d   1       2.246  -0.499  -0.323  0.00  0.00    -0.247 OA
ATOM      5  H   UNL d   1      -0.332   1.331  -0.191  0.00  0.00     0.170 HD
ATOM      6  H   UNL d   1      -0.663  -0.410   0.927  0.00  0.00     0.170 HD
ENDROOT
BRANCH   2   7
ATOM      7  C   UNL d   1       1.102   1.833  -1.596  0.00  0.00     0.036 A 
ATOM      8  C   UNL d   1       2.250   1.490  -2.311  0.00  0.00     0.030 A 
ATOM      9  C   UNL d   1       2.878   2.413  -3.152  0.00  0.00     0.016 A 
ATOM     10  C   UNL d   1       2.363   3.702  -3.314  0.00  0.00    -0.001 A 
ATOM     11  C   UNL d   1       1.168   4.021  -2.654  0.00  0.00     0.016 A 
ATOM     12  C   UNL d   1       0.538   3.094  -1.808  0.00  0.00     0.030 A 
BRANCH  10  13
ATOM     13  C   UNL d   1       3.085   4.675  -4.122  0.00  0.00     0.102 A 
ATOM     14  O   UNL d   1       2.559   5.938  -4.217  0.00  0.00    -0.304 OA
ATOM     15  C   UNL d   1       3.456   6.612  -4.986  0.00  0.00     0.233 A 
ATOM     16  N   UNL d   1       4.489   5.910  -5.391  0.00  0.00    -0.354 N 
ATOM     17  C   UNL d   1       4.262   4.673  -4.842  0.00  0.00     0.127 A 
ATOM     18  HN  UNL d   1       5.271   6.211  -5.973  1.00  0.00     0.166 HD
ENDBRANCH  10  13
ENDBRANCH   2   7
BRANCH   3  19
ATOM     19  C   UNL d   1       0.651  -1.781   1.755  0.00  0.00     0.036 A 
ATOM     20  C   UNL d   1       1.929  -2.350   1.807  0.00  0.00     0.031 A 
ATOM     21  C   UNL d   1       2.216  -3.397   2.689  0.00  0.00     0.026 A 
ATOM     22  C   UNL d   1       1.226  -3.879   3.534  0.00  0.00     0.034 A 
ATOM     23  C   UNL d   1      -0.050  -3.322   3.504  0.00  0.00     0.026 A 
ATOM     24 CL   UNL d   1       1.579  -5.165   4.620  0.00  0.00    -0.084 Cl
ATOM     25  C   UNL d   1      -0.336  -2.276   2.616  0.00  0.00     0.031 A 
ENDBRANCH   3  19
TORSDOF 3
