REMARK  3 active torsions:
REMARK  status: ('A' for Active; 'I' for Inactive)
REMARK    1  A    between atoms: C_3  and  C_9 
REMARK    2  A    between atoms: C_9  and  O_14 
REMARK    3  A    between atoms: O_14  and  C_15 
ROOT
ATOM      1  C   UNL d   1       0.383   0.745   0.005  0.00  0.00     0.092 A 
ATOM      2  C   UNL d   1      -0.608  -1.516   0.014  0.00  0.00    -0.043 A 
ATOM      3  O   UNL d   1      -0.908   1.311  -0.012  0.00  0.00    -0.275 OA
ATOM      4  C   UNL d   1      -2.037   0.514  -0.008  0.00  0.00     0.288 A 
ATOM      5  C   UNL d   1       0.572  -0.639   0.033  0.00  0.00     0.004 A 
ATOM      6  C   UNL d   1      -1.820  -0.940  -0.003  0.00  0.00     0.090 A 
ATOM      7  C   UNL d   1       1.449   1.649  -0.015  0.00  0.00     0.075 A 
ATOM      8  C   UNL d   1       1.893  -1.099   0.071  0.00  0.00     0.017 A 
ATOM      9  O   UNL d   1      -3.172   0.976  -0.012  0.00  0.00    -0.260 OA
ATOM     10  C   UNL d   1       2.755   1.169  -0.020  0.00  0.00     0.071 A 
ATOM     11  C   UNL d   1       2.973  -0.205   0.055  0.00  0.00     0.038 A 
ATOM     12  C   UNL d   1      -0.507  -3.014  -0.004  0.00  0.00     0.049 C 
ENDROOT
BRANCH  10  13
ATOM     13  O   UNL d   1       3.743   2.116  -0.089  0.00  0.00    -0.346 OA
BRANCH  13  14
ATOM     14  C   UNL d   1       4.971   1.661  -0.670  0.00  0.00     0.217 C 
BRANCH  14  15
ATOM     15  C   UNL d   1       5.768   2.823  -1.220  0.00  0.00     0.009 A 
ATOM     16  C   UNL d   1       7.081   3.093  -0.790  0.00  0.00     0.044 A 
ATOM     17 CL   UNL d   1       7.875   2.156   0.430  0.00  0.00    -0.084 Cl
ATOM     18  C   UNL d   1       7.830   4.133  -1.357  0.00  0.00     0.024 A 
ATOM     19  C   UNL d   1       7.287   4.926  -2.362  0.00  0.00     0.003 A 
ATOM     20  C   UNL d   1       5.994   4.675  -2.807  0.00  0.00     0.024 A 
ATOM     21  C   UNL d   1       5.244   3.631  -2.250  0.00  0.00     0.044 A 
ATOM     22 CL   UNL d   1       3.676   3.360  -2.933  0.00  0.00    -0.084 Cl
ENDBRANCH  14  15
ENDBRANCH  13  14
ENDBRANCH  10  13
TORSDOF 3
