REMARK  1 active torsions:
REMARK  status: ('A' for Active; 'I' for Inactive)
REMARK    1  A    between atoms: C_6  and  N_2 
ROOT
ATOM      1  C   UNL d   1      -0.888  -0.040   2.698  0.00  0.00     0.251 C 
ATOM      2  C   UNL d   1      -2.227  -0.002   1.893  0.00  0.00     0.314 C 
ATOM      3  N   UNL d   1      -0.908   0.252   4.032  0.00  0.00    -0.359 N 
ATOM      4  O   UNL d   1       0.211  -0.327   2.223  0.00  0.00    -0.271 OA
ATOM      5  C   UNL d   1      -2.051   0.394   4.900  0.00  0.00     0.122 C 
ATOM      6  C   UNL d   1      -3.078  -1.200   2.391  0.00  0.00     0.046 C 
ATOM      7  C   UNL d   1      -2.887  -0.874   4.941  0.00  0.00     0.020 C 
ATOM      8  C   UNL d   1      -3.798  -0.995   3.727  0.00  0.00     0.004 C 
ATOM      9  H   UNL d   1       0.006   0.160   4.460  0.00  0.00     0.162 HD
ENDROOT
BRANCH   2  10
ATOM     10  N   UNL d   1      -2.000  -0.091   0.406  0.00  0.00     0.103 N 
ATOM     11  C   UNL d   1      -3.218  -0.047  -0.430  0.00  0.00     0.288 C 
ATOM     12  C   UNL d   1      -3.954   1.280  -0.427  0.00  0.00     0.170 C 
ATOM     13  S   UNL d   1      -2.901   2.582  -1.008  0.00  0.00     0.147 S 
ATOM     14  C   UNL d   1      -1.383   2.305  -0.135  0.00  0.00     0.170 C 
ATOM     15  O   UNL d   1      -3.458   3.838  -0.535  0.00  0.00    -0.228 OA
ATOM     16  O   UNL d   1      -2.661   2.374  -2.423  0.00  0.00    -0.228 OA
ATOM     17  C   UNL d   1      -1.004   0.837  -0.171  0.00  0.00     0.288 C 
ENDBRANCH   2  10
TORSDOF 1
