REMARK  5 active torsions:
REMARK  status: ('A' for Active; 'I' for Inactive)
REMARK    1  A    between atoms: C_3  and  C_1 
REMARK    2  A    between atoms: C_12  and  N_2 
REMARK    3  A    between atoms: C_7  and  C_3 
REMARK    4  A    between atoms: N_14  and  N_8 
REMARK    5  A    between atoms: C_17  and  N_14 
ROOT
ATOM      1  C   UNL d   1       2.703  -4.429  -0.620  0.00  0.00     0.181 C 
ATOM      2  N   UNL d   1       3.816  -4.309  -1.297  0.00  0.00    -0.287 N 
ATOM      3  HN  UNL d   1       4.059  -3.420  -1.734  1.00  0.00     0.188 HD
ATOM      4  C   UNL d   1       2.394  -5.720  -0.037  0.00  0.00     0.123 C 
ATOM      5  N   UNL d   1       2.217  -6.779   0.406  0.00  0.00    -0.190 NA
ENDROOT
BRANCH   1   6
ATOM      6  C   UNL d   1       1.700  -3.312  -0.489  0.00  0.00     0.238 C 
ATOM      7  O   UNL d   1       0.539  -3.674  -0.637  0.00  0.00    -0.283 OA
BRANCH   6   8
ATOM      8  C   UNL d   1       2.147  -1.958  -0.201  0.00  0.00     0.106 A 
ATOM      9  N   UNL d   1       1.398  -0.814   0.074  0.00  0.00    -0.279 N 
ATOM     10  N   UNL d   1       2.193   0.288   0.181  0.00  0.00    -0.302 N 
ATOM     11  C   UNL d   1       3.438  -0.135   0.017  0.00  0.00     0.024 A 
ATOM     12  HN  UNL d   1       1.890   1.247   0.353  1.00  0.00     0.186 HD
ATOM     13  C   UNL d   1       3.469  -1.520  -0.176  0.00  0.00     0.061 A 
ATOM     14  C   UNL d   1       4.564   0.828   0.029  0.00  0.00     0.070 C 
BRANCH   9  15
ATOM     15  C   UNL d   1      -0.042  -0.524   0.286  0.00  0.00     0.043 C 
ATOM     16  C   UNL d   1      -1.040  -1.682   0.157  0.00  0.00     0.039 C 
ATOM     17  C   UNL d   1      -0.232   0.044   1.717  0.00  0.00     0.039 C 
ATOM     18  C   UNL d   1      -0.488   0.554  -0.736  0.00  0.00     0.039 C 
ENDBRANCH   9  15
ENDBRANCH   6   8
ENDBRANCH   1   6
BRANCH   2  19
ATOM     19  N   UNL d   1       4.651  -5.386  -1.414  0.00  0.00    -0.300 N 
ATOM     20  H   UNL d   1       4.498  -6.275  -0.932  0.00  0.00     0.187 HD
BRANCH  19  21
ATOM     21  C   UNL d   1       5.880  -5.292  -2.087  0.00  0.00     0.049 A 
ATOM     22  C   UNL d   1       6.367  -4.101  -2.633  0.00  0.00     0.054 A 
ATOM     23  C   UNL d   1       7.592  -4.087  -3.312  0.00  0.00     0.036 A 
ATOM     24 CL   UNL d   1       8.193  -2.605  -3.954  0.00  0.00    -0.084 Cl
ATOM     25  C   UNL d   1       8.332  -5.254  -3.477  0.00  0.00     0.024 A 
ATOM     26  C   UNL d   1       7.849  -6.452  -2.959  0.00  0.00     0.004 A 
ATOM     27  C   UNL d   1       6.632  -6.467  -2.273  0.00  0.00     0.031 A 
ENDBRANCH  19  21
ENDBRANCH   2  19
TORSDOF 5
