REMARK  2 active torsions:
REMARK  status: ('A' for Active; 'I' for Inactive)
REMARK    1  A    between atoms: C_8  and  N_2 
REMARK    2  A    between atoms: N_9  and  C_4 
ROOT
ATOM      1  C   UNL d   1      -0.722   1.282   0.026  0.00  0.00     0.133 A 
ATOM      2  N   UNL d   1      -0.737  -1.161  -0.012  0.00  0.00    -0.218 N 
ATOM      3  C   UNL d   1      -1.499   0.004  -0.034  0.00  0.00     0.291 A 
ATOM      4  C   UNL d   1       0.620   1.299   0.015  0.00  0.00     0.100 A 
ATOM      5  N   UNL d   1       0.627  -1.187  -0.084  0.00  0.00    -0.300 N 
ATOM      6  HN  UNL d   1       1.142  -2.067  -0.121  1.00  0.00     0.186 HD
ATOM      7  C   UNL d   1       1.235  -0.046  -0.102  0.00  0.00     0.141 A 
ATOM      8  O   UNL d   1      -2.730   0.028  -0.051  0.00  0.00    -0.264 OA
ATOM      9 CL   UNL d   1      -1.714   2.710  -0.021  0.00  0.00    -0.076 Cl
ENDROOT
BRANCH   2  10
ATOM     10  C   UNL d   1      -1.368  -2.436   0.002  0.00  0.00     0.082 A 
ATOM     11  C   UNL d   1      -1.120  -3.384   1.011  0.00  0.00     0.064 A 
ATOM     12  C   UNL d   1      -1.862  -4.571   1.061  0.00  0.00     0.050 A 
ATOM     13 CL   UNL d   1      -0.022  -3.090   2.317  0.00  0.00    -0.082 Cl
ATOM     14  C   UNL d   1      -2.834  -4.825   0.097  0.00  0.00     0.035 A 
ATOM     15  C   UNL d   1      -3.068  -3.914  -0.928  0.00  0.00     0.026 A 
ATOM     16 CL   UNL d   1      -3.777  -6.262   0.188  0.00  0.00    -0.084 Cl
ATOM     17  C   UNL d   1      -2.344  -2.722  -0.970  0.00  0.00     0.035 A 
ENDBRANCH   2  10
BRANCH   4  18
ATOM     18  N   UNL d   1       1.459   2.420   0.056  0.00  0.00    -0.265 N 
ATOM     19  N   UNL d   1       2.709   2.468  -0.502  0.00  0.00    -0.305 N 
ATOM     20  C   UNL d   1       3.106   3.735  -0.383  0.00  0.00     0.109 C 
ATOM     21  HN  UNL d   1       3.227   1.696  -0.920  1.00  0.00     0.186 HD
ATOM     22  C   UNL d   1       2.222   4.503   0.374  0.00  0.00     0.038 C 
ATOM     23  C   UNL d   1       1.213   3.634   0.690  0.00  0.00     0.118 C 
ENDBRANCH   4  18
TORSDOF 2
