REMARK  2 active torsions:
REMARK  status: ('A' for Active; 'I' for Inactive)
REMARK    1  A    between atoms: C_2  and  C_1 
REMARK    2  A    between atoms: C_13  and  C_3 
REMARK       I    between atoms: N_16  and  C_13 
ROOT
ATOM      1  C   UNL d   1      -1.261  -0.949  -0.017  0.00  0.00     0.137 A 
ATOM      2  C   UNL d   1       0.073  -1.350  -0.074  0.00  0.00     0.093 A 
ATOM      3  O   UNL d   1      -1.280   0.419   0.041  0.00  0.00    -0.235 OA
ATOM      4  N   UNL d   1      -0.007   0.925   0.055  0.00  0.00    -0.264 N 
ATOM      5  HN  UNL d   1       0.262   1.908   0.108  1.00  0.00     0.194 HD
ATOM      6  C   UNL d   1       0.810  -0.128  -0.013  0.00  0.00     0.047 A 
ATOM      7  C   UNL d   1       2.271   0.129  -0.055  0.00  0.00     0.071 C 
ENDROOT
BRANCH   1   8
ATOM      8  C   UNL d   1      -2.491  -1.689   0.020  0.00  0.00     0.083 A 
ATOM      9  C   UNL d   1      -3.739  -1.361  -0.501  0.00  0.00     0.043 A 
ATOM     10  N   UNL d   1      -4.746  -2.285  -0.226  0.00  0.00    -0.298 N 
ATOM     11  C   UNL d   1      -4.130  -0.170  -1.298  0.00  0.00     0.071 C 
ATOM     12  N   UNL d   1      -4.309  -3.292   0.505  0.00  0.00    -0.269 N 
ATOM     13  HN  UNL d   1      -5.708  -2.193  -0.553  1.00  0.00     0.187 HD
ATOM     14  S   UNL d   1      -2.692  -3.161   0.885  0.00  0.00     0.006 SA
ATOM     15  HN  UNL d   1      -4.899  -4.069   0.806  1.00  0.00     0.195 HD
ENDBRANCH   1   8
BRANCH   2  16
ATOM     16  C   UNL d   1       0.539  -2.709  -0.221  0.00  0.00     0.254 C 
ATOM     17  O   UNL d   1      -0.055  -3.565  -0.866  0.00  0.00    -0.268 OA
ATOM     18  N   UNL d   1       1.689  -3.035   0.439  0.00  0.00    -0.366 N 
ATOM     19  H   UNL d   1       2.118  -2.442   1.134  0.00  0.00     0.159 HD
ATOM     20  H   UNL d   1       1.959  -4.010   0.415  0.00  0.00     0.159 HD
ENDBRANCH   2  16
TORSDOF 2
