REMARK  3 active torsions:
REMARK  status: ('A' for Active; 'I' for Inactive)
REMARK    1  A    between atoms: C_8  and  C_1 
REMARK    2  A    between atoms: C_7  and  C_2 
REMARK    3  A    between atoms: O_21  and  C_8 
ROOT
ATOM      1  C   UNL d   1       2.075  -1.337  -0.075  0.00  0.00     0.052 A 
ATOM      2  C   UNL d   1       0.580  -1.699  -0.177  0.00  0.00     0.098 A 
ATOM      3  C   UNL d   1      -0.336  -0.482  -0.093  0.00  0.00     0.023 A 
ATOM      4  C   UNL d   1       2.471  -0.044   0.040  0.00  0.00     0.018 A 
ATOM      5  C   UNL d   1       0.158   0.772   0.011  0.00  0.00     0.020 A 
ATOM      6  N   UNL d   1       1.520   0.967   0.060  0.00  0.00    -0.362 N 
ATOM      7  C   UNL d   1      -1.815  -0.664  -0.136  0.00  0.00     0.158 C 
ATOM      8  O   UNL d   1      -2.320  -1.721  -0.508  0.00  0.00    -0.293 OA
ATOM      9  C   UNL d   1      -0.701   2.015   0.059  0.00  0.00     0.058 C 
ATOM     10  C   UNL d   1       3.893   0.460   0.139  0.00  0.00     0.069 C 
ATOM     11  C   UNL d   1      -2.670   0.496   0.321  0.00  0.00     0.084 C 
ATOM     12  C   UNL d   1      -2.155   1.767  -0.328  0.00  0.00     0.014 C 
ATOM     13  H   UNL d   1       1.859   1.924   0.136  0.00  0.00     0.165 HD
ENDROOT
BRANCH   2  14
ATOM     14  C   UNL d   1       0.179  -2.769   0.848  0.00  0.00    -0.042 A 
ATOM     15  C   UNL d   1       0.299  -2.545   2.230  0.00  0.00     0.048 A 
ATOM     16  C   UNL d   1      -0.137  -3.537   3.084  0.00  0.00     0.105 A 
ATOM     17  O   UNL d   1      -0.126  -3.473   4.443  0.00  0.00    -0.323 OA
ATOM     18  C   UNL d   1      -0.659  -4.723   2.621  0.00  0.00     0.105 A 
ATOM     19  C   UNL d   1      -0.765  -4.724   4.775  0.00  0.00     0.352 A 
ATOM     20  O   UNL d   1      -1.041  -5.552   3.628  0.00  0.00    -0.323 OA
ATOM     21  C   UNL d   1      -0.776  -4.989   1.277  0.00  0.00     0.040 A 
ATOM     22  C   UNL d   1      -0.357  -4.000   0.385  0.00  0.00     0.011 A 
ENDBRANCH   2  14
BRANCH   1  23
ATOM     23  C   UNL d   1       3.048  -2.464  -0.074  0.00  0.00     0.291 C 
ATOM     24  O   UNL d   1       4.111  -2.467   0.527  0.00  0.00    -0.260 OA
BRANCH  23  25
ATOM     25  O   UNL d   1       2.568  -3.496  -0.813  0.00  0.00    -0.323 OA
ATOM     26  C   UNL d   1       3.322  -4.708  -0.724  0.00  0.00     0.213 C 
ENDBRANCH  23  25
ENDBRANCH   1  23
TORSDOF 3
