REMARK  6 active torsions:
REMARK  status: ('A' for Active; 'I' for Inactive)
REMARK    1  A    between atoms: C_6  and  C_1 
REMARK    2  A    between atoms: C_9  and  N_2 
REMARK       I    between atoms: N_8  and  C_6 
REMARK    3  A    between atoms: C_12  and  N_8 
REMARK    4  A    between atoms: C_13  and  N_8 
REMARK    5  A    between atoms: C_10  and  C_12 
REMARK    6  A    between atoms: C_22  and  C_13 
ROOT
ATOM      1  C   UNL d   1      -0.567   2.399  -0.410  0.00  0.00     0.257 C 
ATOM      2  N   UNL d   1       0.076   3.583  -0.015  0.00  0.00    -0.339 N 
ATOM      3  O   UNL d   1      -1.652   2.439  -0.989  0.00  0.00    -0.267 OA
ENDROOT
BRANCH   1   4
ATOM      4  C   UNL d   1       0.049   1.109  -0.114  0.00  0.00     0.073 A 
ATOM      5  C   UNL d   1      -0.031  -0.048  -0.888  0.00  0.00     0.048 A 
ATOM      6  N   UNL d   1       0.605  -1.055  -0.167  0.00  0.00    -0.260 N 
ATOM      7  C   UNL d   1      -0.766  -0.263  -2.169  0.00  0.00     0.071 C 
ATOM      8  N   UNL d   1       0.991  -0.616   1.059  0.00  0.00    -0.304 N 
ATOM      9  C   UNL d   1       0.672   0.675   1.071  0.00  0.00     0.126 A 
ATOM     10  HN  UNL d   1       1.429  -1.156   1.805  1.00  0.00     0.186 HD
BRANCH   6  11
ATOM     11  C   UNL d   1       0.760  -2.433  -0.498  0.00  0.00     0.056 A 
ATOM     12  C   UNL d   1       0.909  -2.856  -1.825  0.00  0.00     0.033 A 
ATOM     13  C   UNL d   1       0.877  -4.219  -2.133  0.00  0.00     0.026 A 
ATOM     14  C   UNL d   1       0.713  -5.157  -1.115  0.00  0.00     0.034 A 
ATOM     15  C   UNL d   1       0.643  -4.748   0.215  0.00  0.00     0.026 A 
ATOM     16 CL   UNL d   1       0.575  -6.826  -1.507  0.00  0.00    -0.084 Cl
ATOM     17  C   UNL d   1       0.690  -3.387   0.529  0.00  0.00     0.033 A 
ENDBRANCH   6  11
ENDBRANCH   1   4
BRANCH   2  18
ATOM     18  C   UNL d   1      -0.678   4.824  -0.228  0.00  0.00     0.172 C 
BRANCH  18  19
ATOM     19  C   UNL d   1      -0.453   5.824   0.873  0.00  0.00     0.000 A 
ATOM     20  S   UNL d   1       0.295   7.327   0.521  0.00  0.00    -0.105 SA
ATOM     21  C   UNL d   1       0.153   7.852   2.141  0.00  0.00     0.050 A 
ATOM     22  C   UNL d   1      -0.459   6.912   2.938  0.00  0.00     0.008 A 
ATOM     23  C   UNL d   1      -0.812   5.740   2.206  0.00  0.00     0.017 A 
ENDBRANCH  18  19
ENDBRANCH   2  18
BRANCH   2  24
ATOM     24  C   UNL d   1       1.533   3.681   0.119  0.00  0.00     0.165 C 
BRANCH  24  25
ATOM     25  C   UNL d   1       2.353   3.618  -1.155  0.00  0.00    -0.040 A 
ATOM     26  C   UNL d   1       1.815   3.574  -2.448  0.00  0.00     0.009 A 
ATOM     27  C   UNL d   1       2.654   3.522  -3.568  0.00  0.00     0.001 A 
ATOM     28  C   UNL d   1       4.037   3.516  -3.412  0.00  0.00     0.000 A 
ATOM     29  C   UNL d   1       4.591   3.563  -2.134  0.00  0.00     0.001 A 
ATOM     30  C   UNL d   1       3.755   3.614  -1.020  0.00  0.00     0.009 A 
ENDBRANCH  24  25
ENDBRANCH   2  24
TORSDOF 6
