REMARK  3 active torsions:
REMARK  status: ('A' for Active; 'I' for Inactive)
REMARK       I    between atoms: C_2  and  N_1 
REMARK       I    between atoms: C_3  and  N_1 
REMARK    1  A    between atoms: O_5  and  C_2 
REMARK    2  A    between atoms: C_4  and  C_3 
REMARK    3  A    between atoms: C_11  and  O_5 
ROOT
ATOM      1  N   UNL d   1       1.180   0.127   0.004  0.00  0.00    -0.268 N 
ATOM      2  C   UNL d   1       0.380  -0.288   1.044  0.00  0.00     0.372 C 
ATOM      3  C   UNL d   1       2.297  -0.513  -0.492  0.00  0.00     0.260 C 
ATOM      4  O   UNL d   1      -0.747   0.181   1.173  0.00  0.00    -0.238 OA
ATOM      5  O   UNL d   1       2.755  -1.572  -0.078  0.00  0.00    -0.267 OA
ATOM      6  H   UNL d   1       0.731   0.833  -0.559  0.00  0.00     0.174 HD
ENDROOT
BRANCH   2   7
ATOM      7  O   UNL d   1       0.970  -1.238   1.866  0.00  0.00    -0.261 OA
BRANCH   7   8
ATOM      8  C   UNL d   1       0.160  -1.904   2.799  0.00  0.00     0.081 A 
ATOM      9  C   UNL d   1      -1.048  -2.493   2.424  0.00  0.00     0.037 A 
ATOM     10  C   UNL d   1      -1.778  -3.216   3.366  0.00  0.00     0.003 A 
ATOM     11  C   UNL d   1      -1.289  -3.364   4.665  0.00  0.00     0.000 A 
ATOM     12  C   UNL d   1      -0.067  -2.792   5.025  0.00  0.00     0.003 A 
ATOM     13  C   UNL d   1       0.667  -2.063   4.088  0.00  0.00     0.037 A 
ENDBRANCH   7   8
ENDBRANCH   2   7
BRANCH   3  14
ATOM     14  C   UNL d   1       2.958   0.145  -1.654  0.00  0.00     0.032 A 
ATOM     15  C   UNL d   1       2.930   1.534  -1.835  0.00  0.00     0.018 A 
ATOM     16  C   UNL d   1       3.610   2.111  -2.913  0.00  0.00     0.025 A 
ATOM     17  C   UNL d   1       4.319   1.304  -3.803  0.00  0.00     0.034 A 
ATOM     18  C   UNL d   1       4.351  -0.078  -3.631  0.00  0.00     0.025 A 
ATOM     19 CL   UNL d   1       5.174   2.023  -5.111  0.00  0.00    -0.084 Cl
ATOM     20  C   UNL d   1       3.674  -0.658  -2.555  0.00  0.00     0.018 A 
ENDBRANCH   3  14
TORSDOF 3
