REMARK  5 active torsions:
REMARK  status: ('A' for Active; 'I' for Inactive)
REMARK    1  A    between atoms: C_3  and  C_1 
REMARK    2  A    between atoms: C_12  and  N_2 
REMARK    3  A    between atoms: C_7  and  C_3 
REMARK    4  A    between atoms: N_14  and  N_8 
REMARK    5  A    between atoms: C_16  and  N_14 
ROOT
ATOM      1  C   UNL d   1       2.691  -4.466  -0.634  0.00  0.00     0.181 C 
ATOM      2  N   UNL d   1       3.773  -4.282  -1.344  0.00  0.00    -0.287 N 
ATOM      3  HN  UNL d   1       3.980  -3.368  -1.746  1.00  0.00     0.188 HD
ATOM      4  C   UNL d   1       2.420  -5.802  -0.147  0.00  0.00     0.123 C 
ATOM      5  N   UNL d   1       2.247  -6.887   0.244  0.00  0.00    -0.190 NA
ENDROOT
BRANCH   1   6
ATOM      6  C   UNL d   1       1.682  -3.367  -0.397  0.00  0.00     0.238 C 
ATOM      7  O   UNL d   1       0.520  -3.757  -0.419  0.00  0.00    -0.283 OA
BRANCH   6   8
ATOM      8  C   UNL d   1       2.123  -1.997  -0.166  0.00  0.00     0.106 A 
ATOM      9  N   UNL d   1       1.369  -0.847   0.082  0.00  0.00    -0.279 N 
ATOM     10  N   UNL d   1       2.158   0.264   0.138  0.00  0.00    -0.302 N 
ATOM     11  C   UNL d   1       3.405  -0.157  -0.011  0.00  0.00     0.024 A 
ATOM     12  HN  UNL d   1       1.849   1.227   0.267  1.00  0.00     0.186 HD
ATOM     13  C   UNL d   1       3.443  -1.547  -0.165  0.00  0.00     0.061 A 
ATOM     14  C   UNL d   1       4.525   0.813  -0.018  0.00  0.00     0.070 C 
BRANCH   9  15
ATOM     15  C   UNL d   1      -0.069  -0.554   0.305  0.00  0.00     0.043 C 
ATOM     16  C   UNL d   1      -1.063  -1.716   0.186  0.00  0.00     0.039 C 
ATOM     17  C   UNL d   1      -0.247   0.026   1.733  0.00  0.00     0.039 C 
ATOM     18  C   UNL d   1      -0.531   0.518  -0.717  0.00  0.00     0.039 C 
ENDBRANCH   9  15
ENDBRANCH   6   8
ENDBRANCH   1   6
BRANCH   2  19
ATOM     19  N   UNL d   1       4.625  -5.336  -1.538  0.00  0.00    -0.300 N 
ATOM     20  H   UNL d   1       4.921  -5.911  -0.745  0.00  0.00     0.187 HD
BRANCH  19  21
ATOM     21  C   UNL d   1       5.608  -5.240  -2.547  0.00  0.00     0.048 A 
ATOM     22  C   UNL d   1       5.587  -4.229  -3.517  0.00  0.00     0.032 A 
ATOM     23  C   UNL d   1       6.516  -4.214  -4.563  0.00  0.00     0.026 A 
ATOM     24  C   UNL d   1       7.464  -5.228  -4.660  0.00  0.00     0.034 A 
ATOM     25  C   UNL d   1       7.487  -6.258  -3.724  0.00  0.00     0.026 A 
ATOM     26 CL   UNL d   1       8.599  -5.218  -5.952  0.00  0.00    -0.084 Cl
ATOM     27  C   UNL d   1       6.557  -6.266  -2.679  0.00  0.00     0.032 A 
ENDBRANCH  19  21
ENDBRANCH   2  19
TORSDOF 5
