REMARK  6 active torsions:
REMARK  status: ('A' for Active; 'I' for Inactive)
REMARK    1  A    between atoms: C_6  and  N_1 
REMARK    2  A    between atoms: C_12  and  C_2 
REMARK    3  A    between atoms: C_8  and  C_10 
REMARK    4  A    between atoms: C_9  and  C_11 
REMARK    5  A    between atoms: O_23  and  C_12 
REMARK    6  A    between atoms: C_25  and  O_23 
ROOT
ATOM      1  C   UNL d   1       2.042  -1.488   0.075  0.00  0.00     0.058 A 
ATOM      2  C   UNL d   1       2.860  -3.767  -0.263  0.00  0.00     0.051 A 
ATOM      3  C   UNL d   1       4.223  -2.146   0.955  0.00  0.00     0.051 A 
ATOM      4  C   UNL d   1       3.215  -1.182   0.777  0.00  0.00     0.047 A 
ATOM      5  C   UNL d   1       1.862  -2.792  -0.419  0.00  0.00     0.047 A 
ATOM      6  C   UNL d   1       4.040  -3.429   0.419  0.00  0.00     0.032 A 
ENDROOT
BRANCH   1   7
ATOM      7  N   UNL d   1       1.000  -0.528  -0.101  0.00  0.00    -0.260 N 
ATOM      8  C   UNL d   1       1.035   0.861  -0.033  0.00  0.00     0.048 C 
ATOM      9  C   UNL d   1      -0.290   1.284   0.001  0.00  0.00     0.080 C 
ATOM     10  C   UNL d   1       2.276   1.687  -0.037  0.00  0.00     0.071 C 
ATOM     11  C   UNL d   1      -1.031   0.110  -0.216  0.00  0.00     0.127 C 
ATOM     12  N   UNL d   1      -0.262  -0.967  -0.354  0.00  0.00    -0.304 N 
ATOM     13  HN  UNL d   1      -0.555  -1.914  -0.597  1.00  0.00     0.186 HD
BRANCH   9  14
ATOM     14  C   UNL d   1      -0.780   2.633   0.211  0.00  0.00     0.296 C 
ATOM     15  O   UNL d   1      -0.049   3.591   0.435  0.00  0.00    -0.259 OA
BRANCH  14  16
ATOM     16  O   UNL d   1      -2.143   2.688   0.218  0.00  0.00    -0.318 OA
BRANCH  16  17
ATOM     17  C   UNL d   1      -2.698   3.909   0.726  0.00  0.00     0.174 C 
ATOM     18  C   UNL d   1      -2.788   3.808   2.238  0.00  0.00     0.034 C 
ENDBRANCH  16  17
ENDBRANCH  14  16
ENDBRANCH   9  14
ENDBRANCH   1   7
BRANCH   3  19
ATOM     19  C   UNL d   1       5.480  -1.816   1.728  0.00  0.00     0.417 C 
ATOM     20  F   UNL d   1       5.508  -0.538   2.196  0.00  0.00    -0.166 F 
ATOM     21  F   UNL d   1       5.645  -2.617   2.815  0.00  0.00    -0.166 F 
ATOM     22  F   UNL d   1       6.605  -1.964   0.976  0.00  0.00    -0.166 F 
ENDBRANCH   3  19
BRANCH   2  23
ATOM     23  C   UNL d   1       2.682  -5.163  -0.814  0.00  0.00     0.417 C 
ATOM     24  F   UNL d   1       1.489  -5.363  -1.438  0.00  0.00    -0.166 F 
ATOM     25  F   UNL d   1       3.640  -5.480  -1.728  0.00  0.00    -0.166 F 
ATOM     26  F   UNL d   1       2.763  -6.114   0.156  0.00  0.00    -0.166 F 
ENDBRANCH   2  23
TORSDOF 6
