REMARK  3 active torsions:
REMARK  status: ('A' for Active; 'I' for Inactive)
REMARK    1  A    between atoms: C_6  and  C_1 
REMARK    2  A    between atoms: S_9  and  C_5 
REMARK    3  A    between atoms: O_12  and  C_6 
ROOT
ATOM      1  C   UNL d   1       1.291  -1.120  -0.009  0.00  0.00     0.109 A 
ATOM      2  C   UNL d   1      -0.567   0.305   0.017  0.00  0.00     0.096 A 
ATOM      3  S   UNL d   1       1.980   0.458   0.004  0.00  0.00    -0.073 SA
ATOM      4  C   UNL d   1      -0.091  -1.044   0.004  0.00  0.00     0.072 A 
ATOM      5  C   UNL d   1       0.456   1.236   0.025  0.00  0.00     0.065 A 
ATOM      6  C   UNL d   1      -1.957   0.661   0.026  0.00  0.00     0.103 C 
ATOM      7  N   UNL d   1      -3.091   0.904   0.032  0.00  0.00    -0.191 NA
ATOM      8  N   UNL d   1      -0.910  -2.121   0.003  0.00  0.00    -0.397 N 
ATOM      9  H   UNL d   1      -1.926  -2.071   0.039  0.00  0.00     0.156 HD
ATOM     10  H   UNL d   1      -0.545  -3.074   0.017  0.00  0.00     0.156 HD
ENDROOT
BRANCH   5  11
ATOM     11  S   UNL d   1       0.215   2.990   0.054  0.00  0.00    -0.126 SA
ATOM     12  C   UNL d   1       1.865   3.706   0.070  0.00  0.00     0.096 C 
ENDBRANCH   5  11
BRANCH   1  13
ATOM     13  C   UNL d   1       2.186  -2.268  -0.032  0.00  0.00     0.302 C 
ATOM     14  O   UNL d   1       3.413  -2.233  -0.043  0.00  0.00    -0.259 OA
BRANCH  13  15
ATOM     15  O   UNL d   1       1.466  -3.433  -0.039  0.00  0.00    -0.322 OA
ATOM     16  C   UNL d   1       2.252  -4.625  -0.068  0.00  0.00     0.213 C 
ENDBRANCH  13  15
ENDBRANCH   1  13
TORSDOF 3
