REMARK  6 active torsions:
REMARK  status: ('A' for Active; 'I' for Inactive)
REMARK    1  A    between atoms: S_3  and  N_1 
REMARK    2  A    between atoms: S_4  and  N_1 
REMARK    3  A    between atoms: C_6  and  S_3 
REMARK    4  A    between atoms: C_10  and  S_4 
REMARK    5  A    between atoms: C_5  and  O_11 
REMARK    6  A    between atoms: O_11  and  C_18 
ROOT
ATOM      1  S   UNL d   1       0.117  -1.441   0.374  0.00  0.00     0.269 S 
ATOM      2  O   UNL d   1       0.694  -1.919   1.617  0.00  0.00    -0.200 OA
ATOM      3  O   UNL d   1      -1.269  -1.031   0.295  0.00  0.00    -0.200 OA
ENDROOT
BRANCH   1   4
ATOM      4  N   UNL d   1       1.095  -0.250  -0.294  0.00  0.00    -0.236 N 
ATOM      5  HN  UNL d   1       0.926   0.004  -1.267  1.00  0.00     0.189 HD
BRANCH   4   6
ATOM      6  S   UNL d   1       2.313   0.548   0.501  0.00  0.00     0.061 S 
ATOM      7  O   UNL d   1       2.710   1.739  -0.216  0.00  0.00    -0.244 OA
ATOM      8  C   UNL d   1       3.665  -0.586   0.543  0.00  0.00     0.143 C 
BRANCH   6   9
ATOM      9  C   UNL d   1       1.805   0.968   2.122  0.00  0.00     0.038 A 
ATOM     10  C   UNL d   1       2.102   0.141   3.207  0.00  0.00     0.022 A 
ATOM     11  C   UNL d   1       1.741   0.530   4.498  0.00  0.00     0.001 A 
ATOM     12  C   UNL d   1       1.110   1.755   4.708  0.00  0.00     0.000 A 
ATOM     13  C   UNL d   1       0.837   2.592   3.626  0.00  0.00     0.001 A 
ATOM     14  C   UNL d   1       1.185   2.201   2.331  0.00  0.00     0.022 A 
ENDBRANCH   6   9
ENDBRANCH   4   6
ENDBRANCH   1   4
BRANCH   1  15
ATOM     15  C   UNL d   1       0.312  -2.778  -0.790  0.00  0.00     0.080 A 
ATOM     16  C   UNL d   1       0.783  -4.020  -0.341  0.00  0.00     0.028 A 
ATOM     17  C   UNL d   1       0.847  -5.105  -1.221  0.00  0.00     0.038 A 
ATOM     18  C   UNL d   1       0.413  -4.959  -2.538  0.00  0.00     0.078 A 
ATOM     19  C   UNL d   1      -0.000  -3.698  -2.991  0.00  0.00     0.038 A 
ATOM     20  C   UNL d   1      -0.067  -2.607  -2.121  0.00  0.00     0.028 A 
BRANCH  18  21
ATOM     21  O   UNL d   1       0.352  -5.947  -3.474  0.00  0.00    -0.255 OA
BRANCH  21  22
ATOM     22  C   UNL d   1       0.180  -7.288  -3.035  0.00  0.00     0.530 C 
ATOM     23  F   UNL d   1      -0.432  -7.383  -1.835  0.00  0.00    -0.144 F 
ATOM     24  F   UNL d   1      -0.586  -7.938  -3.939  0.00  0.00    -0.144 F 
ATOM     25  F   UNL d   1       1.378  -7.907  -2.971  0.00  0.00    -0.144 F 
ENDBRANCH  21  22
ENDBRANCH  18  21
ENDBRANCH   1  15
TORSDOF 6
