REMARK  4 active torsions:
REMARK  status: ('A' for Active; 'I' for Inactive)
REMARK    1  A    between atoms: C_6  and  C_1 
REMARK    2  A    between atoms: C_8  and  C_2 
REMARK    3  A    between atoms: C_9  and  N_3 
REMARK    4  A    between atoms: O_14  and  C_8 
ROOT
ATOM      1  C   UNL d   1       0.986  -0.855  -0.035  0.00  0.00     0.158 C 
ATOM      2  C   UNL d   1      -0.351  -1.242  -0.041  0.00  0.00     0.088 C 
ATOM      3  N   UNL d   1       1.004   0.524   0.062  0.00  0.00    -0.251 N 
ATOM      4  N   UNL d   1      -0.249   0.999   0.314  0.00  0.00    -0.303 N 
ATOM      5  HN  UNL d   1      -0.511   1.951   0.572  1.00  0.00     0.186 HD
ATOM      6  C   UNL d   1      -1.052  -0.043   0.152  0.00  0.00     0.128 C 
ENDROOT
BRANCH   3   7
ATOM      7  C   UNL d   1       2.078   1.456  -0.034  0.00  0.00     0.057 A 
ATOM      8  C   UNL d   1       3.214   1.207  -0.812  0.00  0.00     0.031 A 
ATOM      9  C   UNL d   1       4.260   2.134  -0.845  0.00  0.00     0.002 A 
ATOM     10  C   UNL d   1       4.175   3.317  -0.115  0.00  0.00     0.000 A 
ATOM     11  C   UNL d   1       3.029   3.594   0.626  0.00  0.00     0.002 A 
ATOM     12  C   UNL d   1       1.976   2.676   0.655  0.00  0.00     0.031 A 
ENDBRANCH   3   7
BRANCH   1  13
ATOM     13  C   UNL d   1       2.209  -1.678   0.012  0.00  0.00     0.435 C 
ATOM     14  F   UNL d   1       1.965  -2.948   0.416  0.00  0.00    -0.165 F 
ATOM     15  F   UNL d   1       2.828  -1.759  -1.189  0.00  0.00    -0.165 F 
ATOM     16  F   UNL d   1       3.110  -1.187   0.900  0.00  0.00    -0.165 F 
ENDBRANCH   1  13
BRANCH   2  17
ATOM     17  C   UNL d   1      -0.872  -2.583  -0.193  0.00  0.00     0.179 C 
ATOM     18  O   UNL d   1      -0.297  -3.453  -0.832  0.00  0.00    -0.646 OA
BRANCH  17  19
ATOM     19  O   UNL d   1      -2.055  -2.815   0.425  0.00  0.00    -0.773 OA
ATOM     20  H   UNL d   1      -2.355  -2.092   1.004  0.00  0.00     0.167 HD
ENDBRANCH  17  19
ENDBRANCH   2  17
TORSDOF 4
