REMARK  5 active torsions:
REMARK  status: ('A' for Active; 'I' for Inactive)
REMARK    1  A    between atoms: C_4  and  C_1 
REMARK    2  A    between atoms: C_3  and  C_2 
REMARK    3  A    between atoms: S_13  and  C_4 
REMARK    4  A    between atoms: C_10  and  C_16 
REMARK    5  A    between atoms: C_18  and  S_13 
ROOT
ATOM      1  C   UNL d   1       0.010  -1.460   0.335  0.00  0.00     0.084 C 
ATOM      2  C   UNL d   1      -1.062  -0.589   0.423  0.00  0.00     0.144 C 
ATOM      3  O   UNL d   1      -0.672   0.633  -0.044  0.00  0.00    -0.234 OA
ATOM      4  N   UNL d   1       0.676   0.631  -0.308  0.00  0.00    -0.264 N 
ATOM      5  HN  UNL d   1       1.239   1.409  -0.653  1.00  0.00     0.194 HD
ATOM      6  C   UNL d   1       1.096  -0.604  -0.018  0.00  0.00     0.046 C 
ATOM      7  C   UNL d   1       2.545  -0.915  -0.095  0.00  0.00     0.071 C 
ENDROOT
BRANCH   1   8
ATOM      8  C   UNL d   1       0.073  -2.873   0.634  0.00  0.00     0.229 C 
ATOM      9  O   UNL d   1       0.936  -3.354   1.354  0.00  0.00    -0.279 OA
BRANCH   8  10
ATOM     10  S   UNL d   1      -0.999  -3.851  -0.367  0.00  0.00    -0.047 SA
BRANCH  10  11
ATOM     11  C   UNL d   1      -1.327  -5.348   0.550  0.00  0.00     0.009 A 
ATOM     12  C   UNL d   1      -1.853  -6.435  -0.169  0.00  0.00     0.035 A 
ATOM     13  C   UNL d   1      -2.203  -7.642   0.467  0.00  0.00     0.049 A 
ATOM     14  C   UNL d   1      -2.017  -7.753   1.850  0.00  0.00     0.016 A 
ATOM     15  C   UNL d   1      -1.498  -6.682   2.575  0.00  0.00     0.002 A 
ATOM     16  C   UNL d   1      -1.166  -5.486   1.932  0.00  0.00     0.019 A 
BRANCH  13  17
ATOM     17  C   UNL d   1      -2.817  -8.782  -0.308  0.00  0.00     0.417 C 
ATOM     18  F   UNL d   1      -2.620  -8.691  -1.654  0.00  0.00    -0.166 F 
ATOM     19  F   UNL d   1      -2.323  -9.997   0.058  0.00  0.00    -0.166 F 
ATOM     20  F   UNL d   1      -4.165  -8.858  -0.133  0.00  0.00    -0.166 F 
ENDBRANCH  13  17
ENDBRANCH  10  11
ENDBRANCH   8  10
ENDBRANCH   1   8
BRANCH   2  21
ATOM     21  C   UNL d   1      -2.411  -0.796   1.014  0.00  0.00     0.094 A 
ATOM     22  N   UNL d   1      -2.801  -1.919   1.626  0.00  0.00    -0.258 N 
ATOM     23  O   UNL d   1      -4.054  -1.640   2.152  0.00  0.00    -0.242 OA
ATOM     24  HN  UNL d   1      -2.286  -2.797   1.691  1.00  0.00     0.195 HD
ATOM     25  C   UNL d   1      -4.388  -0.353   1.866  0.00  0.00     0.074 A 
ATOM     26  C   UNL d   1      -3.394   0.213   1.109  0.00  0.00     0.068 A 
ATOM     27  C   UNL d   1      -5.655   0.149   2.426  0.00  0.00     0.079 C 
ENDBRANCH   2  21
TORSDOF 5
