REMARK  7 active torsions:
REMARK  status: ('A' for Active; 'I' for Inactive)
REMARK    1  A    between atoms: C_7  and  C_1 
REMARK    2  A    between atoms: C_13  and  C_2 
REMARK    3  A    between atoms: C_6  and  C_14 
REMARK    4  A    between atoms: O_12  and  C_7 
REMARK    5  A    between atoms: N_9  and  O_12 
REMARK    6  A    between atoms: C_15  and  C_11 
REMARK    7  A    between atoms: N_26  and  C_11 
ROOT
ATOM      1  O   UNL d   1      -2.491  -2.081   0.351  0.00  0.00    -0.193 OA
ENDROOT
BRANCH   1   2
ATOM      2  N   UNL d   1      -3.804  -1.543   0.427  0.00  0.00    -0.246 N 
ATOM      3  C   UNL d   1      -4.726  -2.459   0.386  0.00  0.00     0.109 C 
ATOM      4  HN  UNL d   1      -4.002  -0.546   0.507  1.00  0.00     0.196 HD
BRANCH   3   5
ATOM      5  C   UNL d   1      -6.169  -2.015   0.411  0.00  0.00     0.004 A 
ATOM      6  C   UNL d   1      -6.512  -0.711   0.030  0.00  0.00     0.015 A 
ATOM      7  C   UNL d   1      -7.854  -0.307   0.017  0.00  0.00     0.017 A 
ATOM      8  C   UNL d   1      -8.873  -1.196   0.392  0.00  0.00     0.048 A 
ATOM      9  C   UNL d   1      -8.519  -2.495   0.787  0.00  0.00     0.017 A 
ATOM     10  C   UNL d   1      -7.180  -2.903   0.798  0.00  0.00     0.015 A 
BRANCH   8  11
ATOM     11  C   UNL d   1     -10.327  -0.786   0.367  0.00  0.00     0.417 C 
ATOM     12  F   UNL d   1     -10.522   0.530   0.076  0.00  0.00    -0.166 F 
ATOM     13  F   UNL d   1     -11.044  -1.483  -0.558  0.00  0.00    -0.166 F 
ATOM     14  F   UNL d   1     -10.950  -1.001   1.559  0.00  0.00    -0.166 F 
ENDBRANCH   8  11
ENDBRANCH   3   5
BRANCH   3  15
ATOM     15  N   UNL d   1      -4.452  -3.803   0.290  0.00  0.00    -0.286 NA
ATOM     16  H   UNL d   1      -3.489  -3.992   0.033  0.00  0.00     0.125 HD
ATOM     17  H   UNL d   1      -5.107  -4.347  -0.262  0.00  0.00     0.125 HD
ENDBRANCH   3  15
ENDBRANCH   1   2
BRANCH   1  18
ATOM     18  C   UNL d   1      -1.602  -1.054   0.097  0.00  0.00     0.320 C 
ATOM     19  O   UNL d   1      -1.912   0.128  -0.027  0.00  0.00    -0.257 OA
BRANCH  18  20
ATOM     20  C   UNL d   1      -0.240  -1.496  -0.135  0.00  0.00     0.102 A 
ATOM     21  C   UNL d   1       0.482  -2.554   0.392  0.00  0.00     0.127 A 
ATOM     22  O   UNL d   1       1.725  -2.549  -0.184  0.00  0.00    -0.236 OA
ATOM     23  N   UNL d   1       1.860  -1.492  -1.043  0.00  0.00    -0.264 N 
ATOM     24  C   UNL d   1       0.699  -0.837  -0.990  0.00  0.00     0.048 A 
ATOM     25  HN  UNL d   1       2.677  -1.254  -1.606  1.00  0.00     0.194 HD
ATOM     26  C   UNL d   1       0.529   0.404  -1.786  0.00  0.00     0.071 C 
BRANCH  21  27
ATOM     27  C   UNL d   1       0.352  -3.581   1.426  0.00  0.00     0.001 A 
ATOM     28  C   UNL d   1       1.192  -4.715   1.392  0.00  0.00     0.016 A 
ATOM     29  C   UNL d   1       1.228  -5.630   2.448  0.00  0.00     0.024 A 
ATOM     30  C   UNL d   1       0.409  -5.433   3.550  0.00  0.00     0.034 A 
ATOM     31  C   UNL d   1      -0.460  -4.344   3.591  0.00  0.00     0.024 A 
ATOM     32 CL   UNL d   1       0.494  -6.519   4.881  0.00  0.00    -0.084 Cl
ATOM     33  C   UNL d   1      -0.488  -3.422   2.536  0.00  0.00     0.016 A 
ENDBRANCH  21  27
ENDBRANCH  18  20
ENDBRANCH   1  18
TORSDOF 7
