REMARK  4 active torsions:
REMARK  status: ('A' for Active; 'I' for Inactive)
REMARK    1  A    between atoms: C_2  and  C_1 
REMARK       I    between atoms: C_3  and  N_7 
REMARK    2  A    between atoms: C_10  and  C_3 
REMARK    3  A    between atoms: N_8  and  C_6 
REMARK    4  A    between atoms: N_7  and  N_8 
ROOT
ATOM      1  N   UNL d   1      -2.356   3.060   1.768  0.00  0.00    -0.187 NA
ATOM      2  H   UNL d   1      -2.565   4.064   1.715  0.00  0.00     0.154 HD
ENDROOT
BRANCH   1   3
ATOM      3  N   UNL d   1      -3.446   2.228   1.448  0.00  0.00    -0.281 N 
ATOM      4  C   UNL d   1      -4.704   2.811   1.498  0.00  0.00     0.266 C 
ATOM      5  O   UNL d   1      -4.897   4.014   1.659  0.00  0.00    -0.266 OA
ATOM      6  H   UNL d   1      -3.366   1.276   1.793  0.00  0.00     0.184 HD
BRANCH   4   7
ATOM      7  C   UNL d   1      -5.850   1.871   1.364  0.00  0.00     0.033 A 
ATOM      8  C   UNL d   1      -7.057   2.169   2.011  0.00  0.00     0.018 A 
ATOM      9  C   UNL d   1      -8.166   1.333   1.845  0.00  0.00     0.025 A 
ATOM     10  C   UNL d   1      -8.072   0.209   1.025  0.00  0.00     0.034 A 
ATOM     11  C   UNL d   1      -6.873  -0.097   0.382  0.00  0.00     0.025 A 
ATOM     12 CL   UNL d   1      -9.448  -0.795   0.785  0.00  0.00    -0.084 Cl
ATOM     13  C   UNL d   1      -5.760   0.732   0.551  0.00  0.00     0.018 A 
ENDBRANCH   4   7
ENDBRANCH   1   3
BRANCH   1  14
ATOM     14  C   UNL d   1      -1.155   2.812   1.075  0.00  0.00     0.099 A 
ATOM     15  C   UNL d   1      -0.750   1.520   0.754  0.00  0.00     0.060 A 
ATOM     16  C   UNL d   1       0.506   1.302   0.177  0.00  0.00     0.052 A 
ATOM     17  C   UNL d   1       1.333   2.402  -0.050  0.00  0.00     0.041 A 
ATOM     18  C   UNL d   1       0.871   3.665   0.293  0.00  0.00     0.007 A 
ATOM     19  N   UNL d   1      -0.352   3.871   0.843  0.00  0.00    -0.350 N 
ATOM     20  C   UNL d   1       1.760   4.859   0.100  0.00  0.00     0.068 C 
ATOM     21  HN  UNL d   1      -0.660   4.815   1.079  1.00  0.00     0.167 HD
BRANCH  16  22
ATOM     22  C   UNL d   1       0.974  -0.087  -0.159  0.00  0.00     0.417 C 
ATOM     23  F   UNL d   1       0.035  -1.045   0.078  0.00  0.00    -0.166 F 
ATOM     24  F   UNL d   1       2.070  -0.454   0.559  0.00  0.00    -0.166 F 
ATOM     25  F   UNL d   1       1.320  -0.220  -1.468  0.00  0.00    -0.166 F 
ENDBRANCH  16  22
ENDBRANCH   1  14
TORSDOF 4
