REMARK  3 active torsions:
REMARK  status: ('A' for Active; 'I' for Inactive)
REMARK    1  A    between atoms: C_12  and  C_3 
REMARK    2  A    between atoms: O_16  and  C_12 
REMARK    3  A    between atoms: C_18  and  O_16 
ROOT
ATOM      1  N   UNL d   1      -0.214  -0.699  -0.039  0.00  0.00    -0.241 N 
ATOM      2  C   UNL d   1      -0.131   0.685  -0.034  0.00  0.00     0.143 A 
ATOM      3  C   UNL d   1       2.107  -0.783  -0.073  0.00  0.00     0.148 A 
ATOM      4  C   UNL d   1       0.945  -1.476  -0.051  0.00  0.00     0.066 A 
ATOM      5  N   UNL d   1       2.136   0.608  -0.068  0.00  0.00    -0.292 N 
ATOM      6  HN  UNL d   1       3.038   1.083  -0.082  1.00  0.00     0.187 HD
ATOM      7  N   UNL d   1       1.083   1.299  -0.048  0.00  0.00    -0.283 N 
ATOM      8  HN  UNL d   1       1.141   2.317  -0.041  1.00  0.00     0.188 HD
ATOM      9  N   UNL d   1      -1.508  -1.115  -0.019  0.00  0.00    -0.297 N 
ATOM     10  HN  UNL d   1      -1.850  -2.076  -0.013  1.00  0.00     0.187 HD
ATOM     11  C   UNL d   1      -1.421   1.157  -0.012  0.00  0.00     0.077 A 
ATOM     12  C   UNL d   1      -2.233   0.006  -0.009  0.00  0.00     0.026 A 
ATOM     13  C   UNL d   1       0.743  -2.962  -0.001  0.00  0.00     0.073 C 
ATOM     14  C   UNL d   1      -3.715  -0.061   0.003  0.00  0.00     0.070 C 
ENDROOT
BRANCH   3  15
ATOM     15  C   UNL d   1       3.428  -1.483  -0.045  0.00  0.00     0.313 C 
ATOM     16  O   UNL d   1       3.645  -2.606  -0.479  0.00  0.00    -0.257 OA
BRANCH  15  17
ATOM     17  O   UNL d   1       4.328  -0.710   0.618  0.00  0.00    -0.317 OA
BRANCH  17  18
ATOM     18  C   UNL d   1       5.508  -1.382   1.077  0.00  0.00     0.175 C 
ATOM     19  C   UNL d   1       5.267  -1.790   2.519  0.00  0.00     0.034 C 
ENDBRANCH  17  18
ENDBRANCH  15  17
ENDBRANCH   3  15
TORSDOF 3
