REMARK  2 active torsions:
REMARK  status: ('A' for Active; 'I' for Inactive)
REMARK    1  A    between atoms: C_7  and  C_1 
REMARK    2  A    between atoms: C_8  and  N_2 
ROOT
ATOM      1  C   UNL d   1      -0.341   1.220   0.011  0.00  0.00     0.050 C 
ATOM      2  N   UNL d   1       1.001  -0.565  -0.055  0.00  0.00    -0.260 N 
ATOM      3  C   UNL d   1       0.994   0.825   0.003  0.00  0.00     0.046 C 
ATOM      4  N   UNL d   1      -0.254  -1.043  -0.276  0.00  0.00    -0.304 N 
ATOM      5  HN  UNL d   1      -0.525  -2.004  -0.486  1.00  0.00     0.186 HD
ATOM      6  C   UNL d   1      -1.049   0.017  -0.158  0.00  0.00     0.124 C 
ATOM      7  C   UNL d   1       2.205   1.695  -0.035  0.00  0.00     0.071 C 
ENDROOT
BRANCH   2   8
ATOM      8  C   UNL d   1       2.078  -1.490   0.078  0.00  0.00     0.056 A 
ATOM      9  C   UNL d   1       3.230  -1.178   0.810  0.00  0.00     0.031 A 
ATOM     10  C   UNL d   1       4.272  -2.104   0.908  0.00  0.00     0.002 A 
ATOM     11  C   UNL d   1       4.166  -3.349   0.290  0.00  0.00     0.000 A 
ATOM     12  C   UNL d   1       3.010  -3.680  -0.413  0.00  0.00     0.002 A 
ATOM     13  C   UNL d   1       1.963  -2.760  -0.508  0.00  0.00     0.031 A 
ENDBRANCH   2   8
BRANCH   1  14
ATOM     14  C   UNL d   1      -0.841   2.588   0.124  0.00  0.00     0.159 C 
ATOM     15  O   UNL d   1      -0.076   3.541   0.277  0.00  0.00    -0.293 OA
ATOM     16  C   UNL d   1      -2.325   2.856   0.036  0.00  0.00     0.097 C 
ENDBRANCH   1  14
TORSDOF 2
