REMARK  5 active torsions:
REMARK  status: ('A' for Active; 'I' for Inactive)
REMARK    1  A    between atoms: C_8  and  N_3 
REMARK    2  A    between atoms: N_11  and  C_4 
REMARK    3  A    between atoms: C_9  and  C_6 
REMARK    4  A    between atoms: C_7  and  O_10 
REMARK    5  A    between atoms: O_10  and  C_19 
ROOT
ATOM      1  N   UNL d   1       0.884  -0.595  -0.331  0.00  0.00    -0.291 N 
ATOM      2  HN  UNL d   1       1.676  -1.140  -0.671  1.00  0.00     0.187 HD
ATOM      3  N   UNL d   1       0.861   0.737  -0.036  0.00  0.00    -0.240 N 
ATOM      4  C   UNL d   1      -0.449   1.184   0.156  0.00  0.00     0.123 C 
ATOM      5  C   UNL d   1      -1.226   0.056   0.199  0.00  0.00     0.081 C 
ATOM      6  C   UNL d   1      -0.358  -1.033  -0.079  0.00  0.00     0.062 C 
ENDROOT
BRANCH   6   7
ATOM      7  C   UNL d   1      -0.708  -2.457  -0.123  0.00  0.00    -0.008 A 
ATOM      8  C   UNL d   1       0.065  -3.372  -0.852  0.00  0.00     0.016 A 
ATOM      9  C   UNL d   1      -0.261  -4.739  -0.877  0.00  0.00     0.038 A 
ATOM     10  C   UNL d   1      -1.346  -5.211  -0.141  0.00  0.00     0.078 A 
ATOM     11  C   UNL d   1      -2.138  -4.299   0.559  0.00  0.00     0.038 A 
ATOM     12  C   UNL d   1      -1.823  -2.938   0.576  0.00  0.00     0.016 A 
BRANCH  10  13
ATOM     13  O   UNL d   1      -1.762  -6.502  -0.038  0.00  0.00    -0.255 OA
BRANCH  13  14
ATOM     14  C   UNL d   1      -0.837  -7.558  -0.230  0.00  0.00     0.530 C 
ATOM     15  F   UNL d   1       0.455  -7.187  -0.071  0.00  0.00    -0.144 F 
ATOM     16  F   UNL d   1      -1.099  -8.524   0.678  0.00  0.00    -0.144 F 
ATOM     17  F   UNL d   1      -0.994  -8.086  -1.463  0.00  0.00    -0.144 F 
ENDBRANCH  13  14
ENDBRANCH  10  13
ENDBRANCH   6   7
BRANCH   4  18
ATOM     18  N   UNL d   1      -0.837   2.484   0.230  0.00  0.00    -0.384 N 
ATOM     19  H   UNL d   1      -0.258   3.202  -0.205  0.00  0.00     0.157 HD
ATOM     20  H   UNL d   1      -1.828   2.701   0.122  0.00  0.00     0.157 HD
ENDBRANCH   4  18
BRANCH   3  21
ATOM     21  C   UNL d   1       2.075   1.477   0.033  0.00  0.00     0.058 A 
ATOM     22  C   UNL d   1       3.202   1.024  -0.669  0.00  0.00     0.033 A 
ATOM     23  C   UNL d   1       4.390   1.760  -0.635  0.00  0.00     0.026 A 
ATOM     24  C   UNL d   1       4.465   2.926   0.127  0.00  0.00     0.034 A 
ATOM     25  C   UNL d   1       3.365   3.360   0.861  0.00  0.00     0.026 A 
ATOM     26 CL   UNL d   1       5.928   3.829   0.169  0.00  0.00    -0.084 Cl
ATOM     27  C   UNL d   1       2.167   2.639   0.814  0.00  0.00     0.033 A 
ENDBRANCH   3  21
TORSDOF 5
