REMARK  3 active torsions:
REMARK  status: ('A' for Active; 'I' for Inactive)
REMARK    1  A    between atoms: N_10  and  C_2 
REMARK    2  A    between atoms: C_16  and  C_11 
REMARK    3  A    between atoms: C_15  and  C_17 
ROOT
ATOM      1  C   UNL d   1       0.688  -1.302  -0.081  0.00  0.00     0.139 A 
ATOM      2  C   UNL d   1       0.724  -0.067   0.542  0.00  0.00     0.159 A 
ATOM      3  C   UNL d   1       1.636  -2.365  -0.070  0.00  0.00     0.203 A 
ATOM      4  N   UNL d   1      -0.529  -1.343  -0.715  0.00  0.00    -0.290 N 
ATOM      5  N   UNL d   1       1.730  -3.269  -1.019  0.00  0.00    -0.317 N 
ATOM      6  HN  UNL d   1       1.218  -3.314  -1.901  1.00  0.00     0.169 HD
ATOM      7  N   UNL d   1      -1.265  -0.224  -0.532  0.00  0.00    -0.300 N 
ATOM      8  HN  UNL d   1      -2.194  -0.022  -0.901  1.00  0.00     0.187 HD
ATOM      9  C   UNL d   1      -0.503   0.561   0.239  0.00  0.00     0.057 A 
ATOM     10  C   UNL d   1       2.682  -4.138  -0.541  0.00  0.00     0.138 A 
ATOM     11  N   UNL d   1       3.187  -3.782   0.648  0.00  0.00    -0.242 N 
ATOM     12  HN  UNL d   1       3.900  -4.261   1.198  1.00  0.00     0.196 HD
ATOM     13  O   UNL d   1       2.511  -2.604   0.956  0.00  0.00    -0.215 OA
ATOM     14  C   UNL d   1      -1.143  -2.407  -1.479  0.00  0.00     0.178 C 
ATOM     15  C   UNL d   1      -1.009   1.903   0.624  0.00  0.00     0.072 C 
ENDROOT
BRANCH   2  16
ATOM     16  N   UNL d   1       1.799   0.459   1.315  0.00  0.00    -0.111 N 
ATOM     17  O   UNL d   1       2.913   0.469   0.780  0.00  0.00    -0.532 OA
ATOM     18  O   UNL d   1       1.521   0.862   2.449  0.00  0.00    -0.532 OA
ENDBRANCH   2  16
BRANCH  10  19
ATOM     19  C   UNL d   1       3.035  -5.357  -1.260  0.00  0.00     0.010 A 
ATOM     20  C   UNL d   1       2.450  -5.641  -2.504  0.00  0.00     0.016 A 
ATOM     21  C   UNL d   1       2.755  -6.824  -3.184  0.00  0.00     0.017 A 
ATOM     22  C   UNL d   1       3.655  -7.748  -2.633  0.00  0.00     0.048 A 
ATOM     23  C   UNL d   1       4.246  -7.460  -1.394  0.00  0.00     0.017 A 
ATOM     24  C   UNL d   1       3.940  -6.278  -0.716  0.00  0.00     0.016 A 
BRANCH  22  25
ATOM     25  C   UNL d   1       3.993  -9.035  -3.342  0.00  0.00     0.417 C 
ATOM     26  F   UNL d   1       3.333  -9.196  -4.525  0.00  0.00    -0.166 F 
ATOM     27  F   UNL d   1       5.317  -9.136  -3.638  0.00  0.00    -0.166 F 
ATOM     28  F   UNL d   1       3.689 -10.134  -2.597  0.00  0.00    -0.166 F 
ENDBRANCH  22  25
ENDBRANCH  10  19
TORSDOF 3
