REMARK  9 active torsions:
REMARK  status: ('A' for Active; 'I' for Inactive)
REMARK    1  A    between atoms: S_8  and  C_2 
REMARK    2  A    between atoms: C_23  and  C_7 
REMARK    3  A    between atoms: C_14  and  S_8 
REMARK    4  A    between atoms: C_10  and  C_14 
REMARK    5  A    between atoms: C_15  and  O_29 
REMARK    6  A    between atoms: S_26  and  C_23 
REMARK    7  A    between atoms: C_30  and  S_26 
REMARK    8  A    between atoms: O_29  and  C_31 
REMARK    9  A    between atoms: C_31  and  C_30 
ROOT
ATOM      1  N   UNL d   1       0.860   0.062   0.060  0.00  0.00    -0.319 N 
ATOM      2  C   UNL d   1      -0.029   1.101   0.075  0.00  0.00     0.162 A 
ATOM      3  N   UNL d   1      -1.255   0.632   0.065  0.00  0.00    -0.278 N 
ATOM      4  HN  UNL d   1      -2.110   1.187   0.091  1.00  0.00     0.189 HD
ATOM      5  N   UNL d   1      -1.182  -0.740   0.013  0.00  0.00    -0.286 N 
ATOM      6  HN  UNL d   1      -1.975  -1.381  -0.008  1.00  0.00     0.188 HD
ATOM      7  C   UNL d   1       0.092  -1.083  -0.003  0.00  0.00     0.109 A 
ATOM      8  C   UNL d   1       2.299   0.106   0.105  0.00  0.00     0.159 C 
ENDROOT
BRANCH   7   9
ATOM      9  C   UNL d   1       0.626  -2.469  -0.109  0.00  0.00     0.151 C 
BRANCH   9  10
ATOM     10  S   UNL d   1       0.952  -3.220   1.513  0.00  0.00    -0.159 SA
BRANCH  10  11
ATOM     11  C   UNL d   1      -0.743  -3.308   2.207  0.00  0.00     0.101 C 
BRANCH  11  12
ATOM     12  C   UNL d   1      -1.780  -4.080   1.386  0.00  0.00     0.186 C 
BRANCH  12  13
ATOM     13  O   UNL d   1      -1.356  -5.434   1.201  0.00  0.00    -0.349 OA
BRANCH  13  14
ATOM     14  C   UNL d   1      -2.182  -6.234   0.450  0.00  0.00     0.090 A 
ATOM     15  C   UNL d   1      -1.594  -7.285  -0.273  0.00  0.00     0.069 A 
ATOM     16  C   UNL d   1      -2.378  -8.163  -1.028  0.00  0.00     0.050 A 
ATOM     17 CL   UNL d   1       0.119  -7.524  -0.279  0.00  0.00    -0.081 Cl
ATOM     18  C   UNL d   1      -3.760  -8.000  -1.050  0.00  0.00     0.035 A 
ATOM     19  C   UNL d   1      -4.360  -6.974  -0.327  0.00  0.00     0.026 A 
ATOM     20 CL   UNL d   1      -4.737  -9.077  -1.970  0.00  0.00    -0.084 Cl
ATOM     21  C   UNL d   1      -3.574  -6.094   0.424  0.00  0.00     0.040 A 
ENDBRANCH  13  14
ENDBRANCH  12  13
ENDBRANCH  11  12
ENDBRANCH  10  11
ENDBRANCH   9  10
ENDBRANCH   7   9
BRANCH   2  22
ATOM     22  S   UNL d   1       0.423   2.771   0.051  0.00  0.00    -0.088 SA
BRANCH  22  23
ATOM     23  C   UNL d   1      -1.093   3.538   0.697  0.00  0.00     0.122 C 
BRANCH  23  24
ATOM     24  C   UNL d   1      -1.042   5.049   0.624  0.00  0.00    -0.027 A 
ATOM     25  C   UNL d   1      -0.493   5.849   1.643  0.00  0.00     0.042 A 
ATOM     26  C   UNL d   1      -0.497   7.243   1.538  0.00  0.00     0.048 A 
ATOM     27 CL   UNL d   1       0.202   5.161   3.067  0.00  0.00    -0.084 Cl
ATOM     28  C   UNL d   1      -1.038   7.852   0.410  0.00  0.00     0.035 A 
ATOM     29  C   UNL d   1      -1.568   7.082  -0.621  0.00  0.00     0.024 A 
ATOM     30 CL   UNL d   1      -1.059   9.569   0.289  0.00  0.00    -0.084 Cl
ATOM     31  C   UNL d   1      -1.566   5.689  -0.516  0.00  0.00     0.011 A 
ENDBRANCH  23  24
ENDBRANCH  22  23
ENDBRANCH   2  22
TORSDOF 9
