REMARK  4 active torsions:
REMARK  status: ('A' for Active; 'I' for Inactive)
REMARK    1  A    between atoms: C_2  and  C_4 
REMARK       I    between atoms: N_5  and  C_2 
REMARK    2  A    between atoms: C_3  and  O_7 
REMARK    3  A    between atoms: C_12  and  N_5 
REMARK    4  A    between atoms: O_7  and  C_16 
ROOT
ATOM      1  C   UNL d   1      -2.241   0.331   1.848  0.00  0.00     0.251 C 
ATOM      2  N   UNL d   1      -1.244   0.978   2.544  0.00  0.00    -0.325 N 
ATOM      3  O   UNL d   1      -3.152  -0.331   2.347  0.00  0.00    -0.270 OA
ATOM      4  H   UNL d   1      -0.670   1.624   2.014  0.00  0.00     0.169 HD
ENDROOT
BRANCH   2   5
ATOM      5  C   UNL d   1      -1.000   0.873   3.932  0.00  0.00     0.035 A 
ATOM      6  C   UNL d   1      -1.566  -0.119   4.738  0.00  0.00     0.032 A 
ATOM      7  C   UNL d   1      -1.312  -0.170   6.117  0.00  0.00     0.039 A 
ATOM      8  C   UNL d   1      -0.463   0.763   6.708  0.00  0.00     0.078 A 
ATOM      9  C   UNL d   1       0.114   1.748   5.901  0.00  0.00     0.039 A 
ATOM     10  C   UNL d   1      -0.139   1.797   4.523  0.00  0.00     0.032 A 
BRANCH   8  11
ATOM     11  O   UNL d   1      -0.102   0.823   8.020  0.00  0.00    -0.255 OA
BRANCH  11  12
ATOM     12  C   UNL d   1      -0.570  -0.181   8.907  0.00  0.00     0.530 C 
ATOM     13  F   UNL d   1      -0.381  -1.424   8.415  0.00  0.00    -0.144 F 
ATOM     14  F   UNL d   1       0.127  -0.087  10.062  0.00  0.00    -0.144 F 
ATOM     15  F   UNL d   1      -1.876   0.001   9.187  0.00  0.00    -0.144 F 
ENDBRANCH  11  12
ENDBRANCH   8  11
ENDBRANCH   2   5
BRANCH   1  16
ATOM     16  C   UNL d   1      -2.166   0.464   0.303  0.00  0.00     0.221 C 
ATOM     17  O   UNL d   1      -1.104   1.257  -0.226  0.00  0.00    -0.336 OA
ATOM     18  C   UNL d   1       0.103   0.621  -0.334  0.00  0.00     0.076 A 
ATOM     19  C   UNL d   1       0.272  -0.755  -0.153  0.00  0.00    -0.025 A 
ATOM     20  C   UNL d   1       1.198   1.440  -0.608  0.00  0.00     0.037 A 
ATOM     21  C   UNL d   1      -0.912  -1.665   0.012  0.00  0.00     0.044 C 
ATOM     22  C   UNL d   1       1.569  -1.278  -0.112  0.00  0.00     0.010 A 
ATOM     23  C   UNL d   1      -2.200  -0.926  -0.334  0.00  0.00     0.047 C 
ATOM     24  C   UNL d   1       2.671  -0.448  -0.325  0.00  0.00     0.001 A 
ATOM     25  C   UNL d   1       2.484   0.905  -0.605  0.00  0.00     0.003 A 
ENDBRANCH   1  16
TORSDOF 4
