REMARK  5 active torsions:
REMARK  status: ('A' for Active; 'I' for Inactive)
REMARK    1  A    between atoms: S_14  and  C_3 
REMARK    2  A    between atoms: C_8  and  C_6 
REMARK    3  A    between atoms: C_13  and  C_16 
REMARK    4  A    between atoms: C_15  and  C_13 
REMARK    5  A    between atoms: C_16  and  S_14 
ROOT
ATOM      1  N   UNL d   1       0.053  -1.438  -0.613  0.00  0.00    -0.336 N 
ATOM      2  HN  UNL d   1       0.167  -2.356  -1.042  1.00  0.00     0.168 HD
ATOM      3  C   UNL d   1      -1.126  -0.800  -0.647  0.00  0.00     0.144 A 
ATOM      4  C   UNL d   1       1.086  -0.825   0.008  0.00  0.00     0.045 A 
ATOM      5  N   UNL d   1      -1.350   0.408  -0.118  0.00  0.00    -0.347 N 
ATOM      6  HN  UNL d   1      -2.265   0.856  -0.168  1.00  0.00     0.167 HD
ATOM      7  C   UNL d   1       0.944   0.429   0.573  0.00  0.00     0.047 A 
ATOM      8  C   UNL d   1      -0.305   0.998   0.483  0.00  0.00     0.092 A 
ENDROOT
BRANCH   4   9
ATOM      9  C   UNL d   1       2.357  -1.582   0.017  0.00  0.00    -0.009 A 
ATOM     10  C   UNL d   1       3.315  -1.438   1.038  0.00  0.00     0.023 A 
ATOM     11  C   UNL d   1       4.519  -2.165   1.034  0.00  0.00    -0.024 A 
ATOM     12  C   UNL d   1       5.509  -1.985   2.147  0.00  0.00     0.044 C 
ATOM     13  C   UNL d   1       4.755  -3.087   0.013  0.00  0.00     0.076 A 
ATOM     14  C   UNL d   1       6.869  -2.524   1.732  0.00  0.00     0.042 C 
ATOM     15  C   UNL d   1       6.739  -3.904   1.069  0.00  0.00     0.061 C 
ATOM     16  O   UNL d   1       5.872  -3.864  -0.079  0.00  0.00    -0.340 OA
ATOM     17  C   UNL d   1       8.114  -4.330   0.535  0.00  0.00     0.046 C 
ATOM     18  C   UNL d   1       6.236  -4.982   2.041  0.00  0.00     0.046 C 
ATOM     19  C   UNL d   1       3.828  -3.241  -1.012  0.00  0.00     0.038 A 
ATOM     20  C   UNL d   1       2.644  -2.502  -1.008  0.00  0.00     0.016 A 
ENDBRANCH   4   9
BRANCH   3  21
ATOM     21  S   UNL d   1      -2.486  -1.578  -1.491  0.00  0.00    -0.086 SA
BRANCH  21  22
ATOM     22  C   UNL d   1      -1.631  -3.026  -2.176  0.00  0.00     0.166 C 
BRANCH  22  23
ATOM     23  C   UNL d   1      -2.570  -3.876  -3.003  0.00  0.00     0.169 C 
ATOM     24  O   UNL d   1      -3.212  -4.803  -2.507  0.00  0.00    -0.291 OA
BRANCH  23  25
ATOM     25  C   UNL d   1      -2.694  -3.637  -4.474  0.00  0.00     0.011 A 
ATOM     26  C   UNL d   1      -3.022  -4.729  -5.293  0.00  0.00     0.017 A 
ATOM     27  C   UNL d   1      -3.243  -4.549  -6.663  0.00  0.00     0.025 A 
ATOM     28  C   UNL d   1      -3.147  -3.274  -7.213  0.00  0.00     0.034 A 
ATOM     29  C   UNL d   1      -2.796  -2.187  -6.415  0.00  0.00     0.025 A 
ATOM     30 CL   UNL d   1      -3.487  -3.035  -8.882  0.00  0.00    -0.084 Cl
ATOM     31  C   UNL d   1      -2.558  -2.367  -5.045  0.00  0.00     0.017 A 
ENDBRANCH  23  25
ENDBRANCH  22  23
ENDBRANCH  21  22
ENDBRANCH   3  21
TORSDOF 5
