REMARK  7 active torsions:
REMARK  status: ('A' for Active; 'I' for Inactive)
REMARK    1  A    between atoms: S_2  and  C_1 
REMARK    2  A    between atoms: N_8  and  S_2 
REMARK    3  A    between atoms: C_7  and  C_4 
REMARK    4  A    between atoms: O_14  and  C_7 
REMARK    5  A    between atoms: C_13  and  N_8 
REMARK    6  A    between atoms: C_15  and  C_13 
REMARK    7  A    between atoms: O_21  and  C_16 
ROOT
ATOM      1  S   UNL d   1       0.414   2.815   0.079  0.00  0.00     0.257 S 
ATOM      2  O   UNL d   1      -0.255   3.337   1.247  0.00  0.00    -0.204 OA
ATOM      3  O   UNL d   1       1.850   2.708  -0.029  0.00  0.00    -0.204 OA
ENDROOT
BRANCH   1   4
ATOM      4  C   UNL d   1      -0.137   1.123  -0.042  0.00  0.00     0.146 A 
ATOM      5  N   UNL d   1       0.142   0.154   0.914  0.00  0.00    -0.336 N 
ATOM      6  C   UNL d   1      -0.407  -1.067   0.535  0.00  0.00     0.111 A 
ATOM      7  C   UNL d   1       0.908   0.350   2.133  0.00  0.00     0.157 C 
ATOM      8  C   UNL d   1      -1.021  -0.858  -0.689  0.00  0.00     0.039 A 
ATOM      9  C   UNL d   1      -0.854   0.491  -1.046  0.00  0.00     0.046 A 
BRANCH   6  10
ATOM     10  C   UNL d   1      -0.332  -2.308   1.291  0.00  0.00     0.309 C 
ATOM     11  O   UNL d   1       0.224  -2.465   2.368  0.00  0.00    -0.258 OA
BRANCH  10  12
ATOM     12  O   UNL d   1      -0.995  -3.286   0.611  0.00  0.00    -0.321 OA
ATOM     13  C   UNL d   1      -1.017  -4.562   1.250  0.00  0.00     0.213 C 
ENDBRANCH  10  12
ENDBRANCH   6  10
ENDBRANCH   1   4
BRANCH   1  14
ATOM     14  N   UNL d   1      -0.143   3.612  -1.291  0.00  0.00    -0.210 NA
ATOM     15  H   UNL d   1       0.115   3.119  -2.145  0.00  0.00     0.140 HD
BRANCH  14  16
ATOM     16  C   UNL d   1      -1.531   4.091  -1.254  0.00  0.00     0.143 C 
BRANCH  16  17
ATOM     17  C   UNL d   1      -1.969   4.638  -2.595  0.00  0.00    -0.044 A 
ATOM     18  C   UNL d   1      -3.110   4.137  -3.240  0.00  0.00     0.011 A 
ATOM     19  C   UNL d   1      -3.523   4.657  -4.473  0.00  0.00     0.037 A 
ATOM     20  C   UNL d   1      -2.801   5.684  -5.079  0.00  0.00     0.068 A 
ATOM     21  C   UNL d   1      -1.683   6.208  -4.430  0.00  0.00     0.037 A 
ATOM     22  C   UNL d   1      -1.264   5.687  -3.202  0.00  0.00     0.011 A 
BRANCH  20  23
ATOM     23  O   UNL d   1      -3.120   6.278  -6.269  0.00  0.00    -0.356 OA
ATOM     24  C   UNL d   1      -3.799   5.450  -7.207  0.00  0.00     0.210 C 
ENDBRANCH  20  23
ENDBRANCH  16  17
ENDBRANCH  14  16
ENDBRANCH   1  14
TORSDOF 7
