REMARK  7 active torsions:
REMARK  status: ('A' for Active; 'I' for Inactive)
REMARK    1  A    between atoms: C_3  and  C_1 
REMARK    2  A    between atoms: S_8  and  C_2 
REMARK    3  A    between atoms: N_16  and  C_3 
REMARK    4  A    between atoms: C_4  and  C_7 
REMARK    5  A    between atoms: O_9  and  N_5 
REMARK    6  A    between atoms: C_7  and  O_9 
REMARK    7  A    between atoms: C_17  and  S_8 
ROOT
ATOM      1  C   UNL d   1      -2.916  -1.987  -0.473  0.00  0.00     0.106 A 
ATOM      2  C   UNL d   1      -3.488  -3.260  -0.337  0.00  0.00     0.105 A 
ATOM      3  N   UNL d   1      -3.681  -0.854  -0.368  0.00  0.00    -0.360 N 
ATOM      4  HN  UNL d   1      -3.268   0.075  -0.440  1.00  0.00     0.165 HD
ATOM      5  N   UNL d   1      -4.832  -3.406  -0.129  0.00  0.00    -0.357 N 
ATOM      6  HN  UNL d   1      -5.260  -4.326  -0.029  1.00  0.00     0.166 HD
ATOM      7  C   UNL d   1      -5.003  -1.021  -0.166  0.00  0.00     0.105 A 
ATOM      8  C   UNL d   1      -5.568  -2.274  -0.063  0.00  0.00     0.106 A 
ENDROOT
BRANCH   1   9
ATOM      9  C   UNL d   1      -1.469  -1.700  -0.865  0.00  0.00     0.128 C 
ATOM     10  N   UNL d   1      -1.156  -0.446  -1.052  0.00  0.00    -0.244 N 
ATOM     11  HN  UNL d   1      -1.729   0.330  -0.721  1.00  0.00     0.196 HD
BRANCH  10  12
ATOM     12  O   UNL d   1       0.057  -0.274  -1.758  0.00  0.00    -0.193 OA
BRANCH  12  13
ATOM     13  C   UNL d   1      -0.263   0.110  -3.043  0.00  0.00     0.316 C 
ATOM     14  O   UNL d   1      -1.363  -0.019  -3.564  0.00  0.00    -0.257 OA
BRANCH  13  15
ATOM     15  C   UNL d   1       0.890   0.742  -3.733  0.00  0.00     0.063 A 
ATOM     16  C   UNL d   1       0.921   0.874  -5.135  0.00  0.00     0.050 A 
ATOM     17 CL   UNL d   1      -0.243   0.173  -6.206  0.00  0.00    -0.083 Cl
ATOM     18  C   UNL d   1       1.957   1.587  -5.753  0.00  0.00     0.025 A 
ATOM     19  C   UNL d   1       2.974   2.161  -4.995  0.00  0.00     0.002 A 
ATOM     20  C   UNL d   1       2.969   2.016  -3.611  0.00  0.00     0.001 A 
ATOM     21  C   UNL d   1       1.933   1.317  -2.982  0.00  0.00     0.019 A 
ENDBRANCH  13  15
ENDBRANCH  12  13
ENDBRANCH  10  12
BRANCH   9  22
ATOM     22  N   UNL d   1      -0.546  -2.704  -1.071  0.00  0.00    -0.285 NA
ATOM     23  H   UNL d   1      -0.686  -3.578  -0.573  0.00  0.00     0.125 HD
ATOM     24  H   UNL d   1       0.413  -2.377  -1.035  0.00  0.00     0.125 HD
ENDBRANCH   9  22
ENDBRANCH   1   9
BRANCH   2  25
ATOM     25  S   UNL d   1      -2.593  -4.790  -0.203  0.00  0.00    -0.070 SA
BRANCH  25  26
ATOM     26  C   UNL d   1      -2.585  -5.492  -1.844  0.00  0.00     0.007 A 
ATOM     27  C   UNL d   1      -2.457  -4.740  -3.017  0.00  0.00     0.020 A 
ATOM     28  C   UNL d   1      -2.280  -5.376  -4.253  0.00  0.00     0.025 A 
ATOM     29  C   UNL d   1      -2.235  -6.766  -4.322  0.00  0.00     0.034 A 
ATOM     30  C   UNL d   1      -2.388  -7.529  -3.170  0.00  0.00     0.025 A 
ATOM     31 CL   UNL d   1      -1.959  -7.543  -5.832  0.00  0.00    -0.084 Cl
ATOM     32  C   UNL d   1      -2.562  -6.893  -1.937  0.00  0.00     0.020 A 
ENDBRANCH  25  26
ENDBRANCH   2  25
TORSDOF 7
