REMARK  6 active torsions:
REMARK  status: ('A' for Active; 'I' for Inactive)
REMARK    1  A    between atoms: C_2  and  S_1 
REMARK    2  A    between atoms: C_15  and  S_1 
REMARK    3  A    between atoms: N_7  and  C_3 
REMARK    4  A    between atoms: C_5  and  C_4 
REMARK    5  A    between atoms: C_17  and  C_5 
REMARK    6  A    between atoms: C_6  and  N_7 
ROOT
ATOM      1  C   UNL d   1      -2.917  -1.342  -0.899  0.00  0.00     0.110 C 
ATOM      2  C   UNL d   1      -1.950  -0.433  -0.675  0.00  0.00     0.115 C 
ATOM      3  C   UNL d   1      -2.566  -2.722  -0.818  0.00  0.00     0.105 C 
ATOM      4  N   UNL d   1      -2.247  -3.837  -0.776  0.00  0.00    -0.191 NA
ENDROOT
BRANCH   1   5
ATOM      5  C   UNL d   1      -4.330  -0.941  -1.173  0.00  0.00     0.204 C 
ATOM      6  O   UNL d   1      -4.763   0.152  -0.814  0.00  0.00    -0.286 OA
BRANCH   5   7
ATOM      7  C   UNL d   1      -5.234  -1.920  -1.845  0.00  0.00     0.015 A 
ATOM      8  C   UNL d   1      -6.554  -2.044  -1.397  0.00  0.00     0.015 A 
ATOM      9  C   UNL d   1      -7.404  -2.995  -1.970  0.00  0.00     0.001 A 
ATOM     10  C   UNL d   1      -6.943  -3.820  -2.996  0.00  0.00     0.000 A 
ATOM     11  C   UNL d   1      -5.640  -3.677  -3.471  0.00  0.00     0.001 A 
ATOM     12  C   UNL d   1      -4.793  -2.718  -2.911  0.00  0.00     0.015 A 
ENDBRANCH   5   7
ENDBRANCH   1   5
BRANCH   2  13
ATOM     13  N   UNL d   1      -1.951   0.954  -0.660  0.00  0.00    -0.363 N 
ATOM     14  H   UNL d   1      -2.871   1.346  -0.903  0.00  0.00     0.165 HD
BRANCH  13  15
ATOM     15  C   UNL d   1      -0.875   1.782  -0.462  0.00  0.00     0.060 A 
ATOM     16  C   UNL d   1      -0.914   3.217  -0.387  0.00  0.00     0.093 A 
ATOM     17  C   UNL d   1       0.345   3.772  -0.240  0.00  0.00     0.075 A 
ATOM     18  S   UNL d   1       1.570   2.594  -0.138  0.00  0.00    -0.110 SA
ATOM     19  C   UNL d   1       0.428   1.337  -0.317  0.00  0.00     0.080 A 
BRANCH  16  20
ATOM     20  S   UNL d   1      -2.328   4.213  -0.504  0.00  0.00     0.181 S 
ATOM     21  O   UNL d   1      -2.968   3.738  -1.718  0.00  0.00    -0.222 OA
ATOM     22  O   UNL d   1      -1.847   5.574  -0.374  0.00  0.00    -0.222 OA
BRANCH  20  23
ATOM     23  C   UNL d   1      -3.357   3.805   0.907  0.00  0.00     0.105 C 
ATOM     24  C   UNL d   1      -2.662   4.082   2.235  0.00  0.00     0.026 C 
ATOM     25  C   UNL d   1      -4.665   4.589   0.818  0.00  0.00     0.026 C 
ENDBRANCH  20  23
ENDBRANCH  16  20
ENDBRANCH  13  15
ENDBRANCH   2  13
TORSDOF 6
