REMARK  5 active torsions:
REMARK  status: ('A' for Active; 'I' for Inactive)
REMARK    1  A    between atoms: C_2  and  C_1 
REMARK       I    between atoms: N_5  and  C_1 
REMARK    2  A    between atoms: C_3  and  C_7 
REMARK    3  A    between atoms: C_4  and  C_6 
REMARK    4  A    between atoms: C_22  and  N_11 
REMARK    5  A    between atoms: C_21  and  C_22 
ROOT
ATOM      1  C   UNL d   1       0.763  -0.009   0.071  0.00  0.00     0.253 C 
ATOM      2  N   UNL d   1       0.348  -1.265  -0.375  0.00  0.00    -0.345 N 
ATOM      3  N   UNL d   1      -0.317  -4.024  -1.238  0.00  0.00     0.095 N 
ATOM      4  O   UNL d   1       1.681   0.151   0.875  0.00  0.00    -0.267 OA
ATOM      5  C   UNL d   1       0.930  -2.431   0.296  0.00  0.00     0.156 C 
ATOM      6  C   UNL d   1      -0.833  -1.524  -1.213  0.00  0.00     0.156 C 
ATOM      7  C   UNL d   1       0.976  -3.679  -0.604  0.00  0.00     0.292 C 
ATOM      8  C   UNL d   1      -0.774  -2.847  -2.003  0.00  0.00     0.292 C 
ENDROOT
BRANCH   1   9
ATOM      9  C   UNL d   1       0.131   1.221  -0.468  0.00  0.00     0.033 A 
ATOM     10  C   UNL d   1      -1.252   1.418  -0.441  0.00  0.00     0.033 A 
ATOM     11  C   UNL d   1      -1.817   2.561  -1.022  0.00  0.00     0.049 A 
ATOM     12  C   UNL d   1      -0.964   3.549  -1.546  0.00  0.00     0.032 A 
ATOM     13  C   UNL d   1       0.434   3.401  -1.506  0.00  0.00     0.049 A 
ATOM     14  C   UNL d   1       0.972   2.222  -0.971  0.00  0.00     0.033 A 
BRANCH  11  15
ATOM     15  C   UNL d   1      -3.317   2.722  -1.112  0.00  0.00     0.417 C 
ATOM     16  F   UNL d   1      -4.003   1.663  -0.599  0.00  0.00    -0.166 F 
ATOM     17  F   UNL d   1      -3.768   3.822  -0.456  0.00  0.00    -0.166 F 
ATOM     18  F   UNL d   1      -3.740   2.846  -2.401  0.00  0.00    -0.166 F 
ENDBRANCH  11  15
BRANCH  13  19
ATOM     19  C   UNL d   1       1.326   4.492  -2.049  0.00  0.00     0.417 C 
ATOM     20  F   UNL d   1       2.654   4.252  -1.875  0.00  0.00    -0.166 F 
ATOM     21  F   UNL d   1       1.150   4.680  -3.385  0.00  0.00    -0.166 F 
ATOM     22  F   UNL d   1       1.081   5.697  -1.465  0.00  0.00    -0.166 F 
ENDBRANCH  13  19
ENDBRANCH   1   9
BRANCH   3  23
ATOM     23  C   UNL d   1      -1.288  -4.455  -0.220  0.00  0.00     0.311 C 
BRANCH  23  24
ATOM     24  C   UNL d   1      -2.483  -5.244  -0.719  0.00  0.00    -0.027 A 
ATOM     25  C   UNL d   1      -3.547  -5.444   0.181  0.00  0.00     0.048 A 
ATOM     26  C   UNL d   1      -4.529  -6.349  -0.158  0.00  0.00     0.105 A 
ATOM     27  O   UNL d   1      -5.556  -6.737   0.644  0.00  0.00    -0.323 OA
ATOM     28  C   UNL d   1      -4.519  -7.013  -1.360  0.00  0.00     0.105 A 
ATOM     29  C   UNL d   1      -6.055  -7.862  -0.112  0.00  0.00     0.352 C 
ATOM     30  O   UNL d   1      -5.540  -7.909  -1.459  0.00  0.00    -0.323 OA
ATOM     31  C   UNL d   1      -3.536  -6.796  -2.298  0.00  0.00     0.040 A 
ATOM     32  C   UNL d   1      -2.497  -5.918  -1.962  0.00  0.00     0.012 A 
ENDBRANCH  23  24
ENDBRANCH   3  23
TORSDOF 5
