REMARK  7 active torsions:
REMARK  status: ('A' for Active; 'I' for Inactive)
REMARK    1  A    between atoms: C_3  and  C_1 
REMARK    2  A    between atoms: S_7  and  C_2 
REMARK    3  A    between atoms: N_15  and  C_3 
REMARK    4  A    between atoms: O_13  and  N_4 
REMARK    5  A    between atoms: C_6  and  O_13 
REMARK       I    between atoms: N_12  and  C_6 
REMARK    6  A    between atoms: C_16  and  S_7 
REMARK    7  A    between atoms: C_17  and  N_12 
ROOT
ATOM      1  C   UNL d   1      -1.609  -1.931   0.264  0.00  0.00     0.149 C 
ATOM      2  N   UNL d   1      -1.202  -3.133   0.582  0.00  0.00    -0.238 N 
ATOM      3  HN  UNL d   1      -1.820  -3.939   0.683  1.00  0.00     0.197 HD
ENDROOT
BRANCH   1   4
ATOM      4  C   UNL d   1      -3.081  -1.782  -0.094  0.00  0.00     0.112 A 
ATOM      5  C   UNL d   1      -3.745  -0.576  -0.351  0.00  0.00     0.105 A 
ATOM      6  N   UNL d   1      -5.084  -0.562  -0.616  0.00  0.00    -0.357 N 
ATOM      7  C   UNL d   1      -5.723  -1.754  -0.625  0.00  0.00     0.106 A 
ATOM      8  HN  UNL d   1      -5.581   0.310  -0.800  1.00  0.00     0.166 HD
ATOM      9  C   UNL d   1      -5.063  -2.942  -0.404  0.00  0.00     0.105 A 
ATOM     10  N   UNL d   1      -3.744  -2.982  -0.137  0.00  0.00    -0.359 N 
ATOM     11  HN  UNL d   1      -3.259  -3.865   0.026  1.00  0.00     0.165 HD
BRANCH   5  12
ATOM     12  S   UNL d   1      -3.029   1.046  -0.269  0.00  0.00    -0.070 SA
BRANCH  12  13
ATOM     13  C   UNL d   1      -2.589   1.471  -1.946  0.00  0.00     0.007 A 
ATOM     14  C   UNL d   1      -2.487   0.563  -3.009  0.00  0.00     0.020 A 
ATOM     15  C   UNL d   1      -2.069   0.996  -4.275  0.00  0.00     0.025 A 
ATOM     16  C   UNL d   1      -1.750   2.333  -4.487  0.00  0.00     0.034 A 
ATOM     17  C   UNL d   1      -1.845   3.249  -3.446  0.00  0.00     0.025 A 
ATOM     18 CL   UNL d   1      -1.225   2.858  -6.040  0.00  0.00    -0.084 Cl
ATOM     19  C   UNL d   1      -2.262   2.816  -2.183  0.00  0.00     0.020 A 
ENDBRANCH  12  13
ENDBRANCH   5  12
ENDBRANCH   1   4
BRANCH   1  20
ATOM     20  N   UNL d   1      -0.743  -0.868   0.288  0.00  0.00    -0.382 N 
ATOM     21  H   UNL d   1      -0.981   0.038  -0.099  0.00  0.00     0.157 HD
ATOM     22  H   UNL d   1       0.247  -1.078   0.365  0.00  0.00     0.157 HD
ENDBRANCH   1  20
BRANCH   2  23
ATOM     23  O   UNL d   1       0.201  -3.178   0.767  0.00  0.00    -0.179 OA
BRANCH  23  24
ATOM     24  C   UNL d   1       0.558  -3.846   1.925  0.00  0.00     0.387 C 
ATOM     25  N   UNL d   1      -0.488  -3.996   2.807  0.00  0.00    -0.301 N 
ATOM     26  H   UNL d   1      -1.354  -3.632   2.421  0.00  0.00     0.171 HD
ATOM     27  O   UNL d   1       1.729  -4.149   2.121  0.00  0.00    -0.236 OA
BRANCH  25  28
ATOM     28  C   UNL d   1      -0.441  -4.422   4.141  0.00  0.00     0.037 A 
ATOM     29  C   UNL d   1       0.681  -5.024   4.713  0.00  0.00     0.031 A 
ATOM     30  C   UNL d   1       0.689  -5.369   6.071  0.00  0.00     0.026 A 
ATOM     31  C   UNL d   1      -0.429  -5.107   6.857  0.00  0.00     0.034 A 
ATOM     32  C   UNL d   1      -1.562  -4.524   6.295  0.00  0.00     0.026 A 
ATOM     33 CL   UNL d   1      -0.405  -5.497   8.532  0.00  0.00    -0.084 Cl
ATOM     34  C   UNL d   1      -1.571  -4.194   4.935  0.00  0.00     0.031 A 
ENDBRANCH  25  28
ENDBRANCH  23  24
ENDBRANCH   2  23
TORSDOF 7
