REMARK  4 active torsions:
REMARK  status: ('A' for Active; 'I' for Inactive)
REMARK    1  A    between atoms: C_4  and  C_1 
REMARK    2  A    between atoms: N_16  and  C_8 
REMARK    3  A    between atoms: C_17  and  N_16 
REMARK    4  A    between atoms: C_18  and  C_17 
ROOT
ATOM      1  C   UNL d   1       2.026  -2.382  -0.016  0.00  0.00     0.015 A 
ATOM      2  C   UNL d   1       2.771  -4.395  -1.150  0.00  0.00     0.089 A 
ATOM      3  N   UNL d   1       3.790  -3.767   0.912  0.00  0.00    -0.344 N 
ATOM      4  HN  UNL d   1       4.466  -3.942   1.656  1.00  0.00     0.167 HD
ATOM      5  C   UNL d   1       3.688  -4.626  -0.125  0.00  0.00     0.122 A 
ATOM      6  C   UNL d   1       1.941  -3.272  -1.091  0.00  0.00     0.042 A 
ATOM      7  C   UNL d   1       2.986  -2.663   0.963  0.00  0.00     0.019 A 
ATOM      8  C   UNL d   1       2.624  -5.305  -2.243  0.00  0.00     0.103 C 
ATOM      9  N   UNL d   1       2.488  -6.013  -3.154  0.00  0.00    -0.191 NA
ATOM     10  C   UNL d   1       3.194  -1.789   2.168  0.00  0.00     0.069 C 
ENDROOT
BRANCH   5  11
ATOM     11  N   UNL d   1       4.439  -5.793  -0.116  0.00  0.00    -0.371 N 
ATOM     12  H   UNL d   1       4.950  -5.977  -0.972  0.00  0.00     0.161 HD
BRANCH  11  13
ATOM     13  C   UNL d   1       5.141  -6.201   1.085  0.00  0.00     0.160 C 
BRANCH  13  14
ATOM     14  C   UNL d   1       4.864  -7.676   1.276  0.00  0.00    -0.041 A 
ATOM     15  C   UNL d   1       5.734  -8.655   0.778  0.00  0.00     0.009 A 
ATOM     16  C   UNL d   1       5.419 -10.010   0.910  0.00  0.00     0.001 A 
ATOM     17  C   UNL d   1       4.232 -10.397   1.532  0.00  0.00     0.000 A 
ATOM     18  C   UNL d   1       3.354  -9.432   2.019  0.00  0.00     0.001 A 
ATOM     19  C   UNL d   1       3.666  -8.079   1.888  0.00  0.00     0.009 A 
ENDBRANCH  13  14
ENDBRANCH  11  13
ENDBRANCH   5  11
BRANCH   1  20
ATOM     20  C   UNL d   1       1.132  -1.230   0.046  0.00  0.00     0.051 A 
ATOM     21  N   UNL d   1       1.545  -0.014   0.560  0.00  0.00    -0.353 N 
ATOM     22  C   UNL d   1       0.564   0.861   0.511  0.00  0.00     0.047 A 
ATOM     23  HN  UNL d   1       2.478   0.178   0.924  1.00  0.00     0.166 HD
ATOM     24  C   UNL d   1       0.662   2.263   0.999  0.00  0.00     0.076 C 
ATOM     25  S   UNL d   1      -0.905   0.286  -0.165  0.00  0.00    -0.087 SA
ATOM     26  C   UNL d   1      -0.180  -1.250  -0.393  0.00  0.00     0.081 A 
ENDBRANCH   1  20
TORSDOF 4
