REMARK  4 active torsions:
REMARK  status: ('A' for Active; 'I' for Inactive)
REMARK    1  A    between atoms: C_2  and  C_1 
REMARK    2  A    between atoms: C_3  and  C_2 
REMARK       I    between atoms: C_4  and  N_6 
REMARK    3  A    between atoms: C_7  and  C_4 
REMARK    4  A    between atoms: N_6  and  C_5 
ROOT
ATOM      1  C   UNL d   1       2.100   1.190  -0.563  0.00  0.00     0.043 C 
ATOM      2  C   UNL d   1       2.486   0.161   0.330  0.00  0.00     0.049 C 
ATOM      3  C   UNL d   1       0.812   1.171  -1.111  0.00  0.00     0.041 C 
ATOM      4  C   UNL d   1       1.674  -0.966   0.494  0.00  0.00     0.032 C 
ATOM      5  C   UNL d   1      -0.043   0.105  -0.821  0.00  0.00     0.035 C 
ATOM      6  C   UNL d   1       0.399  -0.983  -0.068  0.00  0.00     0.026 C 
ATOM      7 CL   UNL d   1      -1.662   0.128  -1.404  0.00  0.00    -0.084 Cl
ENDROOT
BRANCH   2   8
ATOM      8  N   UNL d   1       3.596   0.274   1.205  0.00  0.00    -0.322 N 
ATOM      9  C   UNL d   1       3.795   1.454   1.910  0.00  0.00     0.256 C 
ATOM     10  O   UNL d   1       3.073   2.449   1.829  0.00  0.00    -0.267 OA
ATOM     11  H   UNL d   1       3.955  -0.572   1.624  0.00  0.00     0.169 HD
BRANCH   9  12
ATOM     12  C   UNL d   1       4.862   1.454   2.937  0.00  0.00     0.035 A 
ATOM     13  C   UNL d   1       4.679   2.279   4.054  0.00  0.00     0.059 A 
ATOM     14  C   UNL d   1       5.658   2.332   5.032  0.00  0.00     0.117 A 
ATOM     15  F   UNL d   1       5.480   3.122   6.100  0.00  0.00    -0.206 F 
ATOM     16  C   UNL d   1       6.821   1.581   4.920  0.00  0.00     0.042 A 
ATOM     17  C   UNL d   1       7.010   0.760   3.806  0.00  0.00     0.004 A 
ATOM     18  C   UNL d   1       6.031   0.695   2.809  0.00  0.00     0.017 A 
ENDBRANCH   9  12
ENDBRANCH   2   8
BRANCH   1  19
ATOM     19  C   UNL d   1       3.118   2.169  -1.048  0.00  0.00     0.196 C 
ATOM     20  O   UNL d   1       4.295   1.817  -1.114  0.00  0.00    -0.287 OA
BRANCH  19  21
ATOM     21  C   UNL d   1       2.765   3.545  -1.483  0.00  0.00     0.037 A 
ATOM     22  C   UNL d   1       3.335   4.120  -2.630  0.00  0.00     0.048 A 
ATOM     23 CL   UNL d   1       4.332   3.244  -3.741  0.00  0.00    -0.083 Cl
ATOM     24  C   UNL d   1       3.067   5.456  -2.950  0.00  0.00     0.025 A 
ATOM     25  C   UNL d   1       2.224   6.219  -2.142  0.00  0.00     0.002 A 
ATOM     26  C   UNL d   1       1.644   5.649  -1.012  0.00  0.00     0.001 A 
ATOM     27  C   UNL d   1       1.917   4.319  -0.676  0.00  0.00     0.017 A 
ENDBRANCH  19  21
ENDBRANCH   1  19
TORSDOF 4
