REMARK  9 active torsions:
REMARK  status: ('A' for Active; 'I' for Inactive)
REMARK    1  A    between atoms: C_3  and  C_1 
REMARK    2  A    between atoms: C_15  and  C_2 
REMARK    3  A    between atoms: S_6  and  C_13 
REMARK    4  A    between atoms: C_20  and  S_6 
REMARK    5  A    between atoms: C_13  and  C_9 
REMARK    6  A    between atoms: C_10  and  C_17 
REMARK    7  A    between atoms: O_27  and  C_15 
REMARK    8  A    between atoms: C_23  and  C_20 
REMARK    9  A    between atoms: C_32  and  O_27 
ROOT
ATOM      1  C   UNL d   1       0.334  -2.732  -0.086  0.00  0.00     0.054 A 
ATOM      2  N   UNL d   1       1.157  -3.220   0.920  0.00  0.00    -0.352 N 
ATOM      3  HN  UNL d   1       1.498  -2.675   1.713  1.00  0.00     0.166 HD
ATOM      4  C   UNL d   1       1.434  -4.491   0.702  0.00  0.00     0.065 A 
ATOM      5  C   UNL d   1       0.067  -3.633  -1.096  0.00  0.00     0.082 A 
ATOM      6  S   UNL d   1       0.735  -5.161  -0.720  0.00  0.00    -0.085 SA
ENDROOT
BRANCH   4   7
ATOM      7  C   UNL d   1       2.239  -5.340   1.615  0.00  0.00     0.205 C 
BRANCH   7   8
ATOM      8  S   UNL d   1       3.952  -5.280   1.118  0.00  0.00     0.154 S 
ATOM      9  O   UNL d   1       4.673  -6.101   2.077  0.00  0.00    -0.227 OA
ATOM     10  O   UNL d   1       4.037  -5.581  -0.300  0.00  0.00    -0.227 OA
BRANCH   8  11
ATOM     11  C   UNL d   1       4.420  -3.573   1.394  0.00  0.00     0.179 C 
BRANCH  11  12
ATOM     12  C   UNL d   1       5.868  -3.376   1.022  0.00  0.00    -0.043 A 
ATOM     13  C   UNL d   1       6.892  -3.585   1.961  0.00  0.00     0.024 A 
ATOM     14  C   UNL d   1       8.239  -3.368   1.622  0.00  0.00     0.048 A 
ATOM     15  C   UNL d   1       8.553  -2.948   0.321  0.00  0.00     0.016 A 
ATOM     16  C   UNL d   1       7.546  -2.757  -0.623  0.00  0.00     0.001 A 
ATOM     17  C   UNL d   1       6.212  -2.971  -0.276  0.00  0.00     0.008 A 
BRANCH  14  18
ATOM     18  C   UNL d   1       9.345  -3.568   2.630  0.00  0.00     0.417 C 
ATOM     19  F   UNL d   1       8.904  -3.961   3.857  0.00  0.00    -0.166 F 
ATOM     20  F   UNL d   1      10.251  -4.507   2.238  0.00  0.00    -0.166 F 
ATOM     21  F   UNL d   1      10.061  -2.428   2.843  0.00  0.00    -0.166 F 
ENDBRANCH  14  18
ENDBRANCH  11  12
ENDBRANCH   8  11
ENDBRANCH   7   8
ENDBRANCH   4   7
BRANCH   1  22
ATOM     22  C   UNL d   1      -0.102  -1.338   0.002  0.00  0.00     0.057 A 
ATOM     23  C   UNL d   1      -1.272  -0.738  -0.547  0.00  0.00     0.144 A 
ATOM     24  N   UNL d   1      -1.279   0.584  -0.299  0.00  0.00    -0.254 N 
ATOM     25  O   UNL d   1      -0.142   0.848   0.434  0.00  0.00    -0.241 OA
ATOM     26  HN  UNL d   1      -1.984   1.258  -0.596  1.00  0.00     0.195 HD
ATOM     27  C   UNL d   1       0.561  -0.299   0.615  0.00  0.00     0.087 A 
ATOM     28  C   UNL d   1       1.829  -0.174   1.356  0.00  0.00     0.080 C 
BRANCH  23  29
ATOM     29  C   UNL d   1      -2.351  -1.363  -1.309  0.00  0.00     0.312 C 
ATOM     30  O   UNL d   1      -2.632  -2.554  -1.240  0.00  0.00    -0.258 OA
BRANCH  29  31
ATOM     31  O   UNL d   1      -2.916  -0.501  -2.211  0.00  0.00    -0.317 OA
BRANCH  31  32
ATOM     32  C   UNL d   1      -3.580  -1.127  -3.317  0.00  0.00     0.175 C 
ATOM     33  C   UNL d   1      -2.541  -1.437  -4.382  0.00  0.00     0.034 C 
ENDBRANCH  31  32
ENDBRANCH  29  31
ENDBRANCH  23  29
ENDBRANCH   1  22
TORSDOF 9
