REMARK  9 active torsions:
REMARK  status: ('A' for Active; 'I' for Inactive)
REMARK    1  A    between atoms: N_2  and  C_1 
REMARK    2  A    between atoms: C_3  and  C_1 
REMARK    3  A    between atoms: N_5  and  C_1 
REMARK    4  A    between atoms: C_6  and  C_1 
REMARK       I    between atoms: C_4  and  N_2 
REMARK    5  A    between atoms: C_7  and  C_4 
REMARK    6  A    between atoms: C_17  and  N_5 
REMARK    7  A    between atoms: O_19  and  C_6 
REMARK    8  A    between atoms: C_18  and  C_17 
REMARK    9  A    between atoms: C_24  and  O_19 
ROOT
ATOM      1  C   UNL d   1       1.049   0.076  -0.102  0.00  0.00     0.416 C 
ENDROOT
BRANCH   1   2
ATOM      2  N   UNL d   1       0.652   0.384   1.295  0.00  0.00    -0.306 N 
ATOM      3  C   UNL d   1       0.935  -0.407   2.383  0.00  0.00     0.255 C 
ATOM      4  O   UNL d   1       1.455  -1.508   2.283  0.00  0.00    -0.268 OA
ATOM      5  H   UNL d   1       0.172   1.266   1.428  0.00  0.00     0.166 HD
BRANCH   3   6
ATOM      6  C   UNL d   1       0.550   0.132   3.712  0.00  0.00     0.047 A 
ATOM      7  C   UNL d   1       0.233  -0.754   4.734  0.00  0.00     0.104 A 
ATOM      8  N   UNL d   1      -0.096  -0.370   5.995  0.00  0.00    -0.374 N 
ATOM      9  C   UNL d   1      -0.088   0.957   6.248  0.00  0.00     0.087 A 
ATOM     10  HN  UNL d   1      -0.338  -1.051   6.715  1.00  0.00     0.164 HD
ATOM     11  C   UNL d   1       0.213   1.918   5.297  0.00  0.00     0.018 A 
ATOM     12  C   UNL d   1       0.536   1.498   4.006  0.00  0.00     0.020 A 
ENDBRANCH   3   6
ENDBRANCH   1   2
BRANCH   1  13
ATOM     13  C   UNL d   1       0.626   1.249  -1.080  0.00  0.00     0.453 C 
ATOM     14  F   UNL d   1      -0.070   2.194  -0.379  0.00  0.00    -0.166 F 
ATOM     15  F   UNL d   1       1.653   1.899  -1.671  0.00  0.00    -0.166 F 
ATOM     16  F   UNL d   1      -0.197   0.839  -2.075  0.00  0.00    -0.166 F 
ENDBRANCH   1  13
BRANCH   1  17
ATOM     17  N   UNL d   1       0.548  -1.288  -0.421  0.00  0.00     0.138 N 
ATOM     18  H   UNL d   1       0.942  -1.919   0.288  0.00  0.00     0.320 HD
BRANCH  17  19
ATOM     19  C   UNL d   1      -0.913  -1.417  -0.366  0.00  0.00     0.331 C 
BRANCH  19  20
ATOM     20  C   UNL d   1      -1.387  -2.804  -0.756  0.00  0.00     0.037 A 
ATOM     21  N   UNL d   1      -2.040  -3.524   0.191  0.00  0.00    -0.368 N 
ATOM     22  C   UNL d   1      -2.485  -4.750  -0.159  0.00  0.00     0.088 A 
ATOM     23  HN  UNL d   1      -2.189  -3.154   1.130  1.00  0.00     0.165 HD
ATOM     24  C   UNL d   1      -2.319  -5.301  -1.419  0.00  0.00     0.017 A 
ATOM     25  C   UNL d   1      -1.649  -4.553  -2.378  0.00  0.00     0.003 A 
ATOM     26  C   UNL d   1      -1.174  -3.287  -2.046  0.00  0.00     0.027 A 
ENDBRANCH  19  20
ENDBRANCH  17  19
ENDBRANCH   1  17
BRANCH   1  27
ATOM     27  C   UNL d   1       2.598   0.140  -0.222  0.00  0.00     0.329 C 
ATOM     28  O   UNL d   1       3.311   0.851   0.486  0.00  0.00    -0.260 OA
BRANCH  27  29
ATOM     29  O   UNL d   1       3.048  -0.558  -1.310  0.00  0.00    -0.318 OA
BRANCH  29  30
ATOM     30  C   UNL d   1       4.367  -0.240  -1.786  0.00  0.00     0.174 C 
ATOM     31  C   UNL d   1       5.348  -1.349  -1.464  0.00  0.00     0.034 C 
ENDBRANCH  29  30
ENDBRANCH  27  29
ENDBRANCH   1  27
TORSDOF 9
