REMARK  5 active torsions:
REMARK  status: ('A' for Active; 'I' for Inactive)
REMARK    1  A    between atoms: C_4  and  C_1 
REMARK    2  A    between atoms: N_5  and  N_2 
REMARK    3  A    between atoms: O_13  and  C_4 
REMARK    4  A    between atoms: C_6  and  N_5 
REMARK    5  A    between atoms: C_17  and  O_13 
ROOT
ATOM      1  N   UNL d   1       0.989   2.243   0.885  0.00  0.00    -0.206 NA
ATOM      2  H   UNL d   1       1.719   2.538   0.236  0.00  0.00     0.153 HD
ENDROOT
BRANCH   1   3
ATOM      3  N   UNL d   1       0.297   1.121   0.537  0.00  0.00    -0.315 N 
ATOM      4  C   UNL d   1       0.979   0.075   0.164  0.00  0.00     0.092 C 
ATOM      5  C   UNL d   1       2.477  -0.063   0.129  0.00  0.00     0.076 C 
ATOM      6  HN  UNL d   1      -0.722   1.101   0.567  1.00  0.00     0.181 HD
BRANCH   4   7
ATOM      7  C   UNL d   1       0.209  -1.127  -0.368  0.00  0.00     0.306 C 
ATOM      8  O   UNL d   1       0.671  -1.834  -1.247  0.00  0.00    -0.258 OA
BRANCH   7   9
ATOM      9  O   UNL d   1      -1.015  -1.199   0.189  0.00  0.00    -0.317 OA
BRANCH   9  10
ATOM     10  C   UNL d   1      -1.968  -1.981  -0.539  0.00  0.00     0.175 C 
ATOM     11  C   UNL d   1      -2.635  -1.086  -1.570  0.00  0.00     0.034 C 
ENDBRANCH   9  10
ENDBRANCH   7   9
ENDBRANCH   4   7
ENDBRANCH   1   3
BRANCH   1  12
ATOM     12  C   UNL d   1       0.204   3.359   1.279  0.00  0.00     0.028 A 
ATOM     13  C   UNL d   1      -1.020   3.207   1.945  0.00  0.00     0.032 A 
ATOM     14  C   UNL d   1      -1.754   4.322   2.375  0.00  0.00    -0.060 A 
ATOM     15  C   UNL d   1      -3.063   4.154   3.088  0.00  0.00     0.048 C 
ATOM     16  C   UNL d   1      -1.253   5.606   2.130  0.00  0.00     0.013 A 
ATOM     17  C   UNL d   1      -0.024   5.784   1.484  0.00  0.00    -0.060 A 
ATOM     18  C   UNL d   1       0.706   4.654   1.086  0.00  0.00     0.032 A 
ATOM     19  C   UNL d   1       0.495   7.166   1.228  0.00  0.00     0.048 C 
ENDBRANCH   1  12
TORSDOF 5
