REMARK  4 active torsions:
REMARK  status: ('A' for Active; 'I' for Inactive)
REMARK    1  A    between atoms: S_11  and  C_3 
REMARK    2  A    between atoms: C_12  and  C_4 
REMARK    3  A    between atoms: C_9  and  C_13 
REMARK       I    between atoms: N_10  and  C_9 
REMARK    4  A    between atoms: C_13  and  S_11 
ROOT
ATOM      1  N   UNL d   1      -1.684   1.224  -0.221  0.00  0.00    -0.334 N 
ATOM      2  HN  UNL d   1      -2.239   2.074  -0.312  1.00  0.00     0.168 HD
ATOM      3  C   UNL d   1      -0.337   1.254  -0.318  0.00  0.00     0.095 A 
ATOM      4  C   UNL d   1      -2.267   0.029   0.002  0.00  0.00     0.133 A 
ATOM      5  N   UNL d   1      -1.584  -1.128   0.111  0.00  0.00    -0.343 N 
ATOM      6  HN  UNL d   1      -2.067  -2.013   0.270  1.00  0.00     0.167 HD
ATOM      7  C   UNL d   1       0.450   0.113  -0.194  0.00  0.00     0.089 A 
ATOM      8  C   UNL d   1      -0.236  -1.077   0.004  0.00  0.00     0.031 A 
ATOM      9 CL   UNL d   1       2.176   0.139  -0.283  0.00  0.00    -0.079 Cl
ATOM     10  C   UNL d   1       0.464  -2.406   0.079  0.00  0.00     0.070 C 
ENDROOT
BRANCH   3  11
ATOM     11  S   UNL d   1       0.370   2.849  -0.750  0.00  0.00    -0.101 SA
BRANCH  11  12
ATOM     12  C   UNL d   1      -0.920   3.985  -0.137  0.00  0.00     0.183 C 
BRANCH  12  13
ATOM     13  C   UNL d   1      -0.513   5.419  -0.459  0.00  0.00     0.229 C 
ATOM     14  N   UNL d   1      -0.950   5.995  -1.643  0.00  0.00    -0.347 N 
ATOM     15  C   UNL d   1      -0.564   7.373  -1.967  0.00  0.00     0.152 C 
ATOM     16  C   UNL d   1      -1.617   5.310  -2.756  0.00  0.00     0.152 C 
ATOM     17  C   UNL d   1       0.266   7.400  -3.254  0.00  0.00     0.187 C 
ATOM     18  O   UNL d   1      -0.453   6.784  -4.338  0.00  0.00    -0.388 OA
ATOM     19  C   UNL d   1      -0.765   5.415  -4.029  0.00  0.00     0.187 C 
ATOM     20  O   UNL d   1       0.193   6.047   0.338  0.00  0.00    -0.273 OA
ENDBRANCH  12  13
ENDBRANCH  11  12
ENDBRANCH   3  11
BRANCH   4  21
ATOM     21  C   UNL d   1      -3.750  -0.032   0.106  0.00  0.00     0.076 A 
ATOM     22  N   UNL d   1      -4.442   1.128  -0.095  0.00  0.00    -0.363 N 
ATOM     23  C   UNL d   1      -5.790   1.084  -0.013  0.00  0.00     0.088 A 
ATOM     24  HN  UNL d   1      -3.956   2.001  -0.301  1.00  0.00     0.165 HD
ATOM     25  C   UNL d   1      -6.511  -0.063   0.263  0.00  0.00     0.017 A 
ATOM     26  C   UNL d   1      -5.809  -1.242   0.471  0.00  0.00     0.004 A 
ATOM     27  C   UNL d   1      -4.418  -1.228   0.392  0.00  0.00     0.033 A 
ENDBRANCH   4  21
TORSDOF 4
