REMARK  2 active torsions:
REMARK  status: ('A' for Active; 'I' for Inactive)
REMARK    1  A    between atoms: C_2  and  C_1 
REMARK    2  A    between atoms: N_3  and  C_4 
REMARK       I    between atoms: C_7  and  N_3 
ROOT
ATOM      1  C   UNL d   1       0.687   1.088   0.721  0.00  0.00     0.049 A 
ATOM      2  C   UNL d   1      -0.078   3.260   2.380  0.00  0.00     0.052 A 
ATOM      3  C   UNL d   1      -0.455   1.940   2.691  0.00  0.00     0.038 A 
ATOM      4  C   UNL d   1      -0.078   0.866   1.874  0.00  0.00     0.037 A 
ATOM      5  C   UNL d   1       1.057   2.402   0.406  0.00  0.00     0.018 A 
ATOM      6  C   UNL d   1       0.679   3.472   1.225  0.00  0.00     0.032 A 
ATOM      7 BR   UNL d   1      -1.492   1.546   4.239  0.00  0.00    -0.049 Br
ENDROOT
BRANCH   2   8
ATOM      8  N   UNL d   1      -0.471   4.309   3.246  0.00  0.00    -0.326 N 
ATOM      9  C   UNL d   1      -0.195   5.657   3.121  0.00  0.00     0.218 C 
ATOM     10  O   UNL d   1       0.428   6.196   2.211  0.00  0.00    -0.274 OA
ATOM     11  C   UNL d   1      -0.753   6.490   4.248  0.00  0.00     0.117 C 
ATOM     12  H   UNL d   1      -1.014   4.016   4.051  0.00  0.00     0.169 HD
ENDBRANCH   2   8
BRANCH   1  13
ATOM     13  C   UNL d   1       1.121  -0.047  -0.173  0.00  0.00     0.417 C 
ATOM     14  F   UNL d   1       0.685  -1.267   0.246  0.00  0.00    -0.166 F 
ATOM     15  F   UNL d   1       2.476  -0.146  -0.265  0.00  0.00    -0.166 F 
ATOM     16  F   UNL d   1       0.668   0.094  -1.449  0.00  0.00    -0.166 F 
ENDBRANCH   1  13
TORSDOF 2
