REMARK  3 active torsions:
REMARK  status: ('A' for Active; 'I' for Inactive)
REMARK    1  A    between atoms: C_2  and  C_1 
REMARK    2  A    between atoms: O_11  and  N_3 
REMARK    3  A    between atoms: C_9  and  C_10 
ROOT
ATOM      1  C   UNL d   1       0.688   0.711   1.245  0.00  0.00     0.048 A 
ATOM      2  C   UNL d   1       0.374   0.021   2.426  0.00  0.00     0.029 A 
ATOM      3  C   UNL d   1       0.111   0.724   3.606  0.00  0.00    -0.018 A 
ATOM      4  C   UNL d   1       0.720   2.116   1.268  0.00  0.00     0.016 A 
ATOM      5  C   UNL d   1       0.451   2.816   2.447  0.00  0.00     0.002 A 
ATOM      6  C   UNL d   1       0.149   2.121   3.619  0.00  0.00     0.013 A 
ENDROOT
BRANCH   3   7
ATOM      7  C   UNL d   1      -0.200   0.005   4.856  0.00  0.00     0.125 C 
ATOM      8  N   UNL d   1      -0.236  -1.288   4.909  0.00  0.00    -0.280 N 
ATOM      9  HN  UNL d   1      -0.067  -1.918   4.124  1.00  0.00     0.193 HD
BRANCH   8  10
ATOM     10  O   UNL d   1      -0.545  -1.683   6.215  0.00  0.00    -0.290 OA
ATOM     11  H   UNL d   1      -0.537  -2.656   6.146  0.00  0.00     0.244 HD
ENDBRANCH   8  10
ENDBRANCH   3   7
BRANCH   1  12
ATOM     12  C   UNL d   1       0.994  -0.032  -0.032  0.00  0.00     0.417 C 
ATOM     13  F   UNL d   1       0.964  -1.387   0.101  0.00  0.00    -0.166 F 
ATOM     14  F   UNL d   1       2.230   0.266  -0.521  0.00  0.00    -0.166 F 
ATOM     15  F   UNL d   1       0.116   0.265  -1.030  0.00  0.00    -0.166 F 
ENDBRANCH   1  12
TORSDOF 3
