REMARK  5 active torsions:
REMARK  status: ('A' for Active; 'I' for Inactive)
REMARK    1  A    between atoms: C_2  and  C_1 
REMARK    2  A    between atoms: C_5  and  C_2 
REMARK    3  A    between atoms: N_10  and  N_3 
REMARK    4  A    between atoms: C_12  and  N_10 
REMARK    5  A    between atoms: O_18  and  C_13 
ROOT
ATOM      1  C   UNL d   1       0.948  -0.004   0.043  0.00  0.00     0.175 C 
ATOM      2  N   UNL d   1       0.262   0.707   0.897  0.00  0.00    -0.287 N 
ATOM      3  HN  UNL d   1       0.738   1.338   1.542  1.00  0.00     0.188 HD
ATOM      4  C   UNL d   1       0.245  -0.851  -0.888  0.00  0.00     0.123 C 
ATOM      5  N   UNL d   1      -0.378  -1.540  -1.593  0.00  0.00    -0.190 NA
ENDROOT
BRANCH   1   6
ATOM      6  C   UNL d   1       2.447   0.056   0.028  0.00  0.00     0.192 C 
ATOM      7  O   UNL d   1       3.060  -0.088  -1.020  0.00  0.00    -0.290 OA
BRANCH   6   8
ATOM      8  C   UNL d   1       3.119   0.240   1.342  0.00  0.00     0.063 A 
ATOM      9  C   UNL d   1       4.422   1.003   1.414  0.00  0.00     0.013 A 
ATOM     10  C   UNL d   1       4.415  -0.482   1.636  0.00  0.00     0.013 A 
ENDBRANCH   6   8
ENDBRANCH   1   6
BRANCH   2  11
ATOM     11  N   UNL d   1      -1.100   0.598   0.921  0.00  0.00    -0.300 N 
ATOM     12  H   UNL d   1      -1.594  -0.214   0.546  0.00  0.00     0.187 HD
BRANCH  11  13
ATOM     13  C   UNL d   1      -1.827   1.309   1.895  0.00  0.00     0.048 A 
ATOM     14  C   UNL d   1      -1.413   2.554   2.379  0.00  0.00     0.034 A 
ATOM     15  C   UNL d   1      -2.183   3.260   3.316  0.00  0.00     0.039 A 
ATOM     16  C   UNL d   1      -3.364   2.708   3.811  0.00  0.00     0.068 A 
ATOM     17  C   UNL d   1      -3.759   1.446   3.368  0.00  0.00     0.039 A 
ATOM     18  C   UNL d   1      -3.003   0.756   2.415  0.00  0.00     0.034 A 
BRANCH  16  19
ATOM     19  O   UNL d   1      -4.207   3.280   4.721  0.00  0.00    -0.356 OA
ATOM     20  C   UNL d   1      -3.900   4.603   5.144  0.00  0.00     0.210 C 
ENDBRANCH  16  19
ENDBRANCH  11  13
ENDBRANCH   2  11
TORSDOF 5
