REMARK  6 active torsions:
REMARK  status: ('A' for Active; 'I' for Inactive)
REMARK    1  A    between atoms: N_4  and  S_1 
REMARK    2  A    between atoms: C_11  and  S_1 
REMARK    3  A    between atoms: S_2  and  N_3 
REMARK    4  A    between atoms: C_6  and  S_2 
REMARK       I    between atoms: N_3  and  C_5 
REMARK       I    between atoms: C_5  and  N_12 
REMARK    5  A    between atoms: N_12  and  C_18 
REMARK    6  A    between atoms: C_18  and  C_24 
ROOT
ATOM      1  N   UNL d   1       4.848  -2.288  -1.455  0.00  0.00    -0.232 N 
ATOM      2  C   UNL d   1       4.049  -2.844  -2.436  0.00  0.00     0.329 C 
ATOM      3  N   UNL d   1       3.122  -1.955  -2.909  0.00  0.00    -0.342 N 
ATOM      4  O   UNL d   1       4.169  -3.990  -2.836  0.00  0.00    -0.246 OA
ATOM      5  H   UNL d   1       4.628  -1.385  -1.052  0.00  0.00     0.183 HD
ATOM      6  H   UNL d   1       3.268  -0.987  -2.670  0.00  0.00     0.164 HD
ENDROOT
BRANCH   3   7
ATOM      7  C   UNL d   1       2.207  -2.275  -3.983  0.00  0.00     0.129 C 
BRANCH   7   8
ATOM      8  C   UNL d   1       0.706  -2.063  -3.685  0.00  0.00     0.006 C 
ATOM      9  C   UNL d   1       0.284  -0.626  -3.368  0.00  0.00     0.022 C 
ATOM     10  C   UNL d   1       0.569  -0.178  -1.935  0.00  0.00     0.108 C 
ATOM     11  N   UNL d   1       0.107  -1.156  -0.889  0.00  0.00    -0.206 NA
ATOM     12  C   UNL d   1       0.503  -2.567  -1.183  0.00  0.00     0.108 C 
ATOM     13  C   UNL d   1       0.136  -2.983  -2.604  0.00  0.00     0.022 C 
BRANCH  11  14
ATOM     14  S   UNL d   1       0.616  -0.616   0.698  0.00  0.00     0.243 S 
ATOM     15  O   UNL d   1       0.060   0.696   0.913  0.00  0.00    -0.206 OA
ATOM     16  O   UNL d   1       2.059  -0.825   0.736  0.00  0.00    -0.206 OA
BRANCH  14  17
ATOM     17  C   UNL d   1      -0.140  -1.721   1.875  0.00  0.00     0.074 A 
ATOM     18  C   UNL d   1       0.635  -2.341   2.864  0.00  0.00     0.025 A 
ATOM     19  C   UNL d   1       0.050  -3.278   3.722  0.00  0.00     0.002 A 
ATOM     20  C   UNL d   1      -1.306  -3.586   3.599  0.00  0.00     0.000 A 
ATOM     21  C   UNL d   1      -2.091  -2.911   2.663  0.00  0.00     0.002 A 
ATOM     22  C   UNL d   1      -1.514  -1.967   1.806  0.00  0.00     0.025 A 
ENDBRANCH  14  17
ENDBRANCH  11  14
ENDBRANCH   7   8
ENDBRANCH   3   7
BRANCH   1  23
ATOM     23  S   UNL d   1       5.883  -3.145  -0.476  0.00  0.00     0.266 S 
ATOM     24  O   UNL d   1       6.397  -2.173   0.471  0.00  0.00    -0.200 OA
ATOM     25  O   UNL d   1       5.222  -4.340  -0.003  0.00  0.00    -0.200 OA
BRANCH  23  26
ATOM     26  C   UNL d   1       7.249  -3.609  -1.518  0.00  0.00     0.080 A 
ATOM     27  C   UNL d   1       8.288  -2.702  -1.750  0.00  0.00     0.026 A 
ATOM     28  C   UNL d   1       9.458  -3.132  -2.386  0.00  0.00     0.008 A 
ATOM     29  C   UNL d   1       9.602  -4.468  -2.786  0.00  0.00    -0.062 A 
ATOM     30  C   UNL d   1       8.550  -5.365  -2.559  0.00  0.00     0.008 A 
ATOM     31  C   UNL d   1      10.904  -4.954  -3.357  0.00  0.00     0.048 C 
ATOM     32  C   UNL d   1       7.375  -4.939  -1.933  0.00  0.00     0.026 A 
ENDBRANCH  23  26
ENDBRANCH   1  23
TORSDOF 6
