REMARK  5 active torsions:
REMARK  status: ('A' for Active; 'I' for Inactive)
REMARK    1  A    between atoms: C_11  and  N_1 
REMARK    2  A    between atoms: C_10  and  C_5 
REMARK    3  A    between atoms: S_13  and  C_6 
REMARK    4  A    between atoms: C_7  and  O_12 
REMARK    5  A    between atoms: O_12  and  C_19 
ROOT
ATOM      1  N   UNL d   1      -0.314  -1.110   0.062  0.00  0.00    -0.253 N 
ATOM      2  N   UNL d   1       0.948  -0.646   0.288  0.00  0.00    -0.285 N 
ATOM      3  HN  UNL d   1       1.782  -1.193   0.502  1.00  0.00     0.188 HD
ATOM      4  C   UNL d   1      -0.475   1.091   0.029  0.00  0.00     0.108 C 
ATOM      5  C   UNL d   1      -1.256  -0.065  -0.014  0.00  0.00     0.090 C 
ATOM      6  C   UNL d   1       0.853   0.672   0.171  0.00  0.00     0.107 C 
ATOM      7  C   UNL d   1      -0.923   2.443  -0.010  0.00  0.00     0.104 C 
ATOM      8  N   UNL d   1      -1.312   3.539  -0.058  0.00  0.00    -0.191 NA
ENDROOT
BRANCH   5   9
ATOM      9  C   UNL d   1      -2.735  -0.195  -0.037  0.00  0.00    -0.006 A 
ATOM     10  C   UNL d   1      -3.536   0.749  -0.700  0.00  0.00     0.016 A 
ATOM     11  C   UNL d   1      -4.934   0.626  -0.756  0.00  0.00     0.038 A 
ATOM     12  C   UNL d   1      -5.560  -0.491  -0.222  0.00  0.00     0.078 A 
ATOM     13  C   UNL d   1      -4.787  -1.403   0.496  0.00  0.00     0.038 A 
ATOM     14  C   UNL d   1      -3.402  -1.235   0.622  0.00  0.00     0.016 A 
BRANCH  12  15
ATOM     15  O   UNL d   1      -6.880  -0.804  -0.296  0.00  0.00    -0.255 OA
BRANCH  15  16
ATOM     16  C   UNL d   1      -7.696  -0.232  -1.309  0.00  0.00     0.530 C 
ATOM     17  F   UNL d   1      -7.005   0.280  -2.349  0.00  0.00    -0.144 F 
ATOM     18  F   UNL d   1      -8.506  -1.199  -1.798  0.00  0.00    -0.144 F 
ATOM     19  F   UNL d   1      -8.471   0.735  -0.774  0.00  0.00    -0.144 F 
ENDBRANCH  15  16
ENDBRANCH  12  15
ENDBRANCH   5   9
BRANCH   6  20
ATOM     20  S   UNL d   1       2.252   1.721   0.232  0.00  0.00    -0.114 SA
ATOM     21  C   UNL d   1       3.611   0.550   0.424  0.00  0.00     0.097 C 
ENDBRANCH   6  20
BRANCH   1  22
ATOM     22  C   UNL d   1      -0.486  -2.522  -0.046  0.00  0.00     0.057 A 
ATOM     23  C   UNL d   1       0.346  -3.361   0.714  0.00  0.00     0.031 A 
ATOM     24  C   UNL d   1       0.133  -4.740   0.722  0.00  0.00     0.002 A 
ATOM     25  C   UNL d   1      -0.884  -5.293  -0.053  0.00  0.00     0.000 A 
ATOM     26  C   UNL d   1      -1.670  -4.471  -0.861  0.00  0.00     0.002 A 
ATOM     27  C   UNL d   1      -1.466  -3.087  -0.869  0.00  0.00     0.031 A 
ENDBRANCH   1  22
TORSDOF 5
