REMARK  6 active torsions:
REMARK  status: ('A' for Active; 'I' for Inactive)
REMARK    1  A    between atoms: N_4  and  C_1 
REMARK    2  A    between atoms: N_5  and  C_2 
REMARK    3  A    between atoms: N_8  and  C_3 
REMARK    4  A    between atoms: C_6  and  N_14 
REMARK    5  A    between atoms: S_25  and  C_6 
REMARK    6  A    between atoms: C_7  and  C_9 
ROOT
ATOM      1  C   UNL d   1       2.130  -6.668  -1.085  0.00  0.00     0.151 C 
ATOM      2  N   UNL d   1       2.222  -7.027  -2.330  0.00  0.00    -0.274 N 
ATOM      3  HN  UNL d   1       2.788  -7.837  -2.579  1.00  0.00     0.180 HD
ATOM      4  C   UNL d   1       1.583  -6.347  -3.288  0.00  0.00     0.183 C 
ATOM      5  N   UNL d   1       1.028  -5.783  -4.133  0.00  0.00    -0.172 NA
ENDROOT
BRANCH   1   6
ATOM      6  N   UNL d   1       2.828  -7.334  -0.095  0.00  0.00    -0.358 N 
ATOM      7  C   UNL d   1       2.999  -8.796  -0.144  0.00  0.00     0.145 C 
ATOM      8  C   UNL d   1       4.469  -9.204  -0.399  0.00  0.00     0.143 C 
ATOM      9  N   UNL d   1       5.349  -8.598   0.639  0.00  0.00    -0.374 N 
ATOM     10  C   UNL d   1       5.230  -7.112   0.626  0.00  0.00     0.143 C 
ATOM     11  C   UNL d   1       3.760  -6.648   0.820  0.00  0.00     0.145 C 
BRANCH   9  12
ATOM     12  C   UNL d   1       6.460  -9.278   1.141  0.00  0.00     0.097 A 
ATOM     13  C   UNL d   1       6.372 -10.571   1.733  0.00  0.00     0.132 A 
ATOM     14  C   UNL d   1       7.453 -11.234   2.374  0.00  0.00     0.054 A 
ATOM     15  C   UNL d   1       8.714 -10.645   2.446  0.00  0.00     0.052 A 
ATOM     16  C   UNL d   1       8.871  -9.398   1.845  0.00  0.00     0.054 A 
ATOM     17  C   UNL d   1       7.777  -8.752   1.210  0.00  0.00     0.132 A 
BRANCH  13  18
ATOM     18  N   UNL d   1       5.129 -11.330   1.755  0.00  0.00    -0.113 N 
ATOM     19  O   UNL d   1       4.156 -10.835   2.335  0.00  0.00    -0.532 OA
ATOM     20  O   UNL d   1       5.153 -12.441   1.214  0.00  0.00    -0.532 OA
ENDBRANCH  13  18
BRANCH  15  21
ATOM     21  C   UNL d   1       9.859 -11.349   3.138  0.00  0.00     0.417 C 
ATOM     22  F   UNL d   1      11.039 -10.679   3.044  0.00  0.00    -0.166 F 
ATOM     23  F   UNL d   1       9.627 -11.524   4.467  0.00  0.00    -0.166 F 
ATOM     24  F   UNL d   1      10.085 -12.588   2.626  0.00  0.00    -0.166 F 
ENDBRANCH  15  21
BRANCH  17  25
ATOM     25  N   UNL d   1       8.146  -7.524   0.529  0.00  0.00    -0.113 N 
ATOM     26  O   UNL d   1       8.098  -7.524  -0.707  0.00  0.00    -0.532 OA
ATOM     27  O   UNL d   1       8.528  -6.584   1.241  0.00  0.00    -0.532 OA
ENDBRANCH  17  25
ENDBRANCH   9  12
ENDBRANCH   1   6
BRANCH   1  28
ATOM     28  S   UNL d   1       1.101  -5.351  -0.495  0.00  0.00    -0.098 SA
ATOM     29  C   UNL d   1      -0.540  -6.066  -0.796  0.00  0.00     0.099 C 
ENDBRANCH   1  28
TORSDOF 6
