REMARK  6 active torsions:
REMARK  status: ('A' for Active; 'I' for Inactive)
REMARK    1  A    between atoms: C_10  and  C_3 
REMARK    2  A    between atoms: C_21  and  C_4 
REMARK    3  A    between atoms: S_16  and  C_9 
REMARK    4  A    between atoms: C_11  and  N_13 
REMARK    5  A    between atoms: C_12  and  C_24 
REMARK       I    between atoms: N_13  and  C_12 
REMARK    6  A    between atoms: C_24  and  S_16 
ROOT
ATOM      1  N   UNL d   1       2.527   2.838   0.503  0.00  0.00    -0.335 N 
ATOM      2  HN  UNL d   1       1.757   3.099   1.119  1.00  0.00     0.168 HD
ATOM      3  C   UNL d   1       3.608   3.613   0.356  0.00  0.00     0.145 A 
ATOM      4  C   UNL d   1       2.514   1.692  -0.208  0.00  0.00     0.062 A 
ATOM      5  N   UNL d   1       4.648   3.355  -0.447  0.00  0.00    -0.347 N 
ATOM      6  HN  UNL d   1       5.440   3.994  -0.527  1.00  0.00     0.167 HD
ATOM      7  C   UNL d   1       3.535   1.329  -1.062  0.00  0.00     0.049 A 
ATOM      8  C   UNL d   1       4.589   2.205  -1.142  0.00  0.00     0.092 A 
ENDROOT
BRANCH   3   9
ATOM      9  S   UNL d   1       3.516   5.195   1.149  0.00  0.00    -0.085 SA
BRANCH   9  10
ATOM     10  C   UNL d   1       3.858   6.240  -0.290  0.00  0.00     0.185 C 
BRANCH  10  11
ATOM     11  C   UNL d   1       2.842   6.184  -1.427  0.00  0.00     0.231 C 
ATOM     12  N   UNL d   1       1.697   5.437  -1.220  0.00  0.00    -0.326 N 
ATOM     13  H   UNL d   1       1.543   5.094  -0.278  0.00  0.00     0.169 HD
ATOM     14  O   UNL d   1       3.079   6.822  -2.453  0.00  0.00    -0.272 OA
BRANCH  12  15
ATOM     15  C   UNL d   1       0.734   5.067  -2.191  0.00  0.00     0.037 A 
ATOM     16  C   UNL d   1       0.870   5.333  -3.554  0.00  0.00     0.053 A 
ATOM     17  C   UNL d   1      -0.102   4.903  -4.461  0.00  0.00     0.037 A 
ATOM     18 CL   UNL d   1       0.096   5.226  -6.140  0.00  0.00    -0.084 Cl
ATOM     19  C   UNL d   1      -1.222   4.203  -4.024  0.00  0.00     0.048 A 
ATOM     20  C   UNL d   1      -1.359   3.933  -2.668  0.00  0.00     0.037 A 
ATOM     21  C   UNL d   1      -0.389   4.357  -1.752  0.00  0.00     0.053 A 
ATOM     22 CL   UNL d   1      -2.735   3.062  -2.109  0.00  0.00    -0.084 Cl
ENDBRANCH  12  15
ENDBRANCH  10  11
ENDBRANCH   9  10
ENDBRANCH   3   9
BRANCH   4  23
ATOM     23  C   UNL d   1       1.331   0.850  -0.070  0.00  0.00     0.066 A 
ATOM     24  N   UNL d   1       1.195  -0.344  -0.766  0.00  0.00    -0.348 N 
ATOM     25  C   UNL d   1       0.023  -0.895  -0.511  0.00  0.00     0.084 A 
ATOM     26  HN  UNL d   1       1.901  -0.738  -1.387  1.00  0.00     0.166 HD
ATOM     27  S   UNL d   1      -0.952  -0.026   0.616  0.00  0.00    -0.081 SA
ATOM     28  C   UNL d   1       0.263   1.169   0.745  0.00  0.00     0.083 A 
BRANCH  25  29
ATOM     29  C   UNL d   1      -0.429  -2.175  -1.079  0.00  0.00    -0.002 A 
ATOM     30  C   UNL d   1       0.520  -3.167  -1.376  0.00  0.00     0.014 A 
ATOM     31  C   UNL d   1       0.130  -4.396  -1.913  0.00  0.00     0.001 A 
ATOM     32  C   UNL d   1      -1.216  -4.646  -2.173  0.00  0.00     0.000 A 
ATOM     33  C   UNL d   1      -2.169  -3.668  -1.901  0.00  0.00     0.001 A 
ATOM     34  C   UNL d   1      -1.779  -2.439  -1.360  0.00  0.00     0.014 A 
ENDBRANCH  25  29
ENDBRANCH   4  23
TORSDOF 6
