REMARK  3 active torsions:
REMARK  status: ('A' for Active; 'I' for Inactive)
REMARK    1  A    between atoms: N_9  and  C_2 
REMARK    2  A    between atoms: C_10  and  C_5 
REMARK    3  A    between atoms: N_6  and  C_8 
ROOT
ATOM      1  C   UNL d   1      -0.607   1.238  -0.035  0.00  0.00     0.136 A 
ATOM      2  C   UNL d   1      -1.383   0.126   0.003  0.00  0.00     0.060 A 
ATOM      3  C   UNL d   1      -0.673  -1.146   0.061  0.00  0.00     0.069 A 
ATOM      4  C   UNL d   1       0.886   1.175   0.001  0.00  0.00     0.312 A 
ATOM      5  C   UNL d   1       0.662  -1.203   0.026  0.00  0.00     0.092 A 
ATOM      6  O   UNL d   1       1.466  -0.063  -0.016  0.00  0.00    -0.273 OA
ATOM      7  O   UNL d   1       1.588   2.183   0.032  0.00  0.00    -0.258 OA
ATOM      8 CL   UNL d   1      -1.242   2.845  -0.231  0.00  0.00    -0.075 Cl
ENDROOT
BRANCH   5   9
ATOM      9  C   UNL d   1       1.402  -2.468   0.033  0.00  0.00    -0.002 A 
ATOM     10  C   UNL d   1       1.776  -3.065  -1.179  0.00  0.00     0.017 A 
ATOM     11  C   UNL d   1       2.493  -4.267  -1.184  0.00  0.00     0.037 A 
ATOM     12  C   UNL d   1       2.837  -4.869   0.034  0.00  0.00     0.102 A 
ATOM     13  C   UNL d   1       2.468  -4.277   1.249  0.00  0.00     0.037 A 
ATOM     14  C   UNL d   1       1.750  -3.076   1.244  0.00  0.00     0.017 A 
BRANCH  12  15
ATOM     15  N   UNL d   1       3.596  -6.126   0.036  0.00  0.00    -0.116 N 
ATOM     16  O   UNL d   1       3.900  -6.619  -1.059  0.00  0.00    -0.532 OA
ATOM     17  O   UNL d   1       3.880  -6.625   1.135  0.00  0.00    -0.532 OA
ENDBRANCH  12  15
ENDBRANCH   5   9
BRANCH   2  18
ATOM     18  N   UNL d   1      -2.792   0.051  -0.013  0.00  0.00    -0.388 N 
ATOM     19  C   UNL d   1      -3.675   1.033   0.628  0.00  0.00     0.149 C 
ATOM     20  C   UNL d   1      -3.548  -1.032  -0.656  0.00  0.00     0.149 C 
ENDBRANCH   2  18
TORSDOF 3
