REMARK  4 active torsions:
REMARK  status: ('A' for Active; 'I' for Inactive)
REMARK    1  A    between atoms: O_6  and  C_1 
REMARK    2  A    between atoms: C_9  and  N_2 
REMARK    3  A    between atoms: C_7  and  O_6 
REMARK    4  A    between atoms: C_11  and  C_7 
ROOT
ATOM      1  C   UNL d   1      -0.503  -1.165  -0.141  0.00  0.00     0.175 C 
ATOM      2  N   UNL d   1       0.809  -0.754   0.084  0.00  0.00    -0.234 N 
ATOM      3  N   UNL d   1       0.879   0.579   0.356  0.00  0.00    -0.296 N 
ATOM      4  HN  UNL d   1       1.692   1.108   0.673  1.00  0.00     0.187 HD
ATOM      5  C   UNL d   1      -1.255  -0.006  -0.129  0.00  0.00     0.084 C 
ATOM      6  C   UNL d   1      -0.350   1.040   0.116  0.00  0.00     0.026 C 
ATOM      7  C   UNL d   1      -0.625   2.497   0.124  0.00  0.00     0.070 C 
ENDROOT
BRANCH   1   8
ATOM      8  O   UNL d   1      -0.821  -2.453  -0.260  0.00  0.00    -0.256 OA
BRANCH   8   9
ATOM      9  C   UNL d   1      -1.986  -2.779  -0.860  0.00  0.00     0.299 C 
ATOM     10  O   UNL d   1      -2.765  -2.038  -1.448  0.00  0.00    -0.259 OA
BRANCH   9  11
ATOM     11  C   UNL d   1      -2.271  -4.224  -0.694  0.00  0.00     0.040 A 
ATOM     12  C   UNL d   1      -1.267  -5.185  -0.517  0.00  0.00     0.017 A 
ATOM     13  C   UNL d   1      -1.611  -6.534  -0.386  0.00  0.00     0.001 A 
ATOM     14  C   UNL d   1      -2.951  -6.925  -0.422  0.00  0.00     0.000 A 
ATOM     15  C   UNL d   1      -3.953  -5.972  -0.600  0.00  0.00     0.001 A 
ATOM     16  C   UNL d   1      -3.614  -4.627  -0.741  0.00  0.00     0.017 A 
ENDBRANCH   9  11
ENDBRANCH   8   9
ENDBRANCH   1   8
BRANCH   2  17
ATOM     17  C   UNL d   1       2.008  -1.517   0.001  0.00  0.00     0.059 A 
ATOM     18  C   UNL d   1       2.078  -2.666  -0.798  0.00  0.00     0.031 A 
ATOM     19  C   UNL d   1       3.278  -3.371  -0.907  0.00  0.00     0.002 A 
ATOM     20  C   UNL d   1       4.406  -2.943  -0.209  0.00  0.00     0.000 A 
ATOM     21  C   UNL d   1       4.343  -1.800   0.587  0.00  0.00     0.002 A 
ATOM     22  C   UNL d   1       3.153  -1.077   0.681  0.00  0.00     0.031 A 
ENDBRANCH   2  17
TORSDOF 4
