REMARK  1 active torsions:
REMARK  status: ('A' for Active; 'I' for Inactive)
REMARK    1  A    between atoms: C_12  and  C_5 
ROOT
ATOM      1  N   UNL d   1       1.395  -0.609  -0.007  0.00  0.00    -0.347 N 
ATOM      2  HN  UNL d   1       2.283  -1.110  -0.018  1.00  0.00     0.167 HD
ATOM      3  C   UNL d   1       0.205  -1.178   0.009  0.00  0.00     0.111 A 
ATOM      4  C   UNL d   1       0.029  -2.601   0.027  0.00  0.00     0.134 A 
ATOM      5  C   UNL d   1       1.260   0.774  -0.008  0.00  0.00     0.050 A 
ATOM      6  S   UNL d   1      -1.130  -0.100   0.006  0.00  0.00    -0.079 SA
ATOM      7  C   UNL d   1      -0.046   1.226  -0.011  0.00  0.00     0.082 A 
ATOM      8  N   UNL d   1      -1.043  -4.591   0.003  0.00  0.00    -0.272 N 
ATOM      9  HN  UNL d   1      -1.779  -5.297  -0.029  1.00  0.00     0.194 HD
ATOM     10  O   UNL d   1      -1.196  -3.216  -0.035  0.00  0.00    -0.236 OA
ATOM     11  C   UNL d   1       0.989  -3.591   0.107  0.00  0.00     0.061 A 
ATOM     12  C   UNL d   1       0.270  -4.796   0.089  0.00  0.00     0.117 A 
ENDROOT
BRANCH   5  13
ATOM     13  C   UNL d   1       2.422   1.655  -0.050  0.00  0.00    -0.009 A 
ATOM     14  C   UNL d   1       3.603   1.217  -0.665  0.00  0.00     0.014 A 
ATOM     15  C   UNL d   1       4.716   2.057  -0.753  0.00  0.00     0.001 A 
ATOM     16  C   UNL d   1       4.664   3.342  -0.217  0.00  0.00     0.000 A 
ATOM     17  C   UNL d   1       3.505   3.784   0.417  0.00  0.00     0.001 A 
ATOM     18  C   UNL d   1       2.390   2.945   0.502  0.00  0.00     0.014 A 
ENDBRANCH   5  13
TORSDOF 1
