REMARK  7 active torsions:
REMARK  status: ('A' for Active; 'I' for Inactive)
REMARK    1  A    between atoms: C_3  and  C_1 
REMARK    2  A    between atoms: C_2  and  N_12 
REMARK    3  A    between atoms: C_10  and  C_3 
REMARK    4  A    between atoms: N_12  and  C_8 
REMARK    5  A    between atoms: S_18  and  C_20 
REMARK    6  A    between atoms: C_21  and  S_18 
REMARK    7  A    between atoms: C_20  and  C_19 
ROOT
ATOM      1  C   UNL d   1       2.224  -0.582   1.462  0.00  0.00     0.111 C 
ATOM      2  C   UNL d   1       1.957   0.301   2.442  0.00  0.00     0.133 C 
ATOM      3  C   UNL d   1       2.283  -1.975   1.735  0.00  0.00     0.105 C 
ATOM      4  N   UNL d   1       2.344  -3.107   1.989  0.00  0.00    -0.191 NA
ENDROOT
BRANCH   1   5
ATOM      5  C   UNL d   1       2.415  -0.088   0.061  0.00  0.00     0.204 C 
ATOM      6  O   UNL d   1       1.904   0.956  -0.333  0.00  0.00    -0.286 OA
BRANCH   5   7
ATOM      7  C   UNL d   1       3.234  -0.899  -0.886  0.00  0.00     0.016 A 
ATOM      8  C   UNL d   1       2.830  -0.997  -2.230  0.00  0.00     0.023 A 
ATOM      9  C   UNL d   1       3.567  -1.764  -3.152  0.00  0.00    -0.048 A 
ATOM     10  C   UNL d   1       4.749  -2.380  -2.707  0.00  0.00     0.008 A 
ATOM     11  C   UNL d   1       5.163  -2.272  -1.378  0.00  0.00     0.002 A 
ATOM     12  C   UNL d   1       4.415  -1.526  -0.470  0.00  0.00     0.015 A 
BRANCH   9  13
ATOM     13  C   UNL d   1       3.124  -1.874  -4.603  0.00  0.00     0.117 C 
BRANCH  13  14
ATOM     14  S   UNL d   1       3.175  -3.603  -5.218  0.00  0.00    -0.125 SA
BRANCH  14  15
ATOM     15  C   UNL d   1       2.851  -3.422  -6.965  0.00  0.00     0.000 A 
ATOM     16  C   UNL d   1       3.588  -4.212  -7.858  0.00  0.00     0.018 A 
ATOM     17  C   UNL d   1       3.302  -4.204  -9.226  0.00  0.00     0.001 A 
ATOM     18  C   UNL d   1       2.271  -3.407  -9.715  0.00  0.00     0.000 A 
ATOM     19  C   UNL d   1       1.535  -2.613  -8.837  0.00  0.00     0.001 A 
ATOM     20  C   UNL d   1       1.822  -2.620  -7.467  0.00  0.00     0.018 A 
ENDBRANCH  14  15
ENDBRANCH  13  14
ENDBRANCH   9  13
ENDBRANCH   5   7
ENDBRANCH   1   5
BRANCH   2  21
ATOM     21  N   UNL d   1       1.785   0.046   3.783  0.00  0.00    -0.200 N 
ATOM     22  H   UNL d   1       1.892  -0.893   4.147  0.00  0.00     0.183 HD
BRANCH  21  23
ATOM     23  C   UNL d   1       1.379   0.909   4.796  0.00  0.00     0.682 A 
ATOM     24  N   UNL d   1       1.054   2.184   4.535  0.00  0.00    -0.196 N 
ATOM     25  C   UNL d   1       0.626   2.939   5.568  0.00  0.00     0.024 A 
ATOM     26  HN  UNL d   1       1.128   2.567   3.592  1.00  0.00     0.184 HD
ATOM     27  C   UNL d   1       0.231   4.355   5.271  0.00  0.00     0.068 C 
ATOM     28  C   UNL d   1       0.534   2.453   6.855  0.00  0.00     0.050 A 
ATOM     29  C   UNL d   1       0.901   1.137   7.040  0.00  0.00     0.024 A 
ATOM     30  N   UNL d   1       1.317   0.359   6.019  0.00  0.00    -0.196 N 
ATOM     31  C   UNL d   1       0.838   0.514   8.401  0.00  0.00     0.068 C 
ATOM     32  HN  UNL d   1       1.576  -0.616   6.172  1.00  0.00     0.184 HD
ENDBRANCH  21  23
ENDBRANCH   2  21
TORSDOF 7
