REMARK  4 active torsions:
REMARK  status: ('A' for Active; 'I' for Inactive)
REMARK    1  A    between atoms: C_11  and  C_3 
REMARK    2  A    between atoms: C_13  and  C_4 
REMARK    3  A    between atoms: N_6  and  N_7 
REMARK    4  A    between atoms: C_10  and  N_6 
ROOT
ATOM      1  N   UNL d   1       2.339   2.920   0.047  0.00  0.00    -0.319 N 
ATOM      2  HN  UNL d   1       3.158   3.519   0.157  1.00  0.00     0.181 HD
ATOM      3  C   UNL d   1       2.437   1.622   0.036  0.00  0.00     0.044 C 
ATOM      4  C   UNL d   1       1.281   0.651  -0.071  0.00  0.00     0.071 C 
ENDROOT
BRANCH   3   5
ATOM      5  C   UNL d   1       3.791   1.067   0.080  0.00  0.00     0.063 A 
ATOM      6  N   UNL d   1       4.062  -0.212  -0.398  0.00  0.00    -0.348 N 
ATOM      7  C   UNL d   1       5.353  -0.477  -0.320  0.00  0.00     0.084 A 
ATOM      8  HN  UNL d   1       3.359  -0.857  -0.760  1.00  0.00     0.166 HD
ATOM      9  S   UNL d   1       6.303   0.785   0.372  0.00  0.00    -0.081 SA
ATOM     10  C   UNL d   1       4.904   1.749   0.541  0.00  0.00     0.083 A 
BRANCH   7  11
ATOM     11  C   UNL d   1       5.986  -1.702  -0.833  0.00  0.00    -0.002 A 
ATOM     12  C   UNL d   1       5.469  -2.316  -1.988  0.00  0.00     0.014 A 
ATOM     13  C   UNL d   1       6.054  -3.471  -2.513  0.00  0.00     0.001 A 
ATOM     14  C   UNL d   1       7.161  -4.038  -1.886  0.00  0.00     0.000 A 
ATOM     15  C   UNL d   1       7.679  -3.453  -0.733  0.00  0.00     0.001 A 
ATOM     16  C   UNL d   1       7.098  -2.296  -0.209  0.00  0.00     0.014 A 
ENDBRANCH   7  11
ENDBRANCH   3   5
BRANCH   1  17
ATOM     17  N   UNL d   1       1.088   3.438  -0.097  0.00  0.00    -0.203 NA
ATOM     18  H   UNL d   1       0.549   3.467   0.776  0.00  0.00     0.153 HD
BRANCH  17  19
ATOM     19  C   UNL d   1       0.971   4.714  -0.733  0.00  0.00     0.055 A 
ATOM     20  C   UNL d   1      -0.058   5.588  -0.300  0.00  0.00     0.057 A 
ATOM     21 CL   UNL d   1      -1.098   5.141   1.015  0.00  0.00    -0.082 Cl
ATOM     22  C   UNL d   1      -0.269   6.833  -0.894  0.00  0.00     0.026 A 
ATOM     23  C   UNL d   1       0.536   7.236  -1.951  0.00  0.00     0.002 A 
ATOM     24  C   UNL d   1       1.529   6.380  -2.424  0.00  0.00     0.009 A 
ATOM     25  C   UNL d   1       1.740   5.107  -1.853  0.00  0.00    -0.037 A 
ATOM     26  C   UNL d   1       2.803   4.262  -2.503  0.00  0.00     0.050 C 
ENDBRANCH  17  19
ENDBRANCH   1  17
TORSDOF 4
