REMARK  3 active torsions:
REMARK  status: ('A' for Active; 'I' for Inactive)
REMARK    1  A    between atoms: C_6  and  C_1 
REMARK    2  A    between atoms: C_3  and  O_7 
REMARK    3  A    between atoms: O_7  and  C_13 
ROOT
ATOM      1  C   UNL d   1       3.269  -5.869   0.403  0.00  0.00     0.165 A 
ATOM      2  C   UNL d   1       2.780  -4.860  -0.419  0.00  0.00     0.186 A 
ATOM      3  C   UNL d   1       2.405  -6.853   0.982  0.00  0.00     0.122 C 
ATOM      4  N   UNL d   1       1.690  -7.643   1.449  0.00  0.00    -0.190 NA
ATOM      5  N   UNL d   1       4.592  -5.969   0.720  0.00  0.00    -0.353 N 
ATOM      6  HN  UNL d   1       4.952  -6.704   1.328  1.00  0.00     0.166 HD
ATOM      7  N   UNL d   1       3.604  -3.933  -0.981  0.00  0.00    -0.343 N 
ATOM      8  HN  UNL d   1       3.254  -3.208  -1.608  1.00  0.00     0.167 HD
ATOM      9  C   UNL d   1       5.396  -5.027   0.173  0.00  0.00     0.106 A 
ATOM     10  C   UNL d   1       4.912  -4.031  -0.657  0.00  0.00     0.107 A 
ENDROOT
BRANCH   2  11
ATOM     11  O   UNL d   1       1.423  -4.826  -0.707  0.00  0.00    -0.291 OA
BRANCH  11  12
ATOM     12  C   UNL d   1       0.844  -3.612  -0.998  0.00  0.00     0.078 A 
ATOM     13  C   UNL d   1       1.196  -2.417  -0.364  0.00  0.00     0.053 A 
ATOM     14  C   UNL d   1       0.544  -1.216  -0.682  0.00  0.00     0.050 A 
ATOM     15  C   UNL d   1      -0.490  -1.237  -1.630  0.00  0.00     0.016 A 
ATOM     16  C   UNL d   1      -0.868  -2.437  -2.238  0.00  0.00     0.004 A 
ATOM     17  C   UNL d   1      -0.206  -3.623  -1.917  0.00  0.00     0.037 A 
BRANCH  14  18
ATOM     18  C   UNL d   1       0.953   0.070  -0.010  0.00  0.00     0.417 C 
ATOM     19  F   UNL d   1       1.959  -0.087   0.897  0.00  0.00    -0.166 F 
ATOM     20  F   UNL d   1      -0.073   0.648   0.674  0.00  0.00    -0.166 F 
ATOM     21  F   UNL d   1       1.393   1.008  -0.893  0.00  0.00    -0.166 F 
ENDBRANCH  14  18
ENDBRANCH  11  12
ENDBRANCH   2  11
TORSDOF 3
