REMARK  4 active torsions:
REMARK  status: ('A' for Active; 'I' for Inactive)
REMARK    1  A    between atoms: C_7  and  C_3 
REMARK    2  A    between atoms: C_16  and  C_4 
REMARK    3  A    between atoms: C_8  and  O_15 
REMARK    4  A    between atoms: O_15  and  C_16 
ROOT
ATOM      1  C   UNL d   1       0.030  -2.657  -0.009  0.00  0.00     0.240 C 
ENDROOT
BRANCH   1   2
ATOM      2  O   UNL d   1       1.292  -3.329  -0.001  0.00  0.00    -0.345 OA
BRANCH   2   3
ATOM      3  C   UNL d   1       1.259  -4.696  -0.045  0.00  0.00     0.072 A 
ATOM      4  C   UNL d   1       0.106  -5.484  -0.074  0.00  0.00     0.060 A 
ATOM      5  C   UNL d   1       0.215  -6.874  -0.129  0.00  0.00     0.038 A 
ATOM      6 CL   UNL d   1      -1.215  -7.832  -0.172  0.00  0.00    -0.084 Cl
ATOM      7  C   UNL d   1       1.461  -7.494  -0.155  0.00  0.00     0.048 A 
ATOM      8  C   UNL d   1       2.607  -6.706  -0.122  0.00  0.00     0.038 A 
ATOM      9  C   UNL d   1       2.512  -5.316  -0.066  0.00  0.00     0.060 A 
ATOM     10 CL   UNL d   1       4.155  -7.456  -0.155  0.00  0.00    -0.084 Cl
ENDBRANCH   2   3
ENDBRANCH   1   2
BRANCH   1  11
ATOM     11  C   UNL d   1       0.288  -1.179   0.015  0.00  0.00     0.075 A 
ATOM     12  N   UNL d   1      -0.100  -0.343  -0.929  0.00  0.00    -0.349 N 
ATOM     13  C   UNL d   1       0.254   0.962  -0.596  0.00  0.00     0.085 A 
ATOM     14  HN  UNL d   1      -0.590  -0.614  -1.781  1.00  0.00     0.166 HD
ATOM     15  C   UNL d   1       0.904   1.080   0.620  0.00  0.00     0.084 A 
ATOM     16  S   UNL d   1       1.069  -0.452   1.364  0.00  0.00    -0.084 SA
BRANCH  13  17
ATOM     17  C   UNL d   1      -0.050   2.103  -1.464  0.00  0.00     0.172 C 
ATOM     18  O   UNL d   1       0.266   3.252  -1.148  0.00  0.00    -0.291 OA
ATOM     19  C   UNL d   1      -0.769   1.856  -2.767  0.00  0.00     0.098 C 
ENDBRANCH  13  17
ENDBRANCH   1  11
TORSDOF 4
