REMARK  6 active torsions:
REMARK  status: ('A' for Active; 'I' for Inactive)
REMARK    1  A    between atoms: C_8  and  C_1 
REMARK    2  A    between atoms: N_7  and  C_2 
REMARK    3  A    between atoms: S_3  and  N_7 
REMARK    4  A    between atoms: C_9  and  S_3 
REMARK    5  A    between atoms: C_12  and  C_5 
REMARK       I    between atoms: N_18  and  C_8 
REMARK    6  A    between atoms: O_26  and  C_20 
ROOT
ATOM      1  C   UNL d   1       0.006   1.275  -0.056  0.00  0.00     0.100 A 
ATOM      2  C   UNL d   1       1.330   0.855  -0.064  0.00  0.00     0.066 A 
ATOM      3  S   UNL d   1      -1.061  -0.075  -0.068  0.00  0.00    -0.082 SA
ATOM      4  C   UNL d   1       0.207  -1.215   0.001  0.00  0.00     0.018 A 
ATOM      5  C   UNL d   1       1.430  -0.572   0.003  0.00  0.00     0.051 A 
ENDROOT
BRANCH   2   6
ATOM      6  N   UNL d   1       2.486   1.658   0.002  0.00  0.00    -0.279 N 
ATOM      7  H   UNL d   1       3.134   1.461   0.768  0.00  0.00     0.179 HD
BRANCH   6   8
ATOM      8  S   UNL d   1       3.386   2.087  -1.370  0.00  0.00     0.263 S 
ATOM      9  O   UNL d   1       2.519   2.843  -2.246  0.00  0.00    -0.200 OA
ATOM     10  O   UNL d   1       4.614   2.661  -0.858  0.00  0.00    -0.200 OA
BRANCH   8  11
ATOM     11  C   UNL d   1       3.828   0.562  -2.191  0.00  0.00     0.080 A 
ATOM     12  C   UNL d   1       3.033   0.080  -3.236  0.00  0.00     0.027 A 
ATOM     13  C   UNL d   1       3.460  -1.026  -3.983  0.00  0.00     0.025 A 
ATOM     14  C   UNL d   1       4.681  -1.636  -3.693  0.00  0.00     0.034 A 
ATOM     15  C   UNL d   1       5.482  -1.151  -2.659  0.00  0.00     0.025 A 
ATOM     16 CL   UNL d   1       5.215  -2.976  -4.632  0.00  0.00    -0.084 Cl
ATOM     17  C   UNL d   1       5.061  -0.044  -1.909  0.00  0.00     0.027 A 
ENDBRANCH   8  11
ENDBRANCH   6   8
ENDBRANCH   2   6
BRANCH   1  18
ATOM     18  C   UNL d   1      -0.622   2.592   0.002  0.00  0.00     0.258 C 
ATOM     19  O   UNL d   1      -1.837   2.795   0.044  0.00  0.00    -0.267 OA
ATOM     20  N   UNL d   1       0.202   3.677   0.024  0.00  0.00    -0.365 N 
ATOM     21  H   UNL d   1       1.179   3.600  -0.218  0.00  0.00     0.159 HD
ATOM     22  H   UNL d   1      -0.246   4.579  -0.060  0.00  0.00     0.159 HD
ENDBRANCH   1  18
BRANCH   4  23
ATOM     23  C   UNL d   1      -0.082  -2.658   0.023  0.00  0.00    -0.019 A 
ATOM     24  C   UNL d   1       0.769  -3.552  -0.642  0.00  0.00     0.015 A 
ATOM     25  C   UNL d   1       0.518  -4.932  -0.642  0.00  0.00     0.037 A 
ATOM     26  C   UNL d   1      -0.595  -5.441   0.025  0.00  0.00     0.068 A 
ATOM     27  C   UNL d   1      -1.447  -4.561   0.692  0.00  0.00     0.037 A 
ATOM     28  C   UNL d   1      -1.193  -3.186   0.697  0.00  0.00     0.015 A 
BRANCH  26  29
ATOM     29  O   UNL d   1      -0.961  -6.756   0.094  0.00  0.00    -0.356 OA
ATOM     30  C   UNL d   1      -0.107  -7.693  -0.548  0.00  0.00     0.210 C 
ENDBRANCH  26  29
ENDBRANCH   4  23
TORSDOF 6
