REMARK  5 active torsions:
REMARK  status: ('A' for Active; 'I' for Inactive)
REMARK    1  A    between atoms: C_8  and  C_1 
REMARK    2  A    between atoms: S_15  and  C_2 
REMARK    3  A    between atoms: C_6  and  C_3 
REMARK       I    between atoms: N_7  and  C_6 
REMARK       I    between atoms: C_9  and  N_7 
REMARK       I    between atoms: N_14  and  C_9 
REMARK    4  A    between atoms: C_23  and  N_14 
REMARK    5  A    between atoms: C_21  and  C_23 
ROOT
ATOM      1  C   UNL d   1       0.449  -2.707  -0.398  0.00  0.00     0.267 C 
ATOM      2  N   UNL d   1      -0.794  -3.064   0.116  0.00  0.00    -0.275 N 
ATOM      3  C   UNL d   1      -1.278  -4.254   0.573  0.00  0.00     0.323 C 
ATOM      4  N   UNL d   1      -0.382  -5.239   0.859  0.00  0.00    -0.339 N 
ATOM      5  O   UNL d   1       1.377  -3.514  -0.430  0.00  0.00    -0.267 OA
ATOM      6  O   UNL d   1      -2.495  -4.378   0.707  0.00  0.00    -0.247 OA
ATOM      7  H   UNL d   1      -1.533  -2.385   0.003  0.00  0.00     0.173 HD
ATOM      8  H   UNL d   1       0.566  -5.100   0.515  0.00  0.00     0.164 HD
ENDROOT
BRANCH   1   9
ATOM      9  C   UNL d   1       0.550  -1.303  -0.834  0.00  0.00     0.081 C 
ATOM     10  C   UNL d   1       1.620  -0.614  -1.406  0.00  0.00    -0.024 C 
ATOM     11  C   UNL d   1       1.373   0.830  -1.405  0.00  0.00     0.031 C 
ATOM     12  C   UNL d   1       2.893  -1.259  -1.863  0.00  0.00     0.050 C 
ATOM     13  C   UNL d   1       0.075   1.139  -1.013  0.00  0.00     0.055 C 
ATOM     14  S   UNL d   1      -0.808  -0.273  -0.657  0.00  0.00    -0.076 SA
BRANCH  11  15
ATOM     15  C   UNL d   1       2.387   1.910  -1.732  0.00  0.00     0.112 A 
ATOM     16  O   UNL d   1       2.254   3.221  -1.345  0.00  0.00    -0.237 OA
ATOM     17  N   UNL d   1       3.367   3.954  -1.710  0.00  0.00    -0.272 N 
ATOM     18  C   UNL d   1       4.155   3.092  -2.346  0.00  0.00     0.117 A 
ATOM     19  HN  UNL d   1       3.546   4.942  -1.530  1.00  0.00     0.194 HD
ATOM     20  C   UNL d   1       3.591   1.804  -2.398  0.00  0.00     0.059 A 
ENDBRANCH  11  15
BRANCH  13  21
ATOM     21  S   UNL d   1      -0.691   2.737  -0.968  0.00  0.00    -0.126 SA
ATOM     22  C   UNL d   1      -1.984   2.588   0.281  0.00  0.00     0.096 C 
ENDBRANCH  13  21
ENDBRANCH   1   9
BRANCH   4  23
ATOM     23  C   UNL d   1      -0.832  -6.590   1.121  0.00  0.00     0.164 C 
BRANCH  23  24
ATOM     24  C   UNL d   1      -0.262  -7.253   2.344  0.00  0.00    -0.025 A 
ATOM     25  C   UNL d   1      -0.863  -8.430   2.797  0.00  0.00     0.096 A 
ATOM     26  N   UNL d   1      -0.430  -9.171   3.843  0.00  0.00    -0.375 N 
ATOM     27  C   UNL d   1       0.665  -8.716   4.485  0.00  0.00     0.087 A 
ATOM     28  HN  UNL d   1      -0.906 -10.026   4.131  1.00  0.00     0.164 HD
ATOM     29  C   UNL d   1       1.337  -7.557   4.129  0.00  0.00     0.018 A 
ATOM     30  C   UNL d   1       0.867  -6.820   3.042  0.00  0.00     0.011 A 
ENDBRANCH  23  24
ENDBRANCH   4  23
TORSDOF 5
