REMARK  2 active torsions:
REMARK  status: ('A' for Active; 'I' for Inactive)
REMARK    1  A    between atoms: C_8  and  C_1 
REMARK    2  A    between atoms: C_7  and  C_5 
ROOT
ATOM      1  C   UNL d   1      -0.783   0.928   0.008  0.00  0.00     0.146 A 
ATOM      2  C   UNL d   1      -1.318  -0.338  -0.058  0.00  0.00     0.075 A 
ATOM      3  N   UNL d   1       0.931  -0.506   0.127  0.00  0.00    -0.260 N 
ATOM      4  HN  UNL d   1       1.877  -0.879   0.208  1.00  0.00     0.195 HD
ATOM      5  C   UNL d   1      -0.204  -1.214   0.009  0.00  0.00     0.068 A 
ATOM      6  O   UNL d   1       0.566   0.822   0.120  0.00  0.00    -0.234 OA
ENDROOT
BRANCH   5   7
ATOM      7  C   UNL d   1      -0.189  -2.674  -0.046  0.00  0.00    -0.006 A 
ATOM      8  C   UNL d   1       0.826  -3.396   0.601  0.00  0.00     0.039 A 
ATOM      9  C   UNL d   1       0.863  -4.794   0.534  0.00  0.00     0.056 A 
ATOM     10 CL   UNL d   1       2.144  -5.604   1.363  0.00  0.00    -0.083 Cl
ATOM     11  C   UNL d   1      -0.115  -5.484  -0.188  0.00  0.00     0.055 A 
ATOM     12  C   UNL d   1      -1.131  -4.772  -0.831  0.00  0.00     0.026 A 
ATOM     13 CL   UNL d   1      -0.124  -7.205  -0.331  0.00  0.00    -0.083 Cl
ATOM     14  C   UNL d   1      -1.171  -3.376  -0.758  0.00  0.00     0.015 A 
ENDBRANCH   5   7
BRANCH   1  15
ATOM     15  C   UNL d   1      -1.403   2.230  -0.022  0.00  0.00     0.181 C 
ATOM     16  O   UNL d   1      -2.626   2.372  -0.099  0.00  0.00    -0.291 OA
ATOM     17  C   UNL d   1      -0.517   3.451   0.043  0.00  0.00     0.099 C 
ENDBRANCH   1  15
TORSDOF 2
