REMARK  4 active torsions:
REMARK  status: ('A' for Active; 'I' for Inactive)
REMARK    1  A    between atoms: C_13  and  C_1 
REMARK    2  A    between atoms: O_18  and  C_3 
REMARK    3  A    between atoms: C_4  and  N_7 
REMARK    4  A    between atoms: N_7  and  N_10 
ROOT
ATOM      1  N   UNL d   1      -0.281  -3.767  -0.282  0.00  0.00    -0.304 N 
ATOM      2  HN  UNL d   1      -0.689  -4.700  -0.347  1.00  0.00     0.186 HD
ATOM      3  C   UNL d   1      -1.029  -2.695  -0.175  0.00  0.00     0.041 C 
ATOM      4  C   UNL d   1      -0.437  -1.296  -0.079  0.00  0.00     0.071 C 
ENDROOT
BRANCH   1   5
ATOM      5  N   UNL d   1       1.062  -3.572  -0.302  0.00  0.00    -0.297 N 
ATOM      6  H   UNL d   1       1.487  -3.359   0.608  0.00  0.00     0.187 HD
BRANCH   5   7
ATOM      7  C   UNL d   1       1.893  -4.475  -1.028  0.00  0.00     0.091 A 
ATOM      8  C   UNL d   1       1.516  -5.138  -2.215  0.00  0.00     0.065 A 
ATOM      9  C   UNL d   1       2.423  -5.957  -2.905  0.00  0.00     0.050 A 
ATOM     10 CL   UNL d   1      -0.038  -4.960  -2.962  0.00  0.00    -0.082 Cl
ATOM     11  C   UNL d   1       3.728  -6.100  -2.448  0.00  0.00     0.037 A 
ATOM     12  C   UNL d   1       4.151  -5.425  -1.312  0.00  0.00     0.050 A 
ATOM     13 CL   UNL d   1       4.832  -7.096  -3.312  0.00  0.00    -0.084 Cl
ATOM     14  C   UNL d   1       3.244  -4.616  -0.621  0.00  0.00     0.065 A 
ATOM     15 CL   UNL d   1       3.834  -3.775   0.777  0.00  0.00    -0.082 Cl
ENDBRANCH   5   7
ENDBRANCH   1   5
BRANCH   3  16
ATOM     16  C   UNL d   1      -2.540  -2.830  -0.191  0.00  0.00     0.096 A 
ATOM     17  C   UNL d   1      -3.448  -1.649  -0.107  0.00  0.00     0.303 A 
ATOM     18  O   UNL d   1      -4.798  -1.861  -0.170  0.00  0.00    -0.280 OA
ATOM     19  O   UNL d   1      -3.025  -0.503   0.020  0.00  0.00    -0.259 OA
ATOM     20  C   UNL d   1      -5.337  -3.154  -0.297  0.00  0.00     0.056 A 
ATOM     21  C   UNL d   1      -4.537  -4.222  -0.353  0.00  0.00     0.070 A 
ATOM     22  C   UNL d   1      -6.829  -3.190  -0.362  0.00  0.00     0.077 C 
ATOM     23  C   UNL d   1      -3.112  -4.049  -0.299  0.00  0.00     0.086 A 
BRANCH  23  24
ATOM     24  O   UNL d   1      -2.440  -5.248  -0.383  0.00  0.00    -0.359 OA
ATOM     25  H   UNL d   1      -1.475  -5.057  -0.418  0.00  0.00     0.217 HD
ENDBRANCH  23  24
ENDBRANCH   3  16
TORSDOF 4
