REMARK  5 active torsions:
REMARK  status: ('A' for Active; 'I' for Inactive)
REMARK    1  A    between atoms: C_8  and  C_1 
REMARK    2  A    between atoms: C_9  and  C_3 
REMARK    3  A    between atoms: N_7  and  C_10 
REMARK    4  A    between atoms: O_17  and  C_8 
REMARK    5  A    between atoms: C_22  and  O_17 
ROOT
ATOM      1  C   UNL d   1      -0.286  -1.068  -0.224  0.00  0.00     0.104 A 
ATOM      2  S   UNL d   1       1.157  -0.256  -0.674  0.00  0.00    -0.064 SA
ATOM      3  C   UNL d   1       0.591   1.190   0.061  0.00  0.00     0.085 A 
ATOM      4  N   UNL d   1      -0.559   1.064   0.691  0.00  0.00    -0.352 N 
ATOM      5  HN  UNL d   1      -1.004   1.803   1.235  1.00  0.00     0.166 HD
ATOM      6  C   UNL d   1      -1.085  -0.207   0.517  0.00  0.00     0.029 A 
ATOM      7  C   UNL d   1      -2.429  -0.472   1.098  0.00  0.00     0.070 C 
ENDROOT
BRANCH   3   8
ATOM      8  C   UNL d   1       1.356   2.447  -0.003  0.00  0.00    -0.000 A 
ATOM      9  C   UNL d   1       2.208   2.766  -1.079  0.00  0.00     0.044 A 
ATOM     10  C   UNL d   1       2.893   3.993  -1.130  0.00  0.00     0.039 A 
ATOM     11  C   UNL d   1       2.721   4.906  -0.080  0.00  0.00     0.030 A 
ATOM     12  C   UNL d   1       1.873   4.605   0.988  0.00  0.00     0.003 A 
ATOM     13  C   UNL d   1       1.194   3.389   1.021  0.00  0.00     0.014 A 
BRANCH  10  14
ATOM     14  N   UNL d   1       3.738   4.312  -2.242  0.00  0.00    -0.333 N 
ATOM     15  C   UNL d   1       4.490   5.463  -2.405  0.00  0.00     0.096 A 
ATOM     16  C   UNL d   1       5.159   5.411  -3.609  0.00  0.00     0.019 A 
ATOM     17  C   UNL d   1       4.820   4.189  -4.219  0.00  0.00     0.019 A 
ATOM     18  C   UNL d   1       3.958   3.534  -3.366  0.00  0.00     0.096 A 
ENDBRANCH  10  14
ENDBRANCH   3   8
BRANCH   1  19
ATOM     19  C   UNL d   1      -0.504  -2.422  -0.684  0.00  0.00     0.302 C 
ATOM     20  O   UNL d   1       0.240  -3.063  -1.420  0.00  0.00    -0.259 OA
BRANCH  19  21
ATOM     21  O   UNL d   1      -1.714  -2.870  -0.250  0.00  0.00    -0.317 OA
BRANCH  21  22
ATOM     22  C   UNL d   1      -2.245  -4.013  -0.933  0.00  0.00     0.174 C 
ATOM     23  C   UNL d   1      -3.023  -3.525  -2.141  0.00  0.00     0.034 C 
ENDBRANCH  21  22
ENDBRANCH  19  21
ENDBRANCH   1  19
TORSDOF 5
