REMARK  5 active torsions:
REMARK  status: ('A' for Active; 'I' for Inactive)
REMARK    1  A    between atoms: C_8  and  C_1 
REMARK    2  A    between atoms: C_7  and  C_2 
REMARK    3  A    between atoms: O_12  and  C_8 
REMARK    4  A    between atoms: O_14  and  C_10 
REMARK    5  A    between atoms: C_17  and  O_12 
ROOT
ATOM      1  C   UNL d   1       1.428   1.063  -0.121  0.00  0.00     0.067 C 
ATOM      2  C   UNL d   1       0.188   1.926  -0.253  0.00  0.00     0.163 C 
ATOM      3  C   UNL d   1       1.355  -0.284  -0.223  0.00  0.00     0.024 C 
ATOM      4  C   UNL d   1      -1.073  -0.221  -0.424  0.00  0.00     0.321 C 
ATOM      5  N   UNL d   1       0.123  -0.866  -0.426  0.00  0.00    -0.312 N 
ATOM      6  N   UNL d   1      -1.026   1.116  -0.244  0.00  0.00    -0.330 N 
ATOM      7  O   UNL d   1      -2.133  -0.822  -0.541  0.00  0.00    -0.247 OA
ATOM      8  C   UNL d   1       2.475  -1.291  -0.152  0.00  0.00     0.069 C 
ATOM      9  H   UNL d   1       0.049  -1.872  -0.517  0.00  0.00     0.170 HD
ATOM     10  H   UNL d   1      -1.925   1.577  -0.220  0.00  0.00     0.165 HD
ENDROOT
BRANCH   2  11
ATOM     11  C   UNL d   1       0.005   3.002   0.810  0.00  0.00     0.003 A 
ATOM     12  C   UNL d   1      -0.142   4.385   0.597  0.00  0.00     0.076 A 
ATOM     13  C   UNL d   1      -0.442   5.211   1.702  0.00  0.00     0.037 A 
ATOM     14  C   UNL d   1      -0.588   4.710   2.994  0.00  0.00     0.003 A 
ATOM     15  C   UNL d   1      -0.404   3.359   3.220  0.00  0.00     0.001 A 
ATOM     16  C   UNL d   1      -0.108   2.522   2.146  0.00  0.00     0.012 A 
BRANCH  12  17
ATOM     17  O   UNL d   1      -0.052   5.153  -0.526  0.00  0.00    -0.355 OA
ATOM     18  C   UNL d   1       0.174   4.640  -1.819  0.00  0.00     0.210 C 
ENDBRANCH  12  17
ENDBRANCH   2  11
BRANCH   1  19
ATOM     19  C   UNL d   1       2.737   1.737   0.105  0.00  0.00     0.293 C 
ATOM     20  O   UNL d   1       3.692   1.214   0.659  0.00  0.00    -0.259 OA
BRANCH  19  21
ATOM     21  O   UNL d   1       2.733   2.996  -0.388  0.00  0.00    -0.318 OA
BRANCH  21  22
ATOM     22  C   UNL d   1       3.956   3.740  -0.223  0.00  0.00     0.174 C 
ATOM     23  C   UNL d   1       4.159   4.184   1.217  0.00  0.00     0.034 C 
ENDBRANCH  21  22
ENDBRANCH  19  21
ENDBRANCH   1  19
TORSDOF 5
