REMARK  3 active torsions:
REMARK  status: ('A' for Active; 'I' for Inactive)
REMARK    1  A    between atoms: N_7  and  N_1 
REMARK    2  A    between atoms: C_6  and  C_2 
REMARK    3  A    between atoms: C_14  and  N_7 
ROOT
ATOM      1  N   UNL d   1       0.843  -0.718   0.074  0.00  0.00    -0.237 N 
ATOM      2  C   UNL d   1      -0.501  -1.073  -0.043  0.00  0.00     0.075 A 
ATOM      3  C   UNL d   1       1.127   0.648  -0.051  0.00  0.00     0.164 A 
ATOM      4  C   UNL d   1      -1.297   0.002  -0.198  0.00  0.00     0.085 A 
ATOM      5  S   UNL d   1      -0.421   1.497  -0.227  0.00  0.00    -0.068 SA
ATOM      6  S   UNL d   1       2.606   1.417  -0.074  0.00  0.00    -0.050 SA
ENDROOT
BRANCH   1   7
ATOM      7  N   UNL d   1       1.908  -1.607   0.306  0.00  0.00    -0.292 N 
ATOM      8  H   UNL d   1       2.292  -2.021  -0.535  0.00  0.00     0.187 HD
BRANCH   7   9
ATOM      9  C   UNL d   1       1.830  -2.450   1.432  0.00  0.00     0.048 C 
ATOM     10  C   UNL d   1       2.570  -3.643   1.433  0.00  0.00     0.031 C 
ATOM     11  C   UNL d   1       2.430  -4.568   2.471  0.00  0.00     0.002 C 
ATOM     12  C   UNL d   1       1.571  -4.297   3.533  0.00  0.00     0.000 C 
ATOM     13  C   UNL d   1       0.905  -3.077   3.592  0.00  0.00     0.002 C 
ATOM     14  C   UNL d   1       1.066  -2.147   2.565  0.00  0.00     0.031 C 
ENDBRANCH   7   9
ENDBRANCH   1   7
BRANCH   2  15
ATOM     15  C   UNL d   1      -1.063  -2.441   0.005  0.00  0.00    -0.006 A 
ATOM     16  C   UNL d   1      -2.259  -2.692   0.712  0.00  0.00     0.022 A 
ATOM     17  C   UNL d   1      -2.861  -3.964   0.736  0.00  0.00    -0.039 A 
ATOM     18  C   UNL d   1      -4.176  -4.147   1.441  0.00  0.00     0.050 C 
ATOM     19  C   UNL d   1      -2.221  -5.018   0.073  0.00  0.00     0.040 A 
ATOM     20  C   UNL d   1      -1.020  -4.799  -0.601  0.00  0.00     0.025 A 
ATOM     21 CL   UNL d   1      -2.892  -6.609   0.043  0.00  0.00    -0.084 Cl
ATOM     22  C   UNL d   1      -0.457  -3.519  -0.650  0.00  0.00     0.015 A 
ENDBRANCH   2  15
TORSDOF 3
