REMARK  4 active torsions:
REMARK  status: ('A' for Active; 'I' for Inactive)
REMARK    1  A    between atoms: C_14  and  C_5 
REMARK    2  A    between atoms: O_13  and  C_6 
REMARK    3  A    between atoms: C_15  and  C_14 
REMARK    4  A    between atoms: C_16  and  C_15 
ROOT
ATOM      1  N   UNL d   1      -0.042  -0.659   0.015  0.00  0.00    -0.274 N 
ATOM      2  C   UNL d   1       1.155  -1.357   0.074  0.00  0.00     0.263 C 
ATOM      3  N   UNL d   1       1.048   1.449   0.008  0.00  0.00    -0.322 N 
ATOM      4  HN  UNL d   1       1.006   2.467   0.042  1.00  0.00     0.169 HD
ATOM      5  C   UNL d   1       2.389  -0.541  -0.049  0.00  0.00     0.061 C 
ATOM      6  C   UNL d   1       2.235   0.788  -0.036  0.00  0.00     0.153 C 
ATOM      7  C   UNL d   1      -0.030   0.727   0.005  0.00  0.00     0.116 A 
ATOM      8  C   UNL d   1      -1.240  -1.366   0.009  0.00  0.00     0.102 A 
ATOM      9  O   UNL d   1       1.234  -2.577   0.222  0.00  0.00    -0.267 OA
ATOM     10  C   UNL d   1      -1.353   1.414  -0.015  0.00  0.00     0.049 A 
ATOM     11  C   UNL d   1      -2.425  -0.746  -0.028  0.00  0.00     0.018 A 
ATOM     12  C   UNL d   1      -2.480   0.692  -0.042  0.00  0.00     0.005 A 
ENDROOT
BRANCH   5  13
ATOM     13  C   UNL d   1       3.709  -1.259  -0.149  0.00  0.00     0.049 C 
BRANCH  13  14
ATOM     14  C   UNL d   1       3.854  -2.179  -1.372  0.00  0.00     0.004 C 
BRANCH  14  15
ATOM     15  C   UNL d   1       3.725  -1.457  -2.715  0.00  0.00    -0.004 C 
ATOM     16  C   UNL d   1       3.841  -2.442  -3.870  0.00  0.00     0.005 C 
ENDBRANCH  14  15
ENDBRANCH  13  14
ENDBRANCH   5  13
BRANCH   6  17
ATOM     17  O   UNL d   1       3.327   1.615  -0.091  0.00  0.00    -0.345 OA
ATOM     18  H   UNL d   1       2.916   2.498  -0.042  0.00  0.00     0.219 HD
ENDBRANCH   6  17
TORSDOF 4
