REMARK  1 active torsions:
REMARK  status: ('A' for Active; 'I' for Inactive)
REMARK       I    between atoms: N_2  and  C_1 
REMARK    1  A    between atoms: C_3  and  C_1 
ROOT
ATOM      1  C   UNL d   1       1.067   0.022  -0.080  0.00  0.00     0.277 C 
ATOM      2  N   UNL d   1       0.320  -1.152   0.096  0.00  0.00    -0.345 N 
ATOM      3  O   UNL d   1       2.228   0.101   0.323  0.00  0.00    -0.265 OA
ATOM      4  S   UNL d   1      -1.555  -3.590   0.889  0.00  0.00    -0.166 SA
ATOM      5  C   UNL d   1       0.867  -2.202   0.957  0.00  0.00     0.136 C 
ATOM      6  C   UNL d   1      -0.718  -1.586  -0.848  0.00  0.00     0.136 C 
ATOM      7  C   UNL d   1      -0.200  -2.836   1.851  0.00  0.00     0.093 C 
ATOM      8  C   UNL d   1      -1.957  -2.147  -0.153  0.00  0.00     0.093 C 
ENDROOT
BRANCH   1   9
ATOM      9  C   UNL d   1       0.419   1.151  -0.727  0.00  0.00     0.142 A 
ATOM     10  O   UNL d   1      -0.931   1.347  -0.581  0.00  0.00    -0.317 OA
ATOM     11  C   UNL d   1      -1.247   2.493  -1.236  0.00  0.00     0.143 A 
ATOM     12  C   UNL d   1      -0.125   3.052  -1.798  0.00  0.00     0.027 A 
ATOM     13  C   UNL d   1       0.953   2.200  -1.453  0.00  0.00     0.045 A 
ENDBRANCH   1   9
TORSDOF 1
