REMARK  5 active torsions:
REMARK  status: ('A' for Active; 'I' for Inactive)
REMARK       I    between atoms: N_4  and  C_1 
REMARK       I    between atoms: N_10  and  C_1 
REMARK    1  A    between atoms: N_2  and  C_13 
REMARK    2  A    between atoms: C_11  and  N_4 
REMARK    3  A    between atoms: C_20  and  N_10 
REMARK    4  A    between atoms: C_13  and  C_19 
REMARK    5  A    between atoms: C_19  and  C_20 
ROOT
ATOM      1  C   UNL d   1       2.362   2.454  -1.656  0.00  0.00     0.320 C 
ATOM      2  N   UNL d   1       2.018   3.688  -2.163  0.00  0.00    -0.309 N 
ATOM      3  O   UNL d   1       2.265   1.381  -2.233  0.00  0.00    -0.247 OA
ATOM      4  N   UNL d   1       2.815   2.542  -0.359  0.00  0.00    -0.343 N 
ATOM      5  H   UNL d   1       2.376   4.494  -1.675  0.00  0.00     0.170 HD
ATOM      6  H   UNL d   1       2.892   3.443   0.084  0.00  0.00     0.164 HD
ENDROOT
BRANCH   4   7
ATOM      7  C   UNL d   1       3.163   1.354   0.404  0.00  0.00     0.126 C 
BRANCH   7   8
ATOM      8  C   UNL d   1       4.628   0.962   0.222  0.00  0.00     0.050 C 
BRANCH   8   9
ATOM      9  C   UNL d   1       5.553   2.059   0.763  0.00  0.00     0.274 C 
BRANCH   9  10
ATOM     10  N   UNL d   1       6.990   1.749   0.707  0.00  0.00     0.093 N 
ATOM     11  C   UNL d   1       7.785   2.885   1.241  0.00  0.00     0.303 C 
ATOM     12  C   UNL d   1       7.834   4.116   0.299  0.00  0.00     0.146 C 
ATOM     13  C   UNL d   1       8.758   5.189   0.858  0.00  0.00     0.041 C 
ATOM     14  O   UNL d   1       8.299   3.753  -1.013  0.00  0.00    -0.378 OA
ATOM     15  C   UNL d   1       7.477   2.714  -1.576  0.00  0.00     0.146 C 
ATOM     16  C   UNL d   1       7.488   1.471  -0.661  0.00  0.00     0.303 C 
ATOM     17  C   UNL d   1       8.003   2.374  -2.964  0.00  0.00     0.041 C 
ENDBRANCH   9  10
ENDBRANCH   8   9
ENDBRANCH   7   8
ENDBRANCH   4   7
BRANCH   2  18
ATOM     18  C   UNL d   1       1.236   3.936  -3.311  0.00  0.00     0.036 A 
ATOM     19  C   UNL d   1       0.589   2.924  -4.028  0.00  0.00     0.031 A 
ATOM     20  C   UNL d   1      -0.269   3.235  -5.087  0.00  0.00     0.026 A 
ATOM     21  C   UNL d   1      -0.482   4.563  -5.438  0.00  0.00     0.034 A 
ATOM     22  C   UNL d   1       0.182   5.582  -4.758  0.00  0.00     0.026 A 
ATOM     23 CL   UNL d   1      -1.588   4.947  -6.697  0.00  0.00    -0.084 Cl
ATOM     24  C   UNL d   1       1.041   5.268  -3.698  0.00  0.00     0.031 A 
ENDBRANCH   2  18
TORSDOF 5
