REMARK  6 active torsions:
REMARK  status: ('A' for Active; 'I' for Inactive)
REMARK    1  A    between atoms: C_2  and  C_1 
REMARK    2  A    between atoms: O_9  and  C_3 
REMARK    3  A    between atoms: C_6  and  C_13 
REMARK    4  A    between atoms: N_19  and  C_6 
REMARK    5  A    between atoms: C_20  and  O_9 
REMARK    6  A    between atoms: O_22  and  N_11 
ROOT
ATOM      1  C   UNL d   1      -3.716   4.508   7.452  0.00  0.00     0.004 A 
ATOM      2  C   UNL d   1      -4.257   4.128   6.219  0.00  0.00     0.017 A 
ATOM      3  C   UNL d   1      -4.270   5.582   8.155  0.00  0.00     0.017 A 
ATOM      4  C   UNL d   1      -5.925   5.875   6.408  0.00  0.00     0.077 A 
ATOM      5  C   UNL d   1      -5.380   6.256   7.637  0.00  0.00     0.038 A 
ATOM      6  C   UNL d   1      -5.369   4.800   5.706  0.00  0.00     0.038 A 
ENDROOT
BRANCH   4   7
ATOM      7  O   UNL d   1      -7.058   6.548   6.008  0.00  0.00    -0.292 OA
BRANCH   7   8
ATOM      8  C   UNL d   1      -7.250   6.767   4.653  0.00  0.00     0.170 A 
ATOM      9  N   UNL d   1      -6.160   6.979   3.869  0.00  0.00    -0.344 N 
ATOM     10  C   UNL d   1      -6.375   7.180   2.551  0.00  0.00     0.106 A 
ATOM     11  HN  UNL d   1      -5.218   6.985   4.260  1.00  0.00     0.167 HD
ATOM     12  C   UNL d   1      -7.633   7.200   1.967  0.00  0.00     0.065 A 
ATOM     13  C   UNL d   1      -8.743   7.017   2.801  0.00  0.00     0.045 A 
ATOM     14  C   UNL d   1      -8.553   6.802   4.167  0.00  0.00     0.086 A 
ATOM     15 CL   UNL d   1      -9.927   6.571   5.177  0.00  0.00    -0.080 Cl
BRANCH  12  16
ATOM     16  C   UNL d   1      -7.750   7.407   0.488  0.00  0.00     0.418 C 
ATOM     17  F   UNL d   1      -9.036   7.432   0.046  0.00  0.00    -0.166 F 
ATOM     18  F   UNL d   1      -7.129   6.425  -0.220  0.00  0.00    -0.166 F 
ATOM     19  F   UNL d   1      -7.189   8.577   0.081  0.00  0.00    -0.166 F 
ENDBRANCH  12  16
ENDBRANCH   7   8
ENDBRANCH   4   7
BRANCH   1  20
ATOM     20  C   UNL d   1      -2.580   3.734   8.035  0.00  0.00     0.108 C 
ATOM     21  N   UNL d   1      -1.784   4.322   8.881  0.00  0.00    -0.258 N 
ATOM     22  HN  UNL d   1      -1.859   5.298   9.166  1.00  0.00     0.195 HD
BRANCH  21  23
ATOM     23  O   UNL d   1      -0.806   3.425   9.349  0.00  0.00    -0.289 OA
ATOM     24  H   UNL d   1      -0.237   4.010   9.882  0.00  0.00     0.244 HD
ENDBRANCH  21  23
BRANCH  20  25
ATOM     25  N   UNL d   1      -2.430   2.412   7.683  0.00  0.00    -0.287 NA
ATOM     26  H   UNL d   1      -3.297   1.890   7.627  0.00  0.00     0.125 HD
ATOM     27  H   UNL d   1      -1.764   1.974   8.315  0.00  0.00     0.125 HD
ENDBRANCH  20  25
ENDBRANCH   1  20
TORSDOF 6
