REMARK  3 active torsions:
REMARK  status: ('A' for Active; 'I' for Inactive)
REMARK    1  A    between atoms: C_11  and  N_1 
REMARK    2  A    between atoms: C_3  and  C_2 
REMARK    3  A    between atoms: S_16  and  C_6 
ROOT
ATOM      1  N   UNL d   1      -0.205  -1.318   0.017  0.00  0.00    -0.274 N 
ATOM      2  C   UNL d   1       1.022  -0.691   0.206  0.00  0.00     0.157 C 
ATOM      3  N   UNL d   1       0.834   0.587   0.472  0.00  0.00    -0.281 N 
ATOM      4  HN  UNL d   1       1.556   1.254   0.745  1.00  0.00     0.188 HD
ATOM      5  C   UNL d   1      -1.110  -0.266   0.034  0.00  0.00     0.165 C 
ATOM      6  N   UNL d   1      -0.497   0.860   0.320  0.00  0.00    -0.278 N 
ATOM      7  HN  UNL d   1      -0.935   1.776   0.411  1.00  0.00     0.189 HD
ENDROOT
BRANCH   1   8
ATOM      8  C   UNL d   1      -0.461  -2.716  -0.052  0.00  0.00     0.046 A 
ATOM      9  C   UNL d   1       0.232  -3.583   0.806  0.00  0.00     0.072 A 
ATOM     10  C   UNL d   1      -0.033  -4.947   0.768  0.00  0.00     0.118 A 
ATOM     11  F   UNL d   1       0.626  -5.768   1.595  0.00  0.00    -0.206 F 
ATOM     12  C   UNL d   1      -0.975  -5.469  -0.106  0.00  0.00     0.042 A 
ATOM     13  C   UNL d   1      -1.664  -4.615  -0.965  0.00  0.00     0.005 A 
ATOM     14  C   UNL d   1      -1.409  -3.239  -0.942  0.00  0.00     0.030 A 
ENDBRANCH   1   8
BRANCH   2  15
ATOM     15  C   UNL d   1       2.385  -1.276   0.017  0.00  0.00     0.086 A 
ATOM     16  N   UNL d   1       2.590  -2.473  -0.644  0.00  0.00    -0.351 N 
ATOM     17  C   UNL d   1       3.879  -2.711  -0.752  0.00  0.00     0.047 A 
ATOM     18  HN  UNL d   1       1.850  -3.082  -0.995  1.00  0.00     0.166 HD
ATOM     19  C   UNL d   1       4.458  -3.877  -1.474  0.00  0.00     0.076 C 
ATOM     20  S   UNL d   1       4.908  -1.558  -0.000  0.00  0.00    -0.087 SA
ATOM     21  C   UNL d   1       3.533  -0.632   0.431  0.00  0.00     0.085 A 
ENDBRANCH   2  15
BRANCH   5  22
ATOM     22  S   UNL d   1      -2.839  -0.377  -0.071  0.00  0.00    -0.105 SA
ATOM     23  H   UNL d   1      -3.006  -1.599   0.454  0.00  0.00     0.110 HD
ENDBRANCH   5  22
TORSDOF 3
