REMARK  1 active torsions:
REMARK  status: ('A' for Active; 'I' for Inactive)
REMARK    1  A    between atoms: C_11  and  C_8 
ROOT
ATOM      1  N   UNL d   1       1.198  -0.615  -0.022  0.00  0.00    -0.203 N 
ATOM      2  C   UNL d   1       1.157   0.768   0.061  0.00  0.00     0.133 A 
ATOM      3  N   UNL d   1       2.472  -1.084  -0.071  0.00  0.00    -0.288 N 
ATOM      4  HN  UNL d   1       2.780  -2.053  -0.155  1.00  0.00     0.188 HD
ATOM      5  C   UNL d   1       0.060  -1.445  -0.057  0.00  0.00     0.277 A 
ATOM      6  C   UNL d   1      -1.216  -0.691  -0.019  0.00  0.00     0.044 A 
ATOM      7  C   UNL d   1       2.455   1.200   0.112  0.00  0.00     0.083 A 
ATOM      8  C   UNL d   1       3.232   0.018   0.017  0.00  0.00     0.069 A 
ATOM      9  N   UNL d   1      -0.045   1.391   0.079  0.00  0.00    -0.343 N 
ATOM     10  C   UNL d   1      -1.211   0.652   0.033  0.00  0.00     0.032 A 
ATOM     11  S   UNL d   1      -3.769  -0.063  -0.006  0.00  0.00    -0.158 SA
ATOM     12  O   UNL d   1       0.137  -2.665  -0.116  0.00  0.00    -0.266 OA
ATOM     13  C   UNL d   1      -2.518  -1.395  -0.043  0.00  0.00     0.120 A 
ATOM     14  C   UNL d   1      -2.562   1.303   0.036  0.00  0.00     0.132 A 
ATOM     15  H   UNL d   1      -0.131   2.405   0.127  0.00  0.00     0.167 HD
ENDROOT
BRANCH   8  16
ATOM     16  C   UNL d   1       4.732  -0.051   0.005  0.00  0.00     0.033 A 
ATOM     17  S   UNL d   1       5.760   1.299   0.211  0.00  0.00    -0.100 SA
ATOM     18  C   UNL d   1       7.165   0.333   0.074  0.00  0.00     0.050 A 
ATOM     19  C   UNL d   1       6.860  -0.992  -0.141  0.00  0.00     0.008 A 
ATOM     20  C   UNL d   1       5.451  -1.216  -0.176  0.00  0.00     0.021 A 
ENDBRANCH   8  16
TORSDOF 1
