REMARK  3 active torsions:
REMARK  status: ('A' for Active; 'I' for Inactive)
REMARK    1  A    between atoms: C_2  and  N_1 
REMARK    2  A    between atoms: N_9  and  C_4 
REMARK    3  A    between atoms: O_11  and  C_8 
ROOT
ATOM      1  C   UNL d   1       0.979  -0.038  -0.031  0.00  0.00     0.126 A 
ATOM      2  C   UNL d   1       0.307   1.203   0.007  0.00  0.00     0.074 A 
ATOM      3  C   UNL d   1       0.267  -1.257  -0.015  0.00  0.00     0.039 A 
ATOM      4  C   UNL d   1      -1.132  -1.183  -0.025  0.00  0.00     0.028 A 
ATOM      5  C   UNL d   1      -1.084   1.243   0.032  0.00  0.00     0.070 A 
ATOM      6  C   UNL d   1      -1.797   0.045   0.015  0.00  0.00     0.038 A 
ENDROOT
BRANCH   1   7
ATOM      7  N   UNL d   1       2.454  -0.012  -0.037  0.00  0.00    -0.114 N 
ATOM      8  O   UNL d   1       3.010   1.097  -0.084  0.00  0.00    -0.532 OA
ATOM      9  O   UNL d   1       3.068  -1.087   0.036  0.00  0.00    -0.532 OA
ENDBRANCH   1   7
BRANCH   3  10
ATOM     10  N   UNL d   1       0.845  -2.518  -0.224  0.00  0.00    -0.301 NA
ATOM     11  H   UNL d   1       1.843  -2.563   0.003  0.00  0.00     0.124 HD
ATOM     12  H   UNL d   1       0.327  -3.301   0.164  0.00  0.00     0.124 HD
ENDBRANCH   3  10
BRANCH   5  13
ATOM     13  O   UNL d   1      -1.857   2.369   0.059  0.00  0.00    -0.356 OA
ATOM     14  C   UNL d   1      -1.183   3.622   0.038  0.00  0.00     0.210 C 
ENDBRANCH   5  13
TORSDOF 3
