REMARK  4 active torsions:
REMARK  status: ('A' for Active; 'I' for Inactive)
REMARK       I    between atoms: N_2  and  C_1 
REMARK    1  A    between atoms: C_4  and  C_1 
REMARK    2  A    between atoms: C_3  and  N_2 
REMARK    3  A    between atoms: O_13  and  C_6 
REMARK    4  A    between atoms: O_14  and  C_8 
ROOT
ATOM      1  C   UNL d   1       1.112  -0.194  -0.173  0.00  0.00     0.256 C 
ATOM      2  N   UNL d   1       0.452   0.531  -1.151  0.00  0.00    -0.322 N 
ATOM      3  O   UNL d   1       2.291  -0.529  -0.193  0.00  0.00    -0.267 OA
ATOM      4  H   UNL d   1      -0.373   1.030  -0.855  0.00  0.00     0.169 HD
ENDROOT
BRANCH   1   5
ATOM      5  C   UNL d   1       0.306  -0.470   1.047  0.00  0.00     0.035 A 
ATOM      6  C   UNL d   1       0.927  -0.386   2.302  0.00  0.00     0.056 A 
ATOM      7  C   UNL d   1       0.213  -0.647   3.482  0.00  0.00     0.102 A 
ATOM      8  C   UNL d   1      -1.141  -1.022   3.386  0.00  0.00     0.101 A 
ATOM      9  C   UNL d   1      -1.748  -1.104   2.121  0.00  0.00     0.040 A 
ATOM     10  C   UNL d   1      -1.037  -0.828   0.955  0.00  0.00     0.020 A 
BRANCH   7  11
ATOM     11  O   UNL d   1       0.770  -0.546   4.728  0.00  0.00    -0.353 OA
ATOM     12  C   UNL d   1       2.139  -0.175   4.835  0.00  0.00     0.210 C 
ENDBRANCH   7  11
BRANCH   8  13
ATOM     13  O   UNL d   1      -2.017  -1.343   4.390  0.00  0.00    -0.353 OA
ATOM     14  C   UNL d   1      -1.557  -1.365   5.732  0.00  0.00     0.210 C 
ENDBRANCH   8  13
ENDBRANCH   1   5
BRANCH   2  15
ATOM     15  C   UNL d   1       1.093   1.000  -2.322  0.00  0.00     0.046 A 
ATOM     16  C   UNL d   1       0.923   2.353  -2.732  0.00  0.00     0.001 A 
ATOM     17  C   UNL d   1       1.571   2.784  -3.917  0.00  0.00    -0.024 A 
ATOM     18  C   UNL d   1       0.201   3.318  -1.990  0.00  0.00     0.014 A 
ATOM     19  C   UNL d   1       1.480   4.127  -4.312  0.00  0.00     0.012 A 
ATOM     20  C   UNL d   1       2.328   1.875  -4.671  0.00  0.00     0.012 A 
ATOM     21  C   UNL d   1       0.768   5.057  -3.558  0.00  0.00     0.001 A 
ATOM     22  C   UNL d   1       0.126   4.650  -2.396  0.00  0.00     0.001 A 
ATOM     23  C   UNL d   1       2.477   0.550  -4.258  0.00  0.00     0.003 A 
ATOM     24  C   UNL d   1       1.877   0.121  -3.081  0.00  0.00     0.030 A 
ENDBRANCH   2  15
TORSDOF 4
