REMARK  4 active torsions:
REMARK  status: ('A' for Active; 'I' for Inactive)
REMARK    1  A    between atoms: C_5  and  C_1 
REMARK    2  A    between atoms: C_8  and  C_4 
REMARK       I    between atoms: N_9  and  C_5 
REMARK    3  A    between atoms: N_11  and  N_9 
REMARK       I    between atoms: C_10  and  N_11 
REMARK    4  A    between atoms: C_18  and  C_10 
ROOT
ATOM      1  C   UNL d   1       1.165   0.874   0.071  0.00  0.00     0.110 A 
ATOM      2  N   UNL d   1      -0.128   1.407   0.018  0.00  0.00    -0.345 N 
ATOM      3  HN  UNL d   1      -0.349   2.403   0.007  1.00  0.00     0.167 HD
ATOM      4  C   UNL d   1      -1.021   0.433  -0.014  0.00  0.00     0.091 A 
ATOM      5  S   UNL d   1      -0.364  -1.157   0.085  0.00  0.00    -0.080 SA
ATOM      6  C   UNL d   1       1.212  -0.506   0.121  0.00  0.00     0.087 A 
ENDROOT
BRANCH   1   7
ATOM      7  C   UNL d   1       2.368   1.709   0.050  0.00  0.00     0.287 C 
ATOM      8  N   UNL d   1       2.124   3.064   0.006  0.00  0.00    -0.262 N 
ATOM      9  H   UNL d   1       1.179   3.447   0.028  0.00  0.00     0.190 HD
ATOM     10  O   UNL d   1       3.510   1.245   0.056  0.00  0.00    -0.264 OA
BRANCH   8  11
ATOM     11  N   UNL d   1       3.211   3.944  -0.077  0.00  0.00    -0.267 N 
ATOM     12  C   UNL d   1       3.055   5.246   0.360  0.00  0.00     0.239 C 
ATOM     13  O   UNL d   1       1.976   5.700   0.730  0.00  0.00    -0.271 OA
ATOM     14  H   UNL d   1       4.131   3.509  -0.142  0.00  0.00     0.190 HD
BRANCH  12  15
ATOM     15  C   UNL d   1       4.348   6.059   0.301  0.00  0.00     0.071 C 
ATOM     16  C   UNL d   1       4.788   6.246  -1.151  0.00  0.00     0.019 C 
ATOM     17  C   UNL d   1       4.186   7.417   0.980  0.00  0.00     0.019 C 
ENDBRANCH  12  15
ENDBRANCH   8  11
ENDBRANCH   1   7
BRANCH   4  18
ATOM     18  C   UNL d   1      -2.441   0.695  -0.108  0.00  0.00     0.038 A 
ATOM     19  S   UNL d   1      -3.573  -0.460  -0.695  0.00  0.00    -0.099 SA
ATOM     20  C   UNL d   1      -4.887   0.613  -0.510  0.00  0.00     0.050 A 
ATOM     21  C   UNL d   1      -4.490   1.830  -0.006  0.00  0.00     0.008 A 
ATOM     22  C   UNL d   1      -3.082   1.878   0.218  0.00  0.00     0.022 A 
ENDBRANCH   4  18
TORSDOF 4
