REMARK  6 active torsions:
REMARK  status: ('A' for Active; 'I' for Inactive)
REMARK    1  A    between atoms: C_11  and  C_3 
REMARK    2  A    between atoms: N_16  and  C_7 
REMARK    3  A    between atoms: C_14  and  C_9 
REMARK    4  A    between atoms: O_17  and  C_11 
REMARK    5  A    between atoms: O_18  and  C_14 
REMARK    6  A    between atoms: O_19  and  C_14 
ROOT
ATOM      1  C   UNL d   1       0.172  -0.582  -0.154  0.00  0.00     0.088 A 
ATOM      2  C   UNL d   1       0.272   0.795  -0.069  0.00  0.00     0.027 A 
ATOM      3  C   UNL d   1      -2.172   0.803  -0.072  0.00  0.00     0.068 A 
ATOM      4  C   UNL d   1       2.518   0.132  -0.080  0.00  0.00     0.114 A 
ATOM      5  N   UNL d   1      -0.963  -1.298  -0.184  0.00  0.00    -0.348 N 
ATOM      6  HN  UNL d   1      -0.950  -2.314  -0.265  1.00  0.00     0.166 HD
ATOM      7  C   UNL d   1       1.648   1.205  -0.026  0.00  0.00     0.067 A 
ATOM      8  S   UNL d   1       1.684  -1.355  -0.191  0.00  0.00    -0.058 SA
ATOM      9  C   UNL d   1      -2.137  -0.602  -0.100  0.00  0.00     0.082 A 
ATOM     10  C   UNL d   1      -0.946   1.502  -0.035  0.00  0.00     0.036 A 
ATOM     11  C   UNL d   1       3.947   0.207  -0.047  0.00  0.00     0.109 C 
ATOM     12  N   UNL d   1       5.103   0.297  -0.018  0.00  0.00    -0.191 NA
ENDROOT
BRANCH   7  13
ATOM     13  N   UNL d   1       2.025   2.502   0.063  0.00  0.00    -0.397 N 
ATOM     14  H   UNL d   1       1.364   3.274   0.039  0.00  0.00     0.156 HD
ATOM     15  H   UNL d   1       2.997   2.809   0.039  0.00  0.00     0.156 HD
ENDBRANCH   7  13
BRANCH   9  16
ATOM     16  C   UNL d   1      -3.387  -1.501  -0.030  0.00  0.00     0.310 C 
BRANCH  16  17
ATOM     17  O   UNL d   1      -3.816  -1.768  -1.376  0.00  0.00    -0.360 OA
ATOM     18  C   UNL d   1      -4.918  -2.671  -1.434  0.00  0.00     0.205 C 
ENDBRANCH  16  17
BRANCH  16  19
ATOM     19  O   UNL d   1      -3.104  -2.762   0.617  0.00  0.00    -0.360 OA
ATOM     20  C   UNL d   1      -2.740  -2.661   1.983  0.00  0.00     0.205 C 
ENDBRANCH  16  19
ENDBRANCH   9  16
BRANCH   3  21
ATOM     21  C   UNL d   1      -3.420   1.614  -0.025  0.00  0.00     0.295 C 
ATOM     22  O   UNL d   1      -4.472   1.246   0.450  0.00  0.00    -0.259 OA
BRANCH  21  23
ATOM     23  O   UNL d   1      -3.177   2.849  -0.563  0.00  0.00    -0.322 OA
ATOM     24  C   UNL d   1      -4.257   3.790  -0.555  0.00  0.00     0.213 C 
ENDBRANCH  21  23
ENDBRANCH   3  21
TORSDOF 6
