REMARK  5 active torsions:
REMARK  status: ('A' for Active; 'I' for Inactive)
REMARK    1  A    between atoms: C_2  and  C_1 
REMARK       I    between atoms: N_3  and  C_1 
REMARK    2  A    between atoms: C_11  and  N_3 
REMARK    3  A    between atoms: N_9  and  C_5 
REMARK    4  A    between atoms: C_16  and  N_9 
REMARK    5  A    between atoms: C_17  and  N_9 
ROOT
ATOM      1  C   UNL d   1      -3.887  -0.443   1.464  0.00  0.00     0.030 A 
ATOM      2  C   UNL d   1      -1.028  -0.353   1.325  0.00  0.00     0.035 A 
ATOM      3  C   UNL d   1      -3.113   0.120   2.484  0.00  0.00     0.031 A 
ATOM      4  C   UNL d   1      -3.179  -0.994   0.386  0.00  0.00     0.031 A 
ATOM      5  C   UNL d   1      -1.713   0.178   2.415  0.00  0.00     0.032 A 
ATOM      6  C   UNL d   1      -1.775  -0.953   0.312  0.00  0.00     0.032 A 
ENDROOT
BRANCH   2   7
ATOM      7  N   UNL d   1       0.374  -0.287   1.173  0.00  0.00    -0.323 N 
ATOM      8  C   UNL d   1       1.292   0.190   2.098  0.00  0.00     0.263 C 
ATOM      9  O   UNL d   1       1.005   0.516   3.249  0.00  0.00    -0.267 OA
ATOM     10  H   UNL d   1       0.757  -0.612   0.294  0.00  0.00     0.169 HD
BRANCH   8  11
ATOM     11  C   UNL d   1       2.675   0.282   1.635  0.00  0.00     0.072 A 
ATOM     12  S   UNL d   1       3.161  -0.069   0.032  0.00  0.00    -0.097 SA
ATOM     13  C   UNL d   1       4.794   0.322   0.368  0.00  0.00     0.050 A 
ATOM     14  C   UNL d   1       4.976   0.706   1.677  0.00  0.00     0.009 A 
ATOM     15  C   UNL d   1       3.754   0.682   2.405  0.00  0.00     0.025 A 
ENDBRANCH   8  11
ENDBRANCH   2   7
BRANCH   1  16
ATOM     16  N   UNL d   1      -5.274  -0.427   1.514  0.00  0.00    -0.382 N 
BRANCH  16  17
ATOM     17  C   UNL d   1      -5.981  -0.533   2.794  0.00  0.00     0.118 C 
ATOM     18  C   UNL d   1      -6.480   0.819   3.283  0.00  0.00     0.026 C 
ENDBRANCH  16  17
BRANCH  16  19
ATOM     19  C   UNL d   1      -6.080  -0.339   0.292  0.00  0.00     0.118 C 
ATOM     20  C   UNL d   1      -5.845   0.977  -0.440  0.00  0.00     0.026 C 
ENDBRANCH  16  19
ENDBRANCH   1  16
TORSDOF 5
