REMARK  6 active torsions:
REMARK  status: ('A' for Active; 'I' for Inactive)
REMARK    1  A    between atoms: C_5  and  C_1 
REMARK    2  A    between atoms: C_2  and  C_4 
REMARK    3  A    between atoms: C_3  and  N_6 
REMARK    4  A    between atoms: N_7  and  C_3 
REMARK    5  A    between atoms: N_6  and  C_12 
REMARK    6  A    between atoms: C_11  and  N_7 
ROOT
ATOM      1  C   UNL d   1       1.041  -4.247   2.277  0.00  0.00     0.176 C 
ATOM      2  S   UNL d   1       1.072  -5.875   2.658  0.00  0.00    -0.041 SA
ENDROOT
BRANCH   1   3
ATOM      3  N   UNL d   1       0.528  -3.241   3.050  0.00  0.00    -0.333 N 
ATOM      4  H   UNL d   1       0.025  -2.542   2.515  0.00  0.00     0.168 HD
BRANCH   3   5
ATOM      5  C   UNL d   1       0.662  -2.983   4.428  0.00  0.00     0.035 A 
ATOM      6  C   UNL d   1      -0.075  -1.907   4.939  0.00  0.00     0.045 A 
ATOM      7  C   UNL d   1       0.102  -1.467   6.261  0.00  0.00     0.050 A 
ATOM      8  C   UNL d   1       1.041  -2.121   7.070  0.00  0.00     0.016 A 
ATOM      9  C   UNL d   1       1.769  -3.200   6.570  0.00  0.00     0.003 A 
ATOM     10  C   UNL d   1       1.581  -3.629   5.253  0.00  0.00     0.029 A 
BRANCH   7  11
ATOM     11  C   UNL d   1      -0.652  -0.268   6.776  0.00  0.00     0.417 C 
ATOM     12  F   UNL d   1      -1.795  -0.012   6.080  0.00  0.00    -0.166 F 
ATOM     13  F   UNL d   1       0.088   0.872   6.707  0.00  0.00    -0.166 F 
ATOM     14  F   UNL d   1      -1.029  -0.394   8.079  0.00  0.00    -0.166 F 
ENDBRANCH   7  11
ENDBRANCH   3   5
ENDBRANCH   1   3
BRANCH   1  15
ATOM     15  N   UNL d   1       1.429  -3.873   1.011  0.00  0.00    -0.333 N 
ATOM     16  H   UNL d   1       1.506  -4.650   0.362  0.00  0.00     0.168 HD
BRANCH  15  17
ATOM     17  C   UNL d   1       1.951  -2.636   0.566  0.00  0.00     0.035 A 
ATOM     18  C   UNL d   1       2.124  -2.465  -0.813  0.00  0.00     0.045 A 
ATOM     19  C   UNL d   1       2.689  -1.285  -1.331  0.00  0.00     0.050 A 
ATOM     20  C   UNL d   1       3.091  -0.276  -0.444  0.00  0.00     0.016 A 
ATOM     21  C   UNL d   1       2.936  -0.445   0.927  0.00  0.00     0.003 A 
ATOM     22  C   UNL d   1       2.376  -1.621   1.428  0.00  0.00     0.029 A 
BRANCH  19  23
ATOM     23  C   UNL d   1       2.898  -1.102  -2.812  0.00  0.00     0.417 C 
ATOM     24  F   UNL d   1       2.346  -2.093  -3.565  0.00  0.00    -0.166 F 
ATOM     25  F   UNL d   1       2.365   0.062  -3.276  0.00  0.00    -0.166 F 
ATOM     26  F   UNL d   1       4.218  -1.069  -3.147  0.00  0.00    -0.166 F 
ENDBRANCH  19  23
ENDBRANCH  15  17
ENDBRANCH   1  15
TORSDOF 6
