REMARK  3 active torsions:
REMARK  status: ('A' for Active; 'I' for Inactive)
REMARK    1  A    between atoms: C_10  and  N_1 
REMARK    2  A    between atoms: C_3  and  C_12 
REMARK       I    between atoms: N_6  and  C_3 
REMARK    3  A    between atoms: C_7  and  N_6 
ROOT
ATOM      1  C   UNL d   1      -1.175  -3.764  -2.885  0.00  0.00     0.252 C 
ATOM      2  N   UNL d   1      -2.335  -3.926  -3.615  0.00  0.00    -0.352 N 
ATOM      3  O   UNL d   1      -0.802  -2.681  -2.461  0.00  0.00    -0.268 OA
ATOM      4  H   UNL d   1      -2.692  -4.857  -3.747  0.00  0.00     0.163 HD
ENDROOT
BRANCH   1   5
ATOM      5  C   UNL d   1      -0.376  -4.999  -2.597  0.00  0.00     0.032 A 
ATOM      6  C   UNL d   1      -0.735  -6.279  -3.051  0.00  0.00     0.019 A 
ATOM      7  C   UNL d   1       0.043  -7.393  -2.718  0.00  0.00     0.037 A 
ATOM      8  C   UNL d   1       1.188  -7.239  -1.937  0.00  0.00     0.102 A 
ATOM      9  C   UNL d   1       1.573  -5.964  -1.492  0.00  0.00     0.037 A 
ATOM     10  C   UNL d   1       0.787  -4.856  -1.823  0.00  0.00     0.019 A 
BRANCH   8  11
ATOM     11  N   UNL d   1       1.996  -8.411  -1.584  0.00  0.00    -0.116 N 
ATOM     12  O   UNL d   1       3.028  -8.225  -0.922  0.00  0.00    -0.532 OA
ATOM     13  O   UNL d   1       1.595  -9.518  -1.966  0.00  0.00    -0.532 OA
ENDBRANCH   8  11
ENDBRANCH   1   5
BRANCH   2  14
ATOM     14  C   UNL d   1      -3.298  -2.844  -3.838  0.00  0.00     0.088 C 
ATOM     15  C   UNL d   1      -2.730  -1.692  -4.704  0.00  0.00     0.061 C 
ATOM     16  C   UNL d   1      -3.014  -1.847  -6.206  0.00  0.00     0.225 C 
ATOM     17  C   UNL d   1      -2.389  -3.124  -6.775  0.00  0.00     0.038 C 
ATOM     18  N   UNL d   1      -4.466  -2.044  -6.307  0.00  0.00     0.093 N 
ATOM     19  C   UNL d   1      -3.464  -4.190  -6.595  0.00  0.00     0.038 C 
ATOM     20  C   UNL d   1      -4.643  -3.453  -5.957  0.00  0.00     0.225 C 
ATOM     21  C   UNL d   1      -4.605  -3.437  -4.418  0.00  0.00     0.061 C 
ATOM     22  C   UNL d   1      -5.055  -1.630  -7.565  0.00  0.00     0.310 C 
ENDBRANCH   2  14
TORSDOF 3
