REMARK  6 active torsions:
REMARK  status: ('A' for Active; 'I' for Inactive)
REMARK       I    between atoms: N_2  and  C_1 
REMARK    1  A    between atoms: C_3  and  C_1 
REMARK    2  A    between atoms: C_6  and  N_2 
REMARK       I    between atoms: N_9  and  C_3 
REMARK    3  A    between atoms: O_4  and  C_8 
REMARK    4  A    between atoms: C_5  and  O_4 
REMARK    5  A    between atoms: C_18  and  N_9 
REMARK    6  A    between atoms: C_17  and  C_18 
ROOT
ATOM      1  C   UNL d   1       1.154   0.426  -0.267  0.00  0.00     0.314 C 
ATOM      2  N   UNL d   1       0.419  -0.380  -1.106  0.00  0.00    -0.317 N 
ATOM      3  O   UNL d   1       2.376   0.521  -0.182  0.00  0.00    -0.262 OA
ATOM      4  H   UNL d   1      -0.538  -0.080  -1.265  0.00  0.00     0.169 HD
ENDROOT
BRANCH   2   5
ATOM      5  C   UNL d   1       0.985  -1.329  -1.977  0.00  0.00     0.069 C 
ATOM      6  C   UNL d   1       1.948  -2.281  -1.601  0.00  0.00     0.102 C 
ATOM      7  C   UNL d   1       2.543  -3.080  -2.588  0.00  0.00     0.039 C 
ATOM      8  C   UNL d   1       2.123  -3.009  -3.915  0.00  0.00     0.003 C 
ATOM      9  C   UNL d   1       1.082  -2.154  -4.261  0.00  0.00     0.002 C 
ATOM     10  C   UNL d   1       0.506  -1.327  -3.295  0.00  0.00     0.032 C 
BRANCH   6  11
ATOM     11  O   UNL d   1       2.390  -2.583  -0.333  0.00  0.00    -0.307 OA
BRANCH  11  12
ATOM     12  C   UNL d   1       1.573  -2.543   0.774  0.00  0.00     0.098 C 
ATOM     13  C   UNL d   1       0.205  -2.840   0.870  0.00  0.00     0.069 C 
ATOM     14  C   UNL d   1      -0.473  -2.616   2.076  0.00  0.00     0.050 C 
ATOM     15 CL   UNL d   1      -0.723  -3.559  -0.399  0.00  0.00    -0.081 Cl
ATOM     16  C   UNL d   1       0.227  -2.208   3.209  0.00  0.00     0.035 C 
ATOM     17  C   UNL d   1       1.605  -2.039   3.159  0.00  0.00     0.026 C 
ATOM     18 CL   UNL d   1      -0.613  -1.938   4.686  0.00  0.00    -0.084 Cl
ATOM     19  C   UNL d   1       2.270  -2.200   1.944  0.00  0.00     0.041 C 
ENDBRANCH  11  12
ENDBRANCH   6  11
ENDBRANCH   2   5
BRANCH   1  20
ATOM     20  C   UNL d   1       0.269   1.346   0.599  0.00  0.00     0.309 C 
ATOM     21  N   UNL d   1       0.985   2.274   1.316  0.00  0.00    -0.349 N 
ATOM     22  H   UNL d   1       1.996   2.245   1.208  0.00  0.00     0.163 HD
ATOM     23  O   UNL d   1      -0.944   1.207   0.599  0.00  0.00    -0.262 OA
BRANCH  21  24
ATOM     24  C   UNL d   1       0.389   3.143   2.297  0.00  0.00     0.163 C 
BRANCH  24  25
ATOM     25  C   UNL d   1       0.950   2.865   3.660  0.00  0.00    -0.025 A 
ATOM     26  C   UNL d   1       2.083   3.528   4.122  0.00  0.00     0.096 A 
ATOM     27  N   UNL d   1       2.655   3.305   5.327  0.00  0.00    -0.375 N 
ATOM     28  C   UNL d   1       2.072   2.374   6.113  0.00  0.00     0.087 A 
ATOM     29  HN  UNL d   1       3.485   3.816   5.628  1.00  0.00     0.164 HD
ATOM     30  C   UNL d   1       0.950   1.652   5.746  0.00  0.00     0.018 A 
ATOM     31  C   UNL d   1       0.385   1.900   4.498  0.00  0.00     0.011 A 
ENDBRANCH  24  25
ENDBRANCH  21  24
ENDBRANCH   1  20
TORSDOF 6
