REMARK  2 active torsions:
REMARK  status: ('A' for Active; 'I' for Inactive)
REMARK    1  A    between atoms: N_3  and  C_2 
REMARK       I    between atoms: C_5  and  N_3 
REMARK    2  A    between atoms: C_16  and  C_5 
ROOT
ATOM      1  C   UNL d   1       0.203   0.787   0.010  0.00  0.00     0.122 A 
ATOM      2  C   UNL d   1      -1.059   1.399   0.048  0.00  0.00     0.139 A 
ATOM      3  C   UNL d   1       0.211  -0.598  -0.024  0.00  0.00     0.138 A 
ATOM      4  N   UNL d   1       1.501   1.273   0.002  0.00  0.00    -0.346 N 
ATOM      5  HN  UNL d   1       1.800   2.248   0.024  1.00  0.00     0.167 HD
ATOM      6  N   UNL d   1       1.526  -0.955  -0.055  0.00  0.00    -0.337 N 
ATOM      7  N   UNL d   1      -2.151   0.597   0.044  0.00  0.00    -0.337 N 
ATOM      8  HN  UNL d   1      -3.087   1.003   0.068  1.00  0.00     0.168 HD
ATOM      9  N   UNL d   1      -0.839  -1.430  -0.028  0.00  0.00    -0.337 N 
ATOM     10  HN  UNL d   1      -0.774  -2.447  -0.054  1.00  0.00     0.168 HD
ATOM     11  C   UNL d   1       2.263   0.199  -0.041  0.00  0.00     0.182 A 
ATOM     12  C   UNL d   1      -1.993  -0.738   0.008  0.00  0.00     0.183 A 
ATOM     13  H   UNL d   1       1.868  -1.904  -0.083  0.00  0.00     0.168 HD
ENDROOT
BRANCH   2  14
ATOM     14  N   UNL d   1      -1.178   2.801   0.096  0.00  0.00    -0.311 N 
ATOM     15  C   UNL d   1      -2.391   3.462   0.118  0.00  0.00     0.226 C 
ATOM     16  O   UNL d   1      -3.494   2.921   0.085  0.00  0.00    -0.273 OA
ATOM     17  H   UNL d   1      -0.307   3.313   0.119  0.00  0.00     0.170 HD
BRANCH  15  18
ATOM     18  C   UNL d   1      -2.287   4.988   0.225  0.00  0.00     0.070 C 
ATOM     19  C   UNL d   1      -1.555   5.599  -0.966  0.00  0.00     0.019 C 
ATOM     20  C   UNL d   1      -3.693   5.595   0.326  0.00  0.00     0.019 C 
ENDBRANCH  15  18
ENDBRANCH   2  14
TORSDOF 2
