REMARK  3 active torsions:
REMARK  status: ('A' for Active; 'I' for Inactive)
REMARK       I    between atoms: N_2  and  C_1 
REMARK    1  A    between atoms: C_3  and  C_1 
REMARK       I    between atoms: C_4  and  N_2 
REMARK       I    between atoms: N_9  and  C_4 
REMARK    2  A    between atoms: C_5  and  C_13 
REMARK    3  A    between atoms: C_13  and  N_9 
ROOT
ATOM      1  C   UNL d   1       0.843   0.030  -0.004  0.00  0.00     0.263 C 
ATOM      2  N   UNL d   1       0.347   0.973  -0.898  0.00  0.00    -0.275 N 
ATOM      3  C   UNL d   1       0.993   1.760  -1.814  0.00  0.00     0.323 C 
ATOM      4  O   UNL d   1       2.015  -0.310   0.072  0.00  0.00    -0.267 OA
ATOM      5  N   UNL d   1       2.346   1.681  -1.843  0.00  0.00    -0.342 N 
ATOM      6  O   UNL d   1       0.329   2.510  -2.525  0.00  0.00    -0.247 OA
ATOM      7  H   UNL d   1      -0.650   1.123  -0.939  0.00  0.00     0.173 HD
ATOM      8  H   UNL d   1       2.791   0.965  -1.275  0.00  0.00     0.164 HD
ENDROOT
BRANCH   1   9
ATOM      9  C   UNL d   1      -0.189  -0.550   0.900  0.00  0.00     0.075 A 
ATOM     10  C   UNL d   1      -1.370  -1.109   0.380  0.00  0.00     0.051 A 
ATOM     11 CL   UNL d   1      -1.647  -1.311  -1.316  0.00  0.00    -0.083 Cl
ATOM     12  C   UNL d   1      -2.389  -1.543   1.236  0.00  0.00     0.025 A 
ATOM     13  C   UNL d   1      -2.232  -1.454   2.615  0.00  0.00     0.003 A 
ATOM     14  C   UNL d   1      -1.047  -0.944   3.143  0.00  0.00     0.025 A 
ATOM     15  C   UNL d   1      -0.026  -0.490   2.291  0.00  0.00     0.051 A 
ATOM     16 CL   UNL d   1       1.371   0.184   3.055  0.00  0.00    -0.083 Cl
ENDBRANCH   1   9
BRANCH   5  17
ATOM     17  C   UNL d   1       3.153   2.556  -2.656  0.00  0.00     0.129 C 
BRANCH  17  18
ATOM     18  C   UNL d   1       3.345   1.996  -4.029  0.00  0.00     0.003 A 
ATOM     19  C   UNL d   1       4.216   0.792  -4.283  0.00  0.00     0.007 A 
ATOM     20  C   UNL d   1       4.679   2.155  -4.717  0.00  0.00     0.007 A 
ENDBRANCH  17  18
ENDBRANCH   5  17
TORSDOF 3
