REMARK  2 active torsions:
REMARK  status: ('A' for Active; 'I' for Inactive)
REMARK    1  A    between atoms: C_7  and  C_1 
REMARK    2  A    between atoms: O_15  and  C_11 
ROOT
ATOM      1  C   UNL d   1      -1.842  -1.551  -0.031  0.00  0.00     0.090 A 
ATOM      2  C   UNL d   1      -2.312  -0.293  -0.029  0.00  0.00     0.093 A 
ATOM      3  O   UNL d   1      -0.491  -1.869   0.023  0.00  0.00    -0.309 OA
ATOM      4  C   UNL d   1      -1.367   0.834   0.032  0.00  0.00     0.187 A 
ATOM      5  C   UNL d   1       0.061   0.494   0.033  0.00  0.00     0.048 A 
ATOM      6  C   UNL d   1       0.425  -0.850   0.029  0.00  0.00     0.090 A 
ATOM      7  O   UNL d   1      -1.766   1.990   0.067  0.00  0.00    -0.287 OA
ATOM      8  C   UNL d   1       1.039   1.493   0.025  0.00  0.00     0.018 A 
ATOM      9  C   UNL d   1       1.774  -1.205   0.024  0.00  0.00     0.038 A 
ATOM     10  C   UNL d   1       2.388   1.137   0.012  0.00  0.00     0.001 A 
ATOM     11  C   UNL d   1       2.755  -0.210   0.013  0.00  0.00     0.003 A 
ENDROOT
BRANCH   1  12
ATOM     12  C   UNL d   1      -2.737  -2.727  -0.134  0.00  0.00    -0.002 A 
ATOM     13  C   UNL d   1      -2.290  -3.891  -0.780  0.00  0.00     0.017 A 
ATOM     14  C   UNL d   1      -3.114  -5.017  -0.906  0.00  0.00     0.037 A 
ATOM     15  C   UNL d   1      -4.405  -4.997  -0.384  0.00  0.00     0.068 A 
ATOM     16  C   UNL d   1      -4.850  -3.862   0.291  0.00  0.00     0.037 A 
ATOM     17  C   UNL d   1      -4.028  -2.736   0.413  0.00  0.00     0.017 A 
BRANCH  15  18
ATOM     18  O   UNL d   1      -5.294  -6.034  -0.436  0.00  0.00    -0.356 OA
ATOM     19  C   UNL d   1      -5.141  -6.921  -1.539  0.00  0.00     0.210 C 
ENDBRANCH  15  18
ENDBRANCH   1  12
TORSDOF 2
