REMARK  10 active torsions:
REMARK  status: ('A' for Active; 'I' for Inactive)
REMARK    1  A    between atoms: O_6  and  S_1 
REMARK    2  A    between atoms: C_13  and  S_1 
REMARK    3  A    between atoms: S_2  and  O_5 
REMARK    4  A    between atoms: C_14  and  S_2 
REMARK    5  A    between atoms: C_3  and  O_6 
REMARK    6  A    between atoms: O_5  and  C_4 
REMARK    7  A    between atoms: C_21  and  C_7 
REMARK    8  A    between atoms: C_22  and  C_8 
REMARK    9  A    between atoms: C_9  and  C_20 
REMARK   10  A    between atoms: C_10  and  C_19 
ROOT
ATOM      1  C   UNL d   1       0.884   2.520  -0.789  0.00  0.00     0.097 A 
ATOM      2  C   UNL d   1       1.779   5.189  -0.631  0.00  0.00     0.097 A 
ATOM      3  C   UNL d   1       0.435   4.967  -0.955  0.00  0.00    -0.013 A 
ATOM      4  C   UNL d   1       2.256   2.749  -0.576  0.00  0.00    -0.013 A 
ATOM      5  C   UNL d   1       2.653   4.103  -0.478  0.00  0.00     0.049 A 
ATOM      6  C   UNL d   1       0.009   3.614  -0.972  0.00  0.00     0.049 A 
ENDROOT
BRANCH   1   7
ATOM      7  O   UNL d   1       0.421   1.235  -0.990  0.00  0.00    -0.229 OA
BRANCH   7   8
ATOM      8  S   UNL d   1      -0.896   0.676  -0.189  0.00  0.00     0.303 S 
ATOM      9  O   UNL d   1      -2.086   1.380  -0.629  0.00  0.00    -0.193 OA
ATOM     10  O   UNL d   1      -0.570   0.566   1.221  0.00  0.00    -0.193 OA
BRANCH   8  11
ATOM     11  C   UNL d   1      -1.106  -0.997  -0.804  0.00  0.00     0.086 A 
ATOM     12  C   UNL d   1      -1.160  -2.080   0.077  0.00  0.00     0.026 A 
ATOM     13  C   UNL d   1      -1.459  -3.357  -0.413  0.00  0.00     0.018 A 
ATOM     14  C   UNL d   1      -1.711  -3.559  -1.781  0.00  0.00     0.048 A 
ATOM     15  C   UNL d   1      -1.624  -2.461  -2.655  0.00  0.00     0.018 A 
ATOM     16  C   UNL d   1      -1.322  -1.184  -2.172  0.00  0.00     0.026 A 
BRANCH  14  17
ATOM     17  C   UNL d   1      -2.109  -4.917  -2.320  0.00  0.00     0.417 C 
ATOM     18  F   UNL d   1      -2.175  -5.886  -1.365  0.00  0.00    -0.166 F 
ATOM     19  F   UNL d   1      -3.333  -4.897  -2.916  0.00  0.00    -0.166 F 
ATOM     20  F   UNL d   1      -1.242  -5.379  -3.263  0.00  0.00    -0.166 F 
ENDBRANCH  14  17
ENDBRANCH   8  11
ENDBRANCH   7   8
ENDBRANCH   1   7
BRANCH   4  21
ATOM     21  C   UNL d   1       3.352   1.656  -0.507  0.00  0.00    -0.021 C 
ATOM     22  C   UNL d   1       3.731   1.263  -1.950  0.00  0.00     0.019 C 
ATOM     23  C   UNL d   1       4.651   2.155   0.194  0.00  0.00     0.019 C 
ATOM     24  C   UNL d   1       2.936   0.390   0.267  0.00  0.00     0.019 C 
ENDBRANCH   4  21
BRANCH   3  25
ATOM     25  C   UNL d   1      -0.562   6.073  -1.394  0.00  0.00    -0.021 C 
ATOM     26  C   UNL d   1       0.048   7.478  -1.622  0.00  0.00     0.019 C 
ATOM     27  C   UNL d   1      -1.185   5.679  -2.760  0.00  0.00     0.019 C 
ATOM     28  C   UNL d   1      -1.693   6.235  -0.359  0.00  0.00     0.019 C 
ENDBRANCH   3  25
BRANCH   2  29
ATOM     29  O   UNL d   1       2.194   6.467  -0.357  0.00  0.00    -0.229 OA
BRANCH  29  30
ATOM     30  S   UNL d   1       3.663   7.071  -0.730  0.00  0.00     0.303 S 
ATOM     31  O   UNL d   1       4.293   6.276  -1.760  0.00  0.00    -0.193 OA
ATOM     32  O   UNL d   1       3.524   8.509  -0.896  0.00  0.00    -0.193 OA
BRANCH  30  33
ATOM     33  C   UNL d   1       4.614   6.864   0.772  0.00  0.00     0.086 A 
ATOM     34  C   UNL d   1       5.831   6.177   0.745  0.00  0.00     0.026 A 
ATOM     35  C   UNL d   1       6.600   6.093   1.911  0.00  0.00     0.018 A 
ATOM     36  C   UNL d   1       6.162   6.697   3.100  0.00  0.00     0.048 A 
ATOM     37  C   UNL d   1       4.925   7.358   3.111  0.00  0.00     0.018 A 
ATOM     38  C   UNL d   1       4.150   7.446   1.954  0.00  0.00     0.026 A 
BRANCH  36  39
ATOM     39  C   UNL d   1       7.034   6.646   4.338  0.00  0.00     0.417 C 
ATOM     40  F   UNL d   1       6.511   7.311   5.403  0.00  0.00    -0.166 F 
ATOM     41  F   UNL d   1       7.258   5.372   4.764  0.00  0.00    -0.166 F 
ATOM     42  F   UNL d   1       8.264   7.190   4.124  0.00  0.00    -0.166 F 
ENDBRANCH  36  39
ENDBRANCH  30  33
ENDBRANCH  29  30
ENDBRANCH   2  29
TORSDOF 10
