REMARK  5 active torsions:
REMARK  status: ('A' for Active; 'I' for Inactive)
REMARK    1  A    between atoms: N_2  and  S_1 
REMARK    2  A    between atoms: C_12  and  S_1 
REMARK    3  A    between atoms: S_6  and  N_2 
REMARK    4  A    between atoms: C_7  and  C_4 
REMARK    5  A    between atoms: C_5  and  S_6 
ROOT
ATOM      1  S   UNL d   1       0.827  -0.124  -2.788  0.00  0.00    -0.069 SA
ATOM      2  C   UNL d   1       0.160  -1.031  -4.213  0.00  0.00     0.109 C 
ENDROOT
BRANCH   1   3
ATOM      3  C   UNL d   1       2.570  -0.446  -3.085  0.00  0.00     0.094 A 
ATOM      4  C   UNL d   1       3.581   0.504  -3.073  0.00  0.00     0.083 A 
ATOM      5  C   UNL d   1       4.889   0.044  -3.333  0.00  0.00     0.044 A 
ATOM      6  C   UNL d   1       5.127  -1.298  -3.604  0.00  0.00     0.050 A 
ATOM      7  C   UNL d   1       4.047  -2.157  -3.613  0.00  0.00     0.112 A 
ATOM      8 CL   UNL d   1       6.712  -1.863  -3.923  0.00  0.00    -0.083 Cl
ATOM      9  N   UNL d   1       2.781  -1.760  -3.359  0.00  0.00    -0.358 N 
ATOM     10  HN  UNL d   1       2.008  -2.425  -3.371  1.00  0.00     0.166 HD
BRANCH   4  11
ATOM     11  C   UNL d   1       3.384   1.967  -2.824  0.00  0.00     0.420 C 
ATOM     12  F   UNL d   1       2.108   2.380  -2.619  0.00  0.00    -0.166 F 
ATOM     13  F   UNL d   1       4.089   2.393  -1.737  0.00  0.00    -0.166 F 
ATOM     14  F   UNL d   1       3.845   2.716  -3.867  0.00  0.00    -0.166 F 
ENDBRANCH   4  11
ENDBRANCH   1   3
BRANCH   1  15
ATOM     15  N   UNL d   1       0.721  -1.200  -1.592  0.00  0.00    -0.259 N 
ATOM     16  HN  UNL d   1       1.459  -1.257  -0.890  1.00  0.00     0.186 HD
BRANCH  15  17
ATOM     17  S   UNL d   1      -0.629  -2.247  -1.498  0.00  0.00     0.268 S 
ATOM     18  O   UNL d   1      -0.287  -3.526  -2.095  0.00  0.00    -0.200 OA
ATOM     19  O   UNL d   1      -1.837  -1.548  -1.909  0.00  0.00    -0.200 OA
BRANCH  17  20
ATOM     20  C   UNL d   1      -0.781  -2.521   0.259  0.00  0.00     0.080 A 
ATOM     21  C   UNL d   1      -1.644  -1.712   1.006  0.00  0.00     0.025 A 
ATOM     22  C   UNL d   1      -1.897  -2.022   2.344  0.00  0.00     0.002 A 
ATOM     23  C   UNL d   1      -1.294  -3.137   2.927  0.00  0.00     0.000 A 
ATOM     24  C   UNL d   1      -0.431  -3.940   2.182  0.00  0.00     0.002 A 
ATOM     25  C   UNL d   1      -0.173  -3.638   0.842  0.00  0.00     0.025 A 
ENDBRANCH  17  20
ENDBRANCH  15  17
ENDBRANCH   1  15
TORSDOF 5
