REMARK  7 active torsions:
REMARK  status: ('A' for Active; 'I' for Inactive)
REMARK    1  A    between atoms: C_13  and  C_4 
REMARK    2  A    between atoms: O_16  and  C_7 
REMARK    3  A    between atoms: O_15  and  C_10 
REMARK    4  A    between atoms: C_11  and  C_17 
REMARK    5  A    between atoms: O_18  and  C_11 
REMARK    6  A    between atoms: C_17  and  O_15 
REMARK    7  A    between atoms: C_21  and  O_18 
ROOT
ATOM      1  C   UNL d   1       0.102   0.239   0.019  0.00  0.00     0.081 A 
ATOM      2  C   UNL d   1      -1.084   1.097   0.063  0.00  0.00     0.190 A 
ATOM      3  C   UNL d   1      -2.392   0.430   0.068  0.00  0.00     0.094 A 
ATOM      4  C   UNL d   1      -2.447  -0.910   0.032  0.00  0.00     0.090 A 
ATOM      5  C   UNL d   1      -0.081  -1.140   0.016  0.00  0.00     0.095 A 
ATOM      6  O   UNL d   1      -1.321  -1.729   0.035  0.00  0.00    -0.309 OA
ATOM      7  C   UNL d   1       1.391   0.775  -0.017  0.00  0.00     0.085 A 
ATOM      8  C   UNL d   1       1.028  -1.984  -0.016  0.00  0.00     0.075 A 
ATOM      9  C   UNL d   1       2.501  -0.066  -0.065  0.00  0.00     0.074 A 
ATOM     10  C   UNL d   1       2.321  -1.451  -0.076  0.00  0.00     0.074 A 
ATOM     11  O   UNL d   1      -0.984   2.317   0.081  0.00  0.00    -0.287 OA
ENDROOT
BRANCH  10  12
ATOM     12  O   UNL d   1       3.323  -2.378  -0.099  0.00  0.00    -0.341 OA
BRANCH  12  13
ATOM     13  C   UNL d   1       4.546  -1.971  -0.703  0.00  0.00     0.286 C 
BRANCH  13  14
ATOM     14  C   UNL d   1       5.584  -3.072  -0.571  0.00  0.00     0.283 C 
ATOM     15  O   UNL d   1       5.428  -4.146  -0.007  0.00  0.00    -0.263 OA
BRANCH  14  16
ATOM     16  O   UNL d   1       6.764  -2.627  -1.100  0.00  0.00    -0.320 OA
BRANCH  16  17
ATOM     17  C   UNL d   1       7.932  -3.344  -0.675  0.00  0.00     0.174 C 
ATOM     18  C   UNL d   1       8.450  -2.682   0.589  0.00  0.00     0.034 C 
ENDBRANCH  16  17
ENDBRANCH  14  16
ENDBRANCH  13  14
ENDBRANCH  12  13
ENDBRANCH  10  12
BRANCH   7  19
ATOM     19  O   UNL d   1       1.640   2.121  -0.008  0.00  0.00    -0.360 OA
ATOM     20  H   UNL d   1       0.776   2.592   0.031  0.00  0.00     0.217 HD
ENDBRANCH   7  19
BRANCH   4  21
ATOM     21  C   UNL d   1      -3.735  -1.638   0.003  0.00  0.00    -0.002 A 
ATOM     22  C   UNL d   1      -4.862  -1.107  -0.647  0.00  0.00     0.014 A 
ATOM     23  C   UNL d   1      -6.073  -1.804  -0.678  0.00  0.00     0.001 A 
ATOM     24  C   UNL d   1      -6.175  -3.052  -0.071  0.00  0.00     0.000 A 
ATOM     25  C   UNL d   1      -5.066  -3.603   0.567  0.00  0.00     0.001 A 
ATOM     26  C   UNL d   1      -3.856  -2.902   0.602  0.00  0.00     0.014 A 
ENDBRANCH   4  21
TORSDOF 7
