REMARK  3 active torsions:
REMARK  status: ('A' for Active; 'I' for Inactive)
REMARK    1  A    between atoms: N_3  and  C_2 
REMARK    2  A    between atoms: N_11  and  C_4 
REMARK    3  A    between atoms: N_13  and  C_5 
ROOT
ATOM      1  C   UNL d   1      -0.483   0.017   0.171  0.00  0.00     0.100 A 
ATOM      2  C   UNL d   1       1.568   1.216  -0.102  0.00  0.00     0.131 A 
ATOM      3  C   UNL d   1       0.171   1.293   0.077  0.00  0.00     0.086 A 
ATOM      4  C   UNL d   1       0.185  -1.239  -0.010  0.00  0.00     0.052 A 
ATOM      5  C   UNL d   1      -1.847  -0.023   0.624  0.00  0.00     0.104 C 
ATOM      6  C   UNL d   1       2.270   0.005  -0.199  0.00  0.00     0.041 A 
ATOM      7  N   UNL d   1      -2.958  -0.059   0.966  0.00  0.00    -0.191 NA
ATOM      8  C   UNL d   1       1.577  -1.195  -0.173  0.00  0.00     0.033 A 
ENDROOT
BRANCH   3   9
ATOM      9  N   UNL d   1      -0.534   2.494   0.174  0.00  0.00    -0.386 N 
ATOM     10  C   UNL d   1      -1.828   2.687  -0.489  0.00  0.00     0.149 C 
ATOM     11  C   UNL d   1      -0.035   3.662   0.896  0.00  0.00     0.149 C 
ENDBRANCH   3   9
BRANCH   4  12
ATOM     12  N   UNL d   1      -0.475  -2.468  -0.004  0.00  0.00    -0.388 N 
ATOM     13  C   UNL d   1       0.179  -3.704   0.417  0.00  0.00     0.149 C 
ATOM     14  C   UNL d   1      -1.727  -2.648  -0.744  0.00  0.00     0.149 C 
ENDBRANCH   4  12
BRANCH   2  15
ATOM     15  N   UNL d   1       2.388   2.400  -0.257  0.00  0.00    -0.113 N 
ATOM     16  O   UNL d   1       2.270   3.048  -1.306  0.00  0.00    -0.532 OA
ATOM     17  O   UNL d   1       3.195   2.646   0.653  0.00  0.00    -0.532 OA
ENDBRANCH   2  15
TORSDOF 3
