REMARK  5 active torsions:
REMARK  status: ('A' for Active; 'I' for Inactive)
REMARK    1  A    between atoms: C_5  and  C_1 
REMARK    2  A    between atoms: C_10  and  C_4 
REMARK       I    between atoms: N_15  and  C_5 
REMARK    3  A    between atoms: N_9  and  C_11 
REMARK    4  A    between atoms: N_12  and  N_15 
REMARK    5  A    between atoms: N_22  and  C_16 
ROOT
ATOM      1  C   UNL d   1       0.571  -1.048   0.004  0.00  0.00     0.241 A 
ATOM      2  N   UNL d   1       1.264   0.073  -0.074  0.00  0.00    -0.315 N 
ATOM      3  HN  UNL d   1       2.272   0.199  -0.171  1.00  0.00     0.169 HD
ATOM      4  C   UNL d   1       0.268   1.037   0.011  0.00  0.00     0.138 A 
ATOM      5  N   UNL d   1      -0.969   0.531   0.134  0.00  0.00    -0.242 N 
ATOM      6  HN  UNL d   1      -1.850   1.039   0.213  1.00  0.00     0.196 HD
ATOM      7  O   UNL d   1      -0.771  -0.843   0.129  0.00  0.00    -0.212 OA
ENDROOT
BRANCH   4   8
ATOM      8  C   UNL d   1       0.541   2.472  -0.033  0.00  0.00     0.012 A 
ATOM      9  C   UNL d   1       1.858   2.935  -0.180  0.00  0.00     0.045 A 
ATOM     10  C   UNL d   1       2.142   4.311  -0.240  0.00  0.00     0.039 A 
ATOM     11  C   UNL d   1       1.086   5.227  -0.129  0.00  0.00     0.030 A 
ATOM     12  C   UNL d   1      -0.227   4.776   0.019  0.00  0.00     0.003 A 
ATOM     13  C   UNL d   1      -0.498   3.409   0.063  0.00  0.00     0.015 A 
BRANCH  10  14
ATOM     14  N   UNL d   1       3.484   4.765  -0.435  0.00  0.00    -0.333 N 
ATOM     15  C   UNL d   1       3.918   6.079  -0.470  0.00  0.00     0.096 A 
ATOM     16  C   UNL d   1       5.271   6.109  -0.730  0.00  0.00     0.019 A 
ATOM     17  C   UNL d   1       5.702   4.776  -0.848  0.00  0.00     0.019 A 
ATOM     18  C   UNL d   1       4.599   3.974  -0.650  0.00  0.00     0.096 A 
ENDBRANCH  10  14
ENDBRANCH   4   8
BRANCH   1  19
ATOM     19  C   UNL d   1       1.049  -2.414  -0.022  0.00  0.00     0.313 C 
ATOM     20  N   UNL d   1       2.434  -2.547  -0.139  0.00  0.00    -0.262 N 
ATOM     21  H   UNL d   1       3.030  -1.728  -0.200  0.00  0.00     0.190 HD
ATOM     22  O   UNL d   1       0.288  -3.381   0.055  0.00  0.00    -0.262 OA
BRANCH  20  23
ATOM     23  N   UNL d   1       2.967  -3.803  -0.155  0.00  0.00    -0.293 N 
ATOM     24  C   UNL d   1       4.251  -3.922  -0.253  0.00  0.00     0.194 C 
ATOM     25  HN  UNL d   1       2.369  -4.626  -0.092  1.00  0.00     0.187 HD
BRANCH  24  26
ATOM     26  N   UNL d   1       4.930  -5.118  -0.277  0.00  0.00    -0.385 N 
ATOM     27  C   UNL d   1       4.222  -6.390  -0.193  0.00  0.00     0.149 C 
ATOM     28  C   UNL d   1       6.372  -5.209  -0.396  0.00  0.00     0.149 C 
ENDBRANCH  24  26
ENDBRANCH  20  23
ENDBRANCH   1  19
TORSDOF 5
