REMARK  4 active torsions:
REMARK  status: ('A' for Active; 'I' for Inactive)
REMARK    1  A    between atoms: C_2  and  C_1 
REMARK    2  A    between atoms: O_3  and  C_1 
REMARK    3  A    between atoms: C_5  and  O_3 
REMARK    4  A    between atoms: C_6  and  C_4 
ROOT
ATOM      1  C   UNL d   1       1.184  -0.042  -1.906  0.00  0.00     0.302 C 
ATOM      2  O   UNL d   1       1.218   0.628  -2.926  0.00  0.00    -0.259 OA
ENDROOT
BRANCH   1   3
ATOM      3  C   UNL d   1       1.957  -1.296  -1.729  0.00  0.00     0.083 A 
ATOM      4  C   UNL d   1       3.280  -1.360  -2.198  0.00  0.00     0.052 A 
ATOM      5 CL   UNL d   1       4.164   0.025  -2.741  0.00  0.00    -0.083 Cl
ATOM      6  C   UNL d   1       3.970  -2.581  -2.219  0.00  0.00     0.025 A 
ATOM      7  C   UNL d   1       3.363  -3.743  -1.756  0.00  0.00     0.003 A 
ATOM      8  C   UNL d   1       2.065  -3.686  -1.258  0.00  0.00     0.025 A 
ATOM      9  C   UNL d   1       1.357  -2.477  -1.253  0.00  0.00     0.052 A 
ATOM     10 CL   UNL d   1      -0.279  -2.594  -0.699  0.00  0.00    -0.083 Cl
ENDBRANCH   1   3
BRANCH   1  11
ATOM     11  O   UNL d   1       0.413   0.225  -0.789  0.00  0.00    -0.274 OA
BRANCH  11  12
ATOM     12  C   UNL d   1      -0.912   0.716  -0.946  0.00  0.00     0.093 A 
ATOM     13  C   UNL d   1      -1.613   1.090   0.210  0.00  0.00     0.043 A 
ATOM     14  C   UNL d   1      -2.999   1.289   0.145  0.00  0.00     0.018 A 
ATOM     15  C   UNL d   1      -3.676   1.161  -1.069  0.00  0.00     0.001 A 
ATOM     16  C   UNL d   1      -2.971   0.841  -2.225  0.00  0.00     0.003 A 
ATOM     17  C   UNL d   1      -1.597   0.608  -2.165  0.00  0.00     0.038 A 
BRANCH  13  18
ATOM     18  C   UNL d   1      -0.966   1.254   1.536  0.00  0.00     0.158 C 
ATOM     19  O   UNL d   1      -1.557   0.891   2.548  0.00  0.00    -0.293 OA
ATOM     20  C   UNL d   1       0.381   1.926   1.610  0.00  0.00     0.097 C 
ENDBRANCH  13  18
ENDBRANCH  11  12
ENDBRANCH   1  11
TORSDOF 4
