REMARK  5 active torsions:
REMARK  status: ('A' for Active; 'I' for Inactive)
REMARK    1  A    between atoms: C_3  and  C_1 
REMARK    2  A    between atoms: C_9  and  C_2 
REMARK    3  A    between atoms: C_19  and  C_8 
REMARK       I    between atoms: N_15  and  C_9 
REMARK       I    between atoms: C_14  and  N_16 
REMARK       I    between atoms: N_17  and  C_14 
REMARK    4  A    between atoms: N_16  and  N_15 
REMARK    5  A    between atoms: C_21  and  N_17 
ROOT
ATOM      1  C   UNL d   1      -0.085  -1.307  -0.051  0.00  0.00     0.057 A 
ATOM      2  C   UNL d   1      -1.404  -0.770  -0.115  0.00  0.00     0.139 A 
ATOM      3  N   UNL d   1      -1.369   0.571   0.010  0.00  0.00    -0.255 N 
ATOM      4  HN  UNL d   1      -2.167   1.204   0.050  1.00  0.00     0.195 HD
ATOM      5  O   UNL d   1      -0.034   0.915   0.073  0.00  0.00    -0.241 OA
ATOM      6  C   UNL d   1       0.734  -0.204   0.021  0.00  0.00     0.087 A 
ATOM      7  C   UNL d   1       2.194   0.001   0.074  0.00  0.00     0.080 C 
ENDROOT
BRANCH   2   8
ATOM      8  C   UNL d   1      -2.680  -1.457  -0.317  0.00  0.00     0.289 C 
ATOM      9  N   UNL d   1      -3.801  -0.724   0.021  0.00  0.00    -0.261 N 
ATOM     10  H   UNL d   1      -3.750   0.227   0.389  0.00  0.00     0.190 HD
ATOM     11  O   UNL d   1      -2.783  -2.608  -0.746  0.00  0.00    -0.264 OA
BRANCH   9  12
ATOM     12  N   UNL d   1      -5.069  -1.292  -0.185  0.00  0.00    -0.248 N 
ATOM     13  C   UNL d   1      -6.154  -0.685   0.431  0.00  0.00     0.339 C 
ATOM     14  N   UNL d   1      -7.316  -1.394   0.205  0.00  0.00    -0.308 N 
ATOM     15  O   UNL d   1      -6.031   0.363   1.053  0.00  0.00    -0.245 OA
ATOM     16  H   UNL d   1      -7.238  -2.174  -0.431  0.00  0.00     0.170 HD
ATOM     17  H   UNL d   1      -5.064  -2.300  -0.319  0.00  0.00     0.192 HD
BRANCH  14  18
ATOM     18  C   UNL d   1      -8.610  -1.099   0.680  0.00  0.00     0.036 A 
ATOM     19  C   UNL d   1      -8.902  -0.024   1.522  0.00  0.00     0.031 A 
ATOM     20  C   UNL d   1     -10.210   0.198   1.966  0.00  0.00     0.026 A 
ATOM     21  C   UNL d   1     -11.233  -0.659   1.570  0.00  0.00     0.034 A 
ATOM     22  C   UNL d   1     -10.960  -1.731   0.726  0.00  0.00     0.026 A 
ATOM     23 CL   UNL d   1     -12.838  -0.393   2.129  0.00  0.00    -0.084 Cl
ATOM     24  C   UNL d   1      -9.652  -1.949   0.281  0.00  0.00     0.031 A 
ENDBRANCH  14  18
ENDBRANCH   9  12
ENDBRANCH   2   8
BRANCH   1  25
ATOM     25  C   UNL d   1       0.313  -2.714  -0.046  0.00  0.00     0.055 A 
ATOM     26  N   UNL d   1       1.568  -3.052  -0.528  0.00  0.00    -0.349 N 
ATOM     27  C   UNL d   1       1.744  -4.361  -0.465  0.00  0.00     0.084 A 
ATOM     28  HN  UNL d   1       2.257  -2.387  -0.880  1.00  0.00     0.166 HD
ATOM     29  S   UNL d   1       0.438  -5.231   0.256  0.00  0.00    -0.081 SA
ATOM     30  C   UNL d   1      -0.412  -3.768   0.470  0.00  0.00     0.082 A 
BRANCH  27  31
ATOM     31  C   UNL d   1       2.964  -5.076  -0.873  0.00  0.00    -0.002 A 
ATOM     32  C   UNL d   1       4.212  -4.453  -0.723  0.00  0.00     0.014 A 
ATOM     33  C   UNL d   1       5.393  -5.130  -1.043  0.00  0.00     0.001 A 
ATOM     34  C   UNL d   1       5.341  -6.434  -1.532  0.00  0.00     0.000 A 
ATOM     35  C   UNL d   1       4.111  -7.058  -1.715  0.00  0.00     0.001 A 
ATOM     36  C   UNL d   1       2.931  -6.382  -1.393  0.00  0.00     0.014 A 
ENDBRANCH  27  31
ENDBRANCH   1  25
TORSDOF 5
