REMARK  3 active torsions:
REMARK  status: ('A' for Active; 'I' for Inactive)
REMARK    1  A    between atoms: C_3  and  N_1 
REMARK    2  A    between atoms: C_5  and  C_3 
REMARK    3  A    between atoms: C_6  and  C_5 
ROOT
ATOM      1  C   UNL d   1      -2.368  -2.657  -0.002  0.00  0.00     0.177 C 
ATOM      2  O   UNL d   1      -2.304  -3.193   1.107  0.00  0.00    -0.291 OA
ENDROOT
BRANCH   1   3
ATOM      3  C   UNL d   1      -1.597  -3.188  -1.197  0.00  0.00     0.214 C 
BRANCH   3   4
ATOM      4  N   UNL d   1      -1.843  -4.613  -1.409  0.00  0.00    -0.330 N 
ATOM      5  C   UNL d   1      -2.856  -5.076  -2.232  0.00  0.00     0.144 A 
ATOM      6  S   UNL d   1      -2.542  -6.781  -2.648  0.00  0.00    -0.065 SA
ATOM      7  N   UNL d   1      -3.896  -4.497  -2.698  0.00  0.00    -0.379 N 
ATOM      8  C   UNL d   1      -1.136  -6.803  -1.614  0.00  0.00     0.070 A 
ATOM      9  C   UNL d   1      -0.930  -5.602  -1.056  0.00  0.00     0.100 A 
ATOM     10  H   UNL d   1      -3.976  -3.550  -2.338  0.00  0.00     0.158 HD
ATOM     11  HN  UNL d   1      -4.558  -4.927  -3.344  1.00  0.00     0.158 HD
ENDBRANCH   3   4
ENDBRANCH   1   3
BRANCH   1  12
ATOM     12  C   UNL d   1      -3.198  -1.422  -0.146  0.00  0.00     0.012 A 
ATOM     13  C   UNL d   1      -4.261  -1.242   0.751  0.00  0.00     0.027 A 
ATOM     14  C   UNL d   1      -5.047  -0.077   0.726  0.00  0.00    -0.025 A 
ATOM     15  C   UNL d   1      -6.110   0.107   1.626  0.00  0.00     0.012 A 
ATOM     16  C   UNL d   1      -4.753   0.935  -0.213  0.00  0.00    -0.026 A 
ATOM     17  C   UNL d   1      -6.859   1.284   1.615  0.00  0.00     0.001 A 
ATOM     18  C   UNL d   1      -6.554   2.293   0.707  0.00  0.00     0.001 A 
ATOM     19  C   UNL d   1      -5.510   2.119  -0.204  0.00  0.00     0.012 A 
ATOM     20  C   UNL d   1      -3.700   0.737  -1.124  0.00  0.00     0.013 A 
ATOM     21  C   UNL d   1      -2.927  -0.431  -1.093  0.00  0.00     0.016 A 
ENDBRANCH   1  12
TORSDOF 3
