REMARK  2 active torsions:
REMARK  status: ('A' for Active; 'I' for Inactive)
REMARK    1  A    between atoms: C_12  and  C_3 
REMARK    2  A    between atoms: O_13  and  C_12 
ROOT
ATOM      1  C   UNL d   1      -0.513   0.766   0.008  0.00  0.00     0.088 A 
ATOM      2  C   UNL d   1      -0.264  -0.613  -0.030  0.00  0.00     0.003 A 
ATOM      3  C   UNL d   1       0.543   1.692   0.082  0.00  0.00     0.002 A 
ATOM      4  O   UNL d   1      -1.791   1.262  -0.007  0.00  0.00    -0.325 OA
ATOM      5  C   UNL d   1       1.057  -1.073  -0.051  0.00  0.00     0.054 A 
ATOM      6  C   UNL d   1       1.860   1.207   0.045  0.00  0.00     0.054 A 
ATOM      7  C   UNL d   1       2.103  -0.161  -0.017  0.00  0.00     0.117 A 
ATOM      8  O   UNL d   1      -2.613  -0.949   0.335  0.00  0.00    -0.362 OA
ATOM      9  C   UNL d   1      -2.775   0.286  -0.348  0.00  0.00     0.345 C 
ATOM     10  C   UNL d   1      -1.410  -1.576  -0.091  0.00  0.00     0.212 C 
ATOM     11  F   UNL d   1       3.365  -0.607  -0.048  0.00  0.00    -0.206 F 
ENDROOT
BRANCH   3  12
ATOM     12  C   UNL d   1       0.272   3.175   0.112  0.00  0.00     0.205 C 
BRANCH  12  13
ATOM     13  O   UNL d   1       1.287   3.875   0.825  0.00  0.00    -0.396 OA
ATOM     14  H   UNL d   1       1.290   3.507   1.726  0.00  0.00     0.209 HD
ENDBRANCH  12  13
ENDBRANCH   3  12
TORSDOF 2
