REMARK  4 active torsions:
REMARK  status: ('A' for Active; 'I' for Inactive)
REMARK    1  A    between atoms: S_3  and  C_1 
REMARK    2  A    between atoms: C_4  and  C_1 
REMARK    3  A    between atoms: N_8  and  C_2 
REMARK    4  A    between atoms: C_5  and  S_3 
ROOT
ATOM      1  C   UNL d   1       1.167   0.193  -0.042  0.00  0.00     0.067 C 
ATOM      2  C   UNL d   1       0.630  -0.797   0.706  0.00  0.00     0.107 C 
ENDROOT
BRANCH   1   3
ATOM      3  S   UNL d   1       0.069   1.301  -0.832  0.00  0.00    -0.068 SA
BRANCH   3   4
ATOM      4  C   UNL d   1       0.043   2.667   0.323  0.00  0.00     0.074 A 
ATOM      5  N   UNL d   1       1.111   2.876   1.125  0.00  0.00    -0.360 N 
ATOM      6  C   UNL d   1       1.084   3.974   1.917  0.00  0.00     0.089 A 
ATOM      7  HN  UNL d   1       1.903   2.234   1.133  1.00  0.00     0.166 HD
ATOM      8  C   UNL d   1       0.041   4.884   1.944  0.00  0.00     0.017 A 
ATOM      9  C   UNL d   1      -1.050   4.653   1.118  0.00  0.00     0.004 A 
ATOM     10  C   UNL d   1      -1.051   3.530   0.293  0.00  0.00     0.037 A 
ENDBRANCH   3   4
ENDBRANCH   1   3
BRANCH   1  11
ATOM     11  C   UNL d   1       2.626   0.281  -0.426  0.00  0.00     0.164 C 
ATOM     12  O   UNL d   1       3.354  -0.719  -0.435  0.00  0.00    -0.292 OA
ATOM     13  C   UNL d   1       3.244   1.605  -0.825  0.00  0.00     0.097 C 
ENDBRANCH   1  11
BRANCH   2  14
ATOM     14  N   UNL d   1       1.093  -1.881   1.444  0.00  0.00    -0.397 N 
ATOM     15  C   UNL d   1       2.465  -2.043   1.919  0.00  0.00     0.148 C 
ATOM     16  C   UNL d   1       0.253  -3.065   1.656  0.00  0.00     0.148 C 
ENDBRANCH   2  14
TORSDOF 4
