REMARK  0 active torsions:
REMARK  status: ('A' for Active; 'I' for Inactive)
ROOT
ATOM      1  N   UNL d   1      -2.262   1.747  -0.011  0.00  0.00    -0.355 N 
ATOM      2  C   UNL d   1      -0.804   0.064   0.008  0.00  0.00     0.004 A 
ATOM      3  C   UNL d   1      -0.918   1.454   0.000  0.00  0.00     0.043 A 
ATOM      4  C   UNL d   1      -2.129  -0.476   0.011  0.00  0.00     0.003 A 
ATOM      5  C   UNL d   1      -3.018   0.598  -0.008  0.00  0.00     0.043 A 
ATOM      6  C   UNL d   1       0.484  -0.510   0.010  0.00  0.00     0.033 A 
ATOM      7  C   UNL d   1       0.193   2.307   0.003  0.00  0.00     0.031 A 
ATOM      8  C   UNL d   1       1.601   0.331   0.008  0.00  0.00     0.011 A 
ATOM      9  C   UNL d   1       1.461   1.716   0.007  0.00  0.00     0.021 A 
ATOM     10 BR   UNL d   1       3.333  -0.433   0.004  0.00  0.00    -0.051 Br
ATOM     11  C   UNL d   1      -2.652  -1.785   0.027  0.00  0.00     0.014 A 
ATOM     12  C   UNL d   1      -4.408   0.429  -0.021  0.00  0.00     0.030 A 
ATOM     13  C   UNL d   1      -4.039  -1.972   0.018  0.00  0.00     0.001 A 
ATOM     14  C   UNL d   1      -4.902  -0.879  -0.008  0.00  0.00     0.002 A 
ATOM     15  H   UNL d   1      -2.644   2.681  -0.021  0.00  0.00     0.166 HD
ENDROOT
TORSDOF 0
