REMARK  2 active torsions:
REMARK  status: ('A' for Active; 'I' for Inactive)
REMARK    1  A    between atoms: N_7  and  C_2 
REMARK    2  A    between atoms: N_6  and  C_3 
ROOT
ATOM      1  C   UNL d   1      -0.553   0.013   0.178  0.00  0.00     0.097 A 
ATOM      2  C   UNL d   1       0.125   1.263   0.041  0.00  0.00     0.052 A 
ATOM      3  C   UNL d   1       0.109  -1.246   0.033  0.00  0.00     0.052 A 
ATOM      4  C   UNL d   1      -1.933   0.019   0.602  0.00  0.00     0.104 C 
ATOM      5  N   UNL d   1      -3.057   0.025   0.906  0.00  0.00    -0.191 NA
ATOM      6  C   UNL d   1       1.515   1.206  -0.160  0.00  0.00     0.031 A 
ATOM      7  C   UNL d   1       1.500  -1.210  -0.165  0.00  0.00     0.031 A 
ATOM      8  C   UNL d   1       2.196  -0.006  -0.248  0.00  0.00     0.005 A 
ENDROOT
BRANCH   2   9
ATOM      9  N   UNL d   1      -0.527   2.497   0.129  0.00  0.00    -0.388 N 
ATOM     10  C   UNL d   1       0.192   3.704   0.522  0.00  0.00     0.149 C 
ATOM     11  C   UNL d   1      -1.728   2.718  -0.682  0.00  0.00     0.149 C 
ENDBRANCH   2   9
BRANCH   3  12
ATOM     12  N   UNL d   1      -0.567  -2.467   0.114  0.00  0.00    -0.388 N 
ATOM     13  C   UNL d   1       0.136  -3.688   0.491  0.00  0.00     0.149 C 
ATOM     14  C   UNL d   1      -1.741  -2.664  -0.742  0.00  0.00     0.149 C 
ENDBRANCH   3  12
TORSDOF 2
