REMARK  6 active torsions:
REMARK  status: ('A' for Active; 'I' for Inactive)
REMARK    1  A    between atoms: O_9  and  N_1 
REMARK    2  A    between atoms: C_8  and  C_3 
REMARK    3  A    between atoms: N_16  and  C_3 
REMARK    4  A    between atoms: C_4  and  C_6 
REMARK    5  A    between atoms: C_5  and  C_4 
REMARK    6  A    between atoms: C_6  and  O_9 
ROOT
ATOM      1  N   UNL d   1       0.801   0.090   0.112  0.00  0.00    -0.246 N 
ATOM      2  HN  UNL d   1       1.785   0.220   0.347  1.00  0.00     0.196 HD
ATOM      3  C   UNL d   1       0.035   1.038  -0.340  0.00  0.00     0.109 C 
ENDROOT
BRANCH   1   4
ATOM      4  O   UNL d   1       0.113  -1.148   0.240  0.00  0.00    -0.198 OA
BRANCH   4   5
ATOM      5  C   UNL d   1       0.951  -2.077   0.787  0.00  0.00     0.285 C 
ATOM      6  O   UNL d   1       2.119  -1.858   1.129  0.00  0.00    -0.263 OA
BRANCH   5   7
ATOM      7  C   UNL d   1       0.369  -3.455   1.000  0.00  0.00     0.159 C 
BRANCH   7   8
ATOM      8  C   UNL d   1      -1.016  -3.757   0.502  0.00  0.00    -0.008 A 
ATOM      9  S   UNL d   1      -2.381  -2.826   0.957  0.00  0.00    -0.106 SA
ATOM     10  C   UNL d   1      -3.446  -3.824   0.065  0.00  0.00     0.050 A 
ATOM     11  C   UNL d   1      -2.797  -4.901  -0.494  0.00  0.00     0.008 A 
ATOM     12  C   UNL d   1      -1.400  -4.871  -0.226  0.00  0.00     0.015 A 
ENDBRANCH   7   8
ENDBRANCH   5   7
ENDBRANCH   4   5
ENDBRANCH   1   4
BRANCH   3  13
ATOM     13  C   UNL d   1       0.633   2.402  -0.540  0.00  0.00     0.004 A 
ATOM     14  C   UNL d   1       0.128   3.249  -1.537  0.00  0.00     0.016 A 
ATOM     15  C   UNL d   1       0.628   4.547  -1.679  0.00  0.00     0.024 A 
ATOM     16  C   UNL d   1       1.635   5.000  -0.826  0.00  0.00     0.034 A 
ATOM     17  C   UNL d   1       2.164   4.155   0.149  0.00  0.00     0.024 A 
ATOM     18 CL   UNL d   1       2.214   6.614  -0.972  0.00  0.00    -0.084 Cl
ATOM     19  C   UNL d   1       1.670   2.852   0.288  0.00  0.00     0.016 A 
ENDBRANCH   3  13
BRANCH   3  20
ATOM     20  N   UNL d   1      -1.304   0.877  -0.614  0.00  0.00    -0.286 NA
ATOM     21  H   UNL d   1      -1.690   0.043  -0.182  0.00  0.00     0.125 HD
ATOM     22  H   UNL d   1      -1.882   1.695  -0.453  0.00  0.00     0.125 HD
ENDBRANCH   3  20
TORSDOF 6
