REMARK  3 active torsions:
REMARK  status: ('A' for Active; 'I' for Inactive)
REMARK    1  A    between atoms: C_11  and  N_8 
REMARK    2  A    between atoms: C_9  and  C_11 
REMARK    3  A    between atoms: C_12  and  C_9 
ROOT
ATOM      1  C   UNL d   1       2.849  -0.924   0.174  0.00  0.00     0.148 A 
ATOM      2  N   UNL d   1       1.793  -1.238  -0.548  0.00  0.00    -0.335 N 
ATOM      3  HN  UNL d   1       1.751  -2.032  -1.188  1.00  0.00     0.168 HD
ATOM      4  S   UNL d   1       2.626   0.503   1.130  0.00  0.00    -0.052 SA
ATOM      5  N   UNL d   1       4.002  -1.651   0.156  0.00  0.00    -0.358 N 
ATOM      6  C   UNL d   1       0.746  -0.359  -0.332  0.00  0.00     0.053 A 
ATOM      7  C   UNL d   1       1.019   0.677   0.555  0.00  0.00     0.035 A 
ATOM      8  N   UNL d   1       5.710  -4.002   0.697  0.00  0.00     0.099 N 
ATOM      9  C   UNL d   1      -0.530  -0.435  -0.924  0.00  0.00     0.054 A 
ATOM     10  C   UNL d   1       4.220  -2.651  -0.894  0.00  0.00     0.155 C 
ATOM     11  C   UNL d   1       5.058  -1.547   1.161  0.00  0.00     0.155 C 
ATOM     12  C   UNL d   1       0.064   1.659   0.871  0.00  0.00     0.023 A 
ATOM     13  C   UNL d   1      -1.487   0.532  -0.609  0.00  0.00     0.036 A 
ATOM     14  C   UNL d   1       4.577  -4.016  -0.266  0.00  0.00     0.292 C 
ATOM     15  C   UNL d   1       5.428  -2.953   1.713  0.00  0.00     0.292 C 
ATOM     16  C   UNL d   1      -1.197   1.567   0.274  0.00  0.00     0.025 A 
ATOM     17 CL   UNL d   1      -3.052   0.438  -1.321  0.00  0.00    -0.084 Cl
ENDROOT
BRANCH   8  18
ATOM     18  C   UNL d   1       7.022  -3.758   0.065  0.00  0.00     0.356 C 
BRANCH  18  19
ATOM     19  C   UNL d   1       7.368  -4.755  -1.037  0.00  0.00     0.187 C 
ATOM     20  O   UNL d   1       7.494  -4.365  -2.203  0.00  0.00    -0.290 OA
BRANCH  19  21
ATOM     21  C   UNL d   1       7.593  -6.204  -0.737  0.00  0.00     0.012 A 
ATOM     22  C   UNL d   1       7.367  -6.766   0.525  0.00  0.00     0.018 A 
ATOM     23  C   UNL d   1       7.522  -8.143   0.718  0.00  0.00     0.043 A 
ATOM     24  C   UNL d   1       7.916  -8.953  -0.343  0.00  0.00     0.116 A 
ATOM     25  C   UNL d   1       8.179  -8.409  -1.593  0.00  0.00     0.043 A 
ATOM     26  F   UNL d   1       8.037 -10.274  -0.159  0.00  0.00    -0.206 F 
ATOM     27  C   UNL d   1       8.020  -7.035  -1.789  0.00  0.00     0.018 A 
ENDBRANCH  19  21
ENDBRANCH  18  19
ENDBRANCH   8  18
TORSDOF 3
