REMARK  5 active torsions:
REMARK  status: ('A' for Active; 'I' for Inactive)
REMARK    1  A    between atoms: C_12  and  C_3 
REMARK    2  A    between atoms: C_9  and  C_4 
REMARK    3  A    between atoms: N_6  and  C_5 
REMARK    4  A    between atoms: O_18  and  C_12 
REMARK    5  A    between atoms: C_19  and  O_18 
ROOT
ATOM      1  N   UNL d   1       1.244   0.121  -0.287  0.00  0.00    -0.312 N 
ATOM      2  HN  UNL d   1       2.211   0.231  -0.593  1.00  0.00     0.170 HD
ATOM      3  C   UNL d   1       0.569  -0.988  -0.053  0.00  0.00     0.247 A 
ATOM      4  C   UNL d   1       0.309   1.090  -0.014  0.00  0.00     0.162 A 
ATOM      5  N   UNL d   1      -0.898   0.623   0.329  0.00  0.00    -0.240 N 
ATOM      6  HN  UNL d   1      -1.738   1.153   0.560  1.00  0.00     0.196 HD
ATOM      7  O   UNL d   1      -0.731  -0.762   0.296  0.00  0.00    -0.211 OA
ENDROOT
BRANCH   4   8
ATOM      8  C   UNL d   1       0.630   2.545  -0.047  0.00  0.00     0.123 A 
ATOM      9  O   UNL d   1      -0.231   3.547   0.322  0.00  0.00    -0.285 OA
ATOM     10  C   UNL d   1       0.454   4.712   0.184  0.00  0.00     0.215 A 
ATOM     11  C   UNL d   1       1.728   4.502  -0.283  0.00  0.00     0.066 A 
ATOM     12  C   UNL d   1       1.844   3.095  -0.428  0.00  0.00     0.046 A 
BRANCH  10  13
ATOM     13  N   UNL d   1      -0.241   5.906   0.549  0.00  0.00    -0.090 N 
ATOM     14  O   UNL d   1       0.403   6.961   0.449  0.00  0.00    -0.530 OA
ATOM     15  O   UNL d   1      -1.411   5.805   0.933  0.00  0.00    -0.530 OA
ENDBRANCH  10  13
ENDBRANCH   4   8
BRANCH   3  16
ATOM     16  C   UNL d   1       1.069  -2.339  -0.000  0.00  0.00     0.337 C 
ATOM     17  O   UNL d   1       0.418  -3.338   0.288  0.00  0.00    -0.255 OA
BRANCH  16  18
ATOM     18  O   UNL d   1       2.421  -2.332  -0.202  0.00  0.00    -0.315 OA
BRANCH  18  19
ATOM     19  C   UNL d   1       3.129  -3.462   0.324  0.00  0.00     0.175 C 
ATOM     20  C   UNL d   1       3.463  -3.169   1.776  0.00  0.00     0.034 C 
ENDBRANCH  18  19
ENDBRANCH  16  18
ENDBRANCH   3  16
TORSDOF 5
