REMARK  5 active torsions:
REMARK  status: ('A' for Active; 'I' for Inactive)
REMARK    1  A    between atoms: N_3  and  S_1 
REMARK    2  A    between atoms: C_10  and  S_1 
REMARK    3  A    between atoms: C_5  and  C_2 
REMARK    4  A    between atoms: C_6  and  N_3 
REMARK    5  A    between atoms: C_7  and  C_5 
ROOT
ATOM      1  C   UNL d   1       0.332  -3.482  -1.476  0.00  0.00     0.111 C 
ATOM      2  C   UNL d   1       0.837  -2.252  -1.256  0.00  0.00     0.124 C 
ATOM      3  C   UNL d   1       0.588  -4.222  -2.668  0.00  0.00     0.105 C 
ATOM      4  N   UNL d   1       0.764  -4.847  -3.636  0.00  0.00    -0.191 NA
ENDROOT
BRANCH   1   5
ATOM      5  C   UNL d   1      -0.537  -4.046  -0.383  0.00  0.00     0.210 C 
ATOM      6  O   UNL d   1      -0.426  -3.590   0.758  0.00  0.00    -0.285 OA
BRANCH   5   7
ATOM      7  C   UNL d   1      -1.515  -5.083  -0.716  0.00  0.00     0.056 A 
ATOM      8  S   UNL d   1      -1.971  -6.220   0.490  0.00  0.00    -0.098 SA
ATOM      9  C   UNL d   1      -3.036  -7.032  -0.573  0.00  0.00     0.050 A 
ATOM     10  C   UNL d   1      -3.069  -6.444  -1.815  0.00  0.00     0.009 A 
ATOM     11  C   UNL d   1      -2.206  -5.313  -1.893  0.00  0.00     0.023 A 
ENDBRANCH   5   7
ENDBRANCH   1   5
BRANCH   2  12
ATOM     12  N   UNL d   1       1.591  -1.582  -2.287  0.00  0.00    -0.322 N 
ATOM     13  HN  UNL d   1       1.731  -2.042  -3.187  1.00  0.00     0.175 HD
BRANCH  12  14
ATOM     14  S   UNL d   1       2.189  -0.174  -2.048  0.00  0.00     0.052 S 
ATOM     15  O   UNL d   1       3.000   0.169  -0.895  0.00  0.00    -0.245 OA
ATOM     16  C   UNL d   1       0.856   1.000  -2.105  0.00  0.00     0.142 C 
BRANCH  14  17
ATOM     17  C   UNL d   1       3.128   0.269  -3.507  0.00  0.00     0.038 A 
ATOM     18  C   UNL d   1       2.745  -0.209  -4.766  0.00  0.00     0.023 A 
ATOM     19  C   UNL d   1       3.451   0.200  -5.903  0.00  0.00     0.025 A 
ATOM     20  C   UNL d   1       4.530   1.075  -5.776  0.00  0.00     0.034 A 
ATOM     21  C   UNL d   1       4.921   1.538  -4.520  0.00  0.00     0.025 A 
ATOM     22 CL   UNL d   1       5.382   1.594  -7.179  0.00  0.00    -0.084 Cl
ATOM     23  C   UNL d   1       4.222   1.132  -3.380  0.00  0.00     0.023 A 
ENDBRANCH  14  17
ENDBRANCH  12  14
ENDBRANCH   2  12
TORSDOF 5
