REMARK  2 active torsions:
REMARK  status: ('A' for Active; 'I' for Inactive)
REMARK    1  A    between atoms: S_2  and  C_1 
REMARK    2  A    between atoms: C_10  and  S_2 
ROOT
ATOM      1  C   UNL d   1      -1.810  -1.274  -0.093  0.00  0.00     0.140 C 
ATOM      2  C   UNL d   1      -2.092   0.153   0.091  0.00  0.00     0.310 C 
ATOM      3  C   UNL d   1      -0.551  -1.744  -0.100  0.00  0.00     0.044 C 
ATOM      4  O   UNL d   1      -1.004   1.020  -0.016  0.00  0.00    -0.274 OA
ATOM      5  C   UNL d   1       0.573  -0.827  -0.019  0.00  0.00    -0.001 A 
ATOM      6  C   UNL d   1       0.319   0.540  -0.030  0.00  0.00     0.089 A 
ATOM      7  O   UNL d   1      -3.210   0.593   0.321  0.00  0.00    -0.258 OA
ATOM      8  C   UNL d   1       1.895  -1.269   0.039  0.00  0.00     0.014 A 
ATOM      9  C   UNL d   1       1.349   1.477  -0.024  0.00  0.00     0.038 A 
ATOM     10  C   UNL d   1       2.941  -0.340   0.064  0.00  0.00     0.001 A 
ATOM     11  C   UNL d   1       2.668   1.030   0.021  0.00  0.00     0.003 A 
ENDROOT
BRANCH   1  12
ATOM     12  S   UNL d   1      -3.094  -2.426  -0.172  0.00  0.00     0.212 S 
ATOM     13  O   UNL d   1      -2.656  -3.559  -0.976  0.00  0.00    -0.217 OA
ATOM     14  O   UNL d   1      -3.580  -2.679   1.175  0.00  0.00    -0.217 OA
BRANCH  12  15
ATOM     15  C   UNL d   1      -4.430  -1.691  -1.094  0.00  0.00     0.064 A 
ATOM     16  C   UNL d   1      -4.449  -1.792  -2.490  0.00  0.00     0.024 A 
ATOM     17  C   UNL d   1      -5.539  -1.288  -3.203  0.00  0.00     0.002 A 
ATOM     18  C   UNL d   1      -6.606  -0.694  -2.525  0.00  0.00     0.000 A 
ATOM     19  C   UNL d   1      -6.594  -0.615  -1.132  0.00  0.00     0.002 A 
ATOM     20  C   UNL d   1      -5.513  -1.126  -0.412  0.00  0.00     0.024 A 
ENDBRANCH  12  15
ENDBRANCH   1  12
TORSDOF 2
