REMARK  3 active torsions:
REMARK  status: ('A' for Active; 'I' for Inactive)
REMARK    1  A    between atoms: S_15  and  C_2 
REMARK    2  A    between atoms: C_11  and  C_6 
REMARK    3  A    between atoms: N_7  and  C_10 
ROOT
ATOM      1  C   UNL d   1      -1.402  -0.355  -0.045  0.00  0.00     0.135 C 
ATOM      2  C   UNL d   1      -0.493  -1.345  -0.175  0.00  0.00     0.065 C 
ATOM      3  S   UNL d   1       1.199  -1.085  -0.509  0.00  0.00    -0.091 SA
ATOM      4  C   UNL d   1      -1.004   1.077  -0.054  0.00  0.00     0.265 C 
ATOM      5  N   UNL d   1       0.302   1.437  -0.133  0.00  0.00    -0.339 N 
ATOM      6  C   UNL d   1       1.477   0.618  -0.050  0.00  0.00     0.186 C 
ATOM      7  C   UNL d   1      -2.812  -0.618   0.064  0.00  0.00     0.107 C 
ATOM      8  N   UNL d   1      -3.945  -0.867   0.109  0.00  0.00    -0.191 NA
ATOM      9  O   UNL d   1      -1.842   1.974   0.015  0.00  0.00    -0.267 OA
ATOM     10  H   UNL d   1       0.443   2.439  -0.094  0.00  0.00     0.164 HD
ENDROOT
BRANCH   2  11
ATOM     11  S   UNL d   1      -0.961  -3.034   0.031  0.00  0.00    -0.126 SA
ATOM     12  C   UNL d   1      -0.579  -3.734  -1.591  0.00  0.00     0.096 C 
ENDBRANCH   2  11
BRANCH   6  13
ATOM     13  C   UNL d   1       2.207   0.769   1.276  0.00  0.00    -0.025 A 
ATOM     14  C   UNL d   1       1.588   0.451   2.497  0.00  0.00     0.012 A 
ATOM     15  C   UNL d   1       2.277   0.578   3.707  0.00  0.00     0.037 A 
ATOM     16  C   UNL d   1       3.602   1.030   3.709  0.00  0.00     0.102 A 
ATOM     17  C   UNL d   1       4.242   1.356   2.508  0.00  0.00     0.037 A 
ATOM     18  C   UNL d   1       3.545   1.220   1.301  0.00  0.00     0.012 A 
BRANCH  16  19
ATOM     19  N   UNL d   1       4.324   1.163   4.980  0.00  0.00    -0.116 N 
ATOM     20  O   UNL d   1       3.720   0.863   6.020  0.00  0.00    -0.532 OA
ATOM     21  O   UNL d   1       5.494   1.569   4.938  0.00  0.00    -0.532 OA
ENDBRANCH  16  19
ENDBRANCH   6  13
TORSDOF 3
