REMARK  6 active torsions:
REMARK  status: ('A' for Active; 'I' for Inactive)
REMARK    1  A    between atoms: C_3  and  C_1 
REMARK    2  A    between atoms: C_12  and  C_2 
REMARK    3  A    between atoms: C_4  and  C_9 
REMARK       I    between atoms: N_22  and  C_12 
REMARK    4  A    between atoms: C_15  and  C_24 
REMARK       I    between atoms: C_21  and  N_23 
REMARK    5  A    between atoms: C_25  and  C_21 
REMARK    6  A    between atoms: N_23  and  N_22 
ROOT
ATOM      1  C   UNL d   1      -0.089  -1.342  -0.024  0.00  0.00     0.057 A 
ATOM      2  C   UNL d   1      -1.436  -0.860   0.017  0.00  0.00     0.139 A 
ATOM      3  N   UNL d   1      -1.431   0.485   0.094  0.00  0.00    -0.255 N 
ATOM      4  HN  UNL d   1      -2.248   1.093   0.151  1.00  0.00     0.195 HD
ATOM      5  O   UNL d   1      -0.115   0.881   0.082  0.00  0.00    -0.241 OA
ATOM      6  C   UNL d   1       0.693  -0.207   0.017  0.00  0.00     0.087 A 
ATOM      7  C   UNL d   1       2.143   0.067   0.049  0.00  0.00     0.080 C 
ENDROOT
BRANCH   2   8
ATOM      8  C   UNL d   1      -2.728  -1.563  -0.022  0.00  0.00     0.289 C 
ATOM      9  N   UNL d   1      -2.750  -2.755  -0.722  0.00  0.00    -0.262 N 
ATOM     10  H   UNL d   1      -1.908  -3.196  -1.085  0.00  0.00     0.190 HD
ATOM     11  O   UNL d   1      -3.758  -1.122   0.495  0.00  0.00    -0.264 OA
BRANCH   9  12
ATOM     12  N   UNL d   1      -3.920  -3.523  -0.763  0.00  0.00    -0.263 N 
ATOM     13  C   UNL d   1      -4.059  -4.408  -1.815  0.00  0.00     0.270 C 
ATOM     14  O   UNL d   1      -3.197  -4.571  -2.675  0.00  0.00    -0.266 OA
ATOM     15  H   UNL d   1      -4.710  -3.177  -0.220  0.00  0.00     0.190 HD
BRANCH  13  16
ATOM     16  C   UNL d   1      -5.322  -5.186  -1.863  0.00  0.00     0.033 A 
ATOM     17  C   UNL d   1      -5.834  -5.559  -3.111  0.00  0.00     0.018 A 
ATOM     18  C   UNL d   1      -6.978  -6.358  -3.192  0.00  0.00     0.017 A 
ATOM     19  C   UNL d   1      -7.616  -6.809  -2.026  0.00  0.00     0.048 A 
ATOM     20  C   UNL d   1      -7.093  -6.431  -0.777  0.00  0.00     0.017 A 
ATOM     21  C   UNL d   1      -5.954  -5.624  -0.693  0.00  0.00     0.018 A 
BRANCH  19  22
ATOM     22  C   UNL d   1      -8.830  -7.707  -2.097  0.00  0.00     0.417 C 
ATOM     23  F   UNL d   1      -9.245  -7.966  -3.368  0.00  0.00    -0.166 F 
ATOM     24  F   UNL d   1      -8.609  -8.921  -1.521  0.00  0.00    -0.166 F 
ATOM     25  F   UNL d   1      -9.906  -7.178  -1.452  0.00  0.00    -0.166 F 
ENDBRANCH  19  22
ENDBRANCH  13  16
ENDBRANCH   9  12
ENDBRANCH   2   8
BRANCH   1  26
ATOM     26  C   UNL d   1       0.363  -2.731  -0.034  0.00  0.00     0.055 A 
ATOM     27  N   UNL d   1      -0.489  -3.694   0.471  0.00  0.00    -0.347 N 
ATOM     28  C   UNL d   1       0.097  -4.877   0.448  0.00  0.00     0.102 A 
ATOM     29  HN  UNL d   1      -1.434  -3.517   0.811  1.00  0.00     0.167 HD
ATOM     30  S   UNL d   1       1.674  -4.898  -0.232  0.00  0.00    -0.080 SA
ATOM     31  C   UNL d   1       1.575  -3.207  -0.486  0.00  0.00     0.082 A 
BRANCH  28  32
ATOM     32  C   UNL d   1      -0.564  -6.114   0.987  0.00  0.00     0.073 A 
ATOM     33  N   UNL d   1       0.084  -7.338   1.023  0.00  0.00    -0.352 N 
ATOM     34  C   UNL d   1      -0.698  -8.243   1.569  0.00  0.00     0.047 A 
ATOM     35  HN  UNL d   1       1.028  -7.512   0.677  1.00  0.00     0.166 HD
ATOM     36  C   UNL d   1      -0.301  -9.658   1.802  0.00  0.00     0.076 C 
ATOM     37  S   UNL d   1      -2.259  -7.690   2.033  0.00  0.00    -0.087 SA
ATOM     38  C   UNL d   1      -1.846  -6.114   1.498  0.00  0.00     0.083 A 
ENDBRANCH  28  32
ENDBRANCH   1  26
TORSDOF 6
