REMARK  4 active torsions:
REMARK  status: ('A' for Active; 'I' for Inactive)
REMARK    1  A    between atoms: C_2  and  C_1 
REMARK    2  A    between atoms: S_14  and  C_8 
REMARK    3  A    between atoms: C_15  and  S_14 
REMARK    4  A    between atoms: C_17  and  C_15 
ROOT
ATOM      1  C   UNL d   1      -0.439  -1.014   0.111  0.00  0.00     0.192 A 
ATOM      2  O   UNL d   1      -1.201   0.071  -0.269  0.00  0.00    -0.266 OA
ATOM      3  N   UNL d   1       0.738  -0.644   0.585  0.00  0.00    -0.275 N 
ATOM      4  HN  UNL d   1       1.468  -1.258   0.944  1.00  0.00     0.189 HD
ATOM      5  C   UNL d   1      -0.361   1.121  -0.002  0.00  0.00     0.204 A 
ATOM      6  N   UNL d   1       0.790   0.727   0.500  0.00  0.00    -0.272 N 
ATOM      7  HN  UNL d   1       1.571   1.324   0.773  1.00  0.00     0.189 HD
ENDROOT
BRANCH   5   8
ATOM      8  S   UNL d   1      -0.721   2.788  -0.327  0.00  0.00    -0.080 SA
BRANCH   8   9
ATOM      9  C   UNL d   1      -2.513   2.824  -0.075  0.00  0.00     0.121 C 
BRANCH   9  10
ATOM     10  C   UNL d   1      -3.063   4.221  -0.260  0.00  0.00    -0.048 A 
ATOM     11  C   UNL d   1      -3.438   4.676  -1.534  0.00  0.00     0.009 A 
ATOM     12  C   UNL d   1      -3.931   5.971  -1.711  0.00  0.00     0.024 A 
ATOM     13  C   UNL d   1      -4.046   6.825  -0.617  0.00  0.00     0.034 A 
ATOM     14  C   UNL d   1      -3.667   6.397   0.652  0.00  0.00     0.024 A 
ATOM     15 CL   UNL d   1      -4.656   8.419  -0.836  0.00  0.00    -0.084 Cl
ATOM     16  C   UNL d   1      -3.173   5.100   0.831  0.00  0.00     0.009 A 
ENDBRANCH   9  10
ENDBRANCH   8   9
ENDBRANCH   5   8
BRANCH   1  17
ATOM     17  C   UNL d   1      -0.862  -2.448   0.002  0.00  0.00     0.092 A 
ATOM     18  N   UNL d   1      -2.076  -2.845  -0.545  0.00  0.00    -0.350 N 
ATOM     19  C   UNL d   1      -2.156  -4.159  -0.538  0.00  0.00     0.047 A 
ATOM     20  HN  UNL d   1      -2.795  -2.214  -0.898  1.00  0.00     0.166 HD
ATOM     21  C   UNL d   1      -3.301  -4.946  -1.077  0.00  0.00     0.076 C 
ATOM     22  S   UNL d   1      -0.814  -4.984   0.153  0.00  0.00    -0.087 SA
ATOM     23  C   UNL d   1      -0.050  -3.479   0.433  0.00  0.00     0.085 A 
ENDBRANCH   1  17
TORSDOF 4
