REMARK  3 active torsions:
REMARK  status: ('A' for Active; 'I' for Inactive)
REMARK    1  A    between atoms: S_3  and  C_2 
REMARK    2  A    between atoms: C_9  and  C_4 
REMARK    3  A    between atoms: O_18  and  C_15 
ROOT
ATOM      1  C   UNL d   1      -0.648  -0.025  -0.459  0.00  0.00     0.084 A 
ATOM      2  C   UNL d   1       0.239   1.027  -0.316  0.00  0.00     0.120 A 
ATOM      3  C   UNL d   1      -0.097  -1.288  -0.018  0.00  0.00     0.003 A 
ATOM      4  S   UNL d   1       1.691   0.521   0.433  0.00  0.00    -0.088 SA
ATOM      5  C   UNL d   1       1.169  -1.104   0.507  0.00  0.00     0.065 A 
ATOM      6  C   UNL d   1      -1.963   0.150  -1.006  0.00  0.00     0.102 C 
ATOM      7  N   UNL d   1      -3.036   0.231  -1.444  0.00  0.00    -0.191 NA
ENDROOT
BRANCH   2   8
ATOM      8  S   UNL d   1       0.164   2.743  -0.784  0.00  0.00     0.179 S 
ATOM      9  O   UNL d   1       1.344   2.977  -1.591  0.00  0.00    -0.222 OA
ATOM     10  O   UNL d   1      -1.168   2.938  -1.314  0.00  0.00    -0.222 OA
ATOM     11  C   UNL d   1       0.295   3.647   0.732  0.00  0.00     0.167 C 
ENDBRANCH   2   8
BRANCH   3  12
ATOM     12  C   UNL d   1      -0.711  -2.622  -0.090  0.00  0.00    -0.024 A 
ATOM     13  C   UNL d   1      -1.514  -2.971  -1.185  0.00  0.00     0.015 A 
ATOM     14  C   UNL d   1      -2.168  -4.207  -1.243  0.00  0.00     0.037 A 
ATOM     15  C   UNL d   1      -2.002  -5.132  -0.218  0.00  0.00     0.068 A 
ATOM     16  C   UNL d   1      -1.151  -4.827   0.844  0.00  0.00     0.037 A 
ATOM     17  C   UNL d   1      -0.522  -3.576   0.919  0.00  0.00     0.015 A 
BRANCH  15  18
ATOM     18  O   UNL d   1      -2.585  -6.368  -0.179  0.00  0.00    -0.356 OA
ATOM     19  C   UNL d   1      -3.855  -6.461  -0.820  0.00  0.00     0.210 C 
ENDBRANCH  15  18
ENDBRANCH   3  12
TORSDOF 3
