REMARK  4 active torsions:
REMARK  status: ('A' for Active; 'I' for Inactive)
REMARK    1  A    between atoms: C_2  and  S_1 
REMARK    2  A    between atoms: N_6  and  S_1 
REMARK    3  A    between atoms: C_21  and  N_10 
REMARK    4  A    between atoms: C_20  and  C_21 
ROOT
ATOM      1  N   UNL d   1       0.473   0.171  -1.379  0.00  0.00    -0.203 NA
ATOM      2  N   UNL d   1      -2.463   0.712  -1.399  0.00  0.00     0.095 N 
ATOM      3  C   UNL d   1      -0.070   1.522  -1.700  0.00  0.00     0.138 C 
ATOM      4  C   UNL d   1      -0.502  -0.904  -1.729  0.00  0.00     0.138 C 
ATOM      5  C   UNL d   1      -1.451   1.731  -1.041  0.00  0.00     0.288 C 
ATOM      6  C   UNL d   1      -1.902  -0.636  -1.133  0.00  0.00     0.288 C 
ENDROOT
BRANCH   1   7
ATOM      7  S   UNL d   1       1.274   0.024   0.114  0.00  0.00     0.246 S 
ATOM      8  O   UNL d   1       0.769   1.023   1.027  0.00  0.00    -0.206 OA
ATOM      9  O   UNL d   1       1.371  -1.367   0.484  0.00  0.00    -0.206 OA
BRANCH   7  10
ATOM     10  C   UNL d   1       2.920   0.493  -0.142  0.00  0.00     0.105 A 
ATOM     11  C   UNL d   1       3.807  -0.180  -0.947  0.00  0.00     0.099 A 
ATOM     12  S   UNL d   1       5.351   0.536  -0.974  0.00  0.00    -0.064 SA
ATOM     13 CL   UNL d   1       3.560  -1.595  -1.894  0.00  0.00    -0.075 Cl
ATOM     14  C   UNL d   1       4.845   1.753   0.088  0.00  0.00     0.077 A 
ATOM     15  C   UNL d   1       3.533   1.635   0.472  0.00  0.00     0.058 A 
ATOM     16 CL   UNL d   1       5.949   2.974   0.574  0.00  0.00    -0.076 Cl
ENDBRANCH   7  10
ENDBRANCH   1   7
BRANCH   2  17
ATOM     17  C   UNL d   1      -2.946   0.832  -2.785  0.00  0.00     0.311 C 
BRANCH  17  18
ATOM     18  C   UNL d   1      -3.567   2.178  -3.108  0.00  0.00    -0.027 A 
ATOM     19  C   UNL d   1      -2.988   3.006  -4.086  0.00  0.00     0.048 A 
ATOM     20  C   UNL d   1      -3.589   4.218  -4.356  0.00  0.00     0.105 A 
ATOM     21  O   UNL d   1      -3.156   5.131  -5.267  0.00  0.00    -0.323 OA
ATOM     22  C   UNL d   1      -4.727   4.626  -3.703  0.00  0.00     0.105 A 
ATOM     23  C   UNL d   1      -4.157   6.160  -5.114  0.00  0.00     0.352 A 
ATOM     24  O   UNL d   1      -5.158   5.845  -4.125  0.00  0.00    -0.323 OA
ATOM     25  C   UNL d   1      -5.322   3.849  -2.733  0.00  0.00     0.040 A 
ATOM     26  C   UNL d   1      -4.732   2.615  -2.433  0.00  0.00     0.012 A 
ENDBRANCH  17  18
ENDBRANCH   2  17
TORSDOF 4
