REMARK  6 active torsions:
REMARK  status: ('A' for Active; 'I' for Inactive)
REMARK    1  A    between atoms: C_7  and  C_1 
REMARK    2  A    between atoms: C_10  and  C_13 
REMARK    3  A    between atoms: S_19  and  C_11 
REMARK    4  A    between atoms: C_14  and  C_29 
REMARK       I    between atoms: N_18  and  C_14 
REMARK    5  A    between atoms: C_30  and  N_18 
REMARK    6  A    between atoms: C_29  and  S_19 
ROOT
ATOM      1  C   UNL d   1       2.011  -2.494  -0.045  0.00  0.00     0.065 A 
ATOM      2  N   UNL d   1       2.386  -2.956   1.162  0.00  0.00    -0.335 N 
ATOM      3  HN  UNL d   1       2.373  -2.355   1.985  1.00  0.00     0.168 HD
ATOM      4  C   UNL d   1       2.775  -4.234   1.241  0.00  0.00     0.145 A 
ATOM      5  N   UNL d   1       2.858  -5.069   0.196  0.00  0.00    -0.347 N 
ATOM      6  HN  UNL d   1       3.186  -6.029   0.300  1.00  0.00     0.167 HD
ATOM      7  C   UNL d   1       2.036  -3.292  -1.170  0.00  0.00     0.049 A 
ATOM      8  C   UNL d   1       2.487  -4.575  -0.994  0.00  0.00     0.092 A 
ENDROOT
BRANCH   4   9
ATOM      9  S   UNL d   1       3.072  -4.872   2.877  0.00  0.00    -0.085 SA
BRANCH   9  10
ATOM     10  C   UNL d   1       3.655  -6.518   2.415  0.00  0.00     0.185 C 
BRANCH  10  11
ATOM     11  C   UNL d   1       3.834  -7.499   3.550  0.00  0.00     0.231 C 
ATOM     12  N   UNL d   1       3.247  -7.189   4.765  0.00  0.00    -0.327 N 
ATOM     13  H   UNL d   1       2.697  -6.336   4.792  0.00  0.00     0.169 HD
ATOM     14  O   UNL d   1       4.403  -8.564   3.296  0.00  0.00    -0.272 OA
BRANCH  12  15
ATOM     15  C   UNL d   1       3.150  -8.063   5.872  0.00  0.00     0.034 A 
ATOM     16  C   UNL d   1       3.922  -9.221   5.990  0.00  0.00     0.030 A 
ATOM     17  C   UNL d   1       3.663 -10.158   6.990  0.00  0.00     0.018 A 
ATOM     18  C   UNL d   1       2.631  -9.948   7.907  0.00  0.00     0.048 A 
ATOM     19  C   UNL d   1       1.932  -8.731   7.864  0.00  0.00     0.018 A 
ATOM     20  C   UNL d   1       2.197  -7.790   6.858  0.00  0.00     0.030 A 
BRANCH  18  21
ATOM     21  C   UNL d   1       2.246 -11.025   8.891  0.00  0.00     0.417 C 
ATOM     22  F   UNL d   1       2.959 -12.179   8.742  0.00  0.00    -0.166 F 
ATOM     23  F   UNL d   1       2.413 -10.647  10.185  0.00  0.00    -0.166 F 
ATOM     24  F   UNL d   1       0.937 -11.387   8.770  0.00  0.00    -0.166 F 
ENDBRANCH  18  21
ENDBRANCH  12  15
ENDBRANCH  10  11
ENDBRANCH   9  10
ENDBRANCH   4   9
BRANCH   1  25
ATOM     25  C   UNL d   1       1.575  -1.093  -0.074  0.00  0.00     0.089 A 
ATOM     26  N   UNL d   1       1.077  -0.377   1.022  0.00  0.00    -0.304 N 
ATOM     27  C   UNL d   1       0.796   0.908   0.564  0.00  0.00     0.112 A 
ATOM     28  C   UNL d   1       0.849  -0.751   2.354  0.00  0.00     0.099 A 
ATOM     29  C   UNL d   1       0.279   1.853   1.501  0.00  0.00     0.049 A 
ATOM     30  N   UNL d   1       1.065   1.048  -0.712  0.00  0.00    -0.344 N 
ATOM     31  C   UNL d   1       0.079   1.491   2.780  0.00  0.00     0.005 A 
ATOM     32  C   UNL d   1       0.368   0.144   3.233  0.00  0.00     0.018 A 
ATOM     33  C   UNL d   1       1.562  -0.164  -1.117  0.00  0.00     0.036 A 
ATOM     34  HN  UNL d   1       0.933   1.883  -1.282  1.00  0.00     0.167 HD
ATOM     35  C   UNL d   1       2.016  -0.290  -2.525  0.00  0.00     0.070 C 
ENDBRANCH   1  25
TORSDOF 6
