REMARK  5 active torsions:
REMARK  status: ('A' for Active; 'I' for Inactive)
REMARK    1  A    between atoms: N_8  and  C_3 
REMARK    2  A    between atoms: C_10  and  N_4 
REMARK    3  A    between atoms: N_11  and  N_8 
REMARK    4  A    between atoms: C_9  and  C_16 
REMARK       I    between atoms: C_12  and  N_11 
REMARK    5  A    between atoms: C_17  and  C_12 
ROOT
ATOM      1  C   UNL d   1      -0.435   1.300   1.321  0.00  0.00     0.133 C 
ATOM      2  C   UNL d   1      -1.680   0.466   1.329  0.00  0.00     0.291 C 
ATOM      3  C   UNL d   1       0.331   1.432   0.230  0.00  0.00     0.094 C 
ATOM      4  N   UNL d   1      -2.040  -0.088   0.089  0.00  0.00    -0.220 N 
ATOM      5  N   UNL d   1      -1.164  -0.134  -0.976  0.00  0.00    -0.300 N 
ATOM      6  HN  UNL d   1      -1.370  -0.693  -1.804  1.00  0.00     0.186 HD
ATOM      7  C   UNL d   1      -0.073   0.554  -0.888  0.00  0.00     0.141 C 
ATOM      8  O   UNL d   1      -2.317   0.342   2.374  0.00  0.00    -0.264 OA
ATOM      9 CL   UNL d   1      -0.078   2.171   2.779  0.00  0.00    -0.076 Cl
ENDROOT
BRANCH   3  10
ATOM     10  N   UNL d   1       1.363   2.336  -0.034  0.00  0.00    -0.291 N 
ATOM     11  C   UNL d   1       1.091   3.784   0.037  0.00  0.00     0.178 C 
BRANCH  10  12
ATOM     12  N   UNL d   1       2.707   1.989   0.291  0.00  0.00    -0.264 N 
ATOM     13  C   UNL d   1       3.743   2.536  -0.467  0.00  0.00     0.270 C 
ATOM     14  O   UNL d   1       3.599   3.164  -1.512  0.00  0.00    -0.266 OA
ATOM     15  H   UNL d   1       2.866   1.749   1.266  0.00  0.00     0.190 HD
BRANCH  13  16
ATOM     16  C   UNL d   1       5.108   2.402   0.120  0.00  0.00     0.033 A 
ATOM     17  C   UNL d   1       5.481   1.270   0.852  0.00  0.00     0.018 A 
ATOM     18  C   UNL d   1       6.746   1.206   1.448  0.00  0.00     0.017 A 
ATOM     19  C   UNL d   1       7.653   2.271   1.326  0.00  0.00     0.048 A 
ATOM     20  C   UNL d   1       7.291   3.380   0.543  0.00  0.00     0.017 A 
ATOM     21  C   UNL d   1       6.030   3.442  -0.059  0.00  0.00     0.018 A 
BRANCH  19  22
ATOM     22  C   UNL d   1       8.987   2.248   2.038  0.00  0.00     0.417 C 
ATOM     23  F   UNL d   1       9.176   1.134   2.799  0.00  0.00    -0.166 F 
ATOM     24  F   UNL d   1      10.044   2.302   1.182  0.00  0.00    -0.166 F 
ATOM     25  F   UNL d   1       9.136   3.304   2.886  0.00  0.00    -0.166 F 
ENDBRANCH  19  22
ENDBRANCH  13  16
ENDBRANCH  10  12
ENDBRANCH   3  10
BRANCH   4  26
ATOM     26  C   UNL d   1      -3.330  -0.664  -0.184  0.00  0.00     0.061 A 
ATOM     27  C   UNL d   1      -4.457  -0.395   0.613  0.00  0.00     0.058 A 
ATOM     28  C   UNL d   1      -5.710  -0.937   0.301  0.00  0.00     0.074 A 
ATOM     29 CL   UNL d   1      -7.069  -0.557   1.292  0.00  0.00    -0.081 Cl
ATOM     30  C   UNL d   1      -5.860  -1.760  -0.809  0.00  0.00     0.138 A 
ATOM     31  C   UNL d   1      -4.769  -2.036  -1.622  0.00  0.00     0.046 A 
ATOM     32  F   UNL d   1      -7.051  -2.290  -1.121  0.00  0.00    -0.204 F 
ATOM     33  C   UNL d   1      -3.519  -1.483  -1.317  0.00  0.00     0.035 A 
ENDBRANCH   4  26
TORSDOF 5
