REMARK  3 active torsions:
REMARK  status: ('A' for Active; 'I' for Inactive)
REMARK    1  A    between atoms: C_2  and  S_1 
REMARK    2  A    between atoms: C_4  and  S_1 
REMARK    3  A    between atoms: N_3  and  C_2 
ROOT
ATOM      1  C   UNL d   1       0.583  -0.726  -1.544  0.00  0.00     0.062 A 
ATOM      2  C   UNL d   1       0.062   0.045  -2.586  0.00  0.00     0.047 A 
ATOM      3  C   UNL d   1      -0.323  -0.588  -3.765  0.00  0.00     0.035 A 
ATOM      4 CL   UNL d   1      -0.967   0.339  -5.062  0.00  0.00    -0.084 Cl
ATOM      5  C   UNL d   1       0.689  -2.117  -1.660  0.00  0.00     0.023 A 
ATOM      6  C   UNL d   1       0.311  -2.736  -2.850  0.00  0.00     0.003 A 
ATOM      7  C   UNL d   1      -0.191  -1.971  -3.905  0.00  0.00     0.024 A 
ENDROOT
BRANCH   1   8
ATOM      8  S   UNL d   1       1.105   0.055  -0.036  0.00  0.00     0.198 S 
ATOM      9  O   UNL d   1       0.955   1.488  -0.203  0.00  0.00    -0.221 OA
ATOM     10  O   UNL d   1       0.378  -0.624   1.023  0.00  0.00    -0.221 OA
BRANCH   8  11
ATOM     11  C   UNL d   1       2.800  -0.326   0.178  0.00  0.00     0.346 C 
BRANCH  11  12
ATOM     12  N   UNL d   1       3.535   0.186  -0.986  0.00  0.00    -0.141 N 
ATOM     13  O   UNL d   1       4.058   1.301  -0.888  0.00  0.00    -0.536 OA
ATOM     14  O   UNL d   1       3.643  -0.571  -1.959  0.00  0.00    -0.536 OA
ENDBRANCH  11  12
ENDBRANCH   8  11
ENDBRANCH   1   8
TORSDOF 3
