REMARK  6 active torsions:
REMARK  status: ('A' for Active; 'I' for Inactive)
REMARK    1  A    between atoms: C_2  and  S_1 
REMARK    2  A    between atoms: N_3  and  S_1 
REMARK    3  A    between atoms: C_12  and  N_3 
REMARK    4  A    between atoms: O_13  and  C_9 
REMARK    5  A    between atoms: C_16  and  O_13 
REMARK    6  A    between atoms: O_25  and  C_20 
ROOT
ATOM      1  N   UNL d   1       0.061  -2.607   4.300  0.00  0.00    -0.345 N 
ATOM      2  HN  UNL d   1      -0.664  -2.955   4.928  1.00  0.00     0.167 HD
ATOM      3  C   UNL d   1       1.331  -3.070   4.359  0.00  0.00     0.148 A 
ATOM      4  C   UNL d   1       0.731  -1.182   2.469  0.00  0.00     0.038 A 
ATOM      5  C   UNL d   1      -0.201  -1.663   3.373  0.00  0.00     0.114 A 
ATOM      6  C   UNL d   1       2.319  -2.702   3.455  0.00  0.00     0.058 A 
ATOM      7  C   UNL d   1       2.005  -1.747   2.483  0.00  0.00     0.030 A 
ENDROOT
BRANCH   4   8
ATOM      8  N   UNL d   1       0.403  -0.140   1.548  0.00  0.00    -0.180 NA
ATOM      9  H   UNL d   1      -0.237   0.578   1.906  0.00  0.00     0.146 HD
BRANCH   8  10
ATOM     10  S   UNL d   1      -0.125  -0.576  -0.002  0.00  0.00     0.248 S 
ATOM     11  O   UNL d   1      -0.461   0.645  -0.703  0.00  0.00    -0.205 OA
ATOM     12  O   UNL d   1       0.855  -1.491  -0.556  0.00  0.00    -0.205 OA
BRANCH  10  13
ATOM     13  C   UNL d   1      -1.631  -1.481   0.235  0.00  0.00     0.102 A 
ATOM     14  C   UNL d   1      -2.666  -0.910   0.980  0.00  0.00     0.065 A 
ATOM     15  N   UNL d   1      -2.544   0.281   1.620  0.00  0.00    -0.364 N 
ATOM     16  C   UNL d   1      -3.866  -1.657   1.071  0.00  0.00    -0.008 A 
ATOM     17  C   UNL d   1      -3.608   0.766   2.307  0.00  0.00     0.088 A 
ATOM     18  HN  UNL d   1      -1.667   0.801   1.585  1.00  0.00     0.165 HD
ATOM     19  C   UNL d   1      -4.814   0.106   2.423  0.00  0.00     0.018 A 
ATOM     20  C   UNL d   1      -4.939  -1.126   1.801  0.00  0.00     0.015 A 
ATOM     21  C   UNL d   1      -3.991  -2.910   0.450  0.00  0.00     0.014 A 
ATOM     22  C   UNL d   1      -2.933  -3.453  -0.271  0.00  0.00     0.003 A 
ATOM     23  C   UNL d   1      -1.750  -2.737  -0.381  0.00  0.00     0.027 A 
ENDBRANCH  10  13
ENDBRANCH   8  10
ENDBRANCH   4   8
BRANCH   3  24
ATOM     24  O   UNL d   1       1.689  -3.930   5.389  0.00  0.00    -0.294 OA
BRANCH  24  25
ATOM     25  C   UNL d   1       0.991  -3.797   6.573  0.00  0.00     0.078 A 
ATOM     26  C   UNL d   1       0.614  -4.964   7.235  0.00  0.00     0.040 A 
ATOM     27  C   UNL d   1      -0.125  -4.891   8.424  0.00  0.00     0.039 A 
ATOM     28  C   UNL d   1      -0.482  -3.650   8.956  0.00  0.00     0.068 A 
ATOM     29  C   UNL d   1      -0.058  -2.485   8.313  0.00  0.00     0.039 A 
ATOM     30  C   UNL d   1       0.693  -2.555   7.140  0.00  0.00     0.040 A 
BRANCH  28  31
ATOM     31  O   UNL d   1      -1.230  -3.432  10.079  0.00  0.00    -0.356 OA
ATOM     32  C   UNL d   1      -1.718  -4.577  10.762  0.00  0.00     0.210 C 
ENDBRANCH  28  31
ENDBRANCH  24  25
ENDBRANCH   3  24
TORSDOF 6
