REMARK  4 active torsions:
REMARK  status: ('A' for Active; 'I' for Inactive)
REMARK    1  A    between atoms: N_4  and  C_2 
REMARK    2  A    between atoms: N_13  and  C_5 
REMARK    3  A    between atoms: C_16  and  N_13 
REMARK    4  A    between atoms: O_22  and  C_17 
ROOT
ATOM      1  C   UNL d   1       0.118  -0.766   0.370  0.00  0.00     0.120 A 
ATOM      2  C   UNL d   1      -0.990  -1.542  -0.021  0.00  0.00     0.134 A 
ATOM      3  C   UNL d   1       0.057   0.699   0.321  0.00  0.00     0.114 A 
ATOM      4  C   UNL d   1      -1.096   1.413  -0.100  0.00  0.00     0.064 A 
ATOM      5  N   UNL d   1       1.336  -1.095   0.825  0.00  0.00    -0.237 N 
ATOM      6  HN  UNL d   1       1.695  -2.038   0.976  1.00  0.00     0.197 HD
ATOM      7  C   UNL d   1      -2.130  -0.841  -0.459  0.00  0.00     0.041 A 
ATOM      8  N   UNL d   1       1.232   1.187   0.741  0.00  0.00    -0.237 N 
ATOM      9  HN  UNL d   1       1.499   2.169   0.817  1.00  0.00     0.197 HD
ATOM     10  O   UNL d   1       2.010   0.087   1.048  0.00  0.00    -0.156 OA
ATOM     11  C   UNL d   1      -2.167   0.574  -0.499  0.00  0.00     0.034 A 
ENDROOT
BRANCH   4  12
ATOM     12  N   UNL d   1      -1.178   2.814  -0.169  0.00  0.00    -0.354 N 
ATOM     13  H   UNL d   1      -0.315   3.290   0.089  0.00  0.00     0.166 HD
BRANCH  12  14
ATOM     14  C   UNL d   1      -2.322   3.618   0.005  0.00  0.00     0.032 A 
ATOM     15  C   UNL d   1      -3.374   3.243   0.850  0.00  0.00     0.032 A 
ATOM     16  C   UNL d   1      -4.540   4.010   0.941  0.00  0.00     0.039 A 
ATOM     17  C   UNL d   1      -4.668   5.173   0.188  0.00  0.00     0.068 A 
ATOM     18  C   UNL d   1      -3.602   5.583  -0.616  0.00  0.00     0.039 A 
ATOM     19  C   UNL d   1      -2.433   4.819  -0.699  0.00  0.00     0.032 A 
BRANCH  17  20
ATOM     20  O   UNL d   1      -5.769   5.984   0.150  0.00  0.00    -0.356 OA
ATOM     21  C   UNL d   1      -6.903   5.556   0.896  0.00  0.00     0.210 C 
ENDBRANCH  17  20
ENDBRANCH  12  14
ENDBRANCH   4  12
BRANCH   2  22
ATOM     22  N   UNL d   1      -0.964  -2.990   0.010  0.00  0.00    -0.113 N 
ATOM     23  O   UNL d   1       0.058  -3.564   0.400  0.00  0.00    -0.532 OA
ATOM     24  O   UNL d   1      -1.991  -3.576  -0.360  0.00  0.00    -0.532 OA
ENDBRANCH   2  22
TORSDOF 4
