REMARK  5 active torsions:
REMARK  status: ('A' for Active; 'I' for Inactive)
REMARK    1  A    between atoms: C_4  and  C_1 
REMARK    2  A    between atoms: C_9  and  C_2 
REMARK    3  A    between atoms: O_8  and  C_4 
REMARK    4  A    between atoms: C_5  and  O_8 
REMARK    5  A    between atoms: O_18  and  C_9 
ROOT
ATOM      1  C   UNL d   1      -2.826  -2.171  -0.375  0.00  0.00     0.304 C 
ATOM      2  O   UNL d   1      -3.994  -1.788  -0.414  0.00  0.00    -0.259 OA
ENDROOT
BRANCH   1   3
ATOM      3  C   UNL d   1      -1.647  -1.274  -0.525  0.00  0.00     0.116 C 
ATOM      4  C   UNL d   1      -0.271  -1.718  -0.202  0.00  0.00     0.304 C 
ATOM      5  O   UNL d   1       0.697  -0.726  -0.090  0.00  0.00    -0.274 OA
ATOM      6  O   UNL d   1       0.040  -2.889  -0.021  0.00  0.00    -0.259 OA
ATOM      7  C   UNL d   1       0.469   0.563  -0.593  0.00  0.00     0.089 A 
ATOM      8  C   UNL d   1      -0.792   0.937  -1.042  0.00  0.00    -0.001 A 
ATOM      9  C   UNL d   1       1.567   1.414  -0.677  0.00  0.00     0.038 A 
ATOM     10  C   UNL d   1      -1.891  -0.006  -0.904  0.00  0.00     0.038 C 
ATOM     11  C   UNL d   1      -0.951   2.199  -1.617  0.00  0.00     0.014 A 
ATOM     12  C   UNL d   1       0.152   3.053  -1.743  0.00  0.00     0.001 A 
ATOM     13  C   UNL d   1       1.406   2.665  -1.266  0.00  0.00     0.003 A 
ENDBRANCH   1   3
BRANCH   1  14
ATOM     14  O   UNL d   1      -2.429  -3.448  -0.143  0.00  0.00    -0.273 OA
BRANCH  14  15
ATOM     15  C   UNL d   1      -3.137  -4.222   0.714  0.00  0.00     0.103 A 
ATOM     16  C   UNL d   1      -3.594  -3.825   1.961  0.00  0.00     0.114 A 
ATOM     17  S   UNL d   1      -4.295  -5.153   2.802  0.00  0.00    -0.093 SA
ATOM     18  C   UNL d   1      -3.946  -6.240   1.532  0.00  0.00     0.053 A 
ATOM     19  C   UNL d   1      -3.339  -5.611   0.470  0.00  0.00     0.046 A 
BRANCH  16  20
ATOM     20  C   UNL d   1      -3.475  -2.528   2.602  0.00  0.00     0.302 C 
ATOM     21  O   UNL d   1      -2.590  -1.709   2.385  0.00  0.00    -0.259 OA
BRANCH  20  22
ATOM     22  O   UNL d   1      -4.523  -2.308   3.450  0.00  0.00    -0.322 OA
ATOM     23  C   UNL d   1      -4.554  -1.000   4.016  0.00  0.00     0.213 C 
ENDBRANCH  20  22
ENDBRANCH  16  20
ENDBRANCH  14  15
ENDBRANCH   1  14
TORSDOF 5
