REMARK  3 active torsions:
REMARK  status: ('A' for Active; 'I' for Inactive)
REMARK    1  A    between atoms: N_2  and  C_1 
REMARK    2  A    between atoms: O_14  and  C_1 
REMARK       I    between atoms: C_5  and  N_2 
REMARK    3  A    between atoms: C_8  and  C_5 
ROOT
ATOM      1  C   UNL d   1      -1.799  -0.058  -0.274  0.00  0.00     0.269 C 
ATOM      2  C   UNL d   1      -2.226   0.122   1.200  0.00  0.00     0.224 C 
ATOM      3  C   UNL d   1      -0.807  -1.239  -0.207  0.00  0.00     0.224 C 
ATOM      4  C   UNL d   1      -0.550  -1.519   1.210  0.00  0.00     0.029 A 
ATOM      5  C   UNL d   1      -1.379  -0.750   2.019  0.00  0.00     0.029 A 
ATOM      6  O   UNL d   1      -2.998   0.948   1.657  0.00  0.00    -0.286 OA
ATOM      7  O   UNL d   1      -0.249  -1.822  -1.121  0.00  0.00    -0.286 OA
ATOM      8  C   UNL d   1       0.425  -2.342   1.748  0.00  0.00     0.016 A 
ATOM      9  C   UNL d   1      -1.274  -0.775   3.399  0.00  0.00     0.016 A 
ATOM     10  C   UNL d   1       0.555  -2.370   3.141  0.00  0.00     0.001 A 
ATOM     11  C   UNL d   1      -0.289  -1.595   3.959  0.00  0.00     0.001 A 
ENDROOT
BRANCH   1  12
ATOM     12  N   UNL d   1      -2.855  -0.135  -1.234  0.00  0.00    -0.312 N 
ATOM     13  C   UNL d   1      -3.831  -1.093  -1.198  0.00  0.00     0.256 C 
ATOM     14  O   UNL d   1      -3.852  -1.980  -0.355  0.00  0.00    -0.268 OA
ATOM     15  H   UNL d   1      -2.928   0.674  -1.829  0.00  0.00     0.166 HD
BRANCH  13  16
ATOM     16  C   UNL d   1      -4.912  -0.949  -2.208  0.00  0.00     0.047 A 
ATOM     17  C   UNL d   1      -6.172  -1.456  -1.929  0.00  0.00     0.105 A 
ATOM     18  N   UNL d   1      -7.248  -1.301  -2.744  0.00  0.00    -0.368 N 
ATOM     19  C   UNL d   1      -7.066  -0.620  -3.901  0.00  0.00     0.005 A 
ATOM     20  HN  UNL d   1      -8.160  -1.683  -2.493  1.00  0.00     0.165 HD
ATOM     21  C   UNL d   1      -5.824  -0.125  -4.285  0.00  0.00     0.025 A 
ATOM     22  C   UNL d   1      -8.270  -0.434  -4.777  0.00  0.00     0.068 C 
ATOM     23  C   UNL d   1      -4.736  -0.292  -3.427  0.00  0.00     0.020 A 
ENDBRANCH  13  16
ENDBRANCH   1  12
BRANCH   1  24
ATOM     24  O   UNL d   1      -1.104   1.115  -0.690  0.00  0.00    -0.358 OA
ATOM     25  H   UNL d   1      -0.988   1.688   0.088  0.00  0.00     0.213 HD
ENDBRANCH   1  24
TORSDOF 3
