REMARK  2 active torsions:
REMARK  status: ('A' for Active; 'I' for Inactive)
REMARK       I    between atoms: N_3  and  C_1 
REMARK       I    between atoms: N_6  and  C_1 
REMARK    1  A    between atoms: C_4  and  N_3 
REMARK    2  A    between atoms: C_9  and  N_6 
ROOT
ATOM      1  C   UNL d   1      -0.067  -1.100   0.878  0.00  0.00     0.321 C 
ATOM      2  N   UNL d   1       0.386  -1.194  -0.418  0.00  0.00    -0.330 N 
ATOM      3  N   UNL d   1      -0.617   0.133   1.140  0.00  0.00    -0.309 N 
ATOM      4  O   UNL d   1       0.002  -2.043   1.659  0.00  0.00    -0.247 OA
ATOM      5  H   UNL d   1       0.723  -0.343  -0.855  0.00  0.00     0.165 HD
ATOM      6  H   UNL d   1      -0.899   0.661   0.327  0.00  0.00     0.170 HD
ENDROOT
BRANCH   2   7
ATOM      7  C   UNL d   1       1.040  -2.426  -0.867  0.00  0.00     0.178 C 
ATOM      8  C   UNL d   1       2.105  -2.054  -1.909  0.00  0.00     0.240 C 
ATOM      9  N   UNL d   1       2.938  -3.046  -2.345  0.00  0.00    -0.359 N 
ATOM     10  O   UNL d   1       2.220  -0.913  -2.357  0.00  0.00    -0.271 OA
ATOM     11  C   UNL d   1       2.937  -4.420  -1.901  0.00  0.00     0.122 C 
ATOM     12  H   UNL d   1       3.616  -2.750  -3.039  0.00  0.00     0.162 HD
ATOM     13  C   UNL d   1       1.677  -5.159  -2.334  0.00  0.00     0.020 C 
ATOM     14  C   UNL d   1       0.455  -4.851  -1.468  0.00  0.00     0.004 C 
ATOM     15  C   UNL d   1       0.007  -3.389  -1.461  0.00  0.00     0.035 C 
ENDBRANCH   2   7
BRANCH   3  16
ATOM     16  C   UNL d   1      -1.049   0.599   2.400  0.00  0.00     0.036 A 
ATOM     17  C   UNL d   1      -0.650   0.013   3.606  0.00  0.00     0.031 A 
ATOM     18  C   UNL d   1      -1.079   0.536   4.830  0.00  0.00     0.026 A 
ATOM     19  C   UNL d   1      -1.915   1.647   4.853  0.00  0.00     0.034 A 
ATOM     20  C   UNL d   1      -2.326   2.239   3.661  0.00  0.00     0.026 A 
ATOM     21 CL   UNL d   1      -2.431   2.299   6.359  0.00  0.00    -0.084 Cl
ATOM     22  C   UNL d   1      -1.886   1.720   2.437  0.00  0.00     0.031 A 
ENDBRANCH   3  16
TORSDOF 2
