REMARK  6 active torsions:
REMARK  status: ('A' for Active; 'I' for Inactive)
REMARK    1  A    between atoms: C_2  and  C_1 
REMARK    2  A    between atoms: C_10  and  C_2 
REMARK    3  A    between atoms: C_16  and  N_3 
REMARK    4  A    between atoms: C_13  and  C_10 
REMARK    5  A    between atoms: C_11  and  C_14 
REMARK    6  A    between atoms: N_18  and  C_12 
ROOT
ATOM      1  C   UNL d   1      -0.571  -2.960   0.020  0.00  0.00     0.077 C 
ATOM      2  C   UNL d   1       0.522  -3.752  -0.003  0.00  0.00     0.104 C 
ENDROOT
BRANCH   1   3
ATOM      3  C   UNL d   1      -0.314  -1.572   0.170  0.00  0.00     0.160 A 
ATOM      4  N   UNL d   1      -0.151  -0.693  -0.910  0.00  0.00    -0.222 N 
ATOM      5  N   UNL d   1       0.119   0.532  -0.378  0.00  0.00    -0.219 N 
ATOM      6  N   UNL d   1       0.163   0.385   0.933  0.00  0.00    -0.226 N 
ATOM      7  HN  UNL d   1       0.260   1.400  -0.895  1.00  0.00     0.210 HD
ATOM      8  N   UNL d   1      -0.081  -0.904   1.286  0.00  0.00    -0.267 N 
ATOM      9  HN  UNL d   1       0.355   1.139   1.593  1.00  0.00     0.210 HD
ATOM     10  HN  UNL d   1      -0.084  -1.283   2.233  1.00  0.00     0.190 HD
BRANCH   4  11
ATOM     11  C   UNL d   1      -0.184  -0.848  -2.331  0.00  0.00     0.060 A 
ATOM     12  C   UNL d   1      -0.474  -2.058  -2.971  0.00  0.00     0.031 A 
ATOM     13  C   UNL d   1      -0.475  -2.147  -4.368  0.00  0.00     0.002 A 
ATOM     14  C   UNL d   1      -0.180  -1.033  -5.146  0.00  0.00     0.000 A 
ATOM     15  C   UNL d   1       0.112   0.177  -4.529  0.00  0.00     0.002 A 
ATOM     16  C   UNL d   1       0.107   0.272  -3.135  0.00  0.00     0.031 A 
ENDBRANCH   4  11
ENDBRANCH   1   3
BRANCH   1  17
ATOM     17  C   UNL d   1      -1.990  -3.435  -0.135  0.00  0.00     0.197 C 
ATOM     18  O   UNL d   1      -2.280  -4.370  -0.881  0.00  0.00    -0.286 OA
BRANCH  17  19
ATOM     19  C   UNL d   1      -3.130  -2.738   0.542  0.00  0.00     0.016 A 
ATOM     20  C   UNL d   1      -3.027  -2.036   1.750  0.00  0.00     0.031 A 
ATOM     21  C   UNL d   1      -4.160  -1.418   2.322  0.00  0.00     0.048 A 
ATOM     22  C   UNL d   1      -5.407  -1.554   1.692  0.00  0.00     0.016 A 
ATOM     23  C   UNL d   1      -5.525  -2.280   0.511  0.00  0.00     0.002 A 
ATOM     24  C   UNL d   1      -4.394  -2.863  -0.059  0.00  0.00     0.015 A 
BRANCH  21  25
ATOM     25  C   UNL d   1      -4.067  -0.627   3.607  0.00  0.00     0.417 C 
ATOM     26  F   UNL d   1      -2.801  -0.504   4.087  0.00  0.00    -0.166 F 
ATOM     27  F   UNL d   1      -4.543   0.642   3.469  0.00  0.00    -0.166 F 
ATOM     28  F   UNL d   1      -4.796  -1.189   4.611  0.00  0.00    -0.166 F 
ENDBRANCH  21  25
ENDBRANCH  17  19
ENDBRANCH   1  17
BRANCH   2  29
ATOM     29  N   UNL d   1       0.792  -5.090  -0.279  0.00  0.00    -0.398 N 
ATOM     30  C   UNL d   1       0.011  -5.920  -1.194  0.00  0.00     0.148 C 
ATOM     31  C   UNL d   1       1.919  -5.782   0.356  0.00  0.00     0.148 C 
ENDBRANCH   2  29
TORSDOF 6
