REMARK  4 active torsions:
REMARK  status: ('A' for Active; 'I' for Inactive)
REMARK    1  A    between atoms: N_3  and  S_1 
REMARK    2  A    between atoms: C_6  and  S_1 
REMARK       I    between atoms: N_2  and  C_5 
REMARK       I    between atoms: C_4  and  N_2 
REMARK       I    between atoms: N_9  and  C_4 
REMARK    3  A    between atoms: C_5  and  C_10 
REMARK    4  A    between atoms: C_20  and  N_9 
ROOT
ATOM      1  C   UNL d   1       0.313   0.534   1.988  0.00  0.00     0.074 A 
ATOM      2  C   UNL d   1      -0.254   2.066   4.276  0.00  0.00     0.026 A 
ATOM      3  C   UNL d   1      -0.302  -0.060   3.097  0.00  0.00     0.026 A 
ATOM      4  C   UNL d   1       0.664   1.884   2.024  0.00  0.00     0.026 A 
ATOM      5  C   UNL d   1      -0.568   0.701   4.247  0.00  0.00     0.018 A 
ATOM      6  C   UNL d   1       0.354   2.650   3.152  0.00  0.00     0.018 A 
ENDROOT
BRANCH   2   7
ATOM      7  C   UNL d   1      -0.434   2.923   5.486  0.00  0.00     0.239 C 
ATOM      8  N   UNL d   1      -0.774   2.308   6.667  0.00  0.00    -0.175 NA
ATOM      9  C   UNL d   1      -2.038   2.510   7.165  0.00  0.00     0.305 C 
ATOM     10  H   UNL d   1      -0.251   2.850   7.353  0.00  0.00     0.141 HD
ATOM     11  N   UNL d   1      -3.016   1.725   6.605  0.00  0.00    -0.313 N 
ATOM     12  O   UNL d   1      -2.172   3.279   8.113  0.00  0.00    -0.253 OA
ATOM     13  H   UNL d   1      -2.810   1.316   5.707  0.00  0.00     0.170 HD
ATOM     14  O   UNL d   1      -0.086   4.101   5.463  0.00  0.00    -0.274 OA
BRANCH  11  15
ATOM     15  C   UNL d   1      -4.326   1.536   7.100  0.00  0.00     0.035 A 
ATOM     16  C   UNL d   1      -5.237   0.850   6.288  0.00  0.00     0.031 A 
ATOM     17  C   UNL d   1      -6.556   0.643   6.714  0.00  0.00     0.026 A 
ATOM     18  C   UNL d   1      -6.963   1.106   7.961  0.00  0.00     0.034 A 
ATOM     19  C   UNL d   1      -6.061   1.760   8.792  0.00  0.00     0.026 A 
ATOM     20 CL   UNL d   1      -8.586   0.868   8.477  0.00  0.00    -0.084 Cl
ATOM     21  C   UNL d   1      -4.746   1.972   8.362  0.00  0.00     0.031 A 
ENDBRANCH  11  15
ENDBRANCH   2   7
BRANCH   1  22
ATOM     22  S   UNL d   1       0.845  -0.486   0.619  0.00  0.00     0.243 S 
ATOM     23  O   UNL d   1       2.132   0.010   0.185  0.00  0.00    -0.206 OA
ATOM     24  O   UNL d   1       0.686  -1.862   1.040  0.00  0.00    -0.206 OA
BRANCH  22  25
ATOM     25  N   UNL d   1      -0.302  -0.174  -0.601  0.00  0.00    -0.202 NA
ATOM     26  C   UNL d   1      -0.149   1.104  -1.374  0.00  0.00     0.134 C 
ATOM     27  C   UNL d   1       0.887   0.973  -2.503  0.00  0.00     0.183 C 
ATOM     28  O   UNL d   1       0.580  -0.125  -3.373  0.00  0.00    -0.389 OA
ATOM     29  C   UNL d   1       0.548  -1.357  -2.638  0.00  0.00     0.183 C 
ATOM     30  C   UNL d   1      -0.537  -1.307  -1.559  0.00  0.00     0.134 C 
ENDBRANCH  22  25
ENDBRANCH   1  22
TORSDOF 4
