REMARK  5 active torsions:
REMARK  status: ('A' for Active; 'I' for Inactive)
REMARK    1  A    between atoms: C_2  and  N_1 
REMARK    2  A    between atoms: C_10  and  C_5 
REMARK    3  A    between atoms: O_12  and  C_10 
REMARK    4  A    between atoms: C_13  and  C_10 
REMARK    5  A    between atoms: N_11  and  C_13 
ROOT
ATOM      1  C   UNL d   1       0.153   0.650   0.805  0.00  0.00     0.102 A 
ATOM      2  C   UNL d   1      -1.378   2.161   2.613  0.00  0.00    -0.028 A 
ATOM      3  C   UNL d   1       0.788   1.521   1.696  0.00  0.00     0.037 A 
ATOM      4  C   UNL d   1      -1.239   0.512   0.820  0.00  0.00     0.037 A 
ATOM      5  C   UNL d   1       0.022   2.266   2.597  0.00  0.00     0.012 A 
ATOM      6  C   UNL d   1      -1.995   1.261   1.727  0.00  0.00     0.012 A 
ENDROOT
BRANCH   2   7
ATOM      7  C   UNL d   1      -2.245   2.964   3.571  0.00  0.00     0.179 C 
BRANCH   7   8
ATOM      8  O   UNL d   1      -2.424   2.200   4.766  0.00  0.00    -0.389 OA
ATOM      9  H   UNL d   1      -1.560   1.819   4.996  0.00  0.00     0.210 HD
ENDBRANCH   7   8
BRANCH   7  10
ATOM     10  C   UNL d   1      -1.719   4.372   3.962  0.00  0.00     0.305 C 
BRANCH  10  11
ATOM     11  N   UNL d   1      -1.516   5.262   2.813  0.00  0.00     0.082 N 
ATOM     12  C   UNL d   1      -0.981   6.548   3.236  0.00  0.00     0.306 C 
ATOM     13  H   UNL d   1      -2.405   5.405   2.333  0.00  0.00     0.315 HD
ENDBRANCH  10  11
ENDBRANCH   7  10
ENDBRANCH   2   7
BRANCH   1  14
ATOM     14  N   UNL d   1       0.956  -0.121  -0.151  0.00  0.00    -0.116 N 
ATOM     15  O   UNL d   1       2.187   0.025  -0.124  0.00  0.00    -0.532 OA
ATOM     16  O   UNL d   1       0.355  -0.877  -0.930  0.00  0.00    -0.532 OA
ENDBRANCH   1  14
TORSDOF 5
