REMARK  9 active torsions:
REMARK  status: ('A' for Active; 'I' for Inactive)
REMARK    1  A    between atoms: O_9  and  C_1 
REMARK    2  A    between atoms: C_13  and  N_2 
REMARK    3  A    between atoms: C_7  and  O_15 
REMARK    4  A    between atoms: C_8  and  C_7 
REMARK    5  A    between atoms: C_22  and  O_9 
REMARK    6  A    between atoms: O_15  and  N_10 
REMARK    7  A    between atoms: C_12  and  C_14 
REMARK    8  A    between atoms: N_23  and  C_12 
REMARK    9  A    between atoms: C_14  and  C_13 
ROOT
ATOM      1  C   UNL d   1       5.786   1.226  -0.020  0.00  0.00     0.093 C 
ENDROOT
BRANCH   1   2
ATOM      2  C   UNL d   1       5.459   0.323   1.158  0.00  0.00     0.077 C 
ATOM      3  N   UNL d   1       4.832   0.862   2.156  0.00  0.00    -0.251 N 
ATOM      4  HN  UNL d   1       4.603   1.854   2.218  1.00  0.00     0.196 HD
BRANCH   3   5
ATOM      5  O   UNL d   1       4.503  -0.088   3.146  0.00  0.00    -0.194 OA
BRANCH   5   6
ATOM      6  C   UNL d   1       3.703   0.495   4.090  0.00  0.00     0.315 C 
ATOM      7  O   UNL d   1       3.386   1.674   4.174  0.00  0.00    -0.257 OA
BRANCH   6   8
ATOM      8  C   UNL d   1       3.229  -0.513   5.081  0.00  0.00     0.044 A 
ATOM      9  C   UNL d   1       2.483  -0.053   6.178  0.00  0.00     0.041 A 
ATOM     10  C   UNL d   1       2.013  -0.954   7.134  0.00  0.00     0.036 A 
ATOM     11 CL   UNL d   1       1.104  -0.375   8.477  0.00  0.00    -0.084 Cl
ATOM     12  C   UNL d   1       2.269  -2.313   7.013  0.00  0.00     0.047 A 
ATOM     13  C   UNL d   1       3.001  -2.773   5.919  0.00  0.00     0.036 A 
ATOM     14  C   UNL d   1       3.480  -1.886   4.952  0.00  0.00     0.041 A 
ATOM     15 CL   UNL d   1       3.320  -4.456   5.758  0.00  0.00    -0.084 Cl
ENDBRANCH   6   8
ENDBRANCH   5   6
ENDBRANCH   3   5
BRANCH   2  16
ATOM     16  N   UNL d   1       5.863  -0.986   1.080  0.00  0.00    -0.291 NA
ATOM     17  H   UNL d   1       5.948  -1.453   1.974  0.00  0.00     0.125 HD
ATOM     18  H   UNL d   1       6.636  -1.171   0.439  0.00  0.00     0.125 HD
ENDBRANCH   2  16
ENDBRANCH   1   2
BRANCH   1  19
ATOM     19  C   UNL d   1       7.154   1.881   0.137  0.00  0.00     0.156 C 
BRANCH  19  20
ATOM     20  N   UNL d   1       8.262   0.936   0.114  0.00  0.00    -0.293 N 
ATOM     21  C   UNL d   1       9.318   0.832   0.987  0.00  0.00     0.060 C 
ATOM     22  C   UNL d   1      10.031  -0.266   0.552  0.00  0.00     0.123 C 
ATOM     23  C   UNL d   1       9.558   1.735   2.139  0.00  0.00     0.073 C 
ATOM     24  C   UNL d   1       9.415  -0.683  -0.650  0.00  0.00     0.058 C 
ATOM     25  N   UNL d   1       8.290   0.009  -0.870  0.00  0.00    -0.300 N 
ATOM     26  C   UNL d   1       9.849  -1.720  -1.620  0.00  0.00     0.072 C 
ATOM     27  HN  UNL d   1       7.607  -0.132  -1.613  1.00  0.00     0.187 HD
BRANCH  22  28
ATOM     28  O   UNL d   1      11.132  -0.727   1.184  0.00  0.00    -0.307 OA
BRANCH  28  29
ATOM     29  C   UNL d   1      11.354  -2.077   1.334  0.00  0.00     0.076 A 
ATOM     30  C   UNL d   1      12.684  -2.497   1.374  0.00  0.00     0.039 A 
ATOM     31  C   UNL d   1      12.986  -3.852   1.542  0.00  0.00     0.026 A 
ATOM     32  C   UNL d   1      11.954  -4.780   1.675  0.00  0.00     0.034 A 
ATOM     33  C   UNL d   1      10.624  -4.364   1.655  0.00  0.00     0.026 A 
ATOM     34 CL   UNL d   1      12.321  -6.448   1.876  0.00  0.00    -0.084 Cl
ATOM     35  C   UNL d   1      10.324  -3.008   1.505  0.00  0.00     0.039 A 
ENDBRANCH  28  29
ENDBRANCH  22  28
ENDBRANCH  19  20
ENDBRANCH   1  19
TORSDOF 9
