REMARK  3 active torsions:
REMARK  status: ('A' for Active; 'I' for Inactive)
REMARK    1  A    between atoms: C_10  and  C_1 
REMARK    2  A    between atoms: C_14  and  C_8 
REMARK    3  A    between atoms: C_13  and  C_9 
ROOT
ATOM      1  N   UNL d   1      -1.326   3.039  -0.993  0.00  0.00    -0.339 N 
ATOM      2  HN  UNL d   1      -0.709   2.778  -1.762  1.00  0.00     0.167 HD
ATOM      3  C   UNL d   1      -1.940   4.235  -0.957  0.00  0.00     0.116 A 
ATOM      4  C   UNL d   1      -1.565   2.201   0.040  0.00  0.00     0.071 A 
ATOM      5  N   UNL d   1      -2.763   4.633   0.033  0.00  0.00    -0.352 N 
ATOM      6  HN  UNL d   1      -3.210   5.550   0.018  1.00  0.00     0.166 HD
ATOM      7  C   UNL d   1      -2.387   2.525   1.097  0.00  0.00     0.049 A 
ATOM      8  C   UNL d   1      -2.968   3.767   1.039  0.00  0.00     0.092 A 
ENDROOT
BRANCH   4   9
ATOM      9  C   UNL d   1      -0.901   0.914  -0.072  0.00  0.00     0.127 A 
ATOM     10  C   UNL d   1      -0.066   0.345  -1.001  0.00  0.00     0.074 A 
ATOM     11  C   UNL d   1       0.188  -0.966  -0.522  0.00  0.00     0.068 A 
ATOM     12  N   UNL d   1      -0.438  -1.157   0.652  0.00  0.00    -0.260 N 
ATOM     13  O   UNL d   1      -1.120   0.013   0.923  0.00  0.00    -0.235 OA
ATOM     14  HN  UNL d   1      -0.414  -1.999   1.227  1.00  0.00     0.195 HD
BRANCH  11  15
ATOM     15  C   UNL d   1       0.999  -2.009  -1.149  0.00  0.00    -0.007 A 
ATOM     16  C   UNL d   1       1.596  -3.014  -0.375  0.00  0.00     0.014 A 
ATOM     17  C   UNL d   1       2.387  -3.998  -0.974  0.00  0.00     0.001 A 
ATOM     18  C   UNL d   1       2.583  -3.991  -2.353  0.00  0.00     0.000 A 
ATOM     19  C   UNL d   1       1.985  -3.007  -3.137  0.00  0.00     0.001 A 
ATOM     20  C   UNL d   1       1.196  -2.020  -2.538  0.00  0.00     0.014 A 
ENDBRANCH  11  15
ENDBRANCH   4   9
BRANCH   3  21
ATOM     21  C   UNL d   1      -1.706   5.172  -2.077  0.00  0.00     0.008 A 
ATOM     22  C   UNL d   1      -0.853   4.846  -3.150  0.00  0.00     0.017 A 
ATOM     23  C   UNL d   1      -0.632   5.736  -4.209  0.00  0.00     0.025 A 
ATOM     24  C   UNL d   1      -1.266   6.974  -4.214  0.00  0.00     0.034 A 
ATOM     25  C   UNL d   1      -2.115   7.329  -3.173  0.00  0.00     0.025 A 
ATOM     26 CL   UNL d   1      -0.997   8.071  -5.512  0.00  0.00    -0.084 Cl
ATOM     27  C   UNL d   1      -2.331   6.436  -2.117  0.00  0.00     0.017 A 
ENDBRANCH   3  21
TORSDOF 3
