REMARK  4 active torsions:
REMARK  status: ('A' for Active; 'I' for Inactive)
REMARK    1  A    between atoms: C_2  and  S_1 
REMARK    2  A    between atoms: N_10  and  S_1 
REMARK    3  A    between atoms: S_9  and  C_4 
REMARK    4  A    between atoms: C_11  and  S_9 
ROOT
ATOM      1  C   UNL d   1       0.665  -1.594  -0.715  0.00  0.00     0.116 A 
ATOM      2  S   UNL d   1      -0.322  -1.655  -2.110  0.00  0.00    -0.070 SA
ATOM      3  C   UNL d   1      -0.198  -3.356  -2.211  0.00  0.00     0.047 A 
ATOM      4  C   UNL d   1       1.064  -2.857  -0.321  0.00  0.00     0.034 A 
ATOM      5  C   UNL d   1       0.566  -3.875  -1.188  0.00  0.00     0.028 A 
ENDROOT
BRANCH   3   6
ATOM      6  S   UNL d   1      -1.042  -4.284  -3.442  0.00  0.00    -0.083 SA
BRANCH   6   7
ATOM      7  C   UNL d   1       0.230  -4.296  -4.694  0.00  0.00     0.006 A 
ATOM      8  C   UNL d   1       1.137  -5.360  -4.764  0.00  0.00     0.020 A 
ATOM      9  C   UNL d   1       2.090  -5.409  -5.787  0.00  0.00     0.025 A 
ATOM     10  C   UNL d   1       2.133  -4.396  -6.743  0.00  0.00     0.034 A 
ATOM     11  C   UNL d   1       1.235  -3.333  -6.682  0.00  0.00     0.025 A 
ATOM     12 CL   UNL d   1       3.292  -4.468  -8.013  0.00  0.00    -0.084 Cl
ATOM     13  C   UNL d   1       0.283  -3.284  -5.661  0.00  0.00     0.020 A 
ENDBRANCH   6   7
ENDBRANCH   3   6
BRANCH   1  14
ATOM     14  S   UNL d   1       0.965   0.016  -0.043  0.00  0.00     0.245 S 
ATOM     15  O   UNL d   1       1.483   0.820  -1.123  0.00  0.00    -0.206 OA
ATOM     16  O   UNL d   1       1.692  -0.193   1.186  0.00  0.00    -0.206 OA
BRANCH  14  17
ATOM     17  N   UNL d   1      -0.523   0.686   0.371  0.00  0.00    -0.225 NA
ATOM     18  H   UNL d   1      -1.046   0.924  -0.473  0.00  0.00     0.136 HD
ATOM     19  H   UNL d   1      -0.367   1.505   0.958  0.00  0.00     0.136 HD
ENDBRANCH  14  17
ENDBRANCH   1  14
TORSDOF 4
