REMARK  7 active torsions:
REMARK  status: ('A' for Active; 'I' for Inactive)
REMARK    1  A    between atoms: C_7  and  C_1 
REMARK    2  A    between atoms: C_8  and  C_1 
REMARK    3  A    between atoms: N_10  and  C_2 
REMARK    4  A    between atoms: O_15  and  C_7 
REMARK    5  A    between atoms: O_14  and  C_8 
REMARK    6  A    between atoms: C_18  and  O_14 
REMARK    7  A    between atoms: C_17  and  O_15 
ROOT
ATOM      1  C   UNL d   1       1.030   0.026   0.030  0.00  0.00     0.129 C 
ATOM      2  C   UNL d   1       0.365  -0.820   0.843  0.00  0.00     0.114 C 
ENDROOT
BRANCH   1   3
ATOM      3  C   UNL d   1       0.278   0.966  -0.837  0.00  0.00     0.300 C 
ATOM      4  O   UNL d   1       0.720   2.035  -1.231  0.00  0.00    -0.259 OA
BRANCH   3   5
ATOM      5  O   UNL d   1      -1.002   0.542  -1.028  0.00  0.00    -0.318 OA
BRANCH   5   6
ATOM      6  C   UNL d   1      -1.919   1.549  -1.481  0.00  0.00     0.174 C 
ATOM      7  C   UNL d   1      -2.428   2.318  -0.274  0.00  0.00     0.034 C 
ENDBRANCH   5   6
ENDBRANCH   3   5
ENDBRANCH   1   3
BRANCH   1   8
ATOM      8  C   UNL d   1       2.499   0.129   0.156  0.00  0.00     0.300 C 
ATOM      9  O   UNL d   1       3.123  -0.227   1.150  0.00  0.00    -0.259 OA
BRANCH   8  10
ATOM     10  O   UNL d   1       3.041   0.667  -0.960  0.00  0.00    -0.318 OA
BRANCH  10  11
ATOM     11  C   UNL d   1       4.377   1.171  -0.822  0.00  0.00     0.174 C 
ATOM     12  C   UNL d   1       4.298   2.603  -0.325  0.00  0.00     0.034 C 
ENDBRANCH  10  11
ENDBRANCH   8  10
ENDBRANCH   1   8
BRANCH   2  13
ATOM     13  N   UNL d   1       0.851  -1.666   1.819  0.00  0.00    -0.344 N 
ATOM     14  C   UNL d   1       0.140  -2.426   2.677  0.00  0.00     0.172 A 
ATOM     15  C   UNL d   1      -1.195  -2.712   2.826  0.00  0.00     0.084 A 
ATOM     16  O   UNL d   1       0.839  -3.081   3.645  0.00  0.00    -0.220 OA
ATOM     17  C   UNL d   1      -1.251  -3.581   3.938  0.00  0.00     0.033 A 
ATOM     18  C   UNL d   1      -2.440  -4.212   4.551  0.00  0.00     0.070 C 
ATOM     19  N   UNL d   1      -0.032  -3.808   4.441  0.00  0.00    -0.264 N 
ATOM     20  HN  UNL d   1       0.206  -4.392   5.242  1.00  0.00     0.194 HD
ATOM     21  H   UNL d   1       1.861  -1.588   1.988  0.00  0.00     0.167 HD
ENDBRANCH   2  13
TORSDOF 7
