REMARK  1 active torsions:
REMARK  status: ('A' for Active; 'I' for Inactive)
REMARK    1  A    between atoms: C_5  and  C_1 
ROOT
ATOM      1  C   UNL d   1       0.692   1.158  -0.370  0.00  0.00     0.032 C 
ATOM      2  C   UNL d   1      -1.475  -0.071  -0.018  0.00  0.00     0.134 C 
ATOM      3  C   UNL d   1       0.701  -1.315   0.084  0.00  0.00     0.134 C 
ATOM      4  C   UNL d   1      -0.773  -1.340   0.380  0.00  0.00     0.156 C 
ATOM      5  C   UNL d   1       1.433  -0.009   0.300  0.00  0.00     0.088 C 
ATOM      6  C   UNL d   1      -0.733   1.227   0.205  0.00  0.00     0.088 C 
ATOM      7  O   UNL d   1      -2.658  -0.073  -0.355  0.00  0.00    -0.298 OA
ATOM      8  O   UNL d   1       1.315  -2.343  -0.198  0.00  0.00    -0.298 OA
ENDROOT
BRANCH   1   9
ATOM      9  C   UNL d   1       0.728   1.186  -1.899  0.00  0.00    -0.053 A 
ATOM     10  C   UNL d   1       1.416   0.234  -2.670  0.00  0.00     0.009 A 
ATOM     11  C   UNL d   1       1.442   0.312  -4.067  0.00  0.00     0.024 A 
ATOM     12  C   UNL d   1       0.789   1.352  -4.717  0.00  0.00     0.034 A 
ATOM     13  C   UNL d   1       0.117   2.319  -3.981  0.00  0.00     0.024 A 
ATOM     14 CL   UNL d   1       0.827   1.447  -6.434  0.00  0.00    -0.084 Cl
ATOM     15  C   UNL d   1       0.094   2.241  -2.584  0.00  0.00     0.009 A 
ENDBRANCH   1   9
TORSDOF 1
