REMARK  4 active torsions:
REMARK  status: ('A' for Active; 'I' for Inactive)
REMARK    1  A    between atoms: C_2  and  C_1 
REMARK       I    between atoms: N_3  and  C_2 
REMARK    2  A    between atoms: C_8  and  C_4 
REMARK    3  A    between atoms: O_17  and  C_10 
REMARK    4  A    between atoms: C_20  and  O_17 
ROOT
ATOM      1  C   UNL d   1       0.994  -0.112   0.172  0.00  0.00     0.113 C 
ATOM      2  C   UNL d   1       0.317  -0.597  -0.890  0.00  0.00     0.039 C 
ATOM      3  C   UNL d   1       0.331   0.393   1.319  0.00  0.00     0.105 C 
ATOM      4  N   UNL d   1      -0.209   0.842   2.246  0.00  0.00    -0.191 NA
ENDROOT
BRANCH   1   5
ATOM      5  C   UNL d   1       2.487  -0.216   0.108  0.00  0.00     0.264 C 
ATOM      6  N   UNL d   1       3.302   0.752   0.673  0.00  0.00    -0.343 N 
ATOM      7  C   UNL d   1       2.924   2.026   1.307  0.00  0.00     0.152 C 
ATOM      8  C   UNL d   1       4.759   0.553   0.629  0.00  0.00     0.152 C 
ATOM      9  C   UNL d   1       3.712   3.201   0.707  0.00  0.00     0.187 C 
ATOM     10  O   UNL d   1       5.125   2.962   0.725  0.00  0.00    -0.388 OA
ATOM     11  C   UNL d   1       5.445   1.766  -0.003  0.00  0.00     0.187 C 
ATOM     12  O   UNL d   1       2.973  -1.179  -0.493  0.00  0.00    -0.267 OA
ENDBRANCH   1   5
BRANCH   2  13
ATOM     13  C   UNL d   1      -1.141  -0.563  -1.022  0.00  0.00    -0.034 A 
ATOM     14  C   UNL d   1      -1.733   0.463  -1.765  0.00  0.00     0.014 A 
ATOM     15  C   UNL d   1      -3.125   0.563  -1.851  0.00  0.00     0.037 A 
ATOM     16  C   UNL d   1      -3.935  -0.363  -1.194  0.00  0.00     0.068 A 
ATOM     17  C   UNL d   1      -3.344  -1.413  -0.486  0.00  0.00     0.037 A 
ATOM     18  C   UNL d   1      -1.952  -1.510  -0.391  0.00  0.00     0.014 A 
BRANCH  16  19
ATOM     19  O   UNL d   1      -5.303  -0.360  -1.212  0.00  0.00    -0.352 OA
BRANCH  19  20
ATOM     20  C   UNL d   1      -5.915   0.923  -1.359  0.00  0.00     0.171 C 
ATOM     21  C   UNL d   1      -7.418   0.749  -1.229  0.00  0.00     0.034 C 
ENDBRANCH  19  20
ENDBRANCH  16  19
ENDBRANCH   2  13
TORSDOF 4
