REMARK  9 active torsions:
REMARK  status: ('A' for Active; 'I' for Inactive)
REMARK    1  A    between atoms: S_14  and  C_2 
REMARK    2  A    between atoms: C_26  and  C_7 
REMARK    3  A    between atoms: C_15  and  C_10 
REMARK    4  A    between atoms: C_11  and  C_33 
REMARK    5  A    between atoms: C_18  and  S_14 
REMARK    6  A    between atoms: C_16  and  C_18 
REMARK    7  A    between atoms: C_17  and  C_16 
REMARK    8  A    between atoms: S_24  and  C_26 
REMARK    9  A    between atoms: C_33  and  S_24 
ROOT
ATOM      1  N   UNL d   1       0.818   0.043   0.005  0.00  0.00    -0.319 N 
ATOM      2  C   UNL d   1      -0.031   1.107  -0.132  0.00  0.00     0.162 A 
ATOM      3  N   UNL d   1      -1.274   0.693  -0.043  0.00  0.00    -0.278 N 
ATOM      4  HN  UNL d   1      -2.106   1.282  -0.073  1.00  0.00     0.189 HD
ATOM      5  N   UNL d   1      -1.254  -0.672   0.100  0.00  0.00    -0.286 N 
ATOM      6  HN  UNL d   1      -2.071  -1.275   0.198  1.00  0.00     0.188 HD
ATOM      7  C   UNL d   1       0.004  -1.069   0.089  0.00  0.00     0.109 A 
ATOM      8  C   UNL d   1       2.258   0.045   0.045  0.00  0.00     0.159 C 
ENDROOT
BRANCH   7   9
ATOM      9  C   UNL d   1       0.467  -2.483   0.082  0.00  0.00     0.152 C 
BRANCH   9  10
ATOM     10  S   UNL d   1       0.958  -3.085   1.720  0.00  0.00    -0.155 SA
BRANCH  10  11
ATOM     11  C   UNL d   1      -0.684  -3.149   2.538  0.00  0.00     0.139 C 
BRANCH  11  12
ATOM     12  C   UNL d   1      -0.547  -3.734   3.918  0.00  0.00     0.060 A 
ATOM     13  N   UNL d   1      -0.772  -4.996   4.234  0.00  0.00    -0.352 N 
ATOM     14  C   UNL d   1      -0.466  -5.221   5.571  0.00  0.00     0.049 A 
ATOM     15  HN  UNL d   1      -1.121  -5.705   3.589  1.00  0.00     0.166 HD
ATOM     16  C   UNL d   1      -0.066  -4.095   6.266  0.00  0.00     0.081 A 
ATOM     17  S   UNL d   1      -0.053  -2.731   5.231  0.00  0.00    -0.086 SA
BRANCH  14  18
ATOM     18  C   UNL d   1      -0.591  -6.546   6.174  0.00  0.00    -0.009 A 
ATOM     19  C   UNL d   1       0.209  -6.945   7.257  0.00  0.00     0.015 A 
ATOM     20  C   UNL d   1       0.064  -8.217   7.822  0.00  0.00     0.024 A 
ATOM     21  C   UNL d   1      -0.881  -9.101   7.306  0.00  0.00     0.034 A 
ATOM     22  C   UNL d   1      -1.676  -8.726   6.227  0.00  0.00     0.024 A 
ATOM     23 CL   UNL d   1      -1.060 -10.663   8.003  0.00  0.00    -0.084 Cl
ATOM     24  C   UNL d   1      -1.528  -7.456   5.661  0.00  0.00     0.015 A 
ENDBRANCH  14  18
ENDBRANCH  11  12
ENDBRANCH  10  11
ENDBRANCH   9  10
ENDBRANCH   7   9
BRANCH   2  25
ATOM     25  S   UNL d   1       0.473   2.736  -0.433  0.00  0.00    -0.085 SA
BRANCH  25  26
ATOM     26  C   UNL d   1      -1.145   3.560  -0.515  0.00  0.00     0.166 C 
BRANCH  26  27
ATOM     27  C   UNL d   1      -1.046   5.042  -0.851  0.00  0.00     0.169 C 
ATOM     28  O   UNL d   1      -0.003   5.610  -1.163  0.00  0.00    -0.291 OA
BRANCH  27  29
ATOM     29  C   UNL d   1      -2.313   5.849  -0.800  0.00  0.00     0.011 A 
ATOM     30  C   UNL d   1      -3.564   5.262  -0.557  0.00  0.00     0.017 A 
ATOM     31  C   UNL d   1      -4.715   6.056  -0.478  0.00  0.00     0.025 A 
ATOM     32  C   UNL d   1      -4.625   7.435  -0.648  0.00  0.00     0.034 A 
ATOM     33  C   UNL d   1      -3.393   8.030  -0.912  0.00  0.00     0.025 A 
ATOM     34 CL   UNL d   1      -6.039   8.405  -0.525  0.00  0.00    -0.084 Cl
ATOM     35  C   UNL d   1      -2.241   7.238  -0.989  0.00  0.00     0.017 A 
ENDBRANCH  27  29
ENDBRANCH  26  27
ENDBRANCH  25  26
ENDBRANCH   2  25
TORSDOF 9
