REMARK  7 active torsions:
REMARK  status: ('A' for Active; 'I' for Inactive)
REMARK    1  A    between atoms: C_2  and  C_1 
REMARK    2  A    between atoms: C_5  and  O_18 
REMARK    3  A    between atoms: C_8  and  C_5 
REMARK    4  A    between atoms: S_16  and  C_6 
REMARK    5  A    between atoms: C_22  and  S_16 
REMARK    6  A    between atoms: O_18  and  C_23 
REMARK    7  A    between atoms: C_23  and  C_22 
ROOT
ATOM      1  S   UNL d   1      -1.300  -5.278  -1.877  0.00  0.00    -0.110 SA
ENDROOT
BRANCH   1   2
ATOM      2  C   UNL d   1      -0.520  -3.837  -1.170  0.00  0.00     0.069 A 
ATOM      3  C   UNL d   1      -1.175  -2.614  -1.219  0.00  0.00     0.038 A 
ATOM      4  C   UNL d   1      -0.546  -1.490  -0.679  0.00  0.00     0.020 A 
ATOM      5  C   UNL d   1       0.720  -1.616  -0.102  0.00  0.00     0.063 A 
ATOM      6  C   UNL d   1       1.291  -2.878  -0.092  0.00  0.00     0.105 A 
ATOM      7  N   UNL d   1       0.703  -3.979  -0.614  0.00  0.00    -0.360 N 
ATOM      8  HN  UNL d   1       1.168  -4.887  -0.588  1.00  0.00     0.166 HD
BRANCH   5   9
ATOM      9  C   UNL d   1       1.447  -0.444   0.481  0.00  0.00     0.418 C 
ATOM     10  F   UNL d   1       2.668  -0.759   0.993  0.00  0.00    -0.166 F 
ATOM     11  F   UNL d   1       0.759   0.147   1.496  0.00  0.00    -0.166 F 
ATOM     12  F   UNL d   1       1.672   0.537  -0.438  0.00  0.00    -0.166 F 
ENDBRANCH   5   9
ENDBRANCH   1   2
BRANCH   1  13
ATOM     13  C   UNL d   1      -0.048  -6.547  -1.485  0.00  0.00     0.107 C 
BRANCH  13  14
ATOM     14  C   UNL d   1      -0.473  -7.920  -1.998  0.00  0.00     0.189 C 
BRANCH  14  15
ATOM     15  O   UNL d   1       0.553  -8.893  -1.713  0.00  0.00    -0.317 OA
BRANCH  15  16
ATOM     16  C   UNL d   1       0.538  -9.410  -0.458  0.00  0.00     0.293 C 
ATOM     17  O   UNL d   1      -0.279  -9.150   0.410  0.00  0.00    -0.259 OA
BRANCH  16  18
ATOM     18  C   UNL d   1       1.704 -10.311  -0.245  0.00  0.00     0.039 A 
ATOM     19  C   UNL d   1       1.953 -10.774   1.053  0.00  0.00     0.018 A 
ATOM     20  C   UNL d   1       3.059 -11.588   1.313  0.00  0.00     0.007 A 
ATOM     21  C   UNL d   1       3.927 -11.957   0.278  0.00  0.00    -0.062 A 
ATOM     22  C   UNL d   1       3.668 -11.506  -1.022  0.00  0.00     0.007 A 
ATOM     23  C   UNL d   1       5.132 -12.800   0.578  0.00  0.00     0.048 C 
ATOM     24  C   UNL d   1       2.563 -10.689  -1.284  0.00  0.00     0.018 A 
ENDBRANCH  16  18
ENDBRANCH  15  16
ENDBRANCH  14  15
ENDBRANCH  13  14
ENDBRANCH   1  13
TORSDOF 7
