REMARK  2 active torsions:
REMARK  status: ('A' for Active; 'I' for Inactive)
REMARK    1  A    between atoms: C_8  and  C_1 
REMARK    2  A    between atoms: C_10  and  C_4 
ROOT
ATOM      1  C   UNL d   1      -0.738   1.233   0.073  0.00  0.00     0.047 C 
ATOM      2  S   UNL d   1      -0.957  -1.511   0.353  0.00  0.00    -0.029 SA
ATOM      3  C   UNL d   1      -1.618   0.053  -0.029  0.00  0.00     0.227 C 
ATOM      4  C   UNL d   1       0.732  -1.224   0.033  0.00  0.00     0.087 C 
ATOM      5  N   UNL d   1       1.308  -0.065  -0.020  0.00  0.00    -0.359 N 
ATOM      6  HN  UNL d   1       2.319  -0.015  -0.149  1.00  0.00     0.166 HD
ATOM      7  C   UNL d   1       0.593   1.086   0.094  0.00  0.00     0.105 C 
ATOM      8  O   UNL d   1      -2.808   0.159  -0.310  0.00  0.00    -0.279 OA
ENDROOT
BRANCH   1   9
ATOM      9  C   UNL d   1      -1.282   2.599   0.079  0.00  0.00    -0.020 A 
ATOM     10  C   UNL d   1      -1.565   3.247  -1.130  0.00  0.00     0.013 A 
ATOM     11  C   UNL d   1      -1.962   4.585  -1.135  0.00  0.00     0.007 A 
ATOM     12  C   UNL d   1      -2.083   5.294   0.066  0.00  0.00    -0.062 A 
ATOM     13  C   UNL d   1      -1.839   4.634   1.275  0.00  0.00     0.007 A 
ATOM     14  C   UNL d   1      -2.425   6.755   0.039  0.00  0.00     0.048 C 
ATOM     15  C   UNL d   1      -1.440   3.295   1.283  0.00  0.00     0.013 A 
ENDBRANCH   1   9
BRANCH   4  16
ATOM     16  C   UNL d   1       1.578  -2.442  -0.146  0.00  0.00    -0.002 A 
ATOM     17  C   UNL d   1       2.877  -2.444   0.381  0.00  0.00     0.014 A 
ATOM     18  C   UNL d   1       3.714  -3.545   0.186  0.00  0.00     0.001 A 
ATOM     19  C   UNL d   1       3.263  -4.643  -0.544  0.00  0.00     0.000 A 
ATOM     20  C   UNL d   1       1.974  -4.646  -1.077  0.00  0.00     0.001 A 
ATOM     21  C   UNL d   1       1.131  -3.549  -0.881  0.00  0.00     0.014 A 
ENDBRANCH   4  16
TORSDOF 2
