REMARK  5 active torsions:
REMARK  status: ('A' for Active; 'I' for Inactive)
REMARK    1  A    between atoms: C_6  and  C_1 
REMARK    2  A    between atoms: C_5  and  C_2 
REMARK    3  A    between atoms: O_10  and  C_5 
REMARK    4  A    between atoms: C_15  and  O_10 
REMARK    5  A    between atoms: C_23  and  C_18 
ROOT
ATOM      1  N   UNL d   1       6.755   0.657   0.748  0.00  0.00    -0.197 NA
ATOM      2  C   UNL d   1       6.306  -0.118   1.464  0.00  0.00     0.063 C 
ATOM      3  C   UNL d   1       5.708  -1.107   2.402  0.00  0.00     0.162 C 
ENDROOT
BRANCH   3   4
ATOM      4  C   UNL d   1       4.777  -2.127   1.758  0.00  0.00    -0.045 C 
ATOM      5  C   UNL d   1       4.901  -2.531   0.423  0.00  0.00     0.011 C 
ATOM      6  C   UNL d   1       3.771  -3.009  -0.256  0.00  0.00     0.038 C 
ATOM      7  C   UNL d   1       2.548  -3.099   0.429  0.00  0.00     0.079 C 
ATOM      8  C   UNL d   1       2.530  -3.054   1.816  0.00  0.00     0.038 C 
ATOM      9  C   UNL d   1       3.659  -2.575   2.484  0.00  0.00     0.011 C 
BRANCH   7  10
ATOM     10  O   UNL d   1       1.355  -2.864  -0.344  0.00  0.00    -0.275 OA
BRANCH  10  11
ATOM     11  C   UNL d   1       0.089  -2.546   0.236  0.00  0.00     0.303 C 
ATOM     12  O   UNL d   1      -0.559  -3.389   0.847  0.00  0.00    -0.259 OA
BRANCH  11  13
ATOM     13  C   UNL d   1      -0.373  -1.163   0.049  0.00  0.00     0.100 A 
ATOM     14  C   UNL d   1      -1.720  -0.563   0.005  0.00  0.00     0.087 A 
ATOM     15  N   UNL d   1      -1.589   0.769  -0.138  0.00  0.00    -0.259 N 
ATOM     16  O   UNL d   1      -0.272   1.071  -0.127  0.00  0.00    -0.241 OA
ATOM     17  HN  UNL d   1      -2.353   1.437  -0.237  1.00  0.00     0.195 HD
ATOM     18  C   UNL d   1       0.464  -0.056  -0.046  0.00  0.00     0.091 A 
ATOM     19  C   UNL d   1       1.911   0.234  -0.039  0.00  0.00     0.080 C 
BRANCH  14  20
ATOM     20  C   UNL d   1      -3.138  -1.034  -0.036  0.00  0.00     0.037 A 
ATOM     21  C   UNL d   1      -4.171  -0.281   0.607  0.00  0.00     0.048 A 
ATOM     22 CL   UNL d   1      -3.862   0.908   1.840  0.00  0.00    -0.083 Cl
ATOM     23  C   UNL d   1      -5.537  -0.450   0.297  0.00  0.00     0.025 A 
ATOM     24  C   UNL d   1      -5.934  -1.414  -0.617  0.00  0.00     0.003 A 
ATOM     25  C   UNL d   1      -4.960  -2.221  -1.196  0.00  0.00     0.025 A 
ATOM     26  C   UNL d   1      -3.583  -2.030  -0.926  0.00  0.00     0.048 A 
ATOM     27 CL   UNL d   1      -2.503  -3.031  -1.830  0.00  0.00    -0.083 Cl
ENDBRANCH  14  20
ENDBRANCH  11  13
ENDBRANCH  10  11
ENDBRANCH   7  10
ENDBRANCH   3   4
TORSDOF 5
