REMARK  4 active torsions:
REMARK  status: ('A' for Active; 'I' for Inactive)
REMARK    1  A    between atoms: C_2  and  C_1 
REMARK    2  A    between atoms: C_11  and  C_5 
REMARK    3  A    between atoms: N_17  and  N_19 
REMARK    4  A    between atoms: C_24  and  C_21 
ROOT
ATOM      1  C   UNL d   1      -1.572   2.254  -0.037  0.00  0.00     0.077 A 
ATOM      2  N   UNL d   1      -2.494   2.461   0.966  0.00  0.00    -0.333 N 
ATOM      3  HN  UNL d   1      -2.694   1.798   1.714  1.00  0.00     0.168 HD
ATOM      4  C   UNL d   1      -3.083   3.630   0.828  0.00  0.00     0.163 A 
ATOM      5  S   UNL d   1      -2.596   4.514  -0.572  0.00  0.00    -0.062 SA
ATOM      6  C   UNL d   1      -1.476   3.276  -0.957  0.00  0.00     0.085 A 
ATOM      7  N   UNL d   1      -3.987   4.170   1.690  0.00  0.00    -0.280 N 
ATOM      8  H   UNL d   1      -4.291   5.116   1.482  0.00  0.00     0.189 HD
ENDROOT
BRANCH   1   9
ATOM      9  C   UNL d   1      -0.735   1.022  -0.063  0.00  0.00     0.128 A 
ATOM     10  C   UNL d   1       0.254   0.712  -0.967  0.00  0.00     0.074 A 
ATOM     11  C   UNL d   1       0.826  -0.501  -0.502  0.00  0.00     0.069 A 
ATOM     12  N   UNL d   1       0.146  -0.951   0.563  0.00  0.00    -0.260 N 
ATOM     13  O   UNL d   1      -0.814   0.007   0.843  0.00  0.00    -0.235 OA
ATOM     14  HN  UNL d   1       0.305  -1.824   1.066  1.00  0.00     0.195 HD
BRANCH  11  15
ATOM     15  C   UNL d   1       1.965  -1.236  -1.053  0.00  0.00     0.014 A 
ATOM     16  C   UNL d   1       3.136  -0.608  -1.521  0.00  0.00     0.048 A 
ATOM     17  C   UNL d   1       4.179  -1.360  -2.070  0.00  0.00     0.048 A 
ATOM     18 CL   UNL d   1       3.406   1.101  -1.413  0.00  0.00    -0.083 Cl
ATOM     19  C   UNL d   1       4.075  -2.745  -2.142  0.00  0.00     0.035 A 
ATOM     20  C   UNL d   1       2.940  -3.391  -1.663  0.00  0.00     0.025 A 
ATOM     21 CL   UNL d   1       5.362  -3.663  -2.821  0.00  0.00    -0.084 Cl
ATOM     22  C   UNL d   1       1.891  -2.641  -1.121  0.00  0.00     0.017 A 
ENDBRANCH  11  15
ENDBRANCH   1   9
BRANCH   7  23
ATOM     23  N   UNL d   1      -4.063   3.722   2.971  0.00  0.00    -0.309 N 
ATOM     24  C   UNL d   1      -4.863   4.350   3.766  0.00  0.00     0.118 C 
ATOM     25  HN  UNL d   1      -3.512   2.925   3.290  1.00  0.00     0.186 HD
BRANCH  24  26
ATOM     26  C   UNL d   1      -4.938   3.971   5.191  0.00  0.00    -0.019 A 
ATOM     27  C   UNL d   1      -4.111   2.957   5.691  0.00  0.00     0.014 A 
ATOM     28  C   UNL d   1      -4.151   2.627   7.046  0.00  0.00     0.024 A 
ATOM     29  C   UNL d   1      -5.020   3.309   7.895  0.00  0.00     0.034 A 
ATOM     30  C   UNL d   1      -5.852   4.316   7.399  0.00  0.00     0.024 A 
ATOM     31 CL   UNL d   1      -5.064   2.913   9.568  0.00  0.00    -0.084 Cl
ATOM     32  C   UNL d   1      -5.812   4.652   6.042  0.00  0.00     0.014 A 
ENDBRANCH  24  26
ENDBRANCH   7  23
TORSDOF 4
