REMARK  4 active torsions:
REMARK  status: ('A' for Active; 'I' for Inactive)
REMARK    1  A    between atoms: C_7  and  N_1 
REMARK    2  A    between atoms: N_22  and  C_9 
REMARK    3  A    between atoms: C_20  and  C_15 
REMARK    4  A    between atoms: C_17  and  C_19 
ROOT
ATOM      1  N   UNL d   1       1.155  -0.716   0.018  0.00  0.00    -0.224 N 
ATOM      2  N   UNL d   1       1.182   0.651   0.038  0.00  0.00    -0.290 N 
ATOM      3  HN  UNL d   1       2.007   1.251   0.025  1.00  0.00     0.187 HD
ATOM      4  C   UNL d   1      -0.157  -1.189  -0.042  0.00  0.00     0.125 A 
ATOM      5  C   UNL d   1      -0.969  -0.078   0.001  0.00  0.00     0.081 A 
ATOM      6  C   UNL d   1      -0.100   1.038   0.077  0.00  0.00     0.062 A 
ENDROOT
BRANCH   1   7
ATOM      7  C   UNL d   1       2.373  -1.477   0.146  0.00  0.00     0.131 C 
ATOM      8  N   UNL d   1       2.312  -2.842   0.174  0.00  0.00    -0.325 N 
ATOM      9  C   UNL d   1       3.484  -3.419   0.523  0.00  0.00     0.136 C 
ATOM     10  HN  UNL d   1       1.468  -3.372  -0.045  1.00  0.00     0.169 HD
ATOM     11  N   UNL d   1       3.767  -4.757   0.595  0.00  0.00    -0.280 N 
ATOM     12  C   UNL d   1       4.678  -2.782   0.846  0.00  0.00     0.039 C 
ATOM     13  N   UNL d   1       4.943  -5.030   1.197  0.00  0.00    -0.301 N 
ATOM     14  C   UNL d   1       3.003  -5.838   0.029  0.00  0.00     0.179 C 
ATOM     15  C   UNL d   1       5.496  -3.821   1.377  0.00  0.00     0.036 C 
ATOM     16  HN  UNL d   1       5.322  -5.941   1.455  1.00  0.00     0.187 HD
ATOM     17  C   UNL d   1       6.770  -3.716   2.129  0.00  0.00     0.070 C 
ATOM     18  C   UNL d   1       4.767  -1.395   0.626  0.00  0.00    -0.042 C 
ATOM     19  C   UNL d   1       3.561  -0.752   0.301  0.00  0.00     0.058 C 
ATOM     20  C   UNL d   1       6.023  -0.582   0.715  0.00  0.00     0.049 C 
ENDBRANCH   1   7
BRANCH   4  21
ATOM     21  N   UNL d   1      -0.506  -2.500  -0.094  0.00  0.00    -0.384 N 
ATOM     22  H   UNL d   1       0.219  -3.203   0.080  0.00  0.00     0.157 HD
ATOM     23  H   UNL d   1      -1.447  -2.807   0.118  0.00  0.00     0.157 HD
ENDBRANCH   4  21
BRANCH   6  24
ATOM     24  C   UNL d   1      -0.457   2.454   0.195  0.00  0.00    -0.007 A 
ATOM     25  C   UNL d   1       0.388   3.446  -0.333  0.00  0.00     0.029 A 
ATOM     26  C   UNL d   1       0.067   4.810  -0.220  0.00  0.00     0.048 A 
ATOM     27  C   UNL d   1      -1.112   5.175   0.446  0.00  0.00     0.016 A 
ATOM     28  C   UNL d   1      -1.952   4.200   0.983  0.00  0.00     0.002 A 
ATOM     29  C   UNL d   1      -1.627   2.848   0.856  0.00  0.00     0.014 A 
BRANCH  26  30
ATOM     30  C   UNL d   1       0.966   5.876  -0.795  0.00  0.00     0.417 C 
ATOM     31  F   UNL d   1       2.056   5.386  -1.448  0.00  0.00    -0.166 F 
ATOM     32  F   UNL d   1       0.319   6.668  -1.696  0.00  0.00    -0.166 F 
ATOM     33  F   UNL d   1       1.450   6.720   0.159  0.00  0.00    -0.166 F 
ENDBRANCH  26  30
ENDBRANCH   6  24
TORSDOF 4
