REMARK  1 active torsions:
REMARK  status: ('A' for Active; 'I' for Inactive)
REMARK    1  A    between atoms: C_9  and  C_4 
REMARK       I    between atoms: N_13  and  C_9 
ROOT
ATOM      1  C   UNL d   1      -0.087  -0.853  -0.009  0.00  0.00    -0.026 A 
ATOM      2  C   UNL d   1      -0.376   0.515   0.011  0.00  0.00     0.024 A 
ATOM      3  C   UNL d   1      -1.835   0.674   0.018  0.00  0.00     0.168 A 
ATOM      4  C   UNL d   1       1.239  -1.315  -0.031  0.00  0.00     0.045 A 
ATOM      5  C   UNL d   1      -2.512  -0.687   0.037  0.00  0.00     0.022 A 
ATOM      6  C   UNL d   1      -1.340  -1.692  -0.004  0.00  0.00     0.057 A 
ATOM      7  C   UNL d   1       0.621   1.481   0.019  0.00  0.00    -0.047 A 
ATOM      8  C   UNL d   1       2.279  -0.358  -0.032  0.00  0.00    -0.045 A 
ATOM      9  C   UNL d   1       1.946   1.020   0.009  0.00  0.00     0.015 A 
ATOM     10  O   UNL d   1      -2.421   1.744   0.019  0.00  0.00    -0.291 OA
ATOM     11  C   UNL d   1      -3.410  -0.845  -1.191  0.00  0.00     0.023 C 
ATOM     12  C   UNL d   1      -3.328  -0.830   1.323  0.00  0.00     0.023 C 
ATOM     13  C   UNL d   1       0.385   2.962   0.009  0.00  0.00     0.049 C 
ATOM     14  C   UNL d   1       3.750  -0.670  -0.098  0.00  0.00     0.049 C 
ENDROOT
BRANCH   4  15
ATOM     15  C   UNL d   1       1.457  -2.791  -0.115  0.00  0.00     0.250 C 
ATOM     16  O   UNL d   1       0.746  -3.507  -0.804  0.00  0.00    -0.268 OA
ATOM     17  N   UNL d   1       2.446  -3.345   0.643  0.00  0.00    -0.366 N 
ATOM     18  H   UNL d   1       3.005  -2.835   1.310  0.00  0.00     0.159 HD
ATOM     19  H   UNL d   1       2.542  -4.352   0.599  0.00  0.00     0.159 HD
ENDBRANCH   4  15
TORSDOF 1
