REMARK  9 active torsions:
REMARK  status: ('A' for Active; 'I' for Inactive)
REMARK    1  A    between atoms: C_7  and  C_1 
REMARK    2  A    between atoms: C_6  and  C_2 
REMARK    3  A    between atoms: C_8  and  N_3 
REMARK    4  A    between atoms: O_10  and  C_4 
REMARK    5  A    between atoms: O_9  and  C_5 
REMARK    6  A    between atoms: O_14  and  C_6 
REMARK    7  A    between atoms: O_13  and  C_7 
REMARK    8  A    between atoms: C_17  and  O_13 
REMARK    9  A    between atoms: C_18  and  O_14 
ROOT
ATOM      1  C   UNL d   1      -0.175  -1.252  -0.005  0.00  0.00     0.152 A 
ATOM      2  C   UNL d   1       1.017   0.702  -0.026  0.00  0.00     0.152 A 
ATOM      3  N   UNL d   1       1.126  -0.703  -0.013  0.00  0.00    -0.296 N 
ATOM      4  C   UNL d   1      -1.054  -0.189   0.009  0.00  0.00     0.135 A 
ATOM      5  C   UNL d   1      -0.331   0.993  -0.029  0.00  0.00     0.135 A 
ENDROOT
BRANCH   3   6
ATOM      6  C   UNL d   1       2.350  -1.455  -0.023  0.00  0.00     0.040 A 
ATOM      7  C   UNL d   1       2.452  -2.669   0.672  0.00  0.00     0.030 A 
ATOM      8  C   UNL d   1       3.607  -3.452   0.576  0.00  0.00     0.002 A 
ATOM      9  C   UNL d   1       4.690  -3.010  -0.177  0.00  0.00     0.000 A 
ATOM     10  C   UNL d   1       4.621  -1.781  -0.829  0.00  0.00     0.002 A 
ATOM     11  C   UNL d   1       3.455  -1.010  -0.762  0.00  0.00     0.030 A 
ENDBRANCH   3   6
BRANCH   2  12
ATOM     12  C   UNL d   1       2.088   1.662   0.112  0.00  0.00     0.313 C 
ATOM     13  O   UNL d   1       3.114   1.508   0.763  0.00  0.00    -0.257 OA
BRANCH  12  14
ATOM     14  O   UNL d   1       1.758   2.818  -0.534  0.00  0.00    -0.317 OA
BRANCH  14  15
ATOM     15  C   UNL d   1       2.468   3.990  -0.119  0.00  0.00     0.175 C 
ATOM     16  C   UNL d   1       1.814   4.546   1.136  0.00  0.00     0.034 C 
ENDBRANCH  14  15
ENDBRANCH  12  14
ENDBRANCH   2  12
BRANCH   1  17
ATOM     17  C   UNL d   1      -0.533  -2.653  -0.096  0.00  0.00     0.313 C 
ATOM     18  O   UNL d   1       0.084  -3.532  -0.673  0.00  0.00    -0.257 OA
BRANCH  17  19
ATOM     19  O   UNL d   1      -1.713  -2.850   0.565  0.00  0.00    -0.317 OA
BRANCH  19  20
ATOM     20  C   UNL d   1      -2.170  -4.211   0.643  0.00  0.00     0.175 C 
ATOM     21  C   UNL d   1      -1.516  -4.920   1.817  0.00  0.00     0.034 C 
ENDBRANCH  19  20
ENDBRANCH  17  19
ENDBRANCH   1  17
BRANCH   5  22
ATOM     22  O   UNL d   1      -0.861   2.226   0.007  0.00  0.00    -0.356 OA
ATOM     23  H   UNL d   1      -1.833   2.142   0.006  0.00  0.00     0.218 HD
ENDBRANCH   5  22
BRANCH   4  24
ATOM     24  O   UNL d   1      -2.398  -0.259   0.026  0.00  0.00    -0.356 OA
ATOM     25  H   UNL d   1      -2.686  -1.186   0.131  0.00  0.00     0.218 HD
ENDBRANCH   4  24
TORSDOF 9
