REMARK  3 active torsions:
REMARK  status: ('A' for Active; 'I' for Inactive)
REMARK    1  A    between atoms: C_3  and  C_1 
REMARK    2  A    between atoms: C_6  and  C_3 
REMARK    3  A    between atoms: N_8  and  C_4 
ROOT
ATOM      1  N   UNL d   1       3.226   3.855  -6.477  0.00  0.00    -0.191 NA
ATOM      2  C   UNL d   1       2.713   3.328  -5.580  0.00  0.00     0.099 C 
ATOM      3  C   UNL d   1       0.865   1.396  -2.280  0.00  0.00     0.014 A 
ATOM      4  C   UNL d   1       0.182   1.531  -3.498  0.00  0.00     0.017 A 
ATOM      5  C   UNL d   1       2.156   1.926  -2.157  0.00  0.00     0.017 A 
ATOM      6  C   UNL d   1       2.086   2.676  -4.466  0.00  0.00     0.044 A 
ATOM      7  C   UNL d   1       0.791   2.163  -4.587  0.00  0.00     0.023 A 
ATOM      8  C   UNL d   1       2.765   2.558  -3.248  0.00  0.00     0.023 A 
ENDROOT
BRANCH   3   9
ATOM      9  C   UNL d   1       0.165   0.710  -1.156  0.00  0.00     0.183 C 
ATOM     10  O   UNL d   1      -1.061   0.717  -1.107  0.00  0.00    -0.288 OA
BRANCH   9  11
ATOM     11  C   UNL d   1       1.000  -0.004  -0.152  0.00  0.00     0.072 C 
ATOM     12  C   UNL d   1       0.442  -0.575   0.923  0.00  0.00     0.088 C 
BRANCH  12  13
ATOM     13  N   UNL d   1       1.043  -1.282   1.958  0.00  0.00    -0.398 N 
ATOM     14  C   UNL d   1       2.481  -1.504   2.091  0.00  0.00     0.148 C 
ATOM     15  C   UNL d   1       0.248  -1.901   3.022  0.00  0.00     0.148 C 
ENDBRANCH  12  13
ENDBRANCH   9  11
ENDBRANCH   3   9
TORSDOF 3
