REMARK  3 active torsions:
REMARK  status: ('A' for Active; 'I' for Inactive)
REMARK    1  A    between atoms: N_7  and  C_1 
REMARK    2  A    between atoms: O_11  and  C_2 
REMARK    3  A    between atoms: C_12  and  N_9 
ROOT
ATOM      1  C   UNL d   1      -0.156  -1.387   0.023  0.00  0.00     0.124 A 
ATOM      2  C   UNL d   1       1.104  -0.833  -0.012  0.00  0.00     0.187 A 
ATOM      3  N   UNL d   1       0.903   0.521  -0.024  0.00  0.00    -0.274 N 
ATOM      4  N   UNL d   1      -0.402   0.875  -0.030  0.00  0.00    -0.299 N 
ATOM      5  HN  UNL d   1      -0.798   1.815  -0.050  1.00  0.00     0.187 HD
ATOM      6  C   UNL d   1      -1.056  -0.298  -0.003  0.00  0.00     0.054 A 
ATOM      7  C   UNL d   1       1.913   1.549  -0.020  0.00  0.00     0.180 C 
ATOM      8  C   UNL d   1      -2.538  -0.322  -0.001  0.00  0.00     0.072 C 
ENDROOT
BRANCH   1   9
ATOM      9  N   UNL d   1      -0.499  -2.751   0.052  0.00  0.00    -0.294 N 
ATOM     10  N   UNL d   1       0.434  -3.450   0.500  0.00  0.00    -0.300 N 
ATOM     11  HN  UNL d   1       1.302  -3.049   0.854  1.00  0.00     0.187 HD
ATOM     12  HN  UNL d   1      -1.398  -3.122  -0.255  1.00  0.00     0.187 HD
BRANCH  10  13
ATOM     13  C   UNL d   1       0.190  -4.835   0.478  0.00  0.00     0.048 A 
ATOM     14  C   UNL d   1      -0.507  -5.492  -0.545  0.00  0.00     0.031 A 
ATOM     15  C   UNL d   1      -0.605  -6.887  -0.556  0.00  0.00     0.002 A 
ATOM     16  C   UNL d   1      -0.002  -7.640   0.451  0.00  0.00     0.000 A 
ATOM     17  C   UNL d   1       0.690  -6.999   1.476  0.00  0.00     0.002 A 
ATOM     18  C   UNL d   1       0.783  -5.607   1.485  0.00  0.00     0.031 A 
ENDBRANCH  10  13
ENDBRANCH   1   9
BRANCH   2  19
ATOM     19  O   UNL d   1       2.321  -1.376  -0.028  0.00  0.00    -0.343 OA
ATOM     20  H   UNL d   1       2.172  -2.342   0.008  0.00  0.00     0.219 HD
ENDBRANCH   2  19
TORSDOF 3
