REMARK  1 active torsions:
REMARK  status: ('A' for Active; 'I' for Inactive)
REMARK    1  A    between atoms: C_8  and  C_7 
ROOT
ATOM      1  C   UNL d   1       1.598   0.005   0.514  0.00  0.00     0.101 A 
ATOM      2  N   UNL d   1      -0.402   1.352   0.664  0.00  0.00    -0.299 N 
ATOM      3  N   UNL d   1      -0.478  -0.846   1.403  0.00  0.00    -0.299 N 
ATOM      4  C   UNL d   1       0.913   1.305   0.287  0.00  0.00     0.263 A 
ATOM      5  C   UNL d   1       0.816  -1.141   1.057  0.00  0.00     0.263 A 
ATOM      6  C   UNL d   1      -1.117   0.340   1.222  0.00  0.00     0.181 A 
ATOM      7  C   UNL d   1       2.915  -0.044   0.221  0.00  0.00     0.035 C 
ATOM      8  S   UNL d   1      -2.706   0.543   1.660  0.00  0.00    -0.040 SA
ATOM      9  O   UNL d   1       1.464   2.289  -0.194  0.00  0.00    -0.267 OA
ATOM     10  O   UNL d   1       1.236  -2.281   1.188  0.00  0.00    -0.267 OA
ATOM     11  H   UNL d   1      -0.869   2.238   0.517  0.00  0.00     0.171 HD
ATOM     12  H   UNL d   1      -1.007  -1.619   1.785  0.00  0.00     0.171 HD
ENDROOT
BRANCH   7  13
ATOM     13  C   UNL d   1       3.795  -1.210   0.391  0.00  0.00    -0.024 A 
ATOM     14  C   UNL d   1       4.519  -1.444   1.593  0.00  0.00    -0.016 A 
ATOM     15  C   UNL d   1       5.275  -2.638   1.703  0.00  0.00    -0.025 A 
ATOM     16  C   UNL d   1       4.532  -0.552   2.692  0.00  0.00     0.013 A 
ATOM     17  C   UNL d   1       5.990  -2.908   2.882  0.00  0.00     0.012 A 
ATOM     18  C   UNL d   1       5.309  -3.545   0.633  0.00  0.00     0.012 A 
ATOM     19  C   UNL d   1       5.985  -2.010   3.948  0.00  0.00     0.001 A 
ATOM     20  C   UNL d   1       5.259  -0.830   3.852  0.00  0.00     0.001 A 
ATOM     21  C   UNL d   1       4.628  -3.281  -0.553  0.00  0.00     0.002 A 
ATOM     22  C   UNL d   1       3.878  -2.116  -0.676  0.00  0.00     0.012 A 
ENDBRANCH   7  13
TORSDOF 1
