REMARK  6 active torsions:
REMARK  status: ('A' for Active; 'I' for Inactive)
REMARK    1  A    between atoms: C_8  and  C_2 
REMARK    2  A    between atoms: C_3  and  C_7 
REMARK    3  A    between atoms: C_4  and  C_6 
REMARK    4  A    between atoms: C_12  and  C_5 
REMARK    5  A    between atoms: C_9  and  C_12 
REMARK    6  A    between atoms: N_24  and  C_16 
ROOT
ATOM      1  C   UNL d   1      -2.558   3.898  -0.377  0.00  0.00     0.049 A 
ATOM      2  C   UNL d   1      -0.307   4.781  -0.688  0.00  0.00     0.049 A 
ATOM      3  C   UNL d   1      -0.628   2.399  -0.191  0.00  0.00    -0.001 A 
ATOM      4  C   UNL d   1      -1.695   4.971  -0.642  0.00  0.00     0.032 A 
ATOM      5  C   UNL d   1      -2.011   2.621  -0.145  0.00  0.00     0.030 A 
ATOM      6  C   UNL d   1       0.211   3.496  -0.446  0.00  0.00     0.030 A 
ENDROOT
BRANCH   3   7
ATOM      7  C   UNL d   1      -0.061   1.058  -0.042  0.00  0.00     0.086 A 
ATOM      8  O   UNL d   1      -0.948   0.012  -0.004  0.00  0.00    -0.306 OA
ATOM      9  C   UNL d   1      -0.223  -1.151   0.048  0.00  0.00     0.126 A 
ATOM     10  C   UNL d   1       1.125  -0.844   0.066  0.00  0.00     0.044 A 
ATOM     11  C   UNL d   1       1.227   0.565   0.019  0.00  0.00     0.041 A 
BRANCH   9  12
ATOM     12  C   UNL d   1      -0.874  -2.446   0.060  0.00  0.00     0.206 C 
ATOM     13  O   UNL d   1      -0.230  -3.498   0.069  0.00  0.00    -0.285 OA
BRANCH  12  14
ATOM     14  C   UNL d   1      -2.369  -2.485   0.059  0.00  0.00     0.074 C 
ATOM     15  C   UNL d   1      -3.015  -3.658   0.046  0.00  0.00     0.088 C 
BRANCH  15  16
ATOM     16  N   UNL d   1      -4.378  -3.933   0.050  0.00  0.00    -0.398 N 
ATOM     17  C   UNL d   1      -5.433  -2.922   0.071  0.00  0.00     0.148 C 
ATOM     18  C   UNL d   1      -4.878  -5.311   0.030  0.00  0.00     0.148 C 
ENDBRANCH  15  16
ENDBRANCH  12  14
ENDBRANCH   9  12
ENDBRANCH   3   7
BRANCH   1  19
ATOM     19  C   UNL d   1      -4.058   4.083  -0.376  0.00  0.00     0.417 C 
ATOM     20  F   UNL d   1      -4.447   5.353  -0.678  0.00  0.00    -0.166 F 
ATOM     21  F   UNL d   1      -4.678   3.278  -1.282  0.00  0.00    -0.166 F 
ATOM     22  F   UNL d   1      -4.620   3.795   0.830  0.00  0.00    -0.166 F 
ENDBRANCH   1  19
BRANCH   2  23
ATOM     23  C   UNL d   1       0.630   5.917  -1.028  0.00  0.00     0.417 C 
ATOM     24  F   UNL d   1      -0.012   7.072  -1.352  0.00  0.00    -0.166 F 
ATOM     25  F   UNL d   1       1.470   6.226  -0.003  0.00  0.00    -0.166 F 
ATOM     26  F   UNL d   1       1.429   5.625  -2.092  0.00  0.00    -0.166 F 
ENDBRANCH   2  23
TORSDOF 6
