REMARK  3 active torsions:
REMARK  status: ('A' for Active; 'I' for Inactive)
REMARK    1  A    between atoms: C_11  and  C_3 
REMARK    2  A    between atoms: O_12  and  C_8 
REMARK    3  A    between atoms: O_13  and  C_9 
ROOT
ATOM      1  C   UNL d   1       0.366   0.884  -0.037  0.00  0.00    -0.033 A 
ATOM      2  C   UNL d   1      -0.128  -0.406  -0.055  0.00  0.00     0.019 A 
ATOM      3  C   UNL d   1      -0.728   1.921  -0.008  0.00  0.00     0.060 A 
ATOM      4  C   UNL d   1      -1.583  -0.351  -0.056  0.00  0.00     0.161 A 
ATOM      5  C   UNL d   1      -2.036   1.088  -0.058  0.00  0.00     0.098 A 
ATOM      6  C   UNL d   1       1.737   1.079  -0.032  0.00  0.00     0.048 A 
ATOM      7  C   UNL d   1       0.681  -1.529  -0.054  0.00  0.00     0.055 A 
ATOM      8  C   UNL d   1       2.603  -0.033  -0.026  0.00  0.00     0.102 A 
ATOM      9  C   UNL d   1       2.072  -1.350  -0.036  0.00  0.00     0.102 A 
ATOM     10  O   UNL d   1      -2.298  -1.334  -0.061  0.00  0.00    -0.292 OA
ENDROOT
BRANCH   3  11
ATOM     11  C   UNL d   1      -0.669   2.829   1.204  0.00  0.00    -0.049 A 
ATOM     12  C   UNL d   1      -0.515   4.214   1.041  0.00  0.00     0.008 A 
ATOM     13  C   UNL d   1      -0.499   5.062   2.151  0.00  0.00     0.001 A 
ATOM     14  C   UNL d   1      -0.631   4.536   3.435  0.00  0.00     0.000 A 
ATOM     15  C   UNL d   1      -0.763   3.162   3.613  0.00  0.00     0.001 A 
ATOM     16  C   UNL d   1      -0.776   2.313   2.507  0.00  0.00     0.008 A 
ENDBRANCH   3  11
BRANCH   8  17
ATOM     17  O   UNL d   1       3.920   0.353  -0.003  0.00  0.00    -0.353 OA
ATOM     18  C   UNL d   1       4.931  -0.641   0.028  0.00  0.00     0.210 C 
ENDBRANCH   8  17
BRANCH   9  19
ATOM     19  O   UNL d   1       2.951  -2.401  -0.028  0.00  0.00    -0.353 OA
ATOM     20  C   UNL d   1       2.428  -3.723  -0.023  0.00  0.00     0.210 C 
ENDBRANCH   9  19
TORSDOF 3
