REMARK  6 active torsions:
REMARK  status: ('A' for Active; 'I' for Inactive)
REMARK    1  A    between atoms: S_5  and  C_1 
REMARK    2  A    between atoms: N_7  and  C_2 
REMARK    3  A    between atoms: N_11  and  C_3 
REMARK    4  A    between atoms: C_8  and  C_4 
REMARK    5  A    between atoms: C_12  and  S_5 
REMARK    6  A    between atoms: O_14  and  C_8 
ROOT
ATOM      1  C   UNL d   1      -0.650  -1.290   0.019  0.00  0.00     0.120 C 
ATOM      2  C   UNL d   1       0.754  -1.361   0.024  0.00  0.00     0.097 C 
ATOM      3  C   UNL d   1      -1.128   0.070   0.173  0.00  0.00     0.073 C 
ATOM      4  C   UNL d   1      -0.110   1.003   0.106  0.00  0.00     0.110 C 
ATOM      5  S   UNL d   1       1.400   0.247   0.046  0.00  0.00    -0.063 SA
ENDROOT
BRANCH   1   6
ATOM      6  S   UNL d   1      -1.649  -2.718  -0.101  0.00  0.00     0.183 S 
ATOM      7  O   UNL d   1      -1.316  -3.292  -1.391  0.00  0.00    -0.222 OA
ATOM      8  O   UNL d   1      -1.376  -3.416   1.143  0.00  0.00    -0.222 OA
BRANCH   6   9
ATOM      9  C   UNL d   1      -3.397  -2.392  -0.132  0.00  0.00     0.105 C 
ATOM     10  C   UNL d   1      -3.854  -1.637  -1.376  0.00  0.00     0.026 C 
ATOM     11  C   UNL d   1      -4.153  -3.730  -0.079  0.00  0.00     0.026 C 
ENDBRANCH   6   9
ENDBRANCH   1   6
BRANCH   2  12
ATOM     12  N   UNL d   1       1.648  -2.412  -0.007  0.00  0.00    -0.374 N 
ATOM     13  C   UNL d   1       3.024  -2.336   0.490  0.00  0.00     0.123 C 
ATOM     14  C   UNL d   1       3.769  -3.370  -0.340  0.00  0.00     0.021 C 
ATOM     15  C   UNL d   1       2.740  -4.464  -0.533  0.00  0.00     0.021 C 
ATOM     16  C   UNL d   1       1.405  -3.722  -0.609  0.00  0.00     0.123 C 
ENDBRANCH   2  12
BRANCH   3  17
ATOM     17  N   UNL d   1      -2.412   0.488   0.346  0.00  0.00    -0.397 N 
ATOM     18  H   UNL d   1      -3.060  -0.004   0.951  0.00  0.00     0.156 HD
ATOM     19  H   UNL d   1      -2.579   1.498   0.445  0.00  0.00     0.156 HD
ENDBRANCH   3  17
BRANCH   4  20
ATOM     20  C   UNL d   1      -0.218   2.459   0.125  0.00  0.00     0.302 C 
ATOM     21  O   UNL d   1      -1.270   3.079   0.254  0.00  0.00    -0.259 OA
BRANCH  20  22
ATOM     22  O   UNL d   1       1.001   3.060  -0.022  0.00  0.00    -0.322 OA
ATOM     23  C   UNL d   1       0.973   4.487  -0.040  0.00  0.00     0.213 C 
ENDBRANCH  20  22
ENDBRANCH   4  20
TORSDOF 6
