REMARK  2 active torsions:
REMARK  status: ('A' for Active; 'I' for Inactive)
REMARK    1  A    between atoms: C_11  and  C_4 
REMARK    2  A    between atoms: C_5  and  N_7 
ROOT
ATOM      1  N   UNL d   1       1.254  -0.455   0.443  0.00  0.00    -0.333 N 
ATOM      2  HN  UNL d   1       2.161  -0.738   0.072  1.00  0.00     0.168 HD
ATOM      3  C   UNL d   1       0.159  -1.175   0.349  0.00  0.00     0.149 A 
ATOM      4  C   UNL d   1       1.021   0.735   1.109  0.00  0.00     0.086 A 
ATOM      5  S   UNL d   1      -1.264  -0.362   0.888  0.00  0.00    -0.063 SA
ATOM      6  N   UNL d   1       0.100  -2.450  -0.093  0.00  0.00    -0.336 N 
ATOM      7  C   UNL d   1      -0.302   0.941   1.452  0.00  0.00     0.086 A 
ATOM      8  H   UNL d   1      -0.810  -2.864  -0.246  0.00  0.00     0.168 HD
ENDROOT
BRANCH   6   9
ATOM      9  C   UNL d   1       1.151  -3.398  -0.025  0.00  0.00     0.046 A 
ATOM     10  C   UNL d   1       2.074  -3.455   1.050  0.00  0.00    -0.034 A 
ATOM     11  C   UNL d   1       3.172  -4.334   0.985  0.00  0.00     0.015 A 
ATOM     12  C   UNL d   1       1.978  -2.633   2.310  0.00  0.00     0.050 C 
ATOM     13  C   UNL d   1       3.349  -5.204  -0.088  0.00  0.00    -0.061 A 
ATOM     14  C   UNL d   1       2.401  -5.206  -1.108  0.00  0.00     0.015 A 
ATOM     15  C   UNL d   1       4.545  -6.105  -0.122  0.00  0.00     0.048 C 
ATOM     16  C   UNL d   1       1.303  -4.322  -1.091  0.00  0.00    -0.034 A 
ATOM     17  C   UNL d   1       0.372  -4.386  -2.275  0.00  0.00     0.050 C 
ENDBRANCH   6   9
BRANCH   4  18
ATOM     18  C   UNL d   1       2.116   1.652   1.437  0.00  0.00     0.172 C 
ATOM     19  O   UNL d   1       1.915   2.700   2.046  0.00  0.00    -0.291 OA
ATOM     20  C   UNL d   1       3.517   1.278   1.009  0.00  0.00     0.098 C 
ENDBRANCH   4  18
TORSDOF 2
