REMARK  2 active torsions:
REMARK  status: ('A' for Active; 'I' for Inactive)
REMARK    1  A    between atoms: C_12  and  N_3 
REMARK    2  A    between atoms: C_9  and  C_4 
ROOT
ATOM      1  C   UNL d   1       0.210  -0.597  -0.009  0.00  0.00     0.186 A 
ATOM      2  C   UNL d   1       0.234   0.787   0.012  0.00  0.00     0.056 A 
ATOM      3  N   UNL d   1       1.517  -1.044   0.023  0.00  0.00    -0.233 N 
ATOM      4  C   UNL d   1      -1.050   1.418  -0.023  0.00  0.00     0.070 A 
ATOM      5  N   UNL d   1       2.365   0.009   0.112  0.00  0.00    -0.295 N 
ATOM      6  HN  UNL d   1       3.381  -0.034   0.201  1.00  0.00     0.187 HD
ATOM      7  C   UNL d   1       1.612   1.117   0.063  0.00  0.00     0.038 A 
ATOM      8  O   UNL d   1      -0.841  -1.402  -0.042  0.00  0.00    -0.255 OA
ATOM      9  C   UNL d   1      -2.069  -0.836  -0.079  0.00  0.00     0.290 A 
ATOM     10  C   UNL d   1      -2.151   0.639  -0.067  0.00  0.00     0.099 A 
ATOM     11  O   UNL d   1      -3.098  -1.502  -0.122  0.00  0.00    -0.260 OA
ATOM     12  C   UNL d   1       2.384   2.388   0.069  0.00  0.00     0.070 C 
ENDROOT
BRANCH   3  13
ATOM     13  C   UNL d   1       2.041  -2.371  -0.040  0.00  0.00     0.060 A 
ATOM     14  C   UNL d   1       3.420  -2.569   0.157  0.00  0.00     0.055 A 
ATOM     15  C   UNL d   1       3.962  -3.853   0.086  0.00  0.00     0.036 A 
ATOM     16 CL   UNL d   1       5.648  -4.086   0.343  0.00  0.00    -0.084 Cl
ATOM     17  C   UNL d   1       3.151  -4.949  -0.191  0.00  0.00     0.024 A 
ATOM     18  C   UNL d   1       1.785  -4.763  -0.390  0.00  0.00     0.004 A 
ATOM     19  C   UNL d   1       1.229  -3.481  -0.311  0.00  0.00     0.032 A 
ENDBRANCH   3  13
BRANCH   4  20
ATOM     20  C   UNL d   1      -1.253   2.899  -0.001  0.00  0.00     0.418 C 
ATOM     21  F   UNL d   1      -0.143   3.655   0.067  0.00  0.00    -0.166 F 
ATOM     22  F   UNL d   1      -1.927   3.308  -1.110  0.00  0.00    -0.166 F 
ATOM     23  F   UNL d   1      -2.023   3.262   1.061  0.00  0.00    -0.166 F 
ENDBRANCH   4  20
TORSDOF 2
