REMARK  7 active torsions:
REMARK  status: ('A' for Active; 'I' for Inactive)
REMARK    1  A    between atoms: N_2  and  C_1 
REMARK    2  A    between atoms: N_5  and  C_1 
REMARK       I    between atoms: C_4  and  N_2 
REMARK    3  A    between atoms: C_3  and  O_9 
REMARK    4  A    between atoms: C_6  and  C_4 
REMARK    5  A    between atoms: C_14  and  N_5 
REMARK    6  A    between atoms: C_16  and  C_8 
REMARK    7  A    between atoms: O_9  and  C_15 
ROOT
ATOM      1  C   UNL d   1       1.015   0.394  -0.032  0.00  0.00     0.179 C 
ATOM      2  S   UNL d   1       2.228   1.350  -0.665  0.00  0.00    -0.040 SA
ENDROOT
BRANCH   1   3
ATOM      3  N   UNL d   1       0.547  -0.799  -0.556  0.00  0.00    -0.300 N 
ATOM      4  C   UNL d   1       0.935  -1.674  -1.551  0.00  0.00     0.247 C 
ATOM      5  O   UNL d   1       0.066  -2.275  -2.174  0.00  0.00    -0.268 OA
ATOM      6  H   UNL d   1      -0.459  -0.860  -0.464  0.00  0.00     0.171 HD
BRANCH   4   7
ATOM      7  C   UNL d   1       2.389  -1.938  -1.759  0.00  0.00     0.075 C 
ATOM      8  C   UNL d   1       2.719  -2.963  -2.562  0.00  0.00     0.017 C 
BRANCH   8   9
ATOM      9  C   UNL d   1       4.059  -3.499  -2.867  0.00  0.00    -0.036 A 
ATOM     10  C   UNL d   1       5.253  -2.958  -2.374  0.00  0.00     0.011 A 
ATOM     11  C   UNL d   1       6.480  -3.558  -2.676  0.00  0.00     0.001 A 
ATOM     12  C   UNL d   1       6.532  -4.698  -3.476  0.00  0.00     0.000 A 
ATOM     13  C   UNL d   1       5.356  -5.237  -3.986  0.00  0.00     0.001 A 
ATOM     14  C   UNL d   1       4.131  -4.639  -3.684  0.00  0.00     0.011 A 
ENDBRANCH   8   9
ENDBRANCH   4   7
ENDBRANCH   1   3
BRANCH   1  15
ATOM     15  N   UNL d   1       0.342   0.862   1.076  0.00  0.00    -0.333 N 
ATOM     16  H   UNL d   1       0.549   1.835   1.281  0.00  0.00     0.168 HD
BRANCH  15  17
ATOM     17  C   UNL d   1      -0.474   0.198   2.023  0.00  0.00     0.034 A 
ATOM     18  C   UNL d   1      -0.594  -1.190   2.129  0.00  0.00     0.032 A 
ATOM     19  C   UNL d   1      -1.400  -1.773   3.119  0.00  0.00     0.039 A 
ATOM     20  C   UNL d   1      -2.106  -0.972   4.009  0.00  0.00     0.078 A 
ATOM     21  C   UNL d   1      -1.947   0.413   3.944  0.00  0.00     0.039 A 
ATOM     22  C   UNL d   1      -1.143   0.995   2.958  0.00  0.00     0.032 A 
BRANCH  20  23
ATOM     23  O   UNL d   1      -2.893  -1.421   5.023  0.00  0.00    -0.255 OA
BRANCH  23  24
ATOM     24  C   UNL d   1      -3.706  -2.568   4.803  0.00  0.00     0.530 C 
ATOM     25  F   UNL d   1      -3.687  -3.026   3.534  0.00  0.00    -0.144 F 
ATOM     26  F   UNL d   1      -3.308  -3.560   5.629  0.00  0.00    -0.144 F 
ATOM     27  F   UNL d   1      -4.983  -2.251   5.111  0.00  0.00    -0.144 F 
ENDBRANCH  23  24
ENDBRANCH  20  23
ENDBRANCH  15  17
ENDBRANCH   1  15
TORSDOF 7
