REMARK  3 active torsions:
REMARK  status: ('A' for Active; 'I' for Inactive)
REMARK    1  A    between atoms: C_13  and  C_8 
REMARK    2  A    between atoms: C_12  and  C_9 
REMARK    3  A    between atoms: C_15  and  C_16 
ROOT
ATOM      1  C   UNL d   1       0.109  -0.069  -0.575  0.00  0.00     0.152 A 
ATOM      2  N   UNL d   1       0.301  -0.154   0.803  0.00  0.00    -0.242 N 
ATOM      3  C   UNL d   1       1.364   0.066  -1.124  0.00  0.00     0.108 A 
ATOM      4  N   UNL d   1      -1.129  -0.103  -1.157  0.00  0.00    -0.336 N 
ATOM      5  HN  UNL d   1      -1.241  -0.048  -2.170  1.00  0.00     0.167 HD
ATOM      6  N   UNL d   1       1.614  -0.105   1.129  0.00  0.00    -0.290 N 
ATOM      7  HN  UNL d   1       2.017  -0.149   2.066  1.00  0.00     0.188 HD
ATOM      8  C   UNL d   1       2.279   0.013  -0.033  0.00  0.00     0.084 A 
ATOM      9  C   UNL d   1      -2.163  -0.209  -0.364  0.00  0.00     0.120 A 
ATOM     10  C   UNL d   1      -0.806  -0.264   1.661  0.00  0.00     0.034 A 
ATOM     11  C   UNL d   1      -2.046  -0.294   1.135  0.00  0.00     0.061 A 
ATOM     12 CL   UNL d   1       1.685   0.285  -2.782  0.00  0.00    -0.078 Cl
ATOM     13  C   UNL d   1      -0.589  -0.333   3.143  0.00  0.00     0.070 C 
ENDROOT
BRANCH   8  14
ATOM     14  C   UNL d   1       3.748   0.081  -0.051  0.00  0.00    -0.006 A 
ATOM     15  C   UNL d   1       4.456   0.623   1.029  0.00  0.00     0.014 A 
ATOM     16  C   UNL d   1       5.857   0.701   1.007  0.00  0.00     0.009 A 
ATOM     17  C   UNL d   1       6.601   0.244  -0.097  0.00  0.00    -0.051 A 
ATOM     18  C   UNL d   1       5.880  -0.305  -1.167  0.00  0.00     0.009 A 
ATOM     19  C   UNL d   1       4.484  -0.400  -1.136  0.00  0.00     0.014 A 
BRANCH  17  20
ATOM     20  C   UNL d   1       8.139   0.316  -0.103  0.00  0.00    -0.024 C 
ATOM     21  C   UNL d   1       8.775  -0.218  -1.407  0.00  0.00     0.019 C 
ATOM     22  C   UNL d   1       8.605   1.777   0.065  0.00  0.00     0.019 C 
ATOM     23  C   UNL d   1       8.697  -0.533   1.058  0.00  0.00     0.019 C 
ENDBRANCH  17  20
ENDBRANCH   8  14
BRANCH   9  24
ATOM     24  C   UNL d   1      -3.574  -0.251  -0.956  0.00  0.00     0.432 C 
ATOM     25  F   UNL d   1      -4.543  -0.336  -0.000  0.00  0.00    -0.165 F 
ATOM     26  F   UNL d   1      -3.860   0.859  -1.687  0.00  0.00    -0.165 F 
ATOM     27  F   UNL d   1      -3.756  -1.321  -1.776  0.00  0.00    -0.165 F 
ENDBRANCH   9  24
TORSDOF 3
