REMARK  5 active torsions:
REMARK  status: ('A' for Active; 'I' for Inactive)
REMARK    1  A    between atoms: C_3  and  C_1 
REMARK    2  A    between atoms: C_12  and  C_2 
REMARK    3  A    between atoms: C_4  and  C_9 
REMARK       I    between atoms: N_25  and  C_12 
REMARK    4  A    between atoms: C_20  and  C_24 
REMARK    5  A    between atoms: N_21  and  N_25 
ROOT
ATOM      1  C   UNL d   1      -0.103  -1.306   0.028  0.00  0.00     0.057 A 
ATOM      2  C   UNL d   1      -1.428  -0.790  -0.020  0.00  0.00     0.139 A 
ATOM      3  N   UNL d   1      -1.401   0.554  -0.129  0.00  0.00    -0.255 N 
ATOM      4  HN  UNL d   1      -2.202   1.178  -0.229  1.00  0.00     0.195 HD
ATOM      5  O   UNL d   1      -0.066   0.915  -0.080  0.00  0.00    -0.241 OA
ATOM      6  C   UNL d   1       0.710  -0.199   0.013  0.00  0.00     0.087 A 
ATOM      7  C   UNL d   1       2.171   0.015   0.038  0.00  0.00     0.080 C 
ENDROOT
BRANCH   1   8
ATOM      8  C   UNL d   1       0.275  -2.713   0.053  0.00  0.00     0.055 A 
ATOM      9  N   UNL d   1      -0.474  -3.600  -0.694  0.00  0.00    -0.347 N 
ATOM     10  C   UNL d   1      -0.057  -4.833  -0.474  0.00  0.00     0.102 A 
ATOM     11  HN  UNL d   1      -1.235  -3.341  -1.321  1.00  0.00     0.167 HD
ATOM     12  S   UNL d   1       1.350  -4.964   0.508  0.00  0.00    -0.080 SA
ATOM     13  C   UNL d   1       1.344  -3.265   0.727  0.00  0.00     0.082 A 
BRANCH  10  14
ATOM     14  C   UNL d   1      -0.762  -6.037  -1.032  0.00  0.00     0.073 A 
ATOM     15  N   UNL d   1      -0.344  -7.333  -0.764  0.00  0.00    -0.352 N 
ATOM     16  C   UNL d   1      -1.168  -8.192  -1.323  0.00  0.00     0.047 A 
ATOM     17  HN  UNL d   1       0.479  -7.582  -0.216  1.00  0.00     0.166 HD
ATOM     18  C   UNL d   1      -1.057  -9.670  -1.186  0.00  0.00     0.076 C 
ATOM     19  S   UNL d   1      -2.442  -7.503  -2.249  0.00  0.00    -0.087 SA
ATOM     20  C   UNL d   1      -1.887  -5.937  -1.827  0.00  0.00     0.083 A 
ENDBRANCH  10  14
ENDBRANCH   1   8
BRANCH   2  21
ATOM     21  C   UNL d   1      -2.696  -1.518   0.071  0.00  0.00     0.289 C 
ATOM     22  N   UNL d   1      -3.766  -0.864  -0.544  0.00  0.00    -0.265 N 
ATOM     23  H   UNL d   1      -3.613   0.045  -0.970  0.00  0.00     0.190 HD
ATOM     24  O   UNL d   1      -2.801  -2.597   0.650  0.00  0.00    -0.264 OA
BRANCH  22  25
ATOM     25  N   UNL d   1      -4.971  -1.500  -0.625  0.00  0.00    -0.308 N 
ATOM     26  C   UNL d   1      -5.928  -0.892  -1.248  0.00  0.00     0.126 C 
ATOM     27  HN  UNL d   1      -5.113  -2.421  -0.209  1.00  0.00     0.186 HD
BRANCH  26  28
ATOM     28  C   UNL d   1      -7.208  -1.544  -1.389  0.00  0.00     0.021 A 
ATOM     29  S   UNL d   1      -8.476  -0.761  -2.225  0.00  0.00    -0.101 SA
ATOM     30  C   UNL d   1      -9.535  -2.088  -1.994  0.00  0.00     0.050 A 
ATOM     31  C   UNL d   1      -8.937  -3.106  -1.286  0.00  0.00     0.008 A 
ATOM     32  C   UNL d   1      -7.594  -2.791  -0.934  0.00  0.00     0.021 A 
ENDBRANCH  26  28
ENDBRANCH  22  25
ENDBRANCH   2  21
TORSDOF 5
