REMARK  6 active torsions:
REMARK  status: ('A' for Active; 'I' for Inactive)
REMARK    1  A    between atoms: C_7  and  C_1 
REMARK    2  A    between atoms: C_10  and  C_12 
REMARK    3  A    between atoms: S_20  and  C_11 
REMARK    4  A    between atoms: C_15  and  C_18 
REMARK    5  A    between atoms: C_18  and  C_21 
REMARK    6  A    between atoms: C_21  and  S_20 
ROOT
ATOM      1  C   UNL d   1       2.085  -2.559  -0.012  0.00  0.00     0.065 A 
ATOM      2  N   UNL d   1       2.616  -3.121   1.092  0.00  0.00    -0.335 N 
ATOM      3  HN  UNL d   1       2.657  -2.621   1.980  1.00  0.00     0.168 HD
ATOM      4  C   UNL d   1       3.090  -4.372   0.966  0.00  0.00     0.145 A 
ATOM      5  N   UNL d   1       3.071  -5.086  -0.171  0.00  0.00    -0.347 N 
ATOM      6  HN  UNL d   1       3.447  -6.033  -0.216  1.00  0.00     0.167 HD
ATOM      7  C   UNL d   1       2.017  -3.219  -1.220  0.00  0.00     0.049 A 
ATOM      8  C   UNL d   1       2.533  -4.489  -1.245  0.00  0.00     0.092 A 
ENDROOT
BRANCH   4   9
ATOM      9  S   UNL d   1       3.731  -5.149   2.429  0.00  0.00    -0.086 SA
BRANCH   9  10
ATOM     10  C   UNL d   1       4.354  -6.694   1.703  0.00  0.00     0.166 C 
BRANCH  10  11
ATOM     11  C   UNL d   1       4.876  -7.604   2.793  0.00  0.00     0.169 C 
ATOM     12  O   UNL d   1       6.055  -7.558   3.143  0.00  0.00    -0.291 OA
BRANCH  11  13
ATOM     13  C   UNL d   1       3.960  -8.590   3.458  0.00  0.00     0.011 A 
ATOM     14  C   UNL d   1       2.596  -8.697   3.157  0.00  0.00     0.031 A 
ATOM     15  C   UNL d   1       1.782  -9.635   3.823  0.00  0.00     0.048 A 
ATOM     16  C   UNL d   1       2.353 -10.463   4.801  0.00  0.00     0.016 A 
ATOM     17  C   UNL d   1       3.710 -10.368   5.101  0.00  0.00     0.002 A 
ATOM     18  C   UNL d   1       4.508  -9.440   4.431  0.00  0.00     0.015 A 
BRANCH  15  19
ATOM     19  C   UNL d   1       0.310  -9.756   3.508  0.00  0.00     0.417 C 
ATOM     20  F   UNL d   1      -0.098  -8.930   2.504  0.00  0.00    -0.166 F 
ATOM     21  F   UNL d   1      -0.036 -11.014   3.117  0.00  0.00    -0.166 F 
ATOM     22  F   UNL d   1      -0.478  -9.464   4.578  0.00  0.00    -0.166 F 
ENDBRANCH  15  19
ENDBRANCH  11  13
ENDBRANCH  10  11
ENDBRANCH   9  10
ENDBRANCH   4   9
BRANCH   1  23
ATOM     23  C   UNL d   1       1.558  -1.205   0.150  0.00  0.00     0.089 A 
ATOM     24  N   UNL d   1       2.164  -0.188   0.882  0.00  0.00    -0.304 N 
ATOM     25  C   UNL d   1       1.348   0.936   0.762  0.00  0.00     0.112 A 
ATOM     26  C   UNL d   1       3.363  -0.162   1.606  0.00  0.00     0.099 A 
ATOM     27  C   UNL d   1       1.751   2.126   1.433  0.00  0.00     0.049 A 
ATOM     28  N   UNL d   1       0.298   0.700   0.011  0.00  0.00    -0.344 N 
ATOM     29  C   UNL d   1       2.896   2.144   2.139  0.00  0.00     0.005 A 
ATOM     30  C   UNL d   1       3.742   0.965   2.232  0.00  0.00     0.018 A 
ATOM     31  C   UNL d   1       0.404  -0.616  -0.365  0.00  0.00     0.036 A 
ATOM     32  HN  UNL d   1      -0.441   1.356  -0.240  1.00  0.00     0.167 HD
ATOM     33  C   UNL d   1      -0.673  -1.205  -1.199  0.00  0.00     0.070 C 
ENDBRANCH   1  23
TORSDOF 6
