REMARK  9 active torsions:
REMARK  status: ('A' for Active; 'I' for Inactive)
REMARK    1  A    between atoms: C_2  and  S_1 
REMARK    2  A    between atoms: C_15  and  S_1 
REMARK    3  A    between atoms: N_5  and  C_3 
REMARK       I    between atoms: C_6  and  N_5 
REMARK    4  A    between atoms: C_19  and  C_6 
REMARK    5  A    between atoms: O_18  and  C_9 
REMARK    6  A    between atoms: C_10  and  C_20 
REMARK    7  A    between atoms: O_17  and  C_10 
REMARK    8  A    between atoms: O_16  and  C_19 
REMARK    9  A    between atoms: C_20  and  O_16 
ROOT
ATOM      1  C   UNL d   1       0.381   0.162  -1.710  0.00  0.00     0.061 A 
ATOM      2  C   UNL d   1      -0.168   1.384  -3.726  0.00  0.00     0.069 A 
ATOM      3  C   UNL d   1       0.235   1.371  -2.393  0.00  0.00     0.055 A 
ATOM      4  C   UNL d   1      -0.390   0.155  -4.370  0.00  0.00     0.092 A 
ATOM      5  C   UNL d   1       0.148  -1.057  -2.348  0.00  0.00     0.026 A 
ATOM      6  C   UNL d   1      -0.232  -1.059  -3.692  0.00  0.00     0.040 A 
ENDROOT
BRANCH   2   7
ATOM      7  N   UNL d   1      -0.352   2.579  -4.464  0.00  0.00    -0.323 N 
ATOM      8  C   UNL d   1      -0.299   3.868  -3.955  0.00  0.00     0.245 C 
ATOM      9  O   UNL d   1      -0.126   4.169  -2.776  0.00  0.00    -0.271 OA
ATOM     10  H   UNL d   1      -0.551   2.427  -5.449  0.00  0.00     0.169 HD
BRANCH   8  11
ATOM     11  C   UNL d   1      -0.410   4.976  -5.011  0.00  0.00     0.271 C 
BRANCH  11  12
ATOM     12  O   UNL d   1       0.745   5.816  -5.127  0.00  0.00    -0.372 OA
BRANCH  12  13
ATOM     13  C   UNL d   1       1.923   5.083  -5.459  0.00  0.00     0.277 C 
BRANCH  13  14
ATOM     14  C   UNL d   1       1.845   4.591  -6.890  0.00  0.00     0.164 C 
ATOM     15  O   UNL d   1       1.931   3.415  -7.227  0.00  0.00    -0.648 OA
BRANCH  14  16
ATOM     16  O   UNL d   1       1.587   5.591  -7.764  0.00  0.00    -0.775 OA
ATOM     17  H   UNL d   1       1.459   6.442  -7.289  0.00  0.00     0.167 HD
ENDBRANCH  14  16
ENDBRANCH  13  14
ENDBRANCH  12  13
ENDBRANCH  11  12
ENDBRANCH   8  11
ENDBRANCH   2   7
BRANCH   4  18
ATOM     18  O   UNL d   1      -0.784   0.164  -5.683  0.00  0.00    -0.358 OA
ATOM     19  H   UNL d   1      -0.941  -0.755  -5.965  0.00  0.00     0.217 HD
ENDBRANCH   4  18
BRANCH   1  20
ATOM     20  S   UNL d   1       0.918   0.220  -0.014  0.00  0.00     0.175 S 
ATOM     21  O   UNL d   1       2.132   1.010   0.012  0.00  0.00    -0.223 OA
ATOM     22  O   UNL d   1       0.898  -1.141   0.481  0.00  0.00    -0.223 OA
BRANCH  20  23
ATOM     23  C   UNL d   1      -0.384   1.120   0.815  0.00  0.00     0.141 C 
ATOM     24  C   UNL d   1      -0.109   1.255   2.300  0.00  0.00     0.021 C 
ENDBRANCH  20  23
ENDBRANCH   1  20
TORSDOF 9
