REMARK  3 active torsions:
REMARK  status: ('A' for Active; 'I' for Inactive)
REMARK    1  A    between atoms: N_7  and  C_1 
REMARK    2  A    between atoms: C_10  and  C_2 
REMARK    3  A    between atoms: O_13  and  C_10 
ROOT
ATOM      1  C   UNL d   1      -0.723  -1.298  -0.005  0.00  0.00     0.152 A 
ATOM      2  C   UNL d   1       0.665  -1.312   0.001  0.00  0.00     0.086 A 
ATOM      3  N   UNL d   1      -0.030   0.860  -0.064  0.00  0.00    -0.301 N 
ATOM      4  HN  UNL d   1      -0.011   1.880  -0.087  1.00  0.00     0.187 HD
ATOM      5  C   UNL d   1      -1.103   0.062  -0.053  0.00  0.00     0.057 A 
ATOM      6  N   UNL d   1       1.019   0.017  -0.037  0.00  0.00    -0.296 N 
ATOM      7  C   UNL d   1      -2.469   0.645  -0.054  0.00  0.00     0.072 C 
ATOM      8  C   UNL d   1       2.345   0.597  -0.038  0.00  0.00     0.177 C 
ENDROOT
BRANCH   1   9
ATOM      9  N   UNL d   1      -1.609  -2.417   0.059  0.00  0.00    -0.111 N 
ATOM     10  O   UNL d   1      -1.407  -3.229   0.977  0.00  0.00    -0.532 OA
ATOM     11  O   UNL d   1      -2.527  -2.454  -0.765  0.00  0.00    -0.532 OA
ENDBRANCH   1   9
BRANCH   2  12
ATOM     12  C   UNL d   1       1.682  -2.393   0.014  0.00  0.00     0.225 C 
BRANCH  12  13
ATOM     13  O   UNL d   1       1.043  -3.650  -0.065  0.00  0.00    -0.395 OA
ATOM     14  H   UNL d   1       0.558  -3.796   0.772  0.00  0.00     0.209 HD
ENDBRANCH  12  13
ENDBRANCH   2  12
TORSDOF 3
