REMARK  6 active torsions:
REMARK  status: ('A' for Active; 'I' for Inactive)
REMARK    1  A    between atoms: S_7  and  C_1 
REMARK    2  A    between atoms: C_11  and  N_4 
REMARK    3  A    between atoms: C_10  and  S_7 
REMARK    4  A    between atoms: C_8  and  C_10 
REMARK    5  A    between atoms: O_12  and  C_8 
REMARK    6  A    between atoms: C_15  and  O_12 
ROOT
ATOM      1  C   UNL d   1       2.498   0.043  -0.116  0.00  0.00     0.148 A 
ATOM      2  N   UNL d   1       1.773   1.136  -0.082  0.00  0.00    -0.335 N 
ATOM      3  HN  UNL d   1       2.104   2.101  -0.080  1.00  0.00     0.168 HD
ATOM      4  N   UNL d   1       1.728  -1.091  -0.103  0.00  0.00    -0.326 N 
ATOM      5  C   UNL d   1       0.408  -0.693  -0.057  0.00  0.00     0.063 A 
ATOM      6  C   UNL d   1       0.471   0.699  -0.049  0.00  0.00     0.061 A 
ATOM      7  C   UNL d   1      -0.805  -1.394  -0.016  0.00  0.00     0.032 A 
ATOM      8  C   UNL d   1      -0.720   1.441  -0.006  0.00  0.00     0.032 A 
ATOM      9  C   UNL d   1      -1.980  -0.635   0.025  0.00  0.00     0.002 A 
ATOM     10  C   UNL d   1      -1.942   0.759   0.030  0.00  0.00     0.002 A 
ENDROOT
BRANCH   1  11
ATOM     11  S   UNL d   1       4.234   0.015  -0.134  0.00  0.00    -0.084 SA
BRANCH  11  12
ATOM     12  C   UNL d   1       4.589   1.545   0.778  0.00  0.00     0.193 C 
BRANCH  12  13
ATOM     13  C   UNL d   1       3.979   1.527   2.164  0.00  0.00     0.268 C 
ATOM     14  O   UNL d   1       3.756   0.531   2.842  0.00  0.00    -0.264 OA
BRANCH  13  15
ATOM     15  O   UNL d   1       3.742   2.811   2.565  0.00  0.00    -0.321 OA
BRANCH  15  16
ATOM     16  C   UNL d   1       2.913   2.954   3.726  0.00  0.00     0.174 C 
ATOM     17  C   UNL d   1       1.465   3.018   3.278  0.00  0.00     0.034 C 
ENDBRANCH  15  16
ENDBRANCH  13  15
ENDBRANCH  12  13
ENDBRANCH  11  12
ENDBRANCH   1  11
BRANCH   4  18
ATOM     18  C   UNL d   1       2.179  -2.469  -0.122  0.00  0.00     0.127 C 
ATOM     19  C   UNL d   1       2.361  -3.041   1.274  0.00  0.00     0.027 C 
ENDBRANCH   4  18
TORSDOF 6
