REMARK  8 active torsions:
REMARK  status: ('A' for Active; 'I' for Inactive)
REMARK    1  A    between atoms: C_10  and  N_1 
REMARK    2  A    between atoms: C_11  and  N_2 
REMARK    3  A    between atoms: C_9  and  C_10 
REMARK    4  A    between atoms: C_18  and  C_11 
REMARK    5  A    between atoms: O_13  and  C_22 
REMARK    6  A    between atoms: C_19  and  O_13 
REMARK    7  A    between atoms: C_22  and  C_18 
REMARK    8  A    between atoms: O_28  and  C_18 
ROOT
ATOM      1  N   UNL d   1      -1.542   0.363   0.229  0.00  0.00     0.096 N 
ATOM      2  N   UNL d   1       1.466   0.230  -0.364  0.00  0.00     0.094 N 
ATOM      3  C   UNL d   1       0.666  -0.907   0.164  0.00  0.00     0.302 C 
ATOM      4  C   UNL d   1      -0.842  -0.863  -0.212  0.00  0.00     0.303 C 
ATOM      5  C   UNL d   1       0.777   1.487   0.008  0.00  0.00     0.302 C 
ATOM      6  C   UNL d   1      -0.761   1.538  -0.219  0.00  0.00     0.303 C 
ENDROOT
BRANCH   2   7
ATOM      7  C   UNL d   1       1.663   0.046  -1.813  0.00  0.00     0.306 C 
BRANCH   7   8
ATOM      8  C   UNL d   1       2.529   1.038  -2.619  0.00  0.00     0.170 C 
BRANCH   8   9
ATOM      9  C   UNL d   1       3.968   1.221  -2.103  0.00  0.00     0.209 C 
BRANCH   9  10
ATOM     10  O   UNL d   1       4.640   2.115  -3.011  0.00  0.00    -0.349 OA
BRANCH  10  11
ATOM     11  C   UNL d   1       5.958   2.396  -2.783  0.00  0.00     0.069 A 
ATOM     12  C   UNL d   1       6.678   2.826  -3.903  0.00  0.00     0.040 A 
ATOM     13  C   UNL d   1       8.023   3.185  -3.790  0.00  0.00     0.045 A 
ATOM     14  C   UNL d   1       8.640   3.126  -2.547  0.00  0.00     0.116 A 
ATOM     15  C   UNL d   1       7.934   2.707  -1.423  0.00  0.00     0.045 A 
ATOM     16  F   UNL d   1       9.925   3.476  -2.429  0.00  0.00    -0.206 F 
ATOM     17  C   UNL d   1       6.589   2.342  -1.538  0.00  0.00     0.040 A 
ENDBRANCH  10  11
ENDBRANCH   9  10
ENDBRANCH   8   9
BRANCH   8  18
ATOM     18  O   UNL d   1       2.556   0.541  -3.977  0.00  0.00    -0.392 OA
ATOM     19  H   UNL d   1       3.146  -0.232  -3.999  0.00  0.00     0.210 HD
ENDBRANCH   8  18
ENDBRANCH   7   8
ENDBRANCH   2   7
BRANCH   1  20
ATOM     20  C   UNL d   1      -1.758   0.303   1.684  0.00  0.00     0.311 C 
BRANCH  20  21
ATOM     21  C   UNL d   1      -2.629   1.377   2.303  0.00  0.00    -0.027 A 
ATOM     22  C   UNL d   1      -2.405   1.711   3.653  0.00  0.00     0.048 A 
ATOM     23  C   UNL d   1      -3.214   2.657   4.241  0.00  0.00     0.105 A 
ATOM     24  O   UNL d   1      -3.114   3.096   5.524  0.00  0.00    -0.323 OA
ATOM     25  C   UNL d   1      -4.237   3.262   3.552  0.00  0.00     0.105 A 
ATOM     26  C   UNL d   1      -4.155   4.093   5.546  0.00  0.00     0.352 A 
ATOM     27  O   UNL d   1      -4.904   4.170   4.316  0.00  0.00    -0.323 OA
ATOM     28  C   UNL d   1      -4.514   2.939   2.242  0.00  0.00     0.040 A 
ATOM     29  C   UNL d   1      -3.708   1.979   1.617  0.00  0.00     0.012 A 
ENDBRANCH  20  21
ENDBRANCH   1  20
TORSDOF 8
