REMARK  8 active torsions:
REMARK  status: ('A' for Active; 'I' for Inactive)
REMARK    1  A    between atoms: C_2  and  S_1 
REMARK    2  A    between atoms: N_8  and  S_1 
REMARK       I    between atoms: C_6  and  N_7 
REMARK    3  A    between atoms: N_7  and  C_9 
REMARK    4  A    between atoms: C_20  and  N_8 
REMARK    5  A    between atoms: C_13  and  O_16 
REMARK    6  A    between atoms: C_15  and  C_20 
REMARK    7  A    between atoms: C_23  and  C_15 
REMARK    8  A    between atoms: O_16  and  C_23 
ROOT
ATOM      1  C   UNL d   1       4.718   0.323   1.233  0.00  0.00     0.047 C 
ENDROOT
BRANCH   1   2
ATOM      2  C   UNL d   1       5.236  -1.006   0.684  0.00  0.00     0.134 C 
BRANCH   2   3
ATOM      3  N   UNL d   1       4.801  -2.132   1.530  0.00  0.00    -0.315 N 
ATOM      4  H   UNL d   1       4.871  -2.016   2.541  0.00  0.00     0.172 HD
BRANCH   3   5
ATOM      5  S   UNL d   1       5.314  -3.681   1.099  0.00  0.00     0.258 S 
ATOM      6  O   UNL d   1       4.796  -4.591   2.093  0.00  0.00    -0.201 OA
ATOM      7  O   UNL d   1       5.061  -3.856  -0.317  0.00  0.00    -0.201 OA
BRANCH   5   8
ATOM      8  C   UNL d   1       7.068  -3.584   1.347  0.00  0.00     0.081 A 
ATOM      9  C   UNL d   1       7.556  -3.342   2.637  0.00  0.00     0.049 A 
ATOM     10  C   UNL d   1       8.931  -3.243   2.829  0.00  0.00     0.035 A 
ATOM     11 CL   UNL d   1       9.552  -2.919   4.400  0.00  0.00    -0.084 Cl
ATOM     12  C   UNL d   1       9.810  -3.400   1.756  0.00  0.00     0.024 A 
ATOM     13  C   UNL d   1       9.314  -3.659   0.476  0.00  0.00     0.003 A 
ATOM     14  C   UNL d   1       7.938  -3.751   0.267  0.00  0.00     0.025 A 
ENDBRANCH   5   8
ENDBRANCH   3   5
ENDBRANCH   2   3
ENDBRANCH   1   2
BRANCH   1  15
ATOM     15  C   UNL d   1       5.258   0.638   2.622  0.00  0.00     0.177 C 
BRANCH  15  16
ATOM     16  O   UNL d   1       6.694   0.613   2.612  0.00  0.00    -0.351 OA
BRANCH  16  17
ATOM     17  C   UNL d   1       7.263   0.800   3.845  0.00  0.00     0.070 A 
ATOM     18  C   UNL d   1       6.679   0.357   5.030  0.00  0.00     0.066 A 
ATOM     19  C   UNL d   1       7.230   0.644   6.275  0.00  0.00     0.037 A 
ATOM     20  C   UNL d   1       8.454   1.318   6.320  0.00  0.00     0.029 A 
ATOM     21  C   UNL d   1       9.092   1.703   5.133  0.00  0.00     0.005 A 
ATOM     22  C   UNL d   1       8.494   1.448   3.896  0.00  0.00     0.037 A 
BRANCH  19  23
ATOM     23  N   UNL d   1       6.578   0.300   7.484  0.00  0.00    -0.327 N 
ATOM     24  C   UNL d   1       5.336  -0.303   7.609  0.00  0.00     0.218 C 
ATOM     25  O   UNL d   1       4.596  -0.676   6.702  0.00  0.00    -0.274 OA
ATOM     26  C   UNL d   1       4.888  -0.480   9.035  0.00  0.00     0.117 C 
ATOM     27  H   UNL d   1       7.056   0.577   8.334  0.00  0.00     0.169 HD
ENDBRANCH  19  23
ENDBRANCH  16  17
ENDBRANCH  15  16
ENDBRANCH   1  15
TORSDOF 8
