REMARK  4 active torsions:
REMARK  status: ('A' for Active; 'I' for Inactive)
REMARK    1  A    between atoms: C_2  and  C_1 
REMARK       I    between atoms: N_8  and  C_2 
REMARK    2  A    between atoms: C_3  and  C_6 
REMARK    3  A    between atoms: C_4  and  C_7 
REMARK    4  A    between atoms: C_10  and  N_8 
ROOT
ATOM      1  C   UNL d   1       4.156   1.699  -0.849  0.00  0.00     0.050 A 
ATOM      2  C   UNL d   1       4.627   3.261   0.962  0.00  0.00     0.050 A 
ATOM      3  C   UNL d   1       2.386   3.161  -0.005  0.00  0.00     0.036 A 
ATOM      4  C   UNL d   1       5.050   2.263   0.074  0.00  0.00     0.032 A 
ATOM      5  C   UNL d   1       3.297   3.709   0.902  0.00  0.00     0.045 A 
ATOM      6  C   UNL d   1       2.825   2.157  -0.876  0.00  0.00     0.045 A 
ENDROOT
BRANCH   3   7
ATOM      7  N   UNL d   1       1.020   3.513  -0.041  0.00  0.00    -0.322 N 
ATOM      8  C   UNL d   1       0.402   4.545   0.653  0.00  0.00     0.264 C 
ATOM      9  O   UNL d   1       1.039   5.455   1.183  0.00  0.00    -0.267 OA
ATOM     10  H   UNL d   1       0.420   2.926  -0.609  0.00  0.00     0.169 HD
BRANCH   8  11
ATOM     11  C   UNL d   1      -1.059   4.479   0.716  0.00  0.00     0.094 A 
ATOM     12  C   UNL d   1      -1.976   3.566   0.223  0.00  0.00     0.057 A 
ATOM     13  C   UNL d   1      -3.318   3.868   0.604  0.00  0.00     0.032 A 
ATOM     14 CL   UNL d   1      -1.649   2.174  -0.727  0.00  0.00    -0.083 Cl
ATOM     15  C   UNL d   1      -3.400   5.010   1.365  0.00  0.00     0.052 A 
ATOM     16  S   UNL d   1      -1.871   5.721   1.604  0.00  0.00    -0.095 SA
ENDBRANCH   8  11
ENDBRANCH   3   7
BRANCH   2  17
ATOM     17  C   UNL d   1       5.558   3.847   1.998  0.00  0.00     0.417 C 
ATOM     18  F   UNL d   1       6.788   3.260   2.009  0.00  0.00    -0.166 F 
ATOM     19  F   UNL d   1       5.779   5.176   1.814  0.00  0.00    -0.166 F 
ATOM     20  F   UNL d   1       5.074   3.713   3.264  0.00  0.00    -0.166 F 
ENDBRANCH   2  17
BRANCH   1  21
ATOM     21  C   UNL d   1       4.599   0.611  -1.798  0.00  0.00     0.417 C 
ATOM     22  F   UNL d   1       5.866   0.168  -1.564  0.00  0.00    -0.166 F 
ATOM     23  F   UNL d   1       3.801  -0.490  -1.731  0.00  0.00    -0.166 F 
ATOM     24  F   UNL d   1       4.575   1.014  -3.098  0.00  0.00    -0.166 F 
ENDBRANCH   1  21
TORSDOF 4
