REMARK  3 active torsions:
REMARK  status: ('A' for Active; 'I' for Inactive)
REMARK    1  A    between atoms: C_2  and  S_1 
REMARK    2  A    between atoms: C_7  and  S_1 
REMARK    3  A    between atoms: C_4  and  C_3 
ROOT
ATOM      1  C   UNL d   1       0.263   0.214   1.725  0.00  0.00     0.145 C 
ATOM      2  C   UNL d   1       0.198  -0.015   0.398  0.00  0.00     0.050 C 
ATOM      3  C   UNL d   1       0.051   1.481   2.316  0.00  0.00     0.112 C 
ATOM      4  N   UNL d   1      -0.131   2.529   2.782  0.00  0.00    -0.191 NA
ENDROOT
BRANCH   1   5
ATOM      5  S   UNL d   1       0.751  -1.092   2.757  0.00  0.00     0.216 S 
ATOM      6  O   UNL d   1       2.181  -0.991   2.989  0.00  0.00    -0.216 OA
ATOM      7  O   UNL d   1       0.198  -2.337   2.250  0.00  0.00    -0.216 OA
BRANCH   5   8
ATOM      8  C   UNL d   1      -0.047  -0.801   4.330  0.00  0.00     0.065 A 
ATOM      9  C   UNL d   1      -1.306  -1.352   4.579  0.00  0.00     0.024 A 
ATOM     10  C   UNL d   1      -1.890  -1.196   5.840  0.00  0.00     0.008 A 
ATOM     11  C   UNL d   1      -1.220  -0.502   6.856  0.00  0.00    -0.062 A 
ATOM     12  C   UNL d   1       0.047   0.037   6.595  0.00  0.00     0.008 A 
ATOM     13  C   UNL d   1      -1.855  -0.356   8.209  0.00  0.00     0.048 C 
ATOM     14  C   UNL d   1       0.639  -0.118   5.339  0.00  0.00     0.024 A 
ENDBRANCH   5   8
ENDBRANCH   1   5
BRANCH   2  15
ATOM     15  C   UNL d   1      -0.136   1.021  -0.604  0.00  0.00     0.009 A 
ATOM     16  C   UNL d   1       0.869   1.810  -1.194  0.00  0.00     0.046 A 
ATOM     17 CL   UNL d   1       2.547   1.534  -0.870  0.00  0.00    -0.083 Cl
ATOM     18  C   UNL d   1       0.545   2.851  -2.072  0.00  0.00     0.025 A 
ATOM     19  C   UNL d   1      -0.787   3.109  -2.390  0.00  0.00     0.003 A 
ATOM     20  C   UNL d   1      -1.793   2.312  -1.848  0.00  0.00     0.025 A 
ATOM     21  C   UNL d   1      -1.472   1.277  -0.964  0.00  0.00     0.046 A 
ATOM     22 CL   UNL d   1      -2.777   0.329  -0.334  0.00  0.00    -0.083 Cl
ENDBRANCH   2  15
TORSDOF 3
