REMARK  4 active torsions:
REMARK  status: ('A' for Active; 'I' for Inactive)
REMARK    1  A    between atoms: C_2  and  S_1 
REMARK    2  A    between atoms: C_10  and  S_1 
REMARK    3  A    between atoms: N_16  and  C_5 
REMARK    4  A    between atoms: C_13  and  C_6 
ROOT
ATOM      1  C   UNL d   1       0.515   1.553   0.500  0.00  0.00     0.113 A 
ATOM      2  N   UNL d   1      -0.751   2.987   1.905  0.00  0.00    -0.330 N 
ATOM      3  HN  UNL d   1      -1.463   3.122   2.623  1.00  0.00     0.168 HD
ATOM      4  C   UNL d   1      -0.413   1.755   1.492  0.00  0.00     0.102 A 
ATOM      5  C   UNL d   1      -0.122   4.045   1.343  0.00  0.00     0.133 A 
ATOM      6  N   UNL d   1       0.799   3.929   0.361  0.00  0.00    -0.349 N 
ATOM      7  HN  UNL d   1       1.236   4.747  -0.064  1.00  0.00     0.167 HD
ATOM      8  C   UNL d   1       1.110   2.676  -0.027  0.00  0.00     0.116 A 
ENDROOT
BRANCH   1   9
ATOM      9  S   UNL d   1       1.089  -0.034   0.032  0.00  0.00     0.187 S 
ATOM     10  O   UNL d   1       0.971  -0.892   1.200  0.00  0.00    -0.222 OA
ATOM     11  O   UNL d   1       2.400   0.167  -0.560  0.00  0.00    -0.222 OA
BRANCH   9  12
ATOM     12  C   UNL d   1      -0.020  -0.652  -1.271  0.00  0.00     0.058 C 
ATOM     13  C   UNL d   1       0.012   0.287  -2.485  0.00  0.00     0.031 C 
ATOM     14  C   UNL d   1       0.486  -2.042  -1.702  0.00  0.00     0.031 C 
ATOM     15  C   UNL d   1      -1.459  -0.793  -0.765  0.00  0.00     0.031 C 
ENDBRANCH   9  12
ENDBRANCH   1   9
BRANCH   4  16
ATOM     16  N   UNL d   1      -1.147   0.731   2.084  0.00  0.00    -0.287 NA
ATOM     17  H   UNL d   1      -1.697   1.134   2.840  0.00  0.00     0.125 HD
ATOM     18  H   UNL d   1      -0.559  -0.043   2.399  0.00  0.00     0.125 HD
ENDBRANCH   4  16
BRANCH   5  19
ATOM     19  C   UNL d   1      -0.426   5.408   1.855  0.00  0.00     0.076 A 
ATOM     20  N   UNL d   1      -1.310   5.513   2.889  0.00  0.00    -0.363 N 
ATOM     21  C   UNL d   1      -1.573   6.742   3.383  0.00  0.00     0.088 A 
ATOM     22  HN  UNL d   1      -1.759   4.684   3.280  1.00  0.00     0.165 HD
ATOM     23  C   UNL d   1      -1.004   7.906   2.899  0.00  0.00     0.017 A 
ATOM     24  C   UNL d   1      -0.108   7.804   1.845  0.00  0.00     0.004 A 
ATOM     25  C   UNL d   1       0.185   6.547   1.318  0.00  0.00     0.033 A 
ENDBRANCH   5  19
TORSDOF 4
