REMARK  7 active torsions:
REMARK  status: ('A' for Active; 'I' for Inactive)
REMARK    1  A    between atoms: N_2  and  C_1 
REMARK    2  A    between atoms: O_8  and  C_4 
REMARK    3  A    between atoms: C_5  and  C_6 
REMARK    4  A    between atoms: N_18  and  C_5 
REMARK    5  A    between atoms: C_19  and  O_8 
REMARK    6  A    between atoms: O_20  and  N_10 
REMARK    7  A    between atoms: C_12  and  C_13 
ROOT
ATOM      1  C   UNL d   1      -1.644  -6.394   1.073  0.00  0.00     0.137 A 
ATOM      2  C   UNL d   1      -2.497  -6.052   2.136  0.00  0.00     0.053 A 
ATOM      3  C   UNL d   1      -0.582  -7.289   1.244  0.00  0.00     0.109 A 
ATOM      4  C   UNL d   1      -2.292  -6.645   3.384  0.00  0.00     0.006 A 
ATOM      5  C   UNL d   1      -0.457  -7.944   2.474  0.00  0.00     0.041 A 
ATOM      6  C   UNL d   1      -1.287  -7.607   3.544  0.00  0.00     0.018 A 
ENDROOT
BRANCH   3   7
ATOM      7  O   UNL d   1       0.292  -7.529   0.205  0.00  0.00    -0.308 OA
BRANCH   7   8
ATOM      8  C   UNL d   1       1.627  -7.734   0.490  0.00  0.00     0.076 A 
ATOM      9  C   UNL d   1       2.314  -8.623  -0.333  0.00  0.00     0.038 A 
ATOM     10  C   UNL d   1       3.676  -8.875  -0.117  0.00  0.00     0.011 A 
ATOM     11  C   UNL d   1       4.389  -8.241   0.920  0.00  0.00    -0.050 A 
ATOM     12  C   UNL d   1       3.673  -7.352   1.737  0.00  0.00     0.011 A 
ATOM     13  C   UNL d   1       2.320  -7.077   1.508  0.00  0.00     0.038 A 
BRANCH  11  14
ATOM     14  C   UNL d   1       5.902  -8.480   1.091  0.00  0.00    -0.024 C 
ATOM     15  C   UNL d   1       6.526  -7.688   2.264  0.00  0.00     0.019 C 
ATOM     16  C   UNL d   1       6.194  -9.973   1.344  0.00  0.00     0.019 C 
ATOM     17  C   UNL d   1       6.632  -8.034  -0.194  0.00  0.00     0.019 C 
ENDBRANCH  11  14
ENDBRANCH   7   8
ENDBRANCH   3   7
BRANCH   1  18
ATOM     18  N   UNL d   1      -1.904  -5.798  -0.225  0.00  0.00    -0.113 N 
ATOM     19  O   UNL d   1      -2.033  -4.568  -0.262  0.00  0.00    -0.532 OA
ATOM     20  O   UNL d   1      -2.033  -6.566  -1.190  0.00  0.00    -0.532 OA
ENDBRANCH   1  18
BRANCH   4  21
ATOM     21  C   UNL d   1      -3.149  -6.288   4.550  0.00  0.00     0.108 C 
ATOM     22  N   UNL d   1      -4.360  -5.867   4.327  0.00  0.00    -0.258 N 
ATOM     23  HN  UNL d   1      -4.777  -5.761   3.402  1.00  0.00     0.195 HD
BRANCH  22  24
ATOM     24  O   UNL d   1      -5.014  -5.580   5.537  0.00  0.00    -0.289 OA
ATOM     25  H   UNL d   1      -5.929  -5.417   5.240  0.00  0.00     0.244 HD
ENDBRANCH  22  24
BRANCH  21  26
ATOM     26  N   UNL d   1      -2.633  -6.414   5.818  0.00  0.00    -0.287 NA
ATOM     27  H   UNL d   1      -1.682  -6.082   5.932  0.00  0.00     0.125 HD
ATOM     28  H   UNL d   1      -3.265  -5.975   6.483  0.00  0.00     0.125 HD
ENDBRANCH  21  26
ENDBRANCH   4  21
TORSDOF 7
