REMARK  5 active torsions:
REMARK  status: ('A' for Active; 'I' for Inactive)
REMARK    1  A    between atoms: C_2  and  S_1 
REMARK    2  A    between atoms: N_3  and  S_1 
REMARK    3  A    between atoms: C_11  and  N_3 
REMARK    4  A    between atoms: C_5  and  C_9 
REMARK    5  A    between atoms: O_17  and  C_5 
ROOT
ATOM      1  N   UNL d   1       0.620  -0.050   1.612  0.00  0.00    -0.281 N 
ATOM      2  H   UNL d   1       0.550  -0.147   0.601  0.00  0.00     0.179 HD
ENDROOT
BRANCH   1   3
ATOM      3  S   UNL d   1       0.426   1.481   2.240  0.00  0.00     0.263 S 
ATOM      4  O   UNL d   1       0.103   2.335   1.117  0.00  0.00    -0.200 OA
ATOM      5  O   UNL d   1      -0.426   1.418   3.409  0.00  0.00    -0.200 OA
BRANCH   3   6
ATOM      6  C   UNL d   1       2.063   1.929   2.782  0.00  0.00     0.081 A 
ATOM      7  C   UNL d   1       2.450   1.654   4.098  0.00  0.00     0.050 A 
ATOM      8  C   UNL d   1       3.698   2.088   4.556  0.00  0.00     0.057 A 
ATOM      9 CL   UNL d   1       4.126   1.709   6.186  0.00  0.00    -0.083 Cl
ATOM     10  C   UNL d   1       4.548   2.810   3.707  0.00  0.00     0.055 A 
ATOM     11  C   UNL d   1       4.151   3.085   2.393  0.00  0.00     0.027 A 
ATOM     12 CL   UNL d   1       6.085   3.405   4.222  0.00  0.00    -0.083 Cl
ATOM     13  C   UNL d   1       2.908   2.647   1.928  0.00  0.00     0.027 A 
ENDBRANCH   3   6
ENDBRANCH   1   3
BRANCH   1  14
ATOM     14  C   UNL d   1       0.953  -1.167   2.407  0.00  0.00     0.043 A 
ATOM     15  C   UNL d   1       2.277  -1.594   2.430  0.00  0.00     0.047 A 
ATOM     16  C   UNL d   1       2.616  -2.792   3.069  0.00  0.00     0.041 A 
ATOM     17  C   UNL d   1       1.619  -3.546   3.701  0.00  0.00     0.018 A 
ATOM     18  C   UNL d   1       0.293  -3.105   3.687  0.00  0.00     0.003 A 
ATOM     19  C   UNL d   1      -0.042  -1.915   3.034  0.00  0.00     0.030 A 
BRANCH  16  20
ATOM     20  C   UNL d   1       4.006  -3.322   3.036  0.00  0.00     0.293 C 
ATOM     21  O   UNL d   1       4.354  -4.358   3.577  0.00  0.00    -0.259 OA
BRANCH  20  22
ATOM     22  O   UNL d   1       4.790  -2.508   2.288  0.00  0.00    -0.323 OA
ATOM     23  C   UNL d   1       6.123  -2.980   2.092  0.00  0.00     0.213 C 
ENDBRANCH  20  22
ENDBRANCH  16  20
ENDBRANCH   1  14
TORSDOF 5
