REMARK  1 active torsions:
REMARK  status: ('A' for Active; 'I' for Inactive)
REMARK    1  A    between atoms: C_12  and  N_1 
ROOT
ATOM      1  N   UNL d   1       1.438   0.774  -0.446  0.00  0.00    -0.252 N 
ATOM      2  C   UNL d   1       1.857   1.492  -1.542  0.00  0.00     0.237 C 
ATOM      3  C   UNL d   1       0.555   1.523   0.300  0.00  0.00     0.237 C 
ATOM      4  C   UNL d   1       1.919   2.924  -1.074  0.00  0.00     0.106 C 
ATOM      5  C   UNL d   1       0.993   2.939   0.173  0.00  0.00     0.106 C 
ATOM      6  C   UNL d   1      -0.094   4.020   0.051  0.00  0.00     0.066 C 
ATOM      7  C   UNL d   1       1.530   4.039  -2.056  0.00  0.00     0.066 C 
ATOM      8  C   UNL d   1       1.666   5.283  -1.161  0.00  0.00    -0.042 A 
ATOM      9  C   UNL d   1      -0.808   3.874  -1.286  0.00  0.00    -0.042 A 
ATOM     10  C   UNL d   1       0.784   5.281  -0.036  0.00  0.00    -0.042 A 
ATOM     11  C   UNL d   1       0.057   3.890  -2.409  0.00  0.00    -0.042 A 
ATOM     12  O   UNL d   1       2.215   1.104  -2.638  0.00  0.00    -0.272 OA
ATOM     13  O   UNL d   1      -0.337   1.127   1.040  0.00  0.00    -0.272 OA
ATOM     14  C   UNL d   1       0.902   6.232   0.964  0.00  0.00     0.008 A 
ATOM     15  C   UNL d   1      -0.458   3.873  -3.699  0.00  0.00     0.008 A 
ATOM     16  C   UNL d   1       2.662   6.241  -1.273  0.00  0.00     0.008 A 
ATOM     17  C   UNL d   1      -2.187   3.842  -1.460  0.00  0.00     0.008 A 
ATOM     18  C   UNL d   1       2.776   7.196  -0.261  0.00  0.00     0.001 A 
ATOM     19  C   UNL d   1      -2.700   3.831  -2.760  0.00  0.00     0.001 A 
ATOM     20  C   UNL d   1       1.906   7.194   0.842  0.00  0.00     0.001 A 
ATOM     21  C   UNL d   1      -1.844   3.848  -3.869  0.00  0.00     0.001 A 
ENDROOT
BRANCH   1  22
ATOM     22  C   UNL d   1       2.321  -0.158   0.184  0.00  0.00     0.047 A 
ATOM     23  C   UNL d   1       3.212  -0.941  -0.557  0.00  0.00     0.055 A 
ATOM     24  C   UNL d   1       4.051  -1.866   0.083  0.00  0.00     0.058 A 
ATOM     25 CL   UNL d   1       5.054  -2.860  -0.911  0.00  0.00    -0.082 Cl
ATOM     26  C   UNL d   1       4.043  -1.976   1.480  0.00  0.00     0.055 A 
ATOM     27  C   UNL d   1       3.242  -1.125   2.231  0.00  0.00     0.028 A 
ATOM     28 CL   UNL d   1       4.974  -3.154   2.327  0.00  0.00    -0.083 Cl
ATOM     29  C   UNL d   1       2.377  -0.235   1.589  0.00  0.00     0.032 A 
ENDBRANCH   1  22
TORSDOF 1
