REMARK  6 active torsions:
REMARK  status: ('A' for Active; 'I' for Inactive)
REMARK    1  A    between atoms: C_7  and  C_1 
REMARK    2  A    between atoms: C_2  and  O_6 
REMARK    3  A    between atoms: C_10  and  C_2 
REMARK    4  A    between atoms: O_6  and  N_3 
REMARK    5  A    between atoms: C_5  and  C_8 
REMARK    6  A    between atoms: N_19  and  C_5 
ROOT
ATOM      1  N   UNL d   1      -0.858   0.910   6.223  0.00  0.00    -0.246 N 
ATOM      2  HN  UNL d   1      -1.064   0.885   7.221  1.00  0.00     0.196 HD
ATOM      3  C   UNL d   1      -0.709  -0.145   5.474  0.00  0.00     0.109 C 
ENDROOT
BRANCH   3   4
ATOM      4  C   UNL d   1      -0.856  -1.498   6.118  0.00  0.00     0.004 A 
ATOM      5  C   UNL d   1      -1.072  -1.594   7.500  0.00  0.00     0.015 A 
ATOM      6  C   UNL d   1      -1.233  -2.844   8.109  0.00  0.00     0.017 A 
ATOM      7  C   UNL d   1      -1.178  -4.022   7.350  0.00  0.00     0.048 A 
ATOM      8  C   UNL d   1      -0.959  -3.923   5.969  0.00  0.00     0.017 A 
ATOM      9  C   UNL d   1      -0.804  -2.673   5.357  0.00  0.00     0.015 A 
BRANCH   7  10
ATOM     10  C   UNL d   1      -1.366  -5.364   8.019  0.00  0.00     0.417 C 
ATOM     11  F   UNL d   1      -1.287  -6.416   7.157  0.00  0.00    -0.166 F 
ATOM     12  F   UNL d   1      -2.577  -5.476   8.633  0.00  0.00    -0.166 F 
ATOM     13  F   UNL d   1      -0.434  -5.601   8.983  0.00  0.00    -0.166 F 
ENDBRANCH   7  10
ENDBRANCH   3   4
BRANCH   3  14
ATOM     14  N   UNL d   1      -0.426  -0.062   4.128  0.00  0.00    -0.286 NA
ATOM     15  H   UNL d   1      -0.181   0.884   3.849  0.00  0.00     0.125 HD
ATOM     16  H   UNL d   1       0.233  -0.739   3.766  0.00  0.00     0.125 HD
ENDBRANCH   3  14
BRANCH   1  17
ATOM     17  O   UNL d   1      -0.697   2.094   5.472  0.00  0.00    -0.197 OA
BRANCH  17  18
ATOM     18  C   UNL d   1      -0.893   3.197   6.260  0.00  0.00     0.294 C 
ATOM     19  O   UNL d   1      -1.112   3.191   7.471  0.00  0.00    -0.262 OA
BRANCH  18  20
ATOM     20  C   UNL d   1      -0.787   4.497   5.478  0.00  0.00     0.149 C 
ATOM     21  S   UNL d   1      -0.651   4.328   3.660  0.00  0.00    -0.154 SA
ATOM     22  C   UNL d   1      -1.827   5.652   3.268  0.00  0.00     0.075 C 
ATOM     23  C   UNL d   1      -2.036   6.399   4.572  0.00  0.00     0.012 C 
ATOM     24  C   UNL d   1      -2.032   5.356   5.679  0.00  0.00     0.026 C 
ENDBRANCH  18  20
ENDBRANCH  17  18
ENDBRANCH   1  17
TORSDOF 6
