REMARK  6 active torsions:
REMARK  status: ('A' for Active; 'I' for Inactive)
REMARK    1  A    between atoms: S_3  and  C_1 
REMARK    2  A    between atoms: C_10  and  S_3 
REMARK    3  A    between atoms: C_8  and  C_6 
REMARK    4  A    between atoms: O_17  and  C_8 
REMARK    5  A    between atoms: C_18  and  C_10 
REMARK    6  A    between atoms: C_21  and  O_17 
ROOT
ATOM      1  C   UNL d   1       1.252  -1.610   0.095  0.00  0.00     0.115 A 
ATOM      2  C   UNL d   1       0.134  -0.800   0.039  0.00  0.00     0.046 A 
ATOM      3  C   UNL d   1       0.460   0.609   0.000  0.00  0.00    -0.018 A 
ATOM      4  S   UNL d   1       2.680  -0.672   0.061  0.00  0.00    -0.071 SA
ATOM      5  C   UNL d   1       1.836   0.823  -0.026  0.00  0.00     0.088 A 
ATOM      6  C   UNL d   1      -1.248  -1.271   0.022  0.00  0.00     0.162 C 
ATOM      7  C   UNL d   1      -0.627   1.669  -0.034  0.00  0.00     0.050 C 
ATOM      8  C   UNL d   1      -2.028   1.110   0.366  0.00  0.00    -0.037 C 
ATOM      9  C   UNL d   1      -2.286  -0.233  -0.346  0.00  0.00     0.093 C 
ATOM     10  O   UNL d   1      -1.558  -2.443   0.194  0.00  0.00    -0.292 OA
ATOM     11  C   UNL d   1      -3.135   2.089  -0.067  0.00  0.00     0.015 C 
ATOM     12  C   UNL d   1      -2.126   0.933   1.896  0.00  0.00     0.015 C 
ENDROOT
BRANCH   1  13
ATOM     13  S   UNL d   1       1.466  -3.400   0.190  0.00  0.00     0.187 S 
ATOM     14  O   UNL d   1       2.892  -3.636   0.061  0.00  0.00    -0.222 OA
ATOM     15  O   UNL d   1       0.743  -3.780   1.384  0.00  0.00    -0.222 OA
BRANCH  13  16
ATOM     16  C   UNL d   1       0.653  -3.982  -1.297  0.00  0.00     0.184 C 
BRANCH  16  17
ATOM     17  C   UNL d   1       0.705  -5.484  -1.368  0.00  0.00    -0.044 A 
ATOM     18  C   UNL d   1      -0.335  -6.258  -0.832  0.00  0.00     0.008 A 
ATOM     19  C   UNL d   1      -0.303  -7.650  -0.927  0.00  0.00     0.001 A 
ATOM     20  C   UNL d   1       0.768  -8.282  -1.555  0.00  0.00     0.000 A 
ATOM     21  C   UNL d   1       1.811  -7.524  -2.082  0.00  0.00     0.001 A 
ATOM     22  C   UNL d   1       1.782  -6.132  -1.988  0.00  0.00     0.008 A 
ENDBRANCH  16  17
ENDBRANCH  13  16
ENDBRANCH   1  13
BRANCH   5  23
ATOM     23  C   UNL d   1       2.558   2.096  -0.107  0.00  0.00     0.300 C 
ATOM     24  O   UNL d   1       2.020   3.198  -0.137  0.00  0.00    -0.259 OA
BRANCH  23  25
ATOM     25  O   UNL d   1       3.907   1.906  -0.159  0.00  0.00    -0.317 OA
BRANCH  25  26
ATOM     26  C   UNL d   1       4.733   3.083  -0.177  0.00  0.00     0.174 C 
ATOM     27  C   UNL d   1       4.933   3.583  -1.596  0.00  0.00     0.034 C 
ENDBRANCH  25  26
ENDBRANCH  23  25
ENDBRANCH   5  23
TORSDOF 6
