REMARK  6 active torsions:
REMARK  status: ('A' for Active; 'I' for Inactive)
REMARK    1  A    between atoms: N_8  and  S_1 
REMARK    2  A    between atoms: C_13  and  S_1 
REMARK    3  A    between atoms: N_2  and  C_14 
REMARK    4  A    between atoms: C_10  and  C_6 
REMARK    5  A    between atoms: S_28  and  C_12 
REMARK    6  A    between atoms: S_29  and  C_12 
ROOT
ATOM      1  C   UNL d   1       0.524  -0.954   1.384  0.00  0.00     0.080 A 
ATOM      2  C   UNL d   1      -0.044  -2.501   3.657  0.00  0.00     0.057 A 
ATOM      3  C   UNL d   1       0.648  -2.346   1.329  0.00  0.00     0.027 A 
ATOM      4  C   UNL d   1       0.113  -0.331   2.566  0.00  0.00     0.027 A 
ATOM      5  C   UNL d   1      -0.170  -1.104   3.699  0.00  0.00     0.033 A 
ATOM      6  C   UNL d   1       0.374  -3.116   2.466  0.00  0.00     0.033 A 
ENDROOT
BRANCH   2   7
ATOM      7  N   UNL d   1      -0.254  -3.299   4.825  0.00  0.00    -0.255 N 
ATOM      8  C   UNL d   1      -1.026  -3.039   5.957  0.00  0.00     0.076 C 
ATOM      9  C   UNL d   1      -0.609  -3.953   6.906  0.00  0.00     0.069 C 
ATOM     10  C   UNL d   1      -2.076  -2.062   6.074  0.00  0.00     0.033 A 
ATOM     11  C   UNL d   1       0.296  -4.819   6.249  0.00  0.00     0.135 C 
ATOM     12  N   UNL d   1       0.420  -4.477   4.952  0.00  0.00    -0.289 N 
ATOM     13  HN  UNL d   1       0.913  -4.990   4.221  1.00  0.00     0.187 HD
ATOM     14  S   UNL d   1      -2.354  -1.218   7.542  0.00  0.00    -0.100 SA
ATOM     15  C   UNL d   1      -2.994  -1.690   5.108  0.00  0.00     0.021 A 
ATOM     16  C   UNL d   1      -3.641  -0.319   6.865  0.00  0.00     0.050 A 
ATOM     17  C   UNL d   1      -3.874  -0.661   5.553  0.00  0.00     0.008 A 
BRANCH  11  18
ATOM     18  C   UNL d   1       1.005  -5.989   6.880  0.00  0.00     0.434 C 
ATOM     19  F   UNL d   1       1.832  -6.654   6.032  0.00  0.00    -0.165 F 
ATOM     20  F   UNL d   1       1.766  -5.595   7.938  0.00  0.00    -0.165 F 
ATOM     21  F   UNL d   1       0.123  -6.904   7.367  0.00  0.00    -0.165 F 
ENDBRANCH  11  18
ENDBRANCH   2   7
BRANCH   1  22
ATOM     22  S   UNL d   1       1.139   0.049   0.027  0.00  0.00     0.264 S 
ATOM     23  O   UNL d   1       1.528   1.315   0.619  0.00  0.00    -0.200 OA
ATOM     24  O   UNL d   1       2.113  -0.784  -0.654  0.00  0.00    -0.200 OA
BRANCH  22  25
ATOM     25  N   UNL d   1      -0.139   0.286  -0.928  0.00  0.00    -0.269 N 
ATOM     26  C   UNL d   1      -0.019   0.938  -2.034  0.00  0.00     0.116 C 
ATOM     27  HN  UNL d   1      -1.049  -0.084  -0.654  1.00  0.00     0.180 HD
BRANCH  26  28
ATOM     28  S   UNL d   1       1.456   1.621  -2.712  0.00  0.00    -0.109 SA
ATOM     29  C   UNL d   1       0.920   3.164  -3.475  0.00  0.00     0.097 C 
ENDBRANCH  26  28
BRANCH  26  30
ATOM     30  S   UNL d   1      -1.452   1.124  -3.055  0.00  0.00    -0.109 SA
ATOM     31  C   UNL d   1      -2.654   0.088  -2.209  0.00  0.00     0.097 C 
ENDBRANCH  26  30
ENDBRANCH  22  25
ENDBRANCH   1  22
TORSDOF 6
