REMARK  4 active torsions:
REMARK  status: ('A' for Active; 'I' for Inactive)
REMARK    1  A    between atoms: C_5  and  C_1 
REMARK    2  A    between atoms: N_11  and  C_4 
REMARK    3  A    between atoms: C_16  and  N_11 
REMARK    4  A    between atoms: C_12  and  C_16 
ROOT
ATOM      1  N   UNL d   1       0.118   0.345   2.337  0.00  0.00    -0.329 N 
ATOM      2  HN  UNL d   1       0.043   1.347   2.161  1.00  0.00     0.168 HD
ATOM      3  C   UNL d   1      -0.289  -0.180   3.500  0.00  0.00     0.157 A 
ATOM      4  C   UNL d   1       0.633  -0.488   1.398  0.00  0.00     0.120 A 
ATOM      5  N   UNL d   1      -0.220  -1.485   3.782  0.00  0.00    -0.343 N 
ATOM      6  HN  UNL d   1      -0.549  -1.853   4.675  1.00  0.00     0.167 HD
ATOM      7  C   UNL d   1       0.746  -1.846   1.620  0.00  0.00     0.051 A 
ATOM      8  C   UNL d   1       0.302  -2.292   2.841  0.00  0.00     0.093 A 
ENDROOT
BRANCH   3   9
ATOM      9  N   UNL d   1      -0.832   0.640   4.476  0.00  0.00    -0.261 NA
ATOM     10  H   UNL d   1      -1.376   0.042   5.087  0.00  0.00     0.130 HD
BRANCH   9  11
ATOM     11  C   UNL d   1      -1.537   1.780   3.936  0.00  0.00     0.121 C 
BRANCH  11  12
ATOM     12  C   UNL d   1      -2.110   2.545   5.089  0.00  0.00    -0.022 C 
ATOM     13  C   UNL d   1      -3.414   2.807   5.254  0.00  0.00     0.008 C 
ENDBRANCH  11  12
ENDBRANCH   9  11
ENDBRANCH   3   9
BRANCH   4  14
ATOM     14  C   UNL d   1       1.078   0.091   0.068  0.00  0.00     0.432 C 
ATOM     15  F   UNL d   1       0.938   1.443  -0.033  0.00  0.00    -0.165 F 
ATOM     16  F   UNL d   1       0.378  -0.431  -0.982  0.00  0.00    -0.165 F 
ATOM     17  F   UNL d   1       2.389  -0.170  -0.204  0.00  0.00    -0.165 F 
ENDBRANCH   4  14
TORSDOF 4
