REMARK  4 active torsions:
REMARK  status: ('A' for Active; 'I' for Inactive)
REMARK    1  A    between atoms: C_2  and  S_1 
REMARK    2  A    between atoms: C_4  and  S_1 
REMARK    3  A    between atoms: O_12  and  N_3 
REMARK    4  A    between atoms: N_5  and  C_6 
ROOT
ATOM      1  C   UNL d   1       0.321  -0.483   1.503  0.00  0.00     0.161 A 
ATOM      2  N   UNL d   1       0.742   0.205   2.624  0.00  0.00    -0.222 N 
ATOM      3  C   UNL d   1      -0.513  -1.332   4.012  0.00  0.00     0.120 A 
ATOM      4  C   UNL d   1       0.342  -0.240   3.876  0.00  0.00     0.160 A 
ATOM      5  C   UNL d   1      -0.545  -1.587   1.627  0.00  0.00     0.047 A 
ATOM      6  C   UNL d   1      -0.975  -2.004   2.883  0.00  0.00     0.040 A 
ENDROOT
BRANCH   1   7
ATOM      7  S   UNL d   1       0.877  -0.002  -0.102  0.00  0.00     0.226 S 
ATOM      8  O   UNL d   1       0.112  -0.776  -1.070  0.00  0.00    -0.216 OA
ATOM      9  O   UNL d   1       2.321  -0.153  -0.093  0.00  0.00    -0.216 OA
BRANCH   7  10
ATOM     10  C   UNL d   1       0.474   1.691  -0.421  0.00  0.00     0.089 A 
ATOM     11  C   UNL d   1       1.516   2.577  -0.735  0.00  0.00     0.049 A 
ATOM     12  C   UNL d   1       1.219   3.889  -1.100  0.00  0.00     0.035 A 
ATOM     13 CL   UNL d   1       2.489   4.974  -1.507  0.00  0.00    -0.084 Cl
ATOM     14  C   UNL d   1      -0.102   4.325  -1.157  0.00  0.00     0.025 A 
ATOM     15  C   UNL d   1      -1.137   3.445  -0.833  0.00  0.00     0.027 A 
ATOM     16  C   UNL d   1      -0.855   2.125  -0.460  0.00  0.00     0.056 A 
ATOM     17 CL   UNL d   1      -2.207   1.129  -0.061  0.00  0.00    -0.083 Cl
ENDBRANCH   7  10
ENDBRANCH   1   7
BRANCH   2  18
ATOM     18  O   UNL d   1       1.455   1.248   2.540  0.00  0.00    -0.282 OA
ATOM     19  HO  UNL d   1       1.745   1.721   3.311  1.00  0.00     0.245 HD
ENDBRANCH   2  18
BRANCH   3  20
ATOM     20  N   UNL d   1      -0.933  -1.755   5.347  0.00  0.00    -0.114 N 
ATOM     21  O   UNL d   1      -0.473  -1.133   6.314  0.00  0.00    -0.532 OA
ATOM     22  O   UNL d   1      -1.723  -2.704   5.424  0.00  0.00    -0.532 OA
ENDBRANCH   3  20
TORSDOF 4
