REMARK  4 active torsions:
REMARK  status: ('A' for Active; 'I' for Inactive)
REMARK       I    between atoms: N_2  and  C_1 
REMARK    1  A    between atoms: C_5  and  C_1 
REMARK    2  A    between atoms: C_4  and  N_2 
REMARK    3  A    between atoms: O_6  and  C_3 
REMARK    4  A    between atoms: C_11  and  O_6 
ROOT
ATOM      1  C   UNL d   1       0.634  -0.940   3.391  0.00  0.00     0.175 A 
ATOM      2  C   UNL d   1       0.994  -0.019   2.397  0.00  0.00     0.087 A 
ATOM      3  N   UNL d   1       1.362  -1.139   4.528  0.00  0.00    -0.345 N 
ATOM      4  HN  UNL d   1       1.092  -1.851   5.207  1.00  0.00     0.167 HD
ATOM      5  C   UNL d   1       2.166   0.722   2.633  0.00  0.00     0.035 A 
ATOM      6  C   UNL d   1       2.446  -0.369   4.728  0.00  0.00     0.090 A 
ATOM      7  C   UNL d   1       2.884   0.567   3.816  0.00  0.00     0.019 A 
ENDROOT
BRANCH   1   8
ATOM      8  O   UNL d   1      -0.432  -1.799   3.211  0.00  0.00    -0.292 OA
BRANCH   8   9
ATOM      9  C   UNL d   1      -1.242  -2.050   4.302  0.00  0.00     0.078 A 
ATOM     10  C   UNL d   1      -1.474  -1.127   5.331  0.00  0.00     0.040 A 
ATOM     11  C   UNL d   1      -2.307  -1.460   6.399  0.00  0.00     0.045 A 
ATOM     12  C   UNL d   1      -2.933  -2.699   6.415  0.00  0.00     0.116 A 
ATOM     13  C   UNL d   1      -2.748  -3.610   5.380  0.00  0.00     0.045 A 
ATOM     14  F   UNL d   1      -3.733  -3.018   7.441  0.00  0.00    -0.206 F 
ATOM     15  C   UNL d   1      -1.902  -3.283   4.317  0.00  0.00     0.040 A 
ENDBRANCH   8   9
ENDBRANCH   1   8
BRANCH   2  16
ATOM     16  N   UNL d   1       0.324   0.275   1.178  0.00  0.00    -0.320 N 
ATOM     17  C   UNL d   1      -0.997   0.040   0.873  0.00  0.00     0.251 C 
ATOM     18  O   UNL d   1      -1.837  -0.406   1.644  0.00  0.00    -0.268 OA
ATOM     19  H   UNL d   1       0.826   0.884   0.549  0.00  0.00     0.169 HD
BRANCH  17  20
ATOM     20  C   UNL d   1      -1.427   0.476  -0.505  0.00  0.00    -0.003 C 
ATOM     21  C   UNL d   1      -2.742   0.693  -0.675  0.00  0.00     0.024 C 
ATOM     22  C   UNL d   1      -0.487   0.638  -1.660  0.00  0.00     0.053 C 
ENDBRANCH  17  20
ENDBRANCH   2  16
TORSDOF 4
