REMARK  2 active torsions:
REMARK  status: ('A' for Active; 'I' for Inactive)
REMARK    1  A    between atoms: S_15  and  C_7 
REMARK    2  A    between atoms: C_17  and  S_15 
ROOT
ATOM      1  N   UNL d   1       3.720  -2.440  -3.368  0.00  0.00    -0.197 NA
ATOM      2  C   UNL d   1       4.051  -2.463  -2.253  0.00  0.00     0.069 C 
ATOM      3  C   UNL d   1       4.507  -2.520  -0.862  0.00  0.00     0.206 C 
ENDROOT
BRANCH   3   4
ATOM      4  S   UNL d   1       4.289  -0.980   0.058  0.00  0.00    -0.078 SA
BRANCH   4   5
ATOM      5  C   UNL d   1       2.570  -0.703  -0.038  0.00  0.00     0.175 A 
ATOM      6  N   UNL d   1       1.611  -1.671  -0.034  0.00  0.00    -0.167 N 
ATOM      7  C   UNL d   1       0.482  -0.984  -0.022  0.00  0.00     0.706 A 
ATOM      8  HN  UNL d   1       1.735  -2.684  -0.038  1.00  0.00     0.186 HD
ATOM      9  N   UNL d   1       0.785   0.387  -0.025  0.00  0.00    -0.089 N 
ATOM     10  N   UNL d   1      -0.816  -1.426   0.001  0.00  0.00    -0.194 N 
ATOM     11  N   UNL d   1       2.124   0.550  -0.029  0.00  0.00    -0.258 N 
ATOM     12  C   UNL d   1      -0.221   1.360  -0.008  0.00  0.00     0.050 A 
ATOM     13  HN  UNL d   1       2.661   1.417  -0.025  1.00  0.00     0.190 HD
ATOM     14  C   UNL d   1       0.153   2.809  -0.008  0.00  0.00     0.071 C 
ATOM     15  C   UNL d   1      -1.505   0.964   0.011  0.00  0.00     0.052 A 
ATOM     16  C   UNL d   1      -1.747  -0.513   0.010  0.00  0.00     0.024 A 
ATOM     17  C   UNL d   1      -3.195  -0.952   0.033  0.00  0.00     0.068 C 
ATOM     18  HN  UNL d   1      -1.042  -2.420   0.010  1.00  0.00     0.184 HD
ENDBRANCH   4   5
ENDBRANCH   3   4
TORSDOF 2
