REMARK  3 active torsions:
REMARK  status: ('A' for Active; 'I' for Inactive)
REMARK    1  A    between atoms: C_2  and  C_1 
REMARK       I    between atoms: N_3  and  C_2 
REMARK    2  A    between atoms: C_6  and  N_4 
REMARK    3  A    between atoms: O_19  and  C_14 
ROOT
ATOM      1  C   UNL d   1      -2.600  -2.175  -0.240  0.00  0.00     0.255 C 
ATOM      2  N   UNL d   1      -2.187  -3.512  -0.417  0.00  0.00    -0.345 N 
ATOM      3  N   UNL d   1      -1.700  -6.358  -0.403  0.00  0.00    -0.376 N 
ATOM      4  O   UNL d   1      -2.265  -1.505   0.728  0.00  0.00    -0.267 OA
ATOM      5  C   UNL d   1      -1.486  -4.153   0.713  0.00  0.00     0.146 C 
ATOM      6  C   UNL d   1      -2.864  -4.434  -1.341  0.00  0.00     0.146 C 
ATOM      7  C   UNL d   1      -0.779  -5.500   0.373  0.00  0.00     0.143 C 
ATOM      8  C   UNL d   1      -2.095  -5.706  -1.658  0.00  0.00     0.143 C 
ENDROOT
BRANCH   1   9
ATOM      9  C   UNL d   1      -3.478  -1.539  -1.268  0.00  0.00     0.053 A 
ATOM     10  C   UNL d   1      -3.103  -0.356  -1.926  0.00  0.00     0.051 A 
ATOM     11  C   UNL d   1      -3.902   0.157  -2.959  0.00  0.00     0.048 A 
ATOM     12 CL   UNL d   1      -1.657   0.511  -1.554  0.00  0.00    -0.083 Cl
ATOM     13  C   UNL d   1      -5.055  -0.519  -3.352  0.00  0.00     0.035 A 
ATOM     14  C   UNL d   1      -5.467  -1.659  -2.672  0.00  0.00     0.025 A 
ATOM     15 CL   UNL d   1      -5.976   0.053  -4.686  0.00  0.00    -0.084 Cl
ATOM     16  C   UNL d   1      -4.710  -2.132  -1.599  0.00  0.00     0.020 A 
ENDBRANCH   1   9
BRANCH   3  17
ATOM     17  C   UNL d   1      -1.506  -7.744  -0.432  0.00  0.00     0.064 A 
ATOM     18  C   UNL d   1      -1.609  -8.572   0.709  0.00  0.00     0.094 A 
ATOM     19  C   UNL d   1      -1.551  -9.973   0.590  0.00  0.00     0.039 A 
ATOM     20  C   UNL d   1      -1.399 -10.588  -0.650  0.00  0.00     0.003 A 
ATOM     21  C   UNL d   1      -1.251  -9.800  -1.779  0.00  0.00     0.002 A 
ATOM     22  C   UNL d   1      -1.293  -8.409  -1.664  0.00  0.00     0.032 A 
BRANCH  18  23
ATOM     23  O   UNL d   1      -1.722  -8.148   2.011  0.00  0.00    -0.354 OA
ATOM     24  C   UNL d   1      -2.800  -7.261   2.276  0.00  0.00     0.210 C 
ENDBRANCH  18  23
ENDBRANCH   3  17
TORSDOF 3
