REMARK  6 active torsions:
REMARK  status: ('A' for Active; 'I' for Inactive)
REMARK    1  A    between atoms: N_3  and  C_1 
REMARK    2  A    between atoms: C_5  and  C_4 
REMARK    3  A    between atoms: N_17  and  C_5 
REMARK    4  A    between atoms: O_15  and  N_9 
REMARK    5  A    between atoms: C_11  and  O_15 
REMARK       I    between atoms: N_13  and  C_11 
REMARK    6  A    between atoms: C_18  and  N_13 
ROOT
ATOM      1  C   UNL d   1      -0.863  -0.594  -0.667  0.00  0.00     0.133 C 
ATOM      2  N   UNL d   1      -1.735  -1.467  -1.090  0.00  0.00    -0.242 N 
ATOM      3  HN  UNL d   1      -2.078  -1.525  -2.049  1.00  0.00     0.196 HD
ENDROOT
BRANCH   2   4
ATOM      4  O   UNL d   1      -2.142  -2.321  -0.038  0.00  0.00    -0.179 OA
BRANCH   4   5
ATOM      5  C   UNL d   1      -3.396  -2.795  -0.288  0.00  0.00     0.387 C 
ATOM      6  N   UNL d   1      -3.536  -4.162  -0.311  0.00  0.00    -0.301 N 
ATOM      7  H   UNL d   1      -4.469  -4.420  -0.605  0.00  0.00     0.171 HD
ATOM      8  O   UNL d   1      -4.368  -2.068  -0.492  0.00  0.00    -0.236 OA
BRANCH   6   9
ATOM      9  C   UNL d   1      -2.592  -5.196  -0.175  0.00  0.00     0.037 A 
ATOM     10  C   UNL d   1      -1.310  -5.041   0.359  0.00  0.00     0.031 A 
ATOM     11  C   UNL d   1      -0.438  -6.134   0.442  0.00  0.00     0.026 A 
ATOM     12  C   UNL d   1      -0.841  -7.386  -0.012  0.00  0.00     0.034 A 
ATOM     13  C   UNL d   1      -2.116  -7.559  -0.539  0.00  0.00     0.026 A 
ATOM     14 CL   UNL d   1       0.237  -8.722   0.084  0.00  0.00    -0.084 Cl
ATOM     15  C   UNL d   1      -2.991  -6.470  -0.609  0.00  0.00     0.031 A 
ENDBRANCH   6   9
ENDBRANCH   4   5
ENDBRANCH   2   4
BRANCH   1  16
ATOM     16  C   UNL d   1      -0.162   0.236  -1.657  0.00  0.00     0.116 A 
ATOM     17  S   UNL d   1      -0.315   0.018  -3.353  0.00  0.00    -0.044 SA
ATOM     18  C   UNL d   1       0.935   1.146  -3.584  0.00  0.00     0.161 A 
ATOM     19  C   UNL d   1       1.356   1.666  -2.382  0.00  0.00     0.132 A 
ATOM     20  N   UNL d   1       0.706   1.159  -1.270  0.00  0.00    -0.355 N 
ATOM     21  HN  UNL d   1       0.869   1.450  -0.306  1.00  0.00     0.166 HD
BRANCH  18  22
ATOM     22  N   UNL d   1       1.463   1.448  -4.875  0.00  0.00    -0.107 N 
ATOM     23  O   UNL d   1       2.452   2.191  -4.903  0.00  0.00    -0.531 OA
ATOM     24  O   UNL d   1       0.908   0.952  -5.864  0.00  0.00    -0.531 OA
ENDBRANCH  18  22
ENDBRANCH   1  16
BRANCH   1  25
ATOM     25  N   UNL d   1      -0.582  -0.440   0.678  0.00  0.00    -0.285 NA
ATOM     26  H   UNL d   1      -0.176   0.467   0.898  0.00  0.00     0.125 HD
ATOM     27  H   UNL d   1      -1.362  -0.692   1.273  0.00  0.00     0.125 HD
ENDBRANCH   1  25
TORSDOF 6
