REMARK  4 active torsions:
REMARK  status: ('A' for Active; 'I' for Inactive)
REMARK    1  A    between atoms: C_2  and  S_1 
REMARK    2  A    between atoms: N_3  and  S_1 
REMARK    3  A    between atoms: C_18  and  N_3 
REMARK    4  A    between atoms: C_7  and  C_14 
ROOT
ATOM      1  N   UNL d   1       0.566   0.787   1.391  0.00  0.00    -0.281 N 
ATOM      2  H   UNL d   1       0.159   0.082   0.781  0.00  0.00     0.179 HD
ENDROOT
BRANCH   1   3
ATOM      3  S   UNL d   1       0.533   2.370   0.850  0.00  0.00     0.263 S 
ATOM      4  O   UNL d   1       0.205   2.311  -0.558  0.00  0.00    -0.200 OA
ATOM      5  O   UNL d   1      -0.241   3.177   1.767  0.00  0.00    -0.200 OA
BRANCH   3   6
ATOM      6  C   UNL d   1       2.238   2.865   0.978  0.00  0.00     0.081 A 
ATOM      7  C   UNL d   1       2.679   3.491   2.149  0.00  0.00     0.050 A 
ATOM      8  C   UNL d   1       4.015   3.881   2.263  0.00  0.00     0.057 A 
ATOM      9 CL   UNL d   1       4.513   4.612   3.747  0.00  0.00    -0.083 Cl
ATOM     10  C   UNL d   1       4.901   3.666   1.198  0.00  0.00     0.055 A 
ATOM     11  C   UNL d   1       4.445   3.055   0.023  0.00  0.00     0.027 A 
ATOM     12 CL   UNL d   1       6.563   4.129   1.270  0.00  0.00    -0.083 Cl
ATOM     13  C   UNL d   1       3.111   2.654  -0.092  0.00  0.00     0.027 A 
ENDBRANCH   3   6
ENDBRANCH   1   3
BRANCH   1  14
ATOM     14  C   UNL d   1       0.876   0.487   2.735  0.00  0.00     0.042 A 
ATOM     15  C   UNL d   1      -0.109   0.480   3.717  0.00  0.00     0.031 A 
ATOM     16  C   UNL d   1       0.231   0.165   5.040  0.00  0.00     0.016 A 
ATOM     17  C   UNL d   1       1.555  -0.143   5.392  0.00  0.00    -0.001 A 
ATOM     18  C   UNL d   1       2.528  -0.138   4.381  0.00  0.00     0.016 A 
ATOM     19  C   UNL d   1       2.191   0.163   3.061  0.00  0.00     0.031 A 
BRANCH  17  20
ATOM     20  C   UNL d   1       1.914  -0.461   6.768  0.00  0.00     0.102 A 
ATOM     21  O   UNL d   1       3.236  -0.738   7.020  0.00  0.00    -0.304 OA
ATOM     22  C   UNL d   1       3.278  -0.986   8.357  0.00  0.00     0.233 A 
ATOM     23  N   UNL d   1       2.124  -0.903   8.976  0.00  0.00    -0.354 N 
ATOM     24  C   UNL d   1       1.249  -0.566   7.972  0.00  0.00     0.127 A 
ATOM     25  HN  UNL d   1       1.925  -1.052   9.965  1.00  0.00     0.166 HD
ENDBRANCH  17  20
ENDBRANCH   1  14
TORSDOF 4
