REMARK  2 active torsions:
REMARK  status: ('A' for Active; 'I' for Inactive)
REMARK    1  A    between atoms: C_7  and  N_3 
REMARK    2  A    between atoms: C_9  and  C_5 
ROOT
ATOM      1  N   UNL d   1      -1.388  -0.673  -0.018  0.00  0.00    -0.294 N 
ATOM      2  HN  UNL d   1      -2.161  -1.334  -0.093  1.00  0.00     0.187 HD
ATOM      3  N   UNL d   1      -0.038  -0.981   0.064  0.00  0.00    -0.224 N 
ATOM      4  C   UNL d   1       0.791   0.146   0.152  0.00  0.00     0.248 A 
ATOM      5  C   UNL d   1      -1.476   0.623   0.021  0.00  0.00     0.045 A 
ATOM      6  C   UNL d   1      -0.146   1.311   0.106  0.00  0.00     0.164 A 
ATOM      7  O   UNL d   1       2.004   0.251   0.246  0.00  0.00    -0.271 OA
ENDROOT
BRANCH   3   8
ATOM      8  C   UNL d   1       0.353  -2.344   0.104  0.00  0.00     0.059 A 
ATOM      9  C   UNL d   1       1.690  -2.723   0.288  0.00  0.00     0.031 A 
ATOM     10  C   UNL d   1       2.059  -4.072   0.349  0.00  0.00     0.002 A 
ATOM     11  C   UNL d   1       1.095  -5.066   0.219  0.00  0.00     0.000 A 
ATOM     12  C   UNL d   1      -0.237  -4.713   0.026  0.00  0.00     0.002 A 
ATOM     13  C   UNL d   1      -0.604  -3.363  -0.029  0.00  0.00     0.031 A 
ENDBRANCH   3   8
BRANCH   5  14
ATOM     14  C   UNL d   1      -2.743   1.385   0.007  0.00  0.00    -0.012 A 
ATOM     15  C   UNL d   1      -3.960   0.698  -0.061  0.00  0.00     0.013 A 
ATOM     16  C   UNL d   1      -5.165   1.404  -0.033  0.00  0.00     0.001 A 
ATOM     17  C   UNL d   1      -5.160   2.795   0.062  0.00  0.00     0.000 A 
ATOM     18  C   UNL d   1      -3.950   3.485   0.122  0.00  0.00     0.001 A 
ATOM     19  C   UNL d   1      -2.743   2.784   0.092  0.00  0.00     0.013 A 
ENDBRANCH   5  14
TORSDOF 2
