REMARK  3 active torsions:
REMARK  status: ('A' for Active; 'I' for Inactive)
REMARK    1  A    between atoms: C_7  and  C_4 
REMARK    2  A    between atoms: C_9  and  C_8 
REMARK    3  A    between atoms: N_21  and  C_12 
ROOT
ATOM      1  C   UNL d   1      -0.051  -0.626  -0.073  0.00  0.00     0.118 A 
ATOM      2  N   UNL d   1       1.093  -1.306  -0.081  0.00  0.00    -0.338 N 
ATOM      3  HN  UNL d   1       1.073  -2.325  -0.104  1.00  0.00     0.167 HD
ATOM      4  C   UNL d   1       1.161   1.476   0.013  0.00  0.00     0.064 A 
ATOM      5  N   UNL d   1      -1.161  -1.360  -0.113  0.00  0.00    -0.333 N 
ATOM      6  HN  UNL d   1      -1.099  -2.378  -0.134  1.00  0.00     0.168 HD
ATOM      7  C   UNL d   1       2.284  -0.659  -0.060  0.00  0.00     0.119 A 
ATOM      8  C   UNL d   1      -0.080   0.785  -0.033  0.00  0.00     0.023 A 
ATOM      9  C   UNL d   1       2.348   0.725  -0.006  0.00  0.00     0.051 A 
ATOM     10  C   UNL d   1      -2.358  -0.763  -0.125  0.00  0.00     0.079 A 
ATOM     11  C   UNL d   1      -1.356   1.387  -0.051  0.00  0.00     0.019 A 
ATOM     12  C   UNL d   1      -2.503   0.606  -0.105  0.00  0.00     0.043 A 
ENDROOT
BRANCH   4  13
ATOM     13  C   UNL d   1       1.325   2.976   0.071  0.00  0.00     0.418 C 
ATOM     14  F   UNL d   1       0.181   3.705   0.113  0.00  0.00    -0.166 F 
ATOM     15  F   UNL d   1       2.040   3.359   1.167  0.00  0.00    -0.166 F 
ATOM     16  F   UNL d   1       2.022   3.446  -1.002  0.00  0.00    -0.166 F 
ENDBRANCH   4  13
BRANCH   7  17
ATOM     17  C   UNL d   1       3.579  -1.460  -0.112  0.00  0.00     0.432 C 
ATOM     18  F   UNL d   1       3.414  -2.810  -0.168  0.00  0.00    -0.165 F 
ATOM     19  F   UNL d   1       4.341  -1.131  -1.196  0.00  0.00    -0.165 F 
ATOM     20  F   UNL d   1       4.374  -1.225   0.973  0.00  0.00    -0.165 F 
ENDBRANCH   7  17
BRANCH  10  21
ATOM     21  N   UNL d   1      -3.474  -1.589  -0.216  0.00  0.00    -0.289 NA
ATOM     22  H   UNL d   1      -3.143  -2.551  -0.170  0.00  0.00     0.125 HD
ATOM     23  H   UNL d   1      -4.160  -1.391   0.504  0.00  0.00     0.125 HD
ENDBRANCH  10  21
TORSDOF 3
