REMARK  8 active torsions:
REMARK  status: ('A' for Active; 'I' for Inactive)
REMARK    1  A    between atoms: N_2  and  C_1 
REMARK       I    between atoms: N_3  and  C_4 
REMARK    2  A    between atoms: C_5  and  N_3 
REMARK    3  A    between atoms: C_4  and  C_8 
REMARK    4  A    between atoms: N_14  and  C_5 
REMARK    5  A    between atoms: O_10  and  C_7 
REMARK    6  A    between atoms: C_20  and  O_10 
REMARK    7  A    between atoms: C_12  and  C_21 
REMARK    8  A    between atoms: C_21  and  N_14 
ROOT
ATOM      1  C   UNL d   1       1.393  -0.401   0.267  0.00  0.00     0.137 A 
ATOM      2  C   UNL d   1       0.454  -1.445   0.288  0.00  0.00     0.056 A 
ATOM      3  C   UNL d   1       1.030   0.914  -0.034  0.00  0.00     0.109 A 
ATOM      4  C   UNL d   1      -0.887  -1.157   0.011  0.00  0.00     0.035 A 
ATOM      5  C   UNL d   1      -0.328   1.191  -0.250  0.00  0.00     0.041 A 
ATOM      6  C   UNL d   1      -1.272   0.161  -0.257  0.00  0.00     0.020 A 
ENDROOT
BRANCH   4   7
ATOM      7  C   UNL d   1      -1.942  -2.204  -0.036  0.00  0.00     0.257 C 
ATOM      8  N   UNL d   1      -1.772  -3.260   0.849  0.00  0.00    -0.300 N 
ATOM      9  H   UNL d   1      -0.973  -3.211   1.464  0.00  0.00     0.171 HD
ATOM     10  O   UNL d   1      -2.822  -2.097  -0.878  0.00  0.00    -0.267 OA
BRANCH   8  11
ATOM     11  C   UNL d   1      -2.720  -4.155   1.350  0.00  0.00     0.174 C 
ATOM     12  S   UNL d   1      -4.370  -4.079   1.128  0.00  0.00    -0.041 SA
BRANCH  11  13
ATOM     13  N   UNL d   1      -2.063  -5.106   2.119  0.00  0.00    -0.367 N 
ATOM     14  H   UNL d   1      -1.129  -5.327   1.802  0.00  0.00     0.161 HD
BRANCH  13  15
ATOM     15  C   UNL d   1      -2.703  -6.191   2.845  0.00  0.00     0.126 C 
BRANCH  15  16
ATOM     16  C   UNL d   1      -1.678  -6.821   3.734  0.00  0.00     0.003 A 
ATOM     17  C   UNL d   1      -0.546  -7.635   3.157  0.00  0.00     0.007 A 
ATOM     18  C   UNL d   1      -1.643  -8.314   3.927  0.00  0.00     0.007 A 
ENDBRANCH  15  16
ENDBRANCH  13  15
ENDBRANCH  11  13
ENDBRANCH   8  11
ENDBRANCH   4   7
BRANCH   1  19
ATOM     19  N   UNL d   1       2.770  -0.732   0.581  0.00  0.00    -0.113 N 
ATOM     20  O   UNL d   1       2.960  -1.363   1.629  0.00  0.00    -0.532 OA
ATOM     21  O   UNL d   1       3.639  -0.426  -0.244  0.00  0.00    -0.532 OA
ENDBRANCH   1  19
BRANCH   3  22
ATOM     22  O   UNL d   1       1.997   1.898  -0.072  0.00  0.00    -0.308 OA
BRANCH  22  23
ATOM     23  C   UNL d   1       1.792   2.946  -0.942  0.00  0.00     0.076 A 
ATOM     24  C   UNL d   1       1.929   4.237  -0.432  0.00  0.00     0.039 A 
ATOM     25  C   UNL d   1       1.609   5.333  -1.234  0.00  0.00     0.026 A 
ATOM     26  C   UNL d   1       1.168   5.131  -2.543  0.00  0.00     0.034 A 
ATOM     27  C   UNL d   1       1.095   3.845  -3.075  0.00  0.00     0.026 A 
ATOM     28 CL   UNL d   1       0.694   6.477  -3.502  0.00  0.00    -0.084 Cl
ATOM     29  C   UNL d   1       1.434   2.749  -2.281  0.00  0.00     0.039 A 
ENDBRANCH  22  23
ENDBRANCH   3  22
TORSDOF 8
