REMARK  5 active torsions:
REMARK  status: ('A' for Active; 'I' for Inactive)
REMARK    1  A    between atoms: S_2  and  N_1 
REMARK    2  A    between atoms: C_11  and  S_2 
REMARK    3  A    between atoms: S_10  and  C_6 
REMARK    4  A    between atoms: C_8  and  C_9 
REMARK    5  A    between atoms: C_16  and  S_10 
ROOT
ATOM      1  N   UNL d   1      -0.131  -1.182   0.016  0.00  0.00    -0.180 N 
ATOM      2  C   UNL d   1       1.198  -0.804   0.168  0.00  0.00     0.061 C 
ATOM      3  N   UNL d   1      -0.985  -0.121   0.118  0.00  0.00    -0.287 N 
ATOM      4  HN  UNL d   1      -2.000  -0.140   0.213  1.00  0.00     0.188 HD
ATOM      5  C   UNL d   1       1.179   0.576   0.086  0.00  0.00     0.055 C 
ATOM      6  C   UNL d   1      -0.184   0.950   0.065  0.00  0.00     0.042 C 
ATOM      7  C   UNL d   1       2.350  -1.729   0.302  0.00  0.00     0.072 C 
ATOM      8  C   UNL d   1      -0.775   2.312   0.021  0.00  0.00     0.071 C 
ENDROOT
BRANCH   5   9
ATOM      9  S   UNL d   1       2.543   1.666   0.118  0.00  0.00    -0.069 SA
BRANCH   9  10
ATOM     10  C   UNL d   1       3.366   1.401  -1.449  0.00  0.00     0.074 A 
ATOM     11  N   UNL d   1       2.687   0.826  -2.467  0.00  0.00    -0.359 N 
ATOM     12  C   UNL d   1       3.317   0.717  -3.663  0.00  0.00     0.105 A 
ATOM     13  HN  UNL d   1       1.734   0.485  -2.339  1.00  0.00     0.166 HD
ATOM     14  C   UNL d   1       4.608   1.163  -3.909  0.00  0.00     0.063 A 
ATOM     15  C   UNL d   1       5.300   1.730  -2.836  0.00  0.00     0.020 A 
ATOM     16  C   UNL d   1       4.674   1.852  -1.596  0.00  0.00     0.038 A 
BRANCH  14  17
ATOM     17  C   UNL d   1       5.217   1.064  -5.275  0.00  0.00     0.418 C 
ATOM     18  F   UNL d   1       4.394   0.501  -6.202  0.00  0.00    -0.166 F 
ATOM     19  F   UNL d   1       5.562   2.281  -5.775  0.00  0.00    -0.166 F 
ATOM     20  F   UNL d   1       6.357   0.321  -5.286  0.00  0.00    -0.166 F 
ENDBRANCH  14  17
ENDBRANCH   9  10
ENDBRANCH   5   9
BRANCH   1  21
ATOM     21  S   UNL d   1      -0.680  -2.834  -0.106  0.00  0.00     0.282 S 
ATOM     22  O   UNL d   1      -2.028  -2.790  -0.644  0.00  0.00    -0.198 OA
ATOM     23  O   UNL d   1       0.382  -3.567  -0.778  0.00  0.00    -0.198 OA
BRANCH  21  24
ATOM     24  C   UNL d   1      -0.789  -3.393   1.574  0.00  0.00     0.081 A 
ATOM     25  C   UNL d   1      -1.730  -2.818   2.434  0.00  0.00     0.027 A 
ATOM     26  C   UNL d   1      -1.830  -3.280   3.750  0.00  0.00     0.025 A 
ATOM     27  C   UNL d   1      -1.000  -4.312   4.192  0.00  0.00     0.034 A 
ATOM     28  C   UNL d   1      -0.079  -4.900   3.325  0.00  0.00     0.025 A 
ATOM     29 CL   UNL d   1      -1.115  -4.867   5.816  0.00  0.00    -0.084 Cl
ATOM     30  C   UNL d   1       0.024  -4.448   2.008  0.00  0.00     0.027 A 
ENDBRANCH  21  24
ENDBRANCH   1  21
TORSDOF 5
