REMARK  4 active torsions:
REMARK  status: ('A' for Active; 'I' for Inactive)
REMARK    1  A    between atoms: C_2  and  C_1 
REMARK    2  A    between atoms: C_3  and  C_1 
REMARK       I    between atoms: N_5  and  C_2 
REMARK    3  A    between atoms: N_4  and  C_3 
REMARK    4  A    between atoms: C_7  and  N_4 
ROOT
ATOM      1  C   UNL d   1       1.004   0.068   0.045  0.00  0.00     0.245 C 
ATOM      2  C   UNL d   1      -0.276  -0.595  -0.266  0.00  0.00     0.080 C 
ATOM      3  N   UNL d   1      -1.253  -1.175  -0.493  0.00  0.00    -0.196 NA
ENDROOT
BRANCH   1   4
ATOM      4  C   UNL d   1       1.920   0.093  -1.177  0.00  0.00     0.244 C 
ATOM      5  N   UNL d   1       2.172  -1.079  -1.886  0.00  0.00    -0.347 N 
ATOM      6  C   UNL d   1       1.822  -2.456  -1.499  0.00  0.00     0.152 C 
ATOM      7  C   UNL d   1       2.888  -1.015  -3.170  0.00  0.00     0.152 C 
ATOM      8  C   UNL d   1       3.060  -3.363  -1.565  0.00  0.00     0.187 C 
ATOM      9  O   UNL d   1       3.688  -3.304  -2.853  0.00  0.00    -0.388 OA
ATOM     10  C   UNL d   1       4.092  -1.961  -3.166  0.00  0.00     0.187 C 
ATOM     11  O   UNL d   1       2.509   1.137  -1.479  0.00  0.00    -0.271 OA
ENDBRANCH   1   4
BRANCH   1  12
ATOM     12  C   UNL d   1       0.747   1.454   0.676  0.00  0.00     0.105 C 
ATOM     13  S   UNL d   1      -0.448   2.511   0.115  0.00  0.00    -0.063 SA
BRANCH  12  14
ATOM     14  N   UNL d   1       1.633   1.811   1.689  0.00  0.00    -0.349 N 
ATOM     15  H   UNL d   1       2.621   1.788   1.452  0.00  0.00     0.166 HD
BRANCH  14  16
ATOM     16  C   UNL d   1       1.288   2.497   2.884  0.00  0.00     0.038 A 
ATOM     17  C   UNL d   1       2.156   3.442   3.457  0.00  0.00    -0.035 A 
ATOM     18  C   UNL d   1       1.901   3.900   4.766  0.00  0.00     0.015 A 
ATOM     19  C   UNL d   1       3.323   4.047   2.729  0.00  0.00     0.050 C 
ATOM     20  C   UNL d   1       0.794   3.451   5.495  0.00  0.00    -0.061 A 
ATOM     21  C   UNL d   1      -0.108   2.584   4.878  0.00  0.00     0.009 A 
ATOM     22  C   UNL d   1       0.636   3.832   6.938  0.00  0.00     0.048 C 
ATOM     23  C   UNL d   1       0.132   2.117   3.582  0.00  0.00     0.030 A 
ENDBRANCH  14  16
ENDBRANCH  12  14
ENDBRANCH   1  12
TORSDOF 4
