REMARK  4 active torsions:
REMARK  status: ('A' for Active; 'I' for Inactive)
REMARK    1  A    between atoms: S_14  and  C_4 
REMARK    2  A    between atoms: N_11  and  C_5 
REMARK    3  A    between atoms: C_25  and  N_9 
REMARK    4  A    between atoms: C_10  and  S_14 
ROOT
ATOM      1  C   UNL d   1      -0.029   1.074  -0.208  0.00  0.00     0.152 A 
ATOM      2  C   UNL d   1       0.306   2.461  -0.155  0.00  0.00     0.098 A 
ATOM      3  N   UNL d   1       0.819   0.004  -0.027  0.00  0.00    -0.314 N 
ATOM      4  C   UNL d   1       0.011  -1.101  -0.018  0.00  0.00     0.169 A 
ATOM      5  N   UNL d   1      -1.249   0.616  -0.407  0.00  0.00    -0.281 N 
ATOM      6  HN  UNL d   1      -2.071   1.181  -0.620  1.00  0.00     0.188 HD
ATOM      7  N   UNL d   1      -0.310   3.462  -0.872  0.00  0.00    -0.289 N 
ATOM      8  N   UNL d   1      -1.226  -0.753  -0.277  0.00  0.00    -0.278 N 
ATOM      9  HN  UNL d   1      -2.025  -1.382  -0.366  1.00  0.00     0.189 HD
ATOM     10  N   UNL d   1       0.225   4.685  -0.641  0.00  0.00    -0.303 N 
ATOM     11  HN  UNL d   1      -0.029   5.571  -1.079  1.00  0.00     0.186 HD
ATOM     12  C   UNL d   1       1.236   3.107   0.635  0.00  0.00     0.061 A 
ATOM     13  C   UNL d   1       1.158   4.470   0.289  0.00  0.00     0.024 A 
ATOM     14  C   UNL d   1       2.256   0.010   0.072  0.00  0.00     0.160 C 
ATOM     15  C   UNL d   1       1.963   5.592   0.824  0.00  0.00     0.070 C 
ENDROOT
BRANCH   4  16
ATOM     16  S   UNL d   1       0.570  -2.713   0.254  0.00  0.00    -0.027 SA
BRANCH  16  17
ATOM     17  C   UNL d   1       0.205  -2.759   1.967  0.00  0.00     0.121 A 
ATOM     18  S   UNL d   1      -0.898  -3.891   2.639  0.00  0.00    -0.039 SA
ATOM     19  C   UNL d   1      -0.554  -3.271   4.183  0.00  0.00     0.161 A 
ATOM     20  C   UNL d   1       0.372  -2.258   4.110  0.00  0.00     0.133 A 
ATOM     21  N   UNL d   1       0.821  -1.968   2.829  0.00  0.00    -0.352 N 
ATOM     22  HN  UNL d   1       1.515  -1.260   2.591  1.00  0.00     0.166 HD
BRANCH  19  23
ATOM     23  N   UNL d   1      -1.168  -3.793   5.364  0.00  0.00    -0.107 N 
ATOM     24  O   UNL d   1      -0.827  -3.272   6.432  0.00  0.00    -0.531 OA
ATOM     25  O   UNL d   1      -1.978  -4.720   5.240  0.00  0.00    -0.531 OA
ENDBRANCH  19  23
ENDBRANCH  16  17
ENDBRANCH   4  16
BRANCH   7  26
ATOM     26  C   UNL d   1      -1.368   3.358  -1.863  0.00  0.00     0.145 C 
ATOM     27  C   UNL d   1      -2.750   3.576  -1.271  0.00  0.00     0.028 C 
ENDBRANCH   7  26
TORSDOF 4
