REMARK  11 active torsions:
REMARK  status: ('A' for Active; 'I' for Inactive)
REMARK    1  A    between atoms: N_2  and  S_1 
REMARK    2  A    between atoms: C_8  and  S_1 
REMARK    3  A    between atoms: C_3  and  N_2 
REMARK    4  A    between atoms: C_9  and  C_6 
REMARK    5  A    between atoms: C_13  and  C_9 
REMARK    6  A    between atoms: O_17  and  C_13 
REMARK    7  A    between atoms: C_22  and  O_17 
REMARK    8  A    between atoms: C_21  and  C_20 
REMARK    9  A    between atoms: C_23  and  C_21 
REMARK   10  A    between atoms: C_25  and  C_23 
REMARK   11  A    between atoms: C_24  and  C_25 
ROOT
ATOM      1  S   UNL d   1       0.950   0.168  -0.022  0.00  0.00     0.247 S 
ATOM      2  O   UNL d   1      -0.078   1.084  -0.475  0.00  0.00    -0.205 OA
ATOM      3  O   UNL d   1       1.419   0.193   1.344  0.00  0.00    -0.205 OA
ENDROOT
BRANCH   1   4
ATOM      4  N   UNL d   1       2.217   0.381  -1.128  0.00  0.00    -0.160 NA
ATOM      5  H   UNL d   1       1.928   1.170  -1.705  0.00  0.00     0.148 HD
BRANCH   4   6
ATOM      6  C   UNL d   1       3.437   0.662  -0.469  0.00  0.00     0.137 A 
ATOM      7  N   UNL d   1       4.261  -0.308  -0.159  0.00  0.00    -0.343 N 
ATOM      8  C   UNL d   1       5.436   0.230   0.353  0.00  0.00     0.026 A 
ATOM      9  HN  UNL d   1       4.071  -1.303  -0.276  1.00  0.00     0.167 HD
ATOM     10  C   UNL d   1       5.433   1.611   0.472  0.00  0.00     0.078 A 
ATOM     11  S   UNL d   1       3.990   2.252  -0.196  0.00  0.00    -0.069 SA
BRANCH   8  12
ATOM     12  C   UNL d   1       6.559  -0.692   0.709  0.00  0.00     0.168 C 
BRANCH  12  13
ATOM     13  C   UNL d   1       7.783  -0.459  -0.148  0.00  0.00     0.264 C 
ATOM     14  O   UNL d   1       7.914   0.405  -1.005  0.00  0.00    -0.265 OA
BRANCH  13  15
ATOM     15  O   UNL d   1       8.722  -1.408   0.144  0.00  0.00    -0.322 OA
BRANCH  15  16
ATOM     16  C   UNL d   1       9.742  -1.579  -0.853  0.00  0.00     0.174 C 
ATOM     17  C   UNL d   1       9.236  -2.600  -1.856  0.00  0.00     0.034 C 
ENDBRANCH  15  16
ENDBRANCH  13  15
ENDBRANCH  12  13
ENDBRANCH   8  12
ENDBRANCH   4   6
ENDBRANCH   1   4
BRANCH   1  18
ATOM     18  C   UNL d   1       0.399  -1.481  -0.368  0.00  0.00     0.074 A 
ATOM     19  C   UNL d   1       1.304  -2.536  -0.247  0.00  0.00     0.025 A 
ATOM     20  C   UNL d   1       0.871  -3.843  -0.471  0.00  0.00     0.009 A 
ATOM     21  C   UNL d   1      -0.461  -4.105  -0.815  0.00  0.00    -0.058 A 
ATOM     22  C   UNL d   1      -1.364  -3.034  -0.924  0.00  0.00     0.009 A 
ATOM     23  C   UNL d   1      -0.934  -1.720  -0.707  0.00  0.00     0.025 A 
BRANCH  21  24
ATOM     24  C   UNL d   1      -0.920  -5.529  -1.037  0.00  0.00     0.038 C 
BRANCH  24  25
ATOM     25  C   UNL d   1      -1.512  -5.800  -2.424  0.00  0.00     0.005 C 
BRANCH  25  26
ATOM     26  C   UNL d   1      -0.519  -5.572  -3.568  0.00  0.00    -0.000 C 
BRANCH  26  27
ATOM     27  C   UNL d   1      -1.172  -5.867  -4.919  0.00  0.00    -0.005 C 
ATOM     28  C   UNL d   1      -0.214  -5.629  -6.074  0.00  0.00     0.005 C 
ENDBRANCH  26  27
ENDBRANCH  25  26
ENDBRANCH  24  25
ENDBRANCH  21  24
ENDBRANCH   1  18
TORSDOF 11
