REMARK  9 active torsions:
REMARK  status: ('A' for Active; 'I' for Inactive)
REMARK    1  A    between atoms: C_9  and  C_1 
REMARK    2  A    between atoms: C_2  and  C_10 
REMARK       I    between atoms: N_5  and  C_2 
REMARK    3  A    between atoms: C_3  and  C_14 
REMARK    4  A    between atoms: C_4  and  C_6 
REMARK       I    between atoms: N_13  and  C_4 
REMARK    5  A    between atoms: C_6  and  N_5 
REMARK    6  A    between atoms: C_26  and  C_6 
REMARK    7  A    between atoms: N_7  and  N_13 
REMARK    8  A    between atoms: C_31  and  C_26 
REMARK    9  A    between atoms: S_27  and  C_31 
ROOT
ATOM      1  C   UNL d   1       0.326   5.872   1.767  0.00  0.00     0.179 C 
ENDROOT
BRANCH   1   2
ATOM      2  C   UNL d   1       0.530   7.389   1.557  0.00  0.00     0.258 C 
ATOM      3  N   UNL d   1       1.485   7.709   0.600  0.00  0.00    -0.269 N 
ATOM      4  H   UNL d   1       1.774   6.987  -0.046  0.00  0.00     0.190 HD
ATOM      5  O   UNL d   1      -0.185   8.213   2.128  0.00  0.00    -0.269 OA
BRANCH   3   6
ATOM      6  N   UNL d   1       1.689   9.009   0.240  0.00  0.00    -0.308 N 
ATOM      7  C   UNL d   1       2.732   9.334  -0.471  0.00  0.00     0.123 C 
ATOM      8  HN  UNL d   1       1.025   9.728   0.528  1.00  0.00     0.186 HD
BRANCH   7   9
ATOM      9  C   UNL d   1       3.842   8.483  -0.948  0.00  0.00     0.041 A 
ATOM     10  C   UNL d   1       3.581   7.242  -1.520  0.00  0.00     0.129 A 
ATOM     11  F   UNL d   1       2.317   6.868  -1.750  0.00  0.00    -0.205 F 
ATOM     12  C   UNL d   1       4.601   6.359  -1.864  0.00  0.00     0.043 A 
ATOM     13  C   UNL d   1       5.923   6.749  -1.696  0.00  0.00     0.005 A 
ATOM     14  C   UNL d   1       6.207   8.027  -1.213  0.00  0.00     0.025 A 
ATOM     15  C   UNL d   1       5.172   8.898  -0.840  0.00  0.00     0.048 A 
ATOM     16 CL   UNL d   1       5.615  10.456  -0.244  0.00  0.00    -0.083 Cl
ENDBRANCH   7   9
ENDBRANCH   3   6
ENDBRANCH   1   2
BRANCH   1  17
ATOM     17  N   UNL d   1       1.587   5.118   1.804  0.00  0.00    -0.344 N 
ATOM     18  C   UNL d   1       1.882   4.241   2.830  0.00  0.00     0.252 C 
ATOM     19  O   UNL d   1       1.145   4.091   3.800  0.00  0.00    -0.268 OA
ATOM     20  H   UNL d   1       2.157   5.136   0.978  0.00  0.00     0.163 HD
BRANCH  18  21
ATOM     21  C   UNL d   1       3.132   3.420   2.726  0.00  0.00     0.032 A 
ATOM     22  C   UNL d   1       3.958   3.391   1.592  0.00  0.00     0.018 A 
ATOM     23  C   UNL d   1       5.079   2.550   1.554  0.00  0.00     0.017 A 
ATOM     24  C   UNL d   1       5.408   1.733   2.645  0.00  0.00     0.048 A 
ATOM     25  C   UNL d   1       4.595   1.774   3.782  0.00  0.00     0.017 A 
ATOM     26  C   UNL d   1       3.472   2.611   3.820  0.00  0.00     0.018 A 
BRANCH  24  27
ATOM     27  C   UNL d   1       6.603   0.811   2.566  0.00  0.00     0.417 C 
ATOM     28  F   UNL d   1       6.879   0.169   3.734  0.00  0.00    -0.166 F 
ATOM     29  F   UNL d   1       7.745   1.469   2.221  0.00  0.00    -0.166 F 
ATOM     30  F   UNL d   1       6.439  -0.165   1.631  0.00  0.00    -0.166 F 
ENDBRANCH  24  27
ENDBRANCH  18  21
ENDBRANCH   1  17
BRANCH   1  31
ATOM     31  C   UNL d   1      -0.693   5.271   0.778  0.00  0.00     0.045 C 
BRANCH  31  32
ATOM     32  C   UNL d   1      -0.316   5.184  -0.707  0.00  0.00     0.076 C 
BRANCH  32  33
ATOM     33  S   UNL d   1       1.175   4.207  -1.122  0.00  0.00    -0.173 SA
ATOM     34  C   UNL d   1       0.672   2.574  -0.527  0.00  0.00     0.089 C 
ENDBRANCH  32  33
ENDBRANCH  31  32
ENDBRANCH   1  31
TORSDOF 9
