REMARK  1 active torsions:
REMARK  status: ('A' for Active; 'I' for Inactive)
REMARK    1  A    between atoms: C_11  and  C_7 
ROOT
ATOM      1  C   UNL d   1       1.179   0.127  -0.021  0.00  0.00     0.101 A 
ATOM      2  N   UNL d   1      -0.809  -1.239   0.004  0.00  0.00    -0.275 N 
ATOM      3  N   UNL d   1      -1.036   1.064   0.005  0.00  0.00    -0.275 N 
ATOM      4  C   UNL d   1       0.556  -1.224  -0.005  0.00  0.00     0.265 A 
ATOM      5  C   UNL d   1       0.305   1.324  -0.066  0.00  0.00     0.265 A 
ATOM      6  C   UNL d   1      -1.633  -0.157   0.007  0.00  0.00     0.329 A 
ATOM      7  C   UNL d   1       2.526   0.168   0.016  0.00  0.00     0.034 C 
ATOM      8  O   UNL d   1       0.705   2.477  -0.174  0.00  0.00    -0.267 OA
ATOM      9  O   UNL d   1       1.200  -2.269   0.001  0.00  0.00    -0.267 OA
ATOM     10  O   UNL d   1      -2.852  -0.279   0.003  0.00  0.00    -0.246 OA
ATOM     11  H   UNL d   1      -1.252  -2.147   0.009  0.00  0.00     0.173 HD
ATOM     12  H   UNL d   1      -1.650   1.866  -0.028  0.00  0.00     0.173 HD
ENDROOT
BRANCH   7  13
ATOM     13  C   UNL d   1       3.375   1.361   0.043  0.00  0.00    -0.035 A 
ATOM     14  C   UNL d   1       3.747   1.929   1.268  0.00  0.00     0.013 A 
ATOM     15  C   UNL d   1       4.611   3.026   1.300  0.00  0.00     0.024 A 
ATOM     16  C   UNL d   1       5.103   3.554   0.107  0.00  0.00     0.034 A 
ATOM     17  C   UNL d   1       4.724   3.007  -1.117  0.00  0.00     0.024 A 
ATOM     18 CL   UNL d   1       6.200   4.880   0.148  0.00  0.00    -0.084 Cl
ATOM     19  C   UNL d   1       3.857   1.911  -1.150  0.00  0.00     0.013 A 
ENDBRANCH   7  13
TORSDOF 1
