REMARK  6 active torsions:
REMARK  status: ('A' for Active; 'I' for Inactive)
REMARK    1  A    between atoms: C_15  and  C_13 
REMARK    2  A    between atoms: C_16  and  C_15 
REMARK    3  A    between atoms: C_19  and  C_16 
REMARK    4  A    between atoms: C_17  and  C_18 
REMARK    5  A    between atoms: C_18  and  C_20 
REMARK    6  A    between atoms: C_20  and  C_19 
ROOT
ATOM      1  C   UNL d   1      -3.008  -0.387  -0.963  0.00  0.00    -0.042 A 
ATOM      2  C   UNL d   1      -0.710  -0.061  -1.336  0.00  0.00    -0.042 A 
ATOM      3  C   UNL d   1      -2.484   0.391   0.091  0.00  0.00    -0.019 A 
ATOM      4  C   UNL d   1      -1.069   0.589  -0.136  0.00  0.00    -0.019 A 
ATOM      5  C   UNL d   1      -1.917  -0.736  -1.953  0.00  0.00     0.078 A 
ATOM      6  C   UNL d   1      -0.117   1.266   0.609  0.00  0.00     0.014 A 
ATOM      7  C   UNL d   1      -3.310   0.831   1.110  0.00  0.00     0.013 A 
ATOM      8  C   UNL d   1       0.592  -0.041  -1.812  0.00  0.00     0.027 A 
ATOM      9  C   UNL d   1      -4.346  -0.738  -1.010  0.00  0.00     0.015 A 
ATOM     10  C   UNL d   1       1.546   0.646  -1.060  0.00  0.00     0.011 A 
ATOM     11  C   UNL d   1       1.201   1.292   0.139  0.00  0.00     0.020 A 
ATOM     12  C   UNL d   1      -4.664   0.479   1.073  0.00  0.00     0.008 A 
ATOM     13  C   UNL d   1      -5.191  -0.309   0.025  0.00  0.00    -0.058 A 
ATOM     14 BR   UNL d   1       3.338   0.706  -1.664  0.00  0.00    -0.051 Br
ENDROOT
BRANCH  13  15
ATOM     15  C   UNL d   1      -6.659  -0.671   0.021  0.00  0.00     0.038 C 
BRANCH  15  16
ATOM     16  C   UNL d   1      -6.879  -2.184   0.072  0.00  0.00     0.005 C 
BRANCH  16  17
ATOM     17  C   UNL d   1      -8.363  -2.546   0.093  0.00  0.00     0.000 C 
BRANCH  17  18
ATOM     18  C   UNL d   1      -8.530  -4.064   0.136  0.00  0.00     0.000 C 
BRANCH  18  19
ATOM     19  C   UNL d   1     -10.001  -4.468   0.154  0.00  0.00    -0.000 C 
BRANCH  19  20
ATOM     20  C   UNL d   1     -10.148  -5.988   0.198  0.00  0.00    -0.005 C 
ATOM     21  C   UNL d   1     -11.611  -6.395   0.217  0.00  0.00     0.005 C 
ENDBRANCH  19  20
ENDBRANCH  18  19
ENDBRANCH  17  18
ENDBRANCH  16  17
ENDBRANCH  15  16
ENDBRANCH  13  15
TORSDOF 6
