REMARK  3 active torsions:
REMARK  status: ('A' for Active; 'I' for Inactive)
REMARK    1  A    between atoms: N_7  and  C_13 
REMARK    2  A    between atoms: C_14  and  C_8 
REMARK    3  A    between atoms: C_11  and  C_9 
ROOT
ATOM      1  C   UNL d   1       4.774   3.006  -0.445  0.00  0.00     0.086 A 
ATOM      2  O   UNL d   1       4.239   1.823  -0.867  0.00  0.00    -0.310 OA
ATOM      3  C   UNL d   1       3.313   1.400   0.057  0.00  0.00     0.077 A 
ATOM      4  C   UNL d   1       4.172   3.379   0.737  0.00  0.00     0.041 A 
ATOM      5  C   UNL d   1       3.244   2.359   1.057  0.00  0.00     0.040 A 
ENDROOT
BRANCH   3   6
ATOM      6  C   UNL d   1       2.581   0.196  -0.093  0.00  0.00     0.060 C 
ATOM      7  C   UNL d   1       2.950  -0.984   0.438  0.00  0.00     0.103 A 
ATOM      8  C   UNL d   1       2.081  -2.145   0.112  0.00  0.00     0.265 A 
ATOM      9  C   UNL d   1       4.144  -1.202   1.297  0.00  0.00     0.265 A 
ATOM     10  N   UNL d   1       2.490  -3.348   0.612  0.00  0.00    -0.275 N 
ATOM     11  O   UNL d   1       1.054  -2.056  -0.554  0.00  0.00    -0.267 OA
ATOM     12  C   UNL d   1       3.593  -3.579   1.372  0.00  0.00     0.329 A 
ATOM     13  H   UNL d   1       1.904  -4.146   0.412  0.00  0.00     0.173 HD
ATOM     14  N   UNL d   1       4.384  -2.505   1.637  0.00  0.00    -0.275 N 
ATOM     15  O   UNL d   1       3.850  -4.694   1.810  0.00  0.00    -0.246 OA
ATOM     16  H   UNL d   1       5.184  -2.672   2.232  0.00  0.00     0.173 HD
ATOM     17  O   UNL d   1       4.871  -0.313   1.725  0.00  0.00    -0.267 OA
ENDBRANCH   3   6
BRANCH   1  18
ATOM     18  C   UNL d   1       5.835   3.573  -1.276  0.00  0.00     0.000 A 
ATOM     19  C   UNL d   1       6.245   2.946  -2.463  0.00  0.00     0.050 A 
ATOM     20  C   UNL d   1       7.312   3.474  -3.207  0.00  0.00     0.103 A 
ATOM     21  C   UNL d   1       7.971   4.636  -2.789  0.00  0.00     0.036 A 
ATOM     22  C   UNL d   1       7.554   5.274  -1.624  0.00  0.00     0.003 A 
ATOM     23  C   UNL d   1       6.496   4.747  -0.877  0.00  0.00     0.014 A 
BRANCH  20  24
ATOM     24  N   UNL d   1       7.758   2.787  -4.426  0.00  0.00    -0.116 N 
ATOM     25  O   UNL d   1       7.166   1.749  -4.755  0.00  0.00    -0.532 OA
ATOM     26  O   UNL d   1       8.704   3.284  -5.053  0.00  0.00    -0.532 OA
ENDBRANCH  20  24
ENDBRANCH   1  18
TORSDOF 3
