REMARK  4 active torsions:
REMARK  status: ('A' for Active; 'I' for Inactive)
REMARK    1  A    between atoms: C_3  and  C_1 
REMARK    2  A    between atoms: C_10  and  C_2 
REMARK       I    between atoms: N_14  and  C_10 
REMARK       I    between atoms: C_13  and  N_15 
REMARK    3  A    between atoms: C_19  and  C_13 
REMARK    4  A    between atoms: N_15  and  N_14 
ROOT
ATOM      1  C   UNL d   1      -1.262  -0.677   0.282  0.00  0.00     0.145 C 
ATOM      2  C   UNL d   1      -0.115  -1.398  -0.017  0.00  0.00     0.096 C 
ATOM      3  O   UNL d   1      -1.047   0.637  -0.024  0.00  0.00    -0.234 OA
ATOM      4  N   UNL d   1       0.261   0.832  -0.385  0.00  0.00    -0.264 N 
ATOM      5  HN  UNL d   1       0.702   1.713  -0.649  1.00  0.00     0.194 HD
ATOM      6  C   UNL d   1       0.837  -0.372  -0.320  0.00  0.00     0.047 C 
ATOM      7  C   UNL d   1       2.304  -0.455  -0.523  0.00  0.00     0.071 C 
ENDROOT
BRANCH   2   8
ATOM      8  C   UNL d   1       0.140  -2.829   0.057  0.00  0.00     0.275 C 
ATOM      9  N   UNL d   1      -0.917  -3.660  -0.248  0.00  0.00    -0.263 N 
ATOM     10  H   UNL d   1      -1.873  -3.339  -0.396  0.00  0.00     0.190 HD
ATOM     11  O   UNL d   1       1.258  -3.280   0.301  0.00  0.00    -0.266 OA
BRANCH   9  12
ATOM     12  N   UNL d   1      -0.726  -5.052  -0.254  0.00  0.00    -0.263 N 
ATOM     13  C   UNL d   1      -1.529  -5.805  -1.088  0.00  0.00     0.270 C 
ATOM     14  O   UNL d   1      -2.465  -5.338  -1.736  0.00  0.00    -0.266 OA
ATOM     15  H   UNL d   1       0.184  -5.380   0.064  0.00  0.00     0.190 HD
BRANCH  13  16
ATOM     16  C   UNL d   1      -1.174  -7.244  -1.205  0.00  0.00     0.033 A 
ATOM     17  C   UNL d   1      -0.687  -7.971  -0.111  0.00  0.00     0.017 A 
ATOM     18  C   UNL d   1      -0.350  -9.318  -0.265  0.00  0.00     0.001 A 
ATOM     19  C   UNL d   1      -0.504  -9.940  -1.506  0.00  0.00     0.000 A 
ATOM     20  C   UNL d   1      -1.009  -9.224  -2.591  0.00  0.00     0.001 A 
ATOM     21  C   UNL d   1      -1.354  -7.880  -2.439  0.00  0.00     0.017 A 
ENDBRANCH  13  16
ENDBRANCH   9  12
ENDBRANCH   2   8
BRANCH   1  22
ATOM     22  C   UNL d   1      -2.516  -1.105   0.959  0.00  0.00     0.094 A 
ATOM     23  N   UNL d   1      -2.760  -2.352   1.370  0.00  0.00    -0.258 N 
ATOM     24  O   UNL d   1      -3.920  -2.282   2.120  0.00  0.00    -0.242 OA
ATOM     25  HN  UNL d   1      -2.204  -3.185   1.172  1.00  0.00     0.195 HD
ATOM     26  C   UNL d   1      -4.363  -0.997   2.145  0.00  0.00     0.074 A 
ATOM     27  C   UNL d   1      -3.543  -0.222   1.364  0.00  0.00     0.068 A 
ATOM     28  C   UNL d   1      -5.522  -0.707   3.006  0.00  0.00     0.079 C 
ENDBRANCH   1  22
TORSDOF 4
