REMARK  4 active torsions:
REMARK  status: ('A' for Active; 'I' for Inactive)
REMARK    1  A    between atoms: C_3  and  C_1 
REMARK    2  A    between atoms: O_9  and  C_2 
REMARK       I    between atoms: N_6  and  C_3 
REMARK    3  A    between atoms: C_18  and  N_6 
REMARK    4  A    between atoms: C_8  and  O_9 
ROOT
ATOM      1  C   UNL d   1      -0.037   1.163   0.011  0.00  0.00     0.146 A 
ATOM      2  C   UNL d   1      -0.109  -1.031  -0.105  0.00  0.00     0.191 A 
ATOM      3  O   UNL d   1      -0.890   0.093  -0.087  0.00  0.00    -0.282 OA
ATOM      4  C   UNL d   1       1.266   0.712   0.109  0.00  0.00     0.048 A 
ATOM      5  C   UNL d   1       1.219  -0.695   0.055  0.00  0.00     0.067 A 
ENDROOT
BRANCH   1   6
ATOM      6  C   UNL d   1      -0.517   2.532  -0.040  0.00  0.00     0.280 C 
ATOM      7  N   UNL d   1      -1.893   2.691  -0.052  0.00  0.00    -0.320 N 
ATOM      8  H   UNL d   1      -2.444   1.855   0.102  0.00  0.00     0.169 HD
ATOM      9  O   UNL d   1       0.278   3.469  -0.055  0.00  0.00    -0.265 OA
BRANCH   7  10
ATOM     10  C   UNL d   1      -2.573   3.924  -0.208  0.00  0.00     0.050 A 
ATOM     11  C   UNL d   1      -1.968   5.121  -0.595  0.00  0.00     0.117 A 
ATOM     12  N   UNL d   1      -2.623   6.300  -0.763  0.00  0.00    -0.373 N 
ATOM     13  C   UNL d   1      -3.948   6.295  -0.528  0.00  0.00     0.088 A 
ATOM     14  HN  UNL d   1      -2.135   7.147  -1.053  1.00  0.00     0.164 HD
ATOM     15  C   UNL d   1      -4.649   5.165  -0.141  0.00  0.00     0.019 A 
ATOM     16  C   UNL d   1      -3.951   3.964   0.012  0.00  0.00     0.032 A 
ENDBRANCH   7  10
ENDBRANCH   1   6
BRANCH   2  17
ATOM     17  O   UNL d   1      -0.781  -2.170  -0.274  0.00  0.00    -0.288 OA
BRANCH  17  18
ATOM     18  C   UNL d   1      -0.158  -3.275  -0.814  0.00  0.00     0.081 A 
ATOM     19  C   UNL d   1      -0.474  -4.523  -0.274  0.00  0.00     0.061 A 
ATOM     20  C   UNL d   1       0.085  -5.678  -0.827  0.00  0.00     0.038 A 
ATOM     21 CL   UNL d   1      -0.310  -7.218  -0.168  0.00  0.00    -0.084 Cl
ATOM     22  C   UNL d   1       0.953  -5.601  -1.913  0.00  0.00     0.048 A 
ATOM     23  C   UNL d   1       1.253  -4.354  -2.454  0.00  0.00     0.038 A 
ATOM     24  C   UNL d   1       0.694  -3.193  -1.921  0.00  0.00     0.061 A 
ATOM     25 CL   UNL d   1       2.318  -4.242  -3.801  0.00  0.00    -0.084 Cl
ENDBRANCH  17  18
ENDBRANCH   2  17
TORSDOF 4
