REMARK  2 active torsions:
REMARK  status: ('A' for Active; 'I' for Inactive)
REMARK    1  A    between atoms: C_11  and  N_4 
REMARK    2  A    between atoms: C_7  and  C_11 
ROOT
ATOM      1  S   UNL d   1       0.932   0.179  -0.158  0.00  0.00     0.147 S 
ATOM      2  C   UNL d   1       0.025  -1.290   0.242  0.00  0.00     0.170 C 
ATOM      3  C   UNL d   1      -0.144   1.482   0.380  0.00  0.00     0.170 C 
ATOM      4  N   UNL d   1      -2.167  -0.043   0.309  0.00  0.00     0.096 N 
ATOM      5  O   UNL d   1       2.116   0.213   0.681  0.00  0.00    -0.228 OA
ATOM      6  O   UNL d   1       1.056   0.262  -1.601  0.00  0.00    -0.228 OA
ATOM      7  C   UNL d   1      -1.571   1.244  -0.092  0.00  0.00     0.287 C 
ATOM      8  C   UNL d   1      -1.404  -1.171  -0.254  0.00  0.00     0.287 C 
ENDROOT
BRANCH   4   9
ATOM      9  C   UNL d   1      -2.405  -0.115   1.764  0.00  0.00     0.337 C 
BRANCH   9  10
ATOM     10  C   UNL d   1      -3.033  -1.390   2.212  0.00  0.00     0.080 A 
ATOM     11  O   UNL d   1      -2.177  -2.372   2.623  0.00  0.00    -0.325 OA
ATOM     12  C   UNL d   1      -2.936  -3.434   2.992  0.00  0.00     0.142 A 
ATOM     13  C   UNL d   1      -4.271  -3.148   2.833  0.00  0.00     0.027 A 
ATOM     14  C   UNL d   1      -4.337  -1.826   2.327  0.00  0.00     0.036 A 
ENDBRANCH   9  10
ENDBRANCH   4   9
TORSDOF 2
