REMARK  4 active torsions:
REMARK  status: ('A' for Active; 'I' for Inactive)
REMARK    1  A    between atoms: C_4  and  C_1 
REMARK    2  A    between atoms: O_8  and  C_4 
REMARK    3  A    between atoms: C_7  and  C_9 
REMARK    4  A    between atoms: C_13  and  O_8 
ROOT
ATOM      1  O   UNL d   1      -1.708  -3.006   0.064  0.00  0.00    -0.274 OA
ENDROOT
BRANCH   1   2
ATOM      2  C   UNL d   1      -0.364  -2.681   0.200  0.00  0.00     0.318 C 
ATOM      3  O   UNL d   1       0.568  -3.464   0.271  0.00  0.00    -0.257 OA
BRANCH   2   4
ATOM      4  C   UNL d   1      -0.233  -1.193   0.290  0.00  0.00     0.144 A 
ATOM      5  C   UNL d   1      -1.052  -0.293  -0.272  0.00  0.00     0.050 A 
ATOM      6  C   UNL d   1      -0.458   1.026   0.057  0.00  0.00     0.313 A 
ATOM      7  C   UNL d   1      -2.261  -0.358  -1.126  0.00  0.00     0.057 C 
ATOM      8  O   UNL d   1      -0.896   2.106  -0.301  0.00  0.00    -0.258 OA
ATOM      9  O   UNL d   1       0.677   0.816   0.799  0.00  0.00    -0.192 OA
ATOM     10  N   UNL d   1       0.782  -0.568   0.990  0.00  0.00    -0.247 N 
ATOM     11  C   UNL d   1       2.146  -1.005   1.211  0.00  0.00     0.186 C 
ENDBRANCH   2   4
ENDBRANCH   1   2
BRANCH   1  12
ATOM     12  C   UNL d   1      -2.207  -4.292  -0.255  0.00  0.00     0.080 A 
ATOM     13  C   UNL d   1      -1.463  -5.278  -0.899  0.00  0.00     0.053 A 
ATOM     14  C   UNL d   1      -2.084  -6.479  -1.280  0.00  0.00     0.050 A 
ATOM     15  C   UNL d   1      -3.450  -6.663  -1.004  0.00  0.00     0.016 A 
ATOM     16  C   UNL d   1      -4.186  -5.668  -0.359  0.00  0.00     0.004 A 
ATOM     17  C   UNL d   1      -3.564  -4.479   0.013  0.00  0.00     0.037 A 
BRANCH  14  18
ATOM     18  C   UNL d   1      -1.317  -7.561  -2.002  0.00  0.00     0.417 C 
ATOM     19  F   UNL d   1      -0.010  -7.252  -2.227  0.00  0.00    -0.166 F 
ATOM     20  F   UNL d   1      -1.312  -8.740  -1.321  0.00  0.00    -0.166 F 
ATOM     21  F   UNL d   1      -1.848  -7.840  -3.226  0.00  0.00    -0.166 F 
ENDBRANCH  14  18
ENDBRANCH   1  12
TORSDOF 4
