REMARK  4 active torsions:
REMARK  status: ('A' for Active; 'I' for Inactive)
REMARK    1  A    between atoms: C_7  and  C_1 
REMARK    2  A    between atoms: C_9  and  C_5 
REMARK       I    between atoms: N_12  and  C_7 
REMARK    3  A    between atoms: C_8  and  C_17 
REMARK    4  A    between atoms: C_17  and  N_12 
ROOT
ATOM      1  C   UNL d   1       0.630   1.202   0.131  0.00  0.00     0.143 A 
ATOM      2  S   UNL d   1       1.377  -0.329   0.035  0.00  0.00    -0.064 SA
ATOM      3  N   UNL d   1      -0.686   1.192   0.202  0.00  0.00    -0.349 N 
ATOM      4  HN  UNL d   1      -1.274   2.017   0.322  1.00  0.00     0.166 HD
ATOM      5  C   UNL d   1      -0.170  -1.104   0.035  0.00  0.00     0.039 A 
ATOM      6  C   UNL d   1      -1.154  -0.116   0.090  0.00  0.00     0.024 A 
ATOM      7  C   UNL d   1      -2.631  -0.295   0.012  0.00  0.00     0.069 C 
ENDROOT
BRANCH   1   8
ATOM      8  C   UNL d   1       1.425   2.430   0.145  0.00  0.00     0.275 C 
ATOM      9  N   UNL d   1       0.754   3.530   0.649  0.00  0.00    -0.351 N 
ATOM     10  H   UNL d   1      -0.171   3.367   1.031  0.00  0.00     0.163 HD
ATOM     11  O   UNL d   1       2.591   2.514  -0.247  0.00  0.00    -0.265 OA
BRANCH   9  12
ATOM     12  C   UNL d   1       1.413   4.804   0.813  0.00  0.00     0.164 C 
BRANCH  12  13
ATOM     13  C   UNL d   1       0.526   5.829   1.473  0.00  0.00    -0.004 A 
ATOM     14  C   UNL d   1       0.905   6.501   2.650  0.00  0.00     0.088 A 
ATOM     15  C   UNL d   1       0.056   7.446   3.246  0.00  0.00     0.003 A 
ATOM     16  O   UNL d   1       2.119   6.191   3.203  0.00  0.00    -0.325 OA
ATOM     17  C   UNL d   1       0.475   8.137   4.508  0.00  0.00     0.212 C 
ATOM     18  C   UNL d   1      -1.162   7.761   2.635  0.00  0.00     0.054 A 
ATOM     19  O   UNL d   1       1.509   7.411   5.158  0.00  0.00    -0.362 OA
ATOM     20  C   UNL d   1       2.533   7.101   4.223  0.00  0.00     0.345 C 
ATOM     21  C   UNL d   1      -1.527   7.120   1.459  0.00  0.00     0.117 A 
ATOM     22  C   UNL d   1      -0.702   6.164   0.877  0.00  0.00     0.054 A 
ATOM     23  F   UNL d   1      -2.692   7.428   0.876  0.00  0.00    -0.206 F 
ENDBRANCH  12  13
ENDBRANCH   9  12
ENDBRANCH   1   8
BRANCH   5  24
ATOM     24  C   UNL d   1      -0.270  -2.580  -0.032  0.00  0.00    -0.016 A 
ATOM     25  C   UNL d   1      -1.332  -3.256   0.599  0.00  0.00     0.023 A 
ATOM     26  C   UNL d   1      -1.433  -4.634   0.483  0.00  0.00    -0.022 A 
ATOM     27  C   UNL d   1      -2.500  -5.547   0.951  0.00  0.00     0.068 C 
ATOM     28  C   UNL d   1      -0.493  -5.360  -0.223  0.00  0.00     0.075 A 
ATOM     29  C   UNL d   1      -1.790  -6.883   0.727  0.00  0.00     0.180 C 
ATOM     30  O   UNL d   1      -0.746  -6.705  -0.260  0.00  0.00    -0.350 OA
ATOM     31  C   UNL d   1       0.573  -4.749  -0.841  0.00  0.00     0.038 A 
ATOM     32  C   UNL d   1       0.680  -3.355  -0.744  0.00  0.00     0.015 A 
ENDBRANCH   5  24
TORSDOF 4
