REMARK  5 active torsions:
REMARK  status: ('A' for Active; 'I' for Inactive)
REMARK    1  A    between atoms: C_10  and  C_1 
REMARK    2  A    between atoms: C_4  and  S_5 
REMARK    3  A    between atoms: O_15  and  C_4 
REMARK    4  A    between atoms: S_5  and  C_10 
REMARK    5  A    between atoms: C_17  and  O_15 
ROOT
ATOM      1  C   UNL d   1       0.579   1.711   0.056  0.00  0.00    -0.011 A 
ATOM      2  C   UNL d   1      -0.496   0.808  -0.009  0.00  0.00     0.087 A 
ATOM      3  C   UNL d   1      -0.275  -0.576  -0.043  0.00  0.00     0.003 A 
ATOM      4  O   UNL d   1      -1.765   1.328  -0.011  0.00  0.00    -0.325 OA
ATOM      5  C   UNL d   1       1.035  -1.067  -0.058  0.00  0.00     0.054 A 
ATOM      6  C   UNL d   1       1.887   1.200   0.041  0.00  0.00     0.053 A 
ATOM      7  C   UNL d   1       2.101  -0.173  -0.018  0.00  0.00     0.117 A 
ATOM      8  O   UNL d   1      -2.628  -0.866   0.335  0.00  0.00    -0.362 OA
ATOM      9  C   UNL d   1      -2.768   0.371  -0.352  0.00  0.00     0.345 C 
ATOM     10  C   UNL d   1      -1.440  -1.518  -0.093  0.00  0.00     0.212 C 
ATOM     11  F   UNL d   1       3.354  -0.648  -0.029  0.00  0.00    -0.206 F 
ENDROOT
BRANCH   1  12
ATOM     12  C   UNL d   1       0.362   3.208   0.124  0.00  0.00     0.123 C 
BRANCH  12  13
ATOM     13  S   UNL d   1       0.325   3.946  -1.531  0.00  0.00    -0.089 SA
BRANCH  13  14
ATOM     14  C   UNL d   1      -0.005   5.649  -1.215  0.00  0.00     0.175 C 
ATOM     15  S   UNL d   1       0.448   6.500   0.152  0.00  0.00    -0.045 SA
BRANCH  14  16
ATOM     16  O   UNL d   1      -0.668   6.260  -2.241  0.00  0.00    -0.336 OA
BRANCH  16  17
ATOM     17  C   UNL d   1      -0.604   7.683  -2.491  0.00  0.00     0.172 C 
ATOM     18  C   UNL d   1      -0.934   7.896  -3.958  0.00  0.00     0.034 C 
ENDBRANCH  16  17
ENDBRANCH  14  16
ENDBRANCH  13  14
ENDBRANCH  12  13
ENDBRANCH   1  12
TORSDOF 5
