REMARK  6 active torsions:
REMARK  status: ('A' for Active; 'I' for Inactive)
REMARK    1  A    between atoms: C_7  and  N_1 
REMARK    2  A    between atoms: N_2  and  C_4 
REMARK       I    between atoms: C_3  and  N_2 
REMARK    3  A    between atoms: C_5  and  C_3 
REMARK    4  A    between atoms: C_4  and  N_13 
REMARK    5  A    between atoms: C_6  and  C_11 
REMARK       I    between atoms: N_10  and  C_6 
REMARK    6  A    between atoms: N_13  and  N_10 
ROOT
ATOM      1  C   UNL d   1      -0.846   4.133   1.504  0.00  0.00     0.270 C 
ATOM      2  N   UNL d   1      -1.791   5.056   1.921  0.00  0.00    -0.264 N 
ATOM      3  O   UNL d   1      -0.679   3.041   2.037  0.00  0.00    -0.266 OA
ATOM      4  H   UNL d   1      -1.729   6.034   1.626  0.00  0.00     0.190 HD
ENDROOT
BRANCH   2   5
ATOM      5  N   UNL d   1      -2.482   4.786   3.095  0.00  0.00    -0.273 N 
ATOM      6  H   UNL d   1      -2.372   3.827   3.438  0.00  0.00     0.189 HD
BRANCH   5   7
ATOM      7  C   UNL d   1      -3.474   5.536   3.621  0.00  0.00     0.193 C 
ATOM      8  S   UNL d   1      -4.427   4.876   4.832  0.00  0.00    -0.039 SA
BRANCH   7   9
ATOM      9  N   UNL d   1      -3.753   6.825   3.246  0.00  0.00    -0.302 N 
ATOM     10  C   UNL d   1      -3.186   7.759   2.388  0.00  0.00     0.228 C 
ATOM     11  O   UNL d   1      -2.244   7.557   1.631  0.00  0.00    -0.273 OA
ATOM     12  H   UNL d   1      -4.528   7.175   3.791  0.00  0.00     0.171 HD
BRANCH  10  13
ATOM     13  C   UNL d   1      -3.819   9.118   2.395  0.00  0.00     0.078 A 
ATOM     14  C   UNL d   1      -4.358   9.765   3.652  0.00  0.00     0.015 A 
ATOM     15  C   UNL d   1      -5.307   9.318   2.577  0.00  0.00     0.015 A 
ENDBRANCH  10  13
ENDBRANCH   7   9
ENDBRANCH   5   7
ENDBRANCH   2   5
BRANCH   1  16
ATOM     16  C   UNL d   1       0.023   4.574   0.382  0.00  0.00     0.036 A 
ATOM     17  C   UNL d   1       1.352   4.133   0.334  0.00  0.00     0.053 A 
ATOM     18  C   UNL d   1       2.204   4.644  -0.654  0.00  0.00     0.103 A 
ATOM     19  C   UNL d   1       1.731   5.562  -1.605  0.00  0.00     0.036 A 
ATOM     20  C   UNL d   1       0.392   5.948  -1.585  0.00  0.00     0.003 A 
ATOM     21  C   UNL d   1      -0.461   5.452  -0.599  0.00  0.00     0.017 A 
BRANCH  18  22
ATOM     22  N   UNL d   1       3.616   4.244  -0.684  0.00  0.00    -0.116 N 
ATOM     23  O   UNL d   1       3.987   3.381   0.124  0.00  0.00    -0.532 OA
ATOM     24  O   UNL d   1       4.354   4.797  -1.512  0.00  0.00    -0.532 OA
ENDBRANCH  18  22
ENDBRANCH   1  16
TORSDOF 6
