REMARK  6 active torsions:
REMARK  status: ('A' for Active; 'I' for Inactive)
REMARK    1  A    between atoms: N_2  and  S_1 
REMARK    2  A    between atoms: C_4  and  S_1 
REMARK    3  A    between atoms: C_3  and  N_2 
REMARK    4  A    between atoms: C_9  and  C_3 
REMARK    5  A    between atoms: C_5  and  C_8 
REMARK    6  A    between atoms: C_6  and  C_7 
ROOT
ATOM      1  S   UNL d   1       1.181  -0.008   0.035  0.00  0.00     0.264 S 
ATOM      2  O   UNL d   1       0.617  -1.044   0.868  0.00  0.00    -0.200 OA
ATOM      3  O   UNL d   1       2.603   0.124  -0.193  0.00  0.00    -0.200 OA
ENDROOT
BRANCH   1   4
ATOM      4  N   UNL d   1       0.646   1.470   0.596  0.00  0.00    -0.265 N 
ATOM      5  H   UNL d   1       1.382   2.167   0.552  0.00  0.00     0.180 HD
BRANCH   4   6
ATOM      6  C   UNL d   1      -0.620   1.769   1.112  0.00  0.00     0.120 C 
ATOM      7  N   UNL d   1      -1.411   0.847   1.529  0.00  0.00    -0.384 N 
ATOM      8  H   UNL d   1      -0.943  -0.072   1.495  0.00  0.00     0.157 HD
ATOM      9  HN  UNL d   1      -2.368   1.001   1.848  1.00  0.00     0.157 HD
BRANCH   6  10
ATOM     10  C   UNL d   1      -1.015   3.200   1.151  0.00  0.00     0.023 A 
ATOM     11  C   UNL d   1      -2.261   3.526   1.682  0.00  0.00     0.102 A 
ATOM     12  N   UNL d   1      -2.759   4.788   1.750  0.00  0.00    -0.374 N 
ATOM     13  C   UNL d   1      -1.980   5.775   1.265  0.00  0.00     0.087 A 
ATOM     14  HN  UNL d   1      -3.678   4.979   2.149  1.00  0.00     0.164 HD
ATOM     15  C   UNL d   1      -0.727   5.559   0.715  0.00  0.00     0.018 A 
ATOM     16  C   UNL d   1      -0.239   4.253   0.655  0.00  0.00     0.018 A 
ENDBRANCH   6  10
ENDBRANCH   4   6
ENDBRANCH   1   4
BRANCH   1  17
ATOM     17  C   UNL d   1       0.396  -0.078  -1.562  0.00  0.00     0.081 A 
ATOM     18  C   UNL d   1       0.734   0.891  -2.515  0.00  0.00     0.041 A 
ATOM     19  C   UNL d   1       0.122   0.882  -3.776  0.00  0.00     0.050 A 
ATOM     20  C   UNL d   1      -0.814  -0.126  -4.066  0.00  0.00     0.032 A 
ATOM     21  C   UNL d   1      -1.142  -1.117  -3.121  0.00  0.00     0.050 A 
ATOM     22  C   UNL d   1      -0.533  -1.080  -1.856  0.00  0.00     0.041 A 
BRANCH  19  23
ATOM     23  C   UNL d   1       0.456   1.935  -4.809  0.00  0.00     0.417 C 
ATOM     24  F   UNL d   1       1.401   2.819  -4.386  0.00  0.00    -0.166 F 
ATOM     25  F   UNL d   1       0.929   1.399  -5.965  0.00  0.00    -0.166 F 
ATOM     26  F   UNL d   1      -0.628   2.683  -5.150  0.00  0.00    -0.166 F 
ENDBRANCH  19  23
BRANCH  21  27
ATOM     27  C   UNL d   1      -2.133  -2.202  -3.487  0.00  0.00     0.417 C 
ATOM     28  F   UNL d   1      -2.322  -3.123  -2.504  0.00  0.00    -0.166 F 
ATOM     29  F   UNL d   1      -3.363  -1.700  -3.780  0.00  0.00    -0.166 F 
ATOM     30  F   UNL d   1      -1.741  -2.902  -4.587  0.00  0.00    -0.166 F 
ENDBRANCH  21  27
ENDBRANCH   1  17
TORSDOF 6
