REMARK  5 active torsions:
REMARK  status: ('A' for Active; 'I' for Inactive)
REMARK       I    between atoms: N_3  and  C_1 
REMARK    1  A    between atoms: C_4  and  C_1 
REMARK    2  A    between atoms: C_2  and  N_3 
REMARK    3  A    between atoms: C_5  and  C_2 
REMARK    4  A    between atoms: C_10  and  C_4 
REMARK    5  A    between atoms: C_8  and  C_6 
ROOT
ATOM      1  C   UNL d   1       1.155   1.034  -2.211  0.00  0.00     0.053 C 
ATOM      2  C   UNL d   1       2.046   0.005  -2.952  0.00  0.00     0.043 C 
ATOM      3  C   UNL d   1       0.062   1.414  -3.245  0.00  0.00     0.043 C 
ENDROOT
BRANCH   1   4
ATOM      4  N   UNL d   1       0.439   0.431  -1.070  0.00  0.00    -0.348 N 
ATOM      5  C   UNL d   1       0.950  -0.428  -0.132  0.00  0.00     0.225 C 
ATOM      6  O   UNL d   1       2.078  -0.906  -0.186  0.00  0.00    -0.273 OA
ATOM      7  H   UNL d   1      -0.423   0.907  -0.803  0.00  0.00     0.163 HD
BRANCH   5   8
ATOM      8  C   UNL d   1       0.028  -0.854   0.990  0.00  0.00     0.180 C 
BRANCH   8   9
ATOM      9  C   UNL d   1      -1.310  -0.178   1.157  0.00  0.00     0.131 C 
ATOM     10  O   UNL d   1      -1.726   0.693   0.392  0.00  0.00    -0.298 OA
ATOM     11  C   UNL d   1      -2.154  -0.631   2.322  0.00  0.00     0.091 C 
ENDBRANCH   8   9
ENDBRANCH   5   8
ENDBRANCH   1   4
BRANCH   1  12
ATOM     12  C   UNL d   1       1.943   2.268  -1.719  0.00  0.00    -0.030 A 
ATOM     13  C   UNL d   1       1.394   3.574  -1.744  0.00  0.00     0.021 A 
ATOM     14  C   UNL d   1       2.071   4.705  -1.238  0.00  0.00    -0.030 A 
ATOM     15  C   UNL d   1       3.341   4.500  -0.685  0.00  0.00     0.012 A 
ATOM     16  C   UNL d   1       3.918   3.230  -0.660  0.00  0.00     0.002 A 
ATOM     17  C   UNL d   1       3.225   2.129  -1.164  0.00  0.00     0.010 A 
BRANCH  14  18
ATOM     18  C   UNL d   1       1.452   6.061  -1.259  0.00  0.00    -0.061 C 
ATOM     19  C   UNL d   1       2.199   7.178  -1.350  0.00  0.00     0.019 C 
ATOM     20  C   UNL d   1      -0.046   6.213  -1.214  0.00  0.00     0.048 C 
ENDBRANCH  14  18
ENDBRANCH   1  12
TORSDOF 5
