REMARK  1 active torsions:
REMARK  status: ('A' for Active; 'I' for Inactive)
REMARK    1  A    between atoms: C_8  and  C_1 
ROOT
ATOM      1  C   UNL d   1       2.550  -0.964  -0.003  0.00  0.00     0.090 A 
ATOM      2  C   UNL d   1       2.598   0.377   0.006  0.00  0.00     0.093 A 
ATOM      3  C   UNL d   1       0.099   0.377  -0.033  0.00  0.00     0.048 A 
ATOM      4  C   UNL d   1       1.347   1.150  -0.032  0.00  0.00     0.187 A 
ATOM      5  O   UNL d   1       1.367  -1.692  -0.029  0.00  0.00    -0.309 OA
ATOM      6  C   UNL d   1       0.176  -1.012  -0.028  0.00  0.00     0.090 A 
ATOM      7  C   UNL d   1      -1.142   1.023  -0.030  0.00  0.00     0.025 A 
ATOM      8  O   UNL d   1       1.363   2.373  -0.054  0.00  0.00    -0.287 OA
ATOM      9  C   UNL d   1      -0.994  -1.769  -0.019  0.00  0.00     0.039 A 
ATOM     10  C   UNL d   1      -2.322   0.270  -0.018  0.00  0.00    -0.061 A 
ATOM     11  C   UNL d   1      -2.238  -1.130  -0.013  0.00  0.00     0.009 A 
ATOM     12  C   UNL d   1      -3.663   0.943  -0.010  0.00  0.00     0.048 C 
ENDROOT
BRANCH   1  13
ATOM     13  C   UNL d   1       3.776  -1.794   0.044  0.00  0.00    -0.002 A 
ATOM     14  C   UNL d   1       3.750  -3.056   0.659  0.00  0.00     0.014 A 
ATOM     15  C   UNL d   1       4.895  -3.857   0.713  0.00  0.00     0.001 A 
ATOM     16  C   UNL d   1       6.086  -3.409   0.149  0.00  0.00     0.000 A 
ATOM     17  C   UNL d   1       6.131  -2.166  -0.475  0.00  0.00     0.001 A 
ATOM     18  C   UNL d   1       4.985  -1.368  -0.533  0.00  0.00     0.014 A 
ENDBRANCH   1  13
TORSDOF 1
