REMARK  4 active torsions:
REMARK  status: ('A' for Active; 'I' for Inactive)
REMARK    1  A    between atoms: C_2  and  C_1 
REMARK    2  A    between atoms: C_4  and  C_2 
REMARK    3  A    between atoms: S_8  and  C_3 
REMARK    4  A    between atoms: S_9  and  C_3 
ROOT
ATOM      1  C   UNL d   1       0.463   0.843  -0.990  0.00  0.00     0.183 C 
ATOM      2  O   UNL d   1       0.933   1.718  -1.709  0.00  0.00    -0.288 OA
ENDROOT
BRANCH   1   3
ATOM      3  C   UNL d   1       1.302  -0.058  -0.150  0.00  0.00     0.081 C 
ATOM      4  C   UNL d   1       2.593   0.105   0.195  0.00  0.00     0.040 C 
BRANCH   4   5
ATOM      5  S   UNL d   1       3.310  -1.153   1.195  0.00  0.00    -0.127 SA
ATOM      6  C   UNL d   1       4.709  -1.663   0.163  0.00  0.00     0.096 C 
ENDBRANCH   4   5
BRANCH   4   7
ATOM      7  S   UNL d   1       3.588   1.479  -0.196  0.00  0.00    -0.127 SA
ATOM      8  C   UNL d   1       2.701   2.810   0.649  0.00  0.00     0.096 C 
ENDBRANCH   4   7
ENDBRANCH   1   3
BRANCH   1   9
ATOM      9  C   UNL d   1      -1.020   0.689  -0.948  0.00  0.00     0.014 A 
ATOM     10  C   UNL d   1      -1.795   1.834  -1.201  0.00  0.00     0.017 A 
ATOM     11  C   UNL d   1      -3.190   1.762  -1.218  0.00  0.00     0.025 A 
ATOM     12  C   UNL d   1      -3.820   0.542  -0.988  0.00  0.00     0.034 A 
ATOM     13  C   UNL d   1      -3.065  -0.602  -0.733  0.00  0.00     0.025 A 
ATOM     14 CL   UNL d   1      -5.536   0.441  -1.037  0.00  0.00    -0.084 Cl
ATOM     15  C   UNL d   1      -1.667  -0.532  -0.716  0.00  0.00     0.017 A 
ENDBRANCH   1   9
TORSDOF 4
