REMARK  2 active torsions:
REMARK  status: ('A' for Active; 'I' for Inactive)
REMARK    1  A    between atoms: C_7  and  C_1 
REMARK    2  A    between atoms: O_15  and  C_7 
ROOT
ATOM      1  C   UNL d   1       2.450  -0.701  -0.000  0.00  0.00     0.114 A 
ATOM      2  C   UNL d   1       2.443   0.771  -0.003  0.00  0.00     0.305 A 
ATOM      3  O   UNL d   1       1.213   1.413  -0.003  0.00  0.00    -0.272 OA
ATOM      4  C   UNL d   1       1.295  -1.387   0.001  0.00  0.00     0.039 A 
ATOM      5  C   UNL d   1       0.015  -0.695  -0.000  0.00  0.00     0.002 A 
ATOM      6  C   UNL d   1      -0.003   0.698  -0.001  0.00  0.00     0.107 A 
ATOM      7  C   UNL d   1      -1.209   1.403  -0.001  0.00  0.00     0.047 A 
ATOM      8  C   UNL d   1      -2.417   0.705   0.000  0.00  0.00     0.041 A 
ATOM      9  C   UNL d   1      -1.195  -1.394   0.001  0.00  0.00     0.033 A 
ATOM     10  O   UNL d   1       3.501   1.398  -0.004  0.00  0.00    -0.259 OA
ATOM     11  C   UNL d   1      -2.402  -0.690   0.001  0.00  0.00     0.013 A 
ATOM     12 BR   UNL d   1      -1.252   3.297  -0.002  0.00  0.00    -0.048 Br
ATOM     13 BR   UNL d   1      -4.036  -1.641   0.002  0.00  0.00    -0.051 Br
ENDROOT
BRANCH   1  14
ATOM     14  C   UNL d   1       3.708  -1.484   0.002  0.00  0.00     0.182 C 
ATOM     15  O   UNL d   1       3.728  -2.708   0.002  0.00  0.00    -0.646 OA
BRANCH  14  16
ATOM     16  O   UNL d   1       4.846  -0.759   0.003  0.00  0.00    -0.772 OA
ATOM     17  H   UNL d   1       4.729   0.222   0.002  0.00  0.00     0.167 HD
ENDBRANCH  14  16
ENDBRANCH   1  14
TORSDOF 2
