REMARK  6 active torsions:
REMARK  status: ('A' for Active; 'I' for Inactive)
REMARK    1  A    between atoms: N_4  and  S_1 
REMARK    2  A    between atoms: C_8  and  S_1 
REMARK    3  A    between atoms: C_5  and  C_2 
REMARK    4  A    between atoms: C_3  and  N_7 
REMARK    5  A    between atoms: N_7  and  N_4 
REMARK    6  A    between atoms: O_16  and  C_5 
ROOT
ATOM      1  N   UNL d   1       0.433   0.111  -1.465  0.00  0.00    -0.222 N 
ATOM      2  H   UNL d   1      -0.354  -0.527  -1.654  0.00  0.00     0.200 HD
ENDROOT
BRANCH   1   3
ATOM      3  S   UNL d   1       1.049   0.181   0.113  0.00  0.00     0.276 S 
ATOM      4  O   UNL d   1       0.566   1.411   0.709  0.00  0.00    -0.199 OA
ATOM      5  O   UNL d   1       2.467  -0.107   0.053  0.00  0.00    -0.199 OA
BRANCH   3   6
ATOM      6  C   UNL d   1       0.239  -1.186   0.889  0.00  0.00     0.081 A 
ATOM      7  C   UNL d   1       0.547  -2.482   0.467  0.00  0.00     0.026 A 
ATOM      8  C   UNL d   1      -0.123  -3.565   1.036  0.00  0.00     0.008 A 
ATOM      9  C   UNL d   1      -1.091  -3.359   2.029  0.00  0.00    -0.062 A 
ATOM     10  C   UNL d   1      -1.357  -2.055   2.471  0.00  0.00     0.008 A 
ATOM     11  C   UNL d   1      -1.842  -4.529   2.594  0.00  0.00     0.048 C 
ATOM     12  C   UNL d   1      -0.694  -0.967   1.903  0.00  0.00     0.026 A 
ENDBRANCH   3   6
ENDBRANCH   1   3
BRANCH   1  13
ATOM     13  N   UNL d   1       0.971   0.991  -2.491  0.00  0.00    -0.290 N 
ATOM     14  H   UNL d   1       1.693   1.627  -2.135  0.00  0.00     0.187 HD
BRANCH  13  15
ATOM     15  C   UNL d   1       0.583   1.042  -3.789  0.00  0.00     0.072 A 
ATOM     16  C   UNL d   1      -0.244   0.173  -4.490  0.00  0.00     0.108 A 
ATOM     17  S   UNL d   1      -0.397   0.675  -6.138  0.00  0.00    -0.094 SA
ATOM     18  C   UNL d   1       0.638   2.006  -5.918  0.00  0.00     0.053 A 
ATOM     19  C   UNL d   1       1.092   2.087  -4.625  0.00  0.00     0.039 A 
BRANCH  16  20
ATOM     20  C   UNL d   1      -0.960  -1.011  -4.039  0.00  0.00     0.302 C 
ATOM     21  O   UNL d   1      -1.286  -1.259  -2.882  0.00  0.00    -0.259 OA
BRANCH  20  22
ATOM     22  O   UNL d   1      -1.209  -1.858  -5.085  0.00  0.00    -0.322 OA
ATOM     23  C   UNL d   1      -1.921  -3.047  -4.746  0.00  0.00     0.213 C 
ENDBRANCH  20  22
ENDBRANCH  16  20
ENDBRANCH  13  15
ENDBRANCH   1  13
TORSDOF 6
