REMARK  2 active torsions:
REMARK  status: ('A' for Active; 'I' for Inactive)
REMARK    1  A    between atoms: C_6  and  C_2 
REMARK    2  A    between atoms: C_7  and  C_3 
ROOT
ATOM      1  O   UNL d   1      -0.933   0.049  -0.029  0.00  0.00    -0.309 OA
ATOM      2  C   UNL d   1      -0.061   1.102  -0.081  0.00  0.00     0.086 A 
ATOM      3  C   UNL d   1      -0.203  -1.104   0.053  0.00  0.00     0.086 A 
ATOM      4  C   UNL d   1       1.232   0.622  -0.029  0.00  0.00     0.041 A 
ATOM      5  C   UNL d   1       1.142  -0.789   0.053  0.00  0.00     0.041 A 
ENDROOT
BRANCH   2   6
ATOM      6  C   UNL d   1      -0.650   2.437  -0.183  0.00  0.00    -0.002 A 
ATOM      7  C   UNL d   1      -2.041   2.623  -0.208  0.00  0.00     0.014 A 
ATOM      8  C   UNL d   1      -2.593   3.903  -0.322  0.00  0.00     0.001 A 
ATOM      9  C   UNL d   1      -1.762   5.016  -0.413  0.00  0.00     0.000 A 
ATOM     10  C   UNL d   1      -0.380   4.852  -0.384  0.00  0.00     0.001 A 
ATOM     11  C   UNL d   1       0.171   3.572  -0.269  0.00  0.00     0.014 A 
ENDBRANCH   2   6
BRANCH   3  12
ATOM     12  C   UNL d   1      -0.957  -2.355   0.126  0.00  0.00    -0.002 A 
ATOM     13  C   UNL d   1      -2.360  -2.366   0.093  0.00  0.00     0.014 A 
ATOM     14  C   UNL d   1      -3.071  -3.568   0.174  0.00  0.00     0.001 A 
ATOM     15  C   UNL d   1      -2.390  -4.777   0.287  0.00  0.00     0.000 A 
ATOM     16  C   UNL d   1      -0.998  -4.786   0.316  0.00  0.00     0.001 A 
ATOM     17  C   UNL d   1      -0.288  -3.584   0.235  0.00  0.00     0.014 A 
ENDBRANCH   3  12
TORSDOF 2
