REMARK  2 active torsions:
REMARK  status: ('A' for Active; 'I' for Inactive)
REMARK    1  A    between atoms: C_6  and  C_2 
REMARK    2  A    between atoms: C_9  and  C_3 
ROOT
ATOM      1  O   UNL d   1      -0.956   0.105   0.026  0.00  0.00    -0.306 OA
ATOM      2  C   UNL d   1      -0.068   1.145  -0.014  0.00  0.00     0.086 A 
ATOM      3  C   UNL d   1      -0.241  -1.060   0.033  0.00  0.00     0.121 A 
ATOM      4  C   UNL d   1       1.219   0.645  -0.006  0.00  0.00     0.041 A 
ATOM      5  C   UNL d   1       1.108  -0.766   0.018  0.00  0.00     0.044 A 
ENDROOT
BRANCH   2   6
ATOM      6  C   UNL d   1      -0.646   2.483  -0.108  0.00  0.00    -0.001 A 
ATOM      7  C   UNL d   1      -2.036   2.681  -0.084  0.00  0.00     0.040 A 
ATOM      8  C   UNL d   1      -2.586   3.956  -0.267  0.00  0.00     0.056 A 
ATOM      9 CL   UNL d   1      -4.308   4.097  -0.253  0.00  0.00    -0.083 Cl
ATOM     10  C   UNL d   1      -1.747   5.056  -0.467  0.00  0.00     0.055 A 
ATOM     11  C   UNL d   1      -0.363   4.878  -0.460  0.00  0.00     0.026 A 
ATOM     12 CL   UNL d   1      -2.352   6.649  -0.747  0.00  0.00    -0.083 Cl
ATOM     13  C   UNL d   1       0.182   3.603  -0.277  0.00  0.00     0.016 A 
ENDBRANCH   2   6
BRANCH   3  14
ATOM     14  C   UNL d   1      -0.928  -2.332   0.038  0.00  0.00     0.179 C 
ATOM     15  O   UNL d   1      -0.325  -3.409   0.018  0.00  0.00    -0.291 OA
ATOM     16  C   UNL d   1      -2.437  -2.332   0.067  0.00  0.00     0.099 C 
ENDBRANCH   3  14
TORSDOF 2
