REMARK  8 active torsions:
REMARK  status: ('A' for Active; 'I' for Inactive)
REMARK    1  A    between atoms: C_2  and  C_1 
REMARK    2  A    between atoms: C_3  and  C_1 
REMARK    3  A    between atoms: C_5  and  C_1 
REMARK    4  A    between atoms: O_21  and  C_1 
REMARK       I    between atoms: C_4  and  N_6 
REMARK       I    between atoms: N_9  and  C_4 
REMARK    5  A    between atoms: O_24  and  C_5 
REMARK    6  A    between atoms: N_6  and  C_7 
REMARK    7  A    between atoms: C_13  and  N_9 
REMARK    8  A    between atoms: C_29  and  O_24 
ROOT
ATOM      1  C   UNL d   1       0.818  -0.417   0.361  0.00  0.00    -0.004 C 
ATOM      2  C   UNL d   1      -1.987  -0.128   0.037  0.00  0.00     0.042 C 
ATOM      3  C   UNL d   1       0.118   0.621   1.001  0.00  0.00     0.020 C 
ATOM      4  C   UNL d   1      -1.282   0.769   0.857  0.00  0.00    -0.035 C 
ATOM      5  C   UNL d   1       0.066  -1.392  -0.293  0.00  0.00     0.013 C 
ATOM      6  C   UNL d   1      -1.309  -1.246  -0.460  0.00  0.00     0.031 C 
ATOM      7  C   UNL d   1      -1.959   1.875   1.626  0.00  0.00     0.050 C 
ENDROOT
BRANCH   2   8
ATOM      8  N   UNL d   1      -3.326   0.151  -0.347  0.00  0.00    -0.308 N 
ATOM      9  C   UNL d   1      -4.079  -0.557  -1.265  0.00  0.00     0.325 C 
ATOM     10  N   UNL d   1      -5.223   0.138  -1.632  0.00  0.00    -0.309 N 
ATOM     11  O   UNL d   1      -3.781  -1.653  -1.729  0.00  0.00    -0.247 OA
ATOM     12  H   UNL d   1      -5.183   1.145  -1.555  0.00  0.00     0.170 HD
ATOM     13  H   UNL d   1      -3.760   0.968   0.055  0.00  0.00     0.170 HD
BRANCH  10  14
ATOM     14  C   UNL d   1      -6.294  -0.402  -2.381  0.00  0.00     0.037 A 
ATOM     15  C   UNL d   1      -6.491  -1.780  -2.525  0.00  0.00     0.042 A 
ATOM     16  C   UNL d   1      -7.603  -2.296  -3.203  0.00  0.00    -0.024 A 
ATOM     17  C   UNL d   1      -7.795  -3.682  -3.312  0.00  0.00     0.012 A 
ATOM     18  C   UNL d   1      -8.547  -1.410  -3.758  0.00  0.00    -0.026 A 
ATOM     19  C   UNL d   1      -8.928  -4.193  -3.944  0.00  0.00     0.001 A 
ATOM     20  C   UNL d   1      -9.871  -3.323  -4.483  0.00  0.00     0.001 A 
ATOM     21  C   UNL d   1      -9.678  -1.941  -4.400  0.00  0.00     0.012 A 
ATOM     22  C   UNL d   1      -8.335  -0.026  -3.638  0.00  0.00     0.014 A 
ATOM     23  C   UNL d   1      -7.222   0.473  -2.949  0.00  0.00     0.030 A 
ENDBRANCH  10  14
ENDBRANCH   2   8
BRANCH   1  24
ATOM     24  C   UNL d   1       2.347  -0.433   0.263  0.00  0.00     0.271 C 
BRANCH  24  25
ATOM     25  C   UNL d   1       2.892   0.843  -0.425  0.00  0.00     0.432 C 
ATOM     26  F   UNL d   1       1.958   1.521  -1.133  0.00  0.00    -0.167 F 
ATOM     27  F   UNL d   1       3.454   1.728   0.430  0.00  0.00    -0.167 F 
ATOM     28  F   UNL d   1       3.861   0.495  -1.320  0.00  0.00    -0.167 F 
ENDBRANCH  24  25
BRANCH  24  29
ATOM     29  C   UNL d   1       3.064  -0.498   1.611  0.00  0.00     0.308 C 
ATOM     30  O   UNL d   1       2.554  -0.304   2.708  0.00  0.00    -0.261 OA
BRANCH  29  31
ATOM     31  O   UNL d   1       4.394  -0.777   1.424  0.00  0.00    -0.319 OA
BRANCH  31  32
ATOM     32  C   UNL d   1       5.197  -0.851   2.611  0.00  0.00     0.174 C 
ATOM     33  C   UNL d   1       5.581   0.538   3.089  0.00  0.00     0.034 C 
ENDBRANCH  31  32
ENDBRANCH  29  31
ENDBRANCH  24  29
BRANCH  24  34
ATOM     34  O   UNL d   1       2.732  -1.622  -0.495  0.00  0.00    -0.368 OA
ATOM     35  H   UNL d   1       3.559  -1.401  -0.968  0.00  0.00     0.212 HD
ENDBRANCH  24  34
ENDBRANCH   1  24
TORSDOF 8
