REMARK  9 active torsions:
REMARK  status: ('A' for Active; 'I' for Inactive)
REMARK    1  A    between atoms: C_2  and  C_1 
REMARK    2  A    between atoms: N_3  and  C_1 
REMARK    3  A    between atoms: N_4  and  C_1 
REMARK    4  A    between atoms: C_5  and  C_1 
REMARK       I    between atoms: C_6  and  N_3 
REMARK    5  A    between atoms: C_12  and  N_4 
REMARK    6  A    between atoms: O_13  and  C_5 
REMARK    7  A    between atoms: C_15  and  C_6 
REMARK    8  A    between atoms: C_14  and  C_12 
REMARK    9  A    between atoms: C_16  and  O_13 
ROOT
ATOM      1  C   UNL d   1       0.912  -0.188  -0.046  0.00  0.00     0.416 C 
ENDROOT
BRANCH   1   2
ATOM      2  C   UNL d   1       0.616  -0.328  -1.580  0.00  0.00     0.453 C 
ATOM      3  F   UNL d   1      -0.543  -0.999  -1.807  0.00  0.00    -0.166 F 
ATOM      4  F   UNL d   1       0.438   0.906  -2.136  0.00  0.00    -0.166 F 
ATOM      5  F   UNL d   1       1.595  -0.926  -2.289  0.00  0.00    -0.166 F 
ENDBRANCH   1   2
BRANCH   1   6
ATOM      6  N   UNL d   1       0.497  -1.282   0.831  0.00  0.00    -0.310 N 
ATOM      7  C   UNL d   1       0.745  -2.595   0.510  0.00  0.00     0.219 C 
ATOM      8  O   UNL d   1       1.191  -2.935  -0.576  0.00  0.00    -0.274 OA
ATOM      9  H   UNL d   1       0.447  -1.034   1.807  0.00  0.00     0.165 HD
BRANCH   7  10
ATOM     10  C   UNL d   1       0.350  -3.554   1.613  0.00  0.00     0.098 C 
ATOM     11  C   UNL d   1       0.878  -4.957   1.380  0.00  0.00     0.014 C 
ENDBRANCH   7  10
ENDBRANCH   1   6
BRANCH   1  12
ATOM     12  N   UNL d   1       0.334   1.000   0.663  0.00  0.00     0.136 N 
ATOM     13  H   UNL d   1       0.724   1.832   0.207  0.00  0.00     0.320 HD
BRANCH  12  14
ATOM     14  C   UNL d   1      -1.122   1.114   0.570  0.00  0.00     0.312 C 
BRANCH  14  15
ATOM     15  C   UNL d   1      -1.575   2.357   1.306  0.00  0.00    -0.030 A 
ATOM     16  C   UNL d   1      -2.330   3.342   0.656  0.00  0.00     0.009 A 
ATOM     17  C   UNL d   1      -2.734   4.492   1.341  0.00  0.00     0.001 A 
ATOM     18  C   UNL d   1      -2.389   4.670   2.679  0.00  0.00     0.000 A 
ATOM     19  C   UNL d   1      -1.641   3.697   3.339  0.00  0.00     0.001 A 
ATOM     20  C   UNL d   1      -1.241   2.546   2.659  0.00  0.00     0.009 A 
ENDBRANCH  14  15
ENDBRANCH  12  14
ENDBRANCH   1  12
BRANCH   1  21
ATOM     21  C   UNL d   1       2.454  -0.017   0.073  0.00  0.00     0.329 C 
ATOM     22  O   UNL d   1       3.184  -0.684   0.801  0.00  0.00    -0.260 OA
BRANCH  21  23
ATOM     23  O   UNL d   1       2.856   1.116  -0.585  0.00  0.00    -0.318 OA
BRANCH  23  24
ATOM     24  C   UNL d   1       4.178   1.576  -0.265  0.00  0.00     0.174 C 
ATOM     25  C   UNL d   1       4.109   2.452   0.974  0.00  0.00     0.034 C 
ENDBRANCH  23  24
ENDBRANCH  21  23
ENDBRANCH   1  21
TORSDOF 9
