REMARK  4 active torsions:
REMARK  status: ('A' for Active; 'I' for Inactive)
REMARK    1  A    between atoms: C_2  and  N_1 
REMARK    2  A    between atoms: O_7  and  C_3 
REMARK    3  A    between atoms: C_12  and  O_7 
REMARK    4  A    between atoms: O_19  and  C_13 
ROOT
ATOM      1  C   UNL d   1      -3.280  -0.128  -0.569  0.00  0.00     0.138 A 
ATOM      2  C   UNL d   1      -2.034   0.347  -0.155  0.00  0.00     0.109 A 
ATOM      3  N   UNL d   1      -5.393  -2.029   3.357  0.00  0.00    -0.191 NA
ATOM      4  C   UNL d   1      -4.665  -1.552   2.589  0.00  0.00     0.099 C 
ATOM      5  C   UNL d   1      -4.162  -0.761   0.321  0.00  0.00     0.061 A 
ATOM      6  C   UNL d   1      -1.621   0.069   1.155  0.00  0.00     0.041 A 
ATOM      7  C   UNL d   1      -3.768  -0.953   1.646  0.00  0.00     0.047 A 
ATOM      8  C   UNL d   1      -2.489  -0.557   2.055  0.00  0.00     0.025 A 
ENDROOT
BRANCH   1   9
ATOM      9  N   UNL d   1      -3.690   0.012  -1.952  0.00  0.00    -0.113 N 
ATOM     10  O   UNL d   1      -2.960  -0.488  -2.816  0.00  0.00    -0.532 OA
ATOM     11  O   UNL d   1      -4.778   0.567  -2.158  0.00  0.00    -0.532 OA
ENDBRANCH   1   9
BRANCH   2  12
ATOM     12  O   UNL d   1      -1.259   1.069  -1.039  0.00  0.00    -0.308 OA
BRANCH  12  13
ATOM     13  C   UNL d   1      -0.472   2.077  -0.525  0.00  0.00     0.076 A 
ATOM     14  C   UNL d   1       0.838   2.159  -0.993  0.00  0.00     0.040 A 
ATOM     15  C   UNL d   1       1.722   3.085  -0.432  0.00  0.00     0.039 A 
ATOM     16  C   UNL d   1       1.292   3.930   0.593  0.00  0.00     0.068 A 
ATOM     17  C   UNL d   1      -0.046   3.908   0.991  0.00  0.00     0.039 A 
ATOM     18  C   UNL d   1      -0.934   2.995   0.422  0.00  0.00     0.040 A 
BRANCH  16  19
ATOM     19  O   UNL d   1       2.079   4.834   1.253  0.00  0.00    -0.356 OA
ATOM     20  C   UNL d   1       3.460   4.494   1.331  0.00  0.00     0.210 C 
ENDBRANCH  16  19
ENDBRANCH  12  13
ENDBRANCH   2  12
TORSDOF 4
