REMARK  9 active torsions:
REMARK  status: ('A' for Active; 'I' for Inactive)
REMARK    1  A    between atoms: C_9  and  C_1 
REMARK    2  A    between atoms: S_15  and  C_6 
REMARK    3  A    between atoms: C_21  and  C_7 
REMARK    4  A    between atoms: C_11  and  C_24 
REMARK       I    between atoms: N_14  and  C_11 
REMARK    5  A    between atoms: C_25  and  N_14 
REMARK    6  A    between atoms: C_24  and  S_15 
REMARK    7  A    between atoms: O_16  and  C_21 
REMARK    8  A    between atoms: C_18  and  O_16 
REMARK    9  A    between atoms: C_29  and  C_17 
ROOT
ATOM      1  N   UNL d   1       2.558   2.800   0.542  0.00  0.00    -0.335 N 
ATOM      2  HN  UNL d   1       1.801   3.037   1.183  1.00  0.00     0.168 HD
ATOM      3  C   UNL d   1       3.609   3.607   0.367  0.00  0.00     0.145 A 
ATOM      4  C   UNL d   1       2.547   1.654  -0.174  0.00  0.00     0.062 A 
ATOM      5  N   UNL d   1       4.640   3.370  -0.453  0.00  0.00    -0.347 N 
ATOM      6  HN  UNL d   1       5.420   4.022  -0.542  1.00  0.00     0.167 HD
ATOM      7  C   UNL d   1       3.555   1.324  -1.054  0.00  0.00     0.049 A 
ATOM      8  C   UNL d   1       4.588   2.224  -1.151  0.00  0.00     0.092 A 
ENDROOT
BRANCH   3   9
ATOM      9  S   UNL d   1       3.504   5.183   1.169  0.00  0.00    -0.085 SA
BRANCH   9  10
ATOM     10  C   UNL d   1       3.819   6.240  -0.267  0.00  0.00     0.185 C 
BRANCH  10  11
ATOM     11  C   UNL d   1       2.831   6.127  -1.425  0.00  0.00     0.231 C 
ATOM     12  N   UNL d   1       1.674   5.407  -1.198  0.00  0.00    -0.327 N 
ATOM     13  H   UNL d   1       1.518   5.071  -0.251  0.00  0.00     0.169 HD
ATOM     14  O   UNL d   1       3.107   6.705  -2.479  0.00  0.00    -0.272 OA
BRANCH  12  15
ATOM     15  C   UNL d   1       0.725   4.989  -2.157  0.00  0.00     0.034 A 
ATOM     16  C   UNL d   1       0.842   5.241  -3.522  0.00  0.00     0.030 A 
ATOM     17  C   UNL d   1      -0.098   4.735  -4.426  0.00  0.00     0.010 A 
ATOM     18  C   UNL d   1      -1.183   3.967  -3.986  0.00  0.00    -0.055 A 
ATOM     19  C   UNL d   1      -1.311   3.732  -2.611  0.00  0.00     0.010 A 
ATOM     20  C   UNL d   1      -0.365   4.234  -1.708  0.00  0.00     0.030 A 
BRANCH  18  21
ATOM     21  C   UNL d   1      -2.167   3.360  -4.968  0.00  0.00     0.010 C 
ATOM     22  C   UNL d   1      -2.853   4.422  -5.832  0.00  0.00     0.015 C 
ATOM     23  C   UNL d   1      -1.476   2.313  -5.848  0.00  0.00     0.015 C 
ENDBRANCH  18  21
ENDBRANCH  12  15
ENDBRANCH  10  11
ENDBRANCH   9  10
ENDBRANCH   3   9
BRANCH   4  24
ATOM     24  C   UNL d   1       1.381   0.797   0.033  0.00  0.00     0.066 A 
ATOM     25  N   UNL d   1       0.158   1.327   0.421  0.00  0.00    -0.350 N 
ATOM     26  C   UNL d   1      -0.733   0.370   0.580  0.00  0.00     0.075 A 
ATOM     27  HN  UNL d   1      -0.025   2.320   0.563  1.00  0.00     0.166 HD
ATOM     28  S   UNL d   1      -0.165  -1.218   0.251  0.00  0.00    -0.084 SA
ATOM     29  C   UNL d   1       1.393  -0.579  -0.089  0.00  0.00     0.083 A 
BRANCH  26  30
ATOM     30  C   UNL d   1      -2.127   0.608   1.088  0.00  0.00     0.240 C 
BRANCH  30  31
ATOM     31  O   UNL d   1      -2.974   0.792  -0.042  0.00  0.00    -0.343 OA
BRANCH  31  32
ATOM     32  C   UNL d   1      -4.321   0.957   0.155  0.00  0.00     0.090 A 
ATOM     33  C   UNL d   1      -5.019   1.443   1.273  0.00  0.00     0.067 A 
ATOM     34 CL   UNL d   1      -4.305   1.959   2.759  0.00  0.00    -0.081 Cl
ATOM     35  C   UNL d   1      -6.416   1.576   1.222  0.00  0.00     0.026 A 
ATOM     36  C   UNL d   1      -7.131   1.232   0.077  0.00  0.00     0.002 A 
ATOM     37  C   UNL d   1      -6.451   0.750  -1.033  0.00  0.00     0.003 A 
ATOM     38  C   UNL d   1      -5.060   0.621  -0.993  0.00  0.00     0.038 A 
ENDBRANCH  31  32
ENDBRANCH  30  31
ENDBRANCH  26  30
ENDBRANCH   4  24
TORSDOF 9
