REMARK  7 active torsions:
REMARK  status: ('A' for Active; 'I' for Inactive)
REMARK    1  A    between atoms: C_9  and  C_1 
REMARK    2  A    between atoms: C_2  and  S_5 
REMARK    3  A    between atoms: O_13  and  C_2 
REMARK    4  A    between atoms: C_7  and  C_3 
REMARK    5  A    between atoms: S_5  and  C_9 
REMARK    6  A    between atoms: O_14  and  C_8 
REMARK    7  A    between atoms: C_16  and  O_13 
ROOT
ATOM      1  C   UNL d   1       1.505  -0.384   0.246  0.00  0.00    -0.014 A 
ATOM      2  C   UNL d   1      -0.816  -1.112  -0.044  0.00  0.00     0.010 A 
ATOM      3  C   UNL d   1       0.550  -1.407   0.067  0.00  0.00     0.026 A 
ATOM      4  C   UNL d   1       1.056   0.949   0.207  0.00  0.00     0.075 A 
ATOM      5  C   UNL d   1      -1.236   0.219  -0.063  0.00  0.00     0.018 A 
ATOM      6  C   UNL d   1      -0.304   1.245   0.067  0.00  0.00     0.038 A 
ENDROOT
BRANCH   1   7
ATOM      7  C   UNL d   1       2.972  -0.716   0.419  0.00  0.00     0.123 C 
BRANCH   7   8
ATOM      8  S   UNL d   1       3.316  -2.115   1.527  0.00  0.00    -0.089 SA
BRANCH   8   9
ATOM      9  C   UNL d   1       5.022  -2.371   1.173  0.00  0.00     0.175 C 
ATOM     10  S   UNL d   1       6.194  -1.186   1.333  0.00  0.00    -0.045 SA
BRANCH   9  11
ATOM     11  O   UNL d   1       5.321  -3.646   0.790  0.00  0.00    -0.336 OA
BRANCH  11  12
ATOM     12  C   UNL d   1       6.661  -4.082   0.468  0.00  0.00     0.172 C 
ATOM     13  C   UNL d   1       6.596  -5.553   0.104  0.00  0.00     0.034 C 
ENDBRANCH  11  12
ENDBRANCH   9  11
ENDBRANCH   8   9
ENDBRANCH   7   8
ENDBRANCH   1   7
BRANCH   4  14
ATOM     14  O   UNL d   1       1.880   2.024   0.413  0.00  0.00    -0.355 OA
ATOM     15  C   UNL d   1       2.811   2.246  -0.646  0.00  0.00     0.210 C 
ENDBRANCH   4  14
BRANCH   2  16
ATOM     16  C   UNL d   1      -1.846  -2.184  -0.117  0.00  0.00     0.155 C 
ATOM     17  O   UNL d   1      -2.906  -1.966  -0.700  0.00  0.00    -0.293 OA
ATOM     18  C   UNL d   1      -1.583  -3.508   0.554  0.00  0.00     0.096 C 
ENDBRANCH   2  16
TORSDOF 7
