REMARK  4 active torsions:
REMARK  status: ('A' for Active; 'I' for Inactive)
REMARK    1  A    between atoms: O_3  and  S_1 
REMARK    2  A    between atoms: C_7  and  S_1 
REMARK    3  A    between atoms: C_2  and  O_3 
REMARK    4  A    between atoms: C_12  and  C_6 
ROOT
ATOM      1  C   UNL d   1       1.155   1.210   2.143  0.00  0.00     0.128 A 
ATOM      2  C   UNL d   1       0.054   1.244   3.012  0.00  0.00     0.048 A 
ATOM      3  C   UNL d   1       2.430   1.235   2.723  0.00  0.00     0.070 A 
ATOM      4  C   UNL d   1       1.491   1.174   4.999  0.00  0.00    -0.048 A 
ATOM      5  C   UNL d   1       2.584   1.198   4.120  0.00  0.00     0.034 A 
ATOM      6  C   UNL d   1       0.217   1.231   4.413  0.00  0.00     0.030 A 
ATOM      7 BR   UNL d   1      -1.725   1.336   2.340  0.00  0.00    -0.048 Br
ATOM      8 CL   UNL d   1       3.903   1.415   1.841  0.00  0.00    -0.081 Cl
ENDROOT
BRANCH   1   9
ATOM      9  O   UNL d   1       0.888   1.223   0.789  0.00  0.00    -0.226 OA
BRANCH   9  10
ATOM     10  S   UNL d   1       1.709   0.251  -0.240  0.00  0.00     0.303 S 
ATOM     11  O   UNL d   1       2.009  -0.999   0.437  0.00  0.00    -0.193 OA
ATOM     12  O   UNL d   1       2.740   1.029  -0.899  0.00  0.00    -0.193 OA
BRANCH  10  13
ATOM     13  C   UNL d   1       0.592  -0.173  -1.564  0.00  0.00     0.086 A 
ATOM     14  C   UNL d   1      -0.462   0.662  -1.927  0.00  0.00     0.026 A 
ATOM     15  C   UNL d   1      -1.199   0.356  -3.080  0.00  0.00     0.008 A 
ATOM     16  C   UNL d   1      -0.888  -0.770  -3.856  0.00  0.00    -0.062 A 
ATOM     17  C   UNL d   1       0.151  -1.617  -3.452  0.00  0.00     0.008 A 
ATOM     18  C   UNL d   1      -1.630  -1.042  -5.134  0.00  0.00     0.048 C 
ATOM     19  C   UNL d   1       0.889  -1.322  -2.308  0.00  0.00     0.026 A 
ENDBRANCH  10  13
ENDBRANCH   9  10
ENDBRANCH   1   9
BRANCH   4  20
ATOM     20  C   UNL d   1       1.714   1.172   6.525  0.00  0.00    -0.024 C 
ATOM     21  C   UNL d   1       1.944   2.627   6.981  0.00  0.00     0.019 C 
ATOM     22  C   UNL d   1       0.515   0.596   7.310  0.00  0.00     0.019 C 
ATOM     23  C   UNL d   1       2.947   0.329   6.933  0.00  0.00     0.019 C 
ENDBRANCH   4  20
TORSDOF 4
