REMARK  2 active torsions:
REMARK  status: ('A' for Active; 'I' for Inactive)
REMARK    1  A    between atoms: C_2  and  S_1 
REMARK    2  A    between atoms: N_3  and  S_1 
ROOT
ATOM      1  S   UNL d   1       0.861  -0.081  -0.106  0.00  0.00     0.262 S 
ATOM      2  O   UNL d   1       2.163   0.470  -0.410  0.00  0.00    -0.200 OA
ATOM      3  O   UNL d   1       0.710  -1.510   0.077  0.00  0.00    -0.200 OA
ENDROOT
BRANCH   1   4
ATOM      4  C   UNL d   1      -0.294   0.397  -1.378  0.00  0.00     0.102 A 
ATOM      5  C   UNL d   1      -1.362  -0.487  -1.627  0.00  0.00     0.050 A 
ATOM      6  C   UNL d   1      -2.312  -0.185  -2.599  0.00  0.00     0.035 A 
ATOM      7 CL   UNL d   1      -3.626  -1.258  -2.874  0.00  0.00    -0.084 Cl
ATOM      8  C   UNL d   1      -2.208   0.984  -3.342  0.00  0.00     0.025 A 
ATOM      9  C   UNL d   1      -1.134   1.848  -3.119  0.00  0.00     0.027 A 
ATOM     10  C   UNL d   1      -0.164   1.558  -2.146  0.00  0.00     0.057 A 
ATOM     11 CL   UNL d   1       1.093   2.727  -1.984  0.00  0.00    -0.083 Cl
ENDBRANCH   1   4
BRANCH   1  12
ATOM     12  N   UNL d   1       0.251   0.680   1.303  0.00  0.00    -0.307 N 
ATOM     13  C   UNL d   1       0.376   2.158   1.353  0.00  0.00     0.135 C 
ATOM     14  C   UNL d   1       0.102   2.676   2.761  0.00  0.00     0.021 C 
ATOM     15  C   UNL d   1      -1.252   2.199   3.270  0.00  0.00     0.003 C 
ATOM     16  C   UNL d   1      -1.322   0.678   3.213  0.00  0.00     0.021 C 
ATOM     17  C   UNL d   1      -1.054   0.171   1.799  0.00  0.00     0.135 C 
ENDBRANCH   1  12
TORSDOF 2
