REMARK  7 active torsions:
REMARK  status: ('A' for Active; 'I' for Inactive)
REMARK    1  A    between atoms: C_5  and  C_1 
REMARK    2  A    between atoms: C_6  and  C_1 
REMARK    3  A    between atoms: N_3  and  C_2 
REMARK    4  A    between atoms: S_12  and  C_2 
REMARK       I    between atoms: C_4  and  N_3 
REMARK    5  A    between atoms: C_11  and  C_4 
REMARK    6  A    between atoms: O_14  and  C_5 
REMARK    7  A    between atoms: N_7  and  C_6 
ROOT
ATOM      1  C   UNL d   1       0.924   0.065   0.008  0.00  0.00     0.135 C 
ATOM      2  C   UNL d   1       0.172  -0.404   1.020  0.00  0.00     0.098 C 
ENDROOT
BRANCH   2   3
ATOM      3  N   UNL d   1      -1.203  -0.522   1.040  0.00  0.00    -0.316 N 
ATOM      4  C   UNL d   1      -1.981  -0.880  -0.047  0.00  0.00     0.256 C 
ATOM      5  O   UNL d   1      -1.502  -1.249  -1.116  0.00  0.00    -0.267 OA
ATOM      6  H   UNL d   1      -1.600  -0.662   1.962  0.00  0.00     0.169 HD
BRANCH   4   7
ATOM      7  C   UNL d   1      -3.463  -0.906   0.146  0.00  0.00     0.032 A 
ATOM      8  C   UNL d   1      -4.102  -0.350   1.262  0.00  0.00     0.017 A 
ATOM      9  C   UNL d   1      -5.497  -0.385   1.360  0.00  0.00     0.001 A 
ATOM     10  C   UNL d   1      -6.260  -0.961   0.344  0.00  0.00     0.000 A 
ATOM     11  C   UNL d   1      -5.633  -1.511  -0.771  0.00  0.00     0.001 A 
ATOM     12  C   UNL d   1      -4.240  -1.485  -0.868  0.00  0.00     0.017 A 
ENDBRANCH   4   7
ENDBRANCH   2   3
BRANCH   2  13
ATOM     13  S   UNL d   1       0.872  -0.916   2.536  0.00  0.00    -0.115 SA
ATOM     14  C   UNL d   1       0.604  -2.705   2.413  0.00  0.00     0.097 C 
ENDBRANCH   2  13
BRANCH   1  15
ATOM     15  C   UNL d   1       0.417   0.746  -1.216  0.00  0.00     0.305 C 
ATOM     16  O   UNL d   1      -0.477   1.580  -1.227  0.00  0.00    -0.258 OA
BRANCH  15  17
ATOM     17  O   UNL d   1       1.261   0.449  -2.243  0.00  0.00    -0.322 OA
ATOM     18  C   UNL d   1       1.339   1.359  -3.338  0.00  0.00     0.213 C 
ENDBRANCH  15  17
ENDBRANCH   1  15
BRANCH   1  19
ATOM     19  C   UNL d   1       2.444   0.065   0.008  0.00  0.00    -0.028 C 
BRANCH  19  20
ATOM     20  N   UNL d   1       3.705   0.065   0.008  0.00  0.00    -0.365 N 
ATOM     21  HN2 UNL d   1       2.685   0.065   0.008  1.00  0.00     0.165 HD
ATOM     22  HN1 UNL d   1       4.725   0.065   0.008  1.00  0.00     0.165 HD
ENDBRANCH  19  20
ENDBRANCH   1  19
TORSDOF 7
