REMARK  0 active torsions:
REMARK  status: ('A' for Active; 'I' for Inactive)
ROOT
ATOM      1  N   UNL d   1       1.229   0.695   0.174  0.00  0.00    -0.248 N 
ATOM      2  N   UNL d   1       1.222  -0.698  -0.167  0.00  0.00    -0.248 N 
ATOM      3  C   UNL d   1       0.047   1.435   0.157  0.00  0.00     0.273 C 
ATOM      4  C   UNL d   1       0.034  -1.428  -0.145  0.00  0.00     0.273 C 
ATOM      5  C   UNL d   1      -1.225   0.699   0.070  0.00  0.00     0.049 A 
ATOM      6  C   UNL d   1      -1.231  -0.681  -0.053  0.00  0.00     0.049 A 
ATOM      7  O   UNL d   1       0.021   2.664   0.200  0.00  0.00    -0.266 OA
ATOM      8  O   UNL d   1      -0.003  -2.657  -0.190  0.00  0.00    -0.266 OA
ATOM      9  C   UNL d   1       2.442   1.455  -0.112  0.00  0.00     0.180 C 
ATOM     10  C   UNL d   1       2.430  -1.470   0.106  0.00  0.00     0.180 C 
ATOM     11  C   UNL d   1       3.693   0.654  -0.047  0.00  0.00    -0.007 C 
ATOM     12  C   UNL d   1       3.687  -0.677   0.056  0.00  0.00    -0.007 C 
ATOM     13  C   UNL d   1      -2.439   1.402   0.111  0.00  0.00     0.018 A 
ATOM     14  C   UNL d   1      -2.452  -1.373  -0.092  0.00  0.00     0.018 A 
ATOM     15  C   UNL d   1      -3.653   0.714   0.054  0.00  0.00     0.001 A 
ATOM     16  C   UNL d   1      -3.659  -0.675  -0.036  0.00  0.00     0.001 A 
ENDROOT
TORSDOF 0
