REMARK  5 active torsions:
REMARK  status: ('A' for Active; 'I' for Inactive)
REMARK    1  A    between atoms: S_10  and  C_1 
REMARK    2  A    between atoms: C_15  and  C_7 
REMARK    3  A    between atoms: S_17  and  C_8 
REMARK    4  A    between atoms: C_9  and  C_13 
REMARK    5  A    between atoms: C_14  and  S_10 
ROOT
ATOM      1  C   UNL d   1       0.120   1.141  -0.070  0.00  0.00     0.100 A 
ATOM      2  N   UNL d   1       1.463   1.194   0.072  0.00  0.00    -0.335 N 
ATOM      3  HN  UNL d   1       1.951   2.083   0.178  1.00  0.00     0.168 HD
ATOM      4  N   UNL d   1       1.530  -1.163  -0.029  0.00  0.00    -0.335 N 
ATOM      5  HN  UNL d   1       2.073  -2.026   0.006  1.00  0.00     0.168 HD
ATOM      6  C   UNL d   1      -0.578  -0.043  -0.227  0.00  0.00     0.112 A 
ATOM      7  C   UNL d   1       2.129   0.032   0.069  0.00  0.00     0.117 A 
ATOM      8  C   UNL d   1       0.191  -1.192  -0.177  0.00  0.00     0.094 A 
ATOM      9  C   UNL d   1      -1.989  -0.069  -0.444  0.00  0.00     0.105 C 
ATOM     10  N   UNL d   1      -3.133  -0.069  -0.633  0.00  0.00    -0.191 NA
ENDROOT
BRANCH   1  11
ATOM     11  S   UNL d   1      -0.670   2.748  -0.061  0.00  0.00    -0.071 SA
BRANCH  11  12
ATOM     12  C   UNL d   1      -1.079   2.914   1.669  0.00  0.00     0.007 A 
ATOM     13  C   UNL d   1      -0.093   2.852   2.663  0.00  0.00     0.035 A 
ATOM     14  C   UNL d   1      -0.431   2.973   4.021  0.00  0.00     0.049 A 
ATOM     15  C   UNL d   1      -1.774   3.185   4.370  0.00  0.00     0.016 A 
ATOM     16  C   UNL d   1      -2.756   3.270   3.384  0.00  0.00     0.002 A 
ATOM     17  C   UNL d   1      -2.409   3.134   2.039  0.00  0.00     0.019 A 
BRANCH  14  18
ATOM     18  C   UNL d   1       0.617   2.862   5.101  0.00  0.00     0.417 C 
ATOM     19  F   UNL d   1       1.880   2.692   4.621  0.00  0.00    -0.166 F 
ATOM     20  F   UNL d   1       0.665   3.964   5.900  0.00  0.00    -0.166 F 
ATOM     21  F   UNL d   1       0.390   1.807   5.932  0.00  0.00    -0.166 F 
ENDBRANCH  14  18
ENDBRANCH  11  12
ENDBRANCH   1  11
BRANCH   8  22
ATOM     22  S   UNL d   1      -0.532  -2.828  -0.325  0.00  0.00    -0.115 SA
ATOM     23  C   UNL d   1       0.916  -3.880  -0.012  0.00  0.00     0.097 C 
ENDBRANCH   8  22
BRANCH   7  24
ATOM     24  C   UNL d   1       3.602   0.061   0.133  0.00  0.00     0.008 A 
ATOM     25  C   UNL d   1       4.314   1.274   0.185  0.00  0.00     0.015 A 
ATOM     26  C   UNL d   1       5.713   1.298   0.214  0.00  0.00     0.001 A 
ATOM     27  C   UNL d   1       6.431   0.107   0.191  0.00  0.00     0.000 A 
ATOM     28  C   UNL d   1       5.755  -1.107   0.145  0.00  0.00     0.001 A 
ATOM     29  C   UNL d   1       4.358  -1.128   0.118  0.00  0.00     0.015 A 
ENDBRANCH   7  24
TORSDOF 5
