REMARK  13 active torsions:
REMARK  status: ('A' for Active; 'I' for Inactive)
REMARK    1  A    between atoms: N_5  and  S_1 
REMARK    2  A    between atoms: C_8  and  S_1 
REMARK    3  A    between atoms: S_2  and  N_7 
REMARK    4  A    between atoms: C_6  and  S_2 
REMARK    5  A    between atoms: C_4  and  C_3 
REMARK    6  A    between atoms: C_12  and  N_5 
REMARK    7  A    between atoms: N_7  and  N_13 
REMARK    8  A    between atoms: C_9  and  C_14 
REMARK    9  A    between atoms: C_10  and  C_15 
REMARK   10  A    between atoms: C_11  and  C_12 
REMARK       I    between atoms: N_13  and  C_11 
REMARK   11  A    between atoms: C_33  and  C_12 
REMARK   12  A    between atoms: C_37  and  C_33 
REMARK   13  A    between atoms: S_35  and  C_37 
ROOT
ATOM      1  C   UNL d   1       1.162  -2.043   1.525  0.00  0.00     0.165 C 
ENDROOT
BRANCH   1   2
ATOM      2  C   UNL d   1       2.653  -2.345   1.700  0.00  0.00     0.255 C 
ATOM      3  N   UNL d   1       3.332  -1.576   2.624  0.00  0.00    -0.259 N 
ATOM      4  H   UNL d   1       2.946  -0.718   3.012  0.00  0.00     0.190 HD
ATOM      5  O   UNL d   1       3.190  -3.282   1.105  0.00  0.00    -0.270 OA
BRANCH   3   6
ATOM      6  N   UNL d   1       4.736  -1.879   2.849  0.00  0.00    -0.220 N 
ATOM      7  H   UNL d   1       5.177  -2.658   2.341  0.00  0.00     0.200 HD
BRANCH   6   8
ATOM      8  S   UNL d   1       5.683  -1.034   3.946  0.00  0.00     0.277 S 
ATOM      9  O   UNL d   1       7.013  -1.583   3.985  0.00  0.00    -0.199 OA
ATOM     10  O   UNL d   1       5.446   0.375   3.713  0.00  0.00    -0.199 OA
BRANCH   8  11
ATOM     11  C   UNL d   1       4.889  -1.458   5.491  0.00  0.00     0.096 A 
ATOM     12  C   UNL d   1       4.857  -2.768   5.998  0.00  0.00     0.071 A 
ATOM     13  C   UNL d   1       4.212  -2.971   7.240  0.00  0.00     0.018 A 
ATOM     14  C   UNL d   1       3.599  -1.923   7.930  0.00  0.00     0.001 A 
ATOM     15  C   UNL d   1       3.628  -0.639   7.403  0.00  0.00     0.002 A 
ATOM     16  C   UNL d   1       4.279  -0.402   6.195  0.00  0.00     0.026 A 
BRANCH  12  17
ATOM     17  C   UNL d   1       5.431  -4.000   5.334  0.00  0.00     0.419 C 
ATOM     18  F   UNL d   1       5.911  -3.854   4.076  0.00  0.00    -0.166 F 
ATOM     19  F   UNL d   1       6.434  -4.557   6.066  0.00  0.00    -0.166 F 
ATOM     20  F   UNL d   1       4.479  -4.976   5.228  0.00  0.00    -0.166 F 
ENDBRANCH  12  17
ENDBRANCH   8  11
ENDBRANCH   6   8
ENDBRANCH   3   6
ENDBRANCH   1   2
BRANCH   1  21
ATOM     21  N   UNL d   1       0.859  -0.609   1.293  0.00  0.00    -0.202 NA
ATOM     22  H   UNL d   1      -0.113  -0.335   1.436  0.00  0.00     0.141 HD
BRANCH  21  23
ATOM     23  S   UNL d   1       1.361   0.073  -0.178  0.00  0.00     0.242 S 
ATOM     24  O   UNL d   1       2.760  -0.208  -0.356  0.00  0.00    -0.206 OA
ATOM     25  O   UNL d   1       0.835   1.422  -0.175  0.00  0.00    -0.206 OA
BRANCH  23  26
ATOM     26  C   UNL d   1       0.436  -0.854  -1.391  0.00  0.00     0.076 A 
ATOM     27  C   UNL d   1      -0.795  -0.369  -1.851  0.00  0.00     0.041 A 
ATOM     28  C   UNL d   1      -1.513  -1.085  -2.821  0.00  0.00     0.050 A 
ATOM     29  C   UNL d   1      -0.981  -2.293  -3.308  0.00  0.00     0.032 A 
ATOM     30  C   UNL d   1       0.265  -2.776  -2.865  0.00  0.00     0.050 A 
ATOM     31  C   UNL d   1       0.977  -2.035  -1.912  0.00  0.00     0.041 A 
BRANCH  28  32
ATOM     32  C   UNL d   1      -2.831  -0.573  -3.361  0.00  0.00     0.417 C 
ATOM     33  F   UNL d   1      -3.205   0.623  -2.829  0.00  0.00    -0.166 F 
ATOM     34  F   UNL d   1      -2.805  -0.396  -4.709  0.00  0.00    -0.166 F 
ATOM     35  F   UNL d   1      -3.860  -1.429  -3.111  0.00  0.00    -0.166 F 
ENDBRANCH  28  32
BRANCH  30  36
ATOM     36  C   UNL d   1       0.826  -4.062  -3.429  0.00  0.00     0.417 C 
ATOM     37  F   UNL d   1       2.036  -4.402  -2.912  0.00  0.00    -0.166 F 
ATOM     38  F   UNL d   1       0.007  -5.126  -3.205  0.00  0.00    -0.166 F 
ATOM     39  F   UNL d   1       0.996  -3.997  -4.778  0.00  0.00    -0.166 F 
ENDBRANCH  30  36
ENDBRANCH  23  26
ENDBRANCH  21  23
ENDBRANCH   1  21
BRANCH   1  40
ATOM     40  C   UNL d   1       0.343  -2.556   2.727  0.00  0.00     0.040 C 
BRANCH  40  41
ATOM     41  C   UNL d   1      -1.186  -2.437   2.574  0.00  0.00     0.075 C 
BRANCH  41  42
ATOM     42  S   UNL d   1      -1.793  -3.155   1.010  0.00  0.00    -0.173 SA
ATOM     43  C   UNL d   1      -3.515  -2.605   1.062  0.00  0.00     0.089 C 
ENDBRANCH  41  42
ENDBRANCH  40  41
ENDBRANCH   1  40
TORSDOF 13
