REMARK  9 active torsions:
REMARK  status: ('A' for Active; 'I' for Inactive)
REMARK    1  A    between atoms: C_6  and  C_1 
REMARK    2  A    between atoms: C_2  and  N_5 
REMARK    3  A    between atoms: N_17  and  C_2 
REMARK    4  A    between atoms: C_3  and  C_7 
REMARK       I    between atoms: N_4  and  C_3 
REMARK    5  A    between atoms: N_5  and  N_4 
REMARK    6  A    between atoms: C_20  and  N_17 
REMARK    7  A    between atoms: C_18  and  C_20 
REMARK    8  A    between atoms: C_21  and  C_18 
REMARK    9  A    between atoms: O_19  and  C_21 
ROOT
ATOM      1  C   UNL d   1      -0.105   5.246   2.028  0.00  0.00     0.270 C 
ATOM      2  N   UNL d   1      -0.183   6.433   1.321  0.00  0.00    -0.264 N 
ATOM      3  O   UNL d   1       0.363   4.216   1.550  0.00  0.00    -0.266 OA
ATOM      4  H   UNL d   1      -0.367   7.329   1.751  0.00  0.00     0.190 HD
ENDROOT
BRANCH   2   5
ATOM      5  N   UNL d   1       0.226   6.486  -0.009  0.00  0.00    -0.274 N 
ATOM      6  H   UNL d   1       0.246   5.598  -0.506  0.00  0.00     0.189 HD
BRANCH   5   7
ATOM      7  C   UNL d   1       0.835   7.625  -0.513  0.00  0.00     0.186 C 
ATOM      8  S   UNL d   1       1.245   8.951   0.428  0.00  0.00    -0.040 SA
BRANCH   7   9
ATOM      9  N   UNL d   1       1.002   7.539  -1.875  0.00  0.00    -0.366 N 
ATOM     10  H   UNL d   1       0.623   6.723  -2.337  0.00  0.00     0.161 HD
BRANCH   9  11
ATOM     11  C   UNL d   1       1.785   8.425  -2.728  0.00  0.00     0.124 C 
BRANCH  11  12
ATOM     12  C   UNL d   1       3.277   8.103  -2.661  0.00  0.00     0.046 C 
BRANCH  12  13
ATOM     13  C   UNL d   1       3.581   6.648  -3.007  0.00  0.00     0.168 C 
BRANCH  13  14
ATOM     14  O   UNL d   1       3.128   6.375  -4.332  0.00  0.00    -0.396 OA
ATOM     15  C   UNL d   1       3.342   5.015  -4.686  0.00  0.00     0.201 C 
ENDBRANCH  13  14
ENDBRANCH  12  13
ENDBRANCH  11  12
ENDBRANCH   9  11
ENDBRANCH   7   9
ENDBRANCH   5   7
ENDBRANCH   2   5
BRANCH   1  16
ATOM     16  C   UNL d   1      -0.656   5.272   3.423  0.00  0.00     0.033 A 
ATOM     17  C   UNL d   1      -1.373   6.369   3.925  0.00  0.00     0.018 A 
ATOM     18  C   UNL d   1      -1.929   6.327   5.211  0.00  0.00     0.017 A 
ATOM     19  C   UNL d   1      -1.791   5.189   6.013  0.00  0.00     0.048 A 
ATOM     20  C   UNL d   1      -1.070   4.091   5.510  0.00  0.00     0.017 A 
ATOM     21  C   UNL d   1      -0.509   4.136   4.230  0.00  0.00     0.018 A 
BRANCH  19  22
ATOM     22  C   UNL d   1      -2.422   5.165   7.384  0.00  0.00     0.417 C 
ATOM     23  F   UNL d   1      -2.285   3.973   8.031  0.00  0.00    -0.166 F 
ATOM     24  F   UNL d   1      -3.758   5.418   7.344  0.00  0.00    -0.166 F 
ATOM     25  F   UNL d   1      -1.889   6.106   8.211  0.00  0.00    -0.166 F 
ENDBRANCH  19  22
ENDBRANCH   1  16
TORSDOF 9
