REMARK  4 active torsions:
REMARK  status: ('A' for Active; 'I' for Inactive)
REMARK    1  A    between atoms: N_2  and  C_1 
REMARK       I    between atoms: N_3  and  C_5 
REMARK       I    between atoms: C_4  and  N_3 
REMARK       I    between atoms: N_8  and  C_4 
REMARK    2  A    between atoms: C_5  and  C_9 
REMARK    3  A    between atoms: O_11  and  C_7 
REMARK    4  A    between atoms: C_17  and  O_11 
ROOT
ATOM      1  C   UNL d   1       1.700  -0.796   0.255  0.00  0.00     0.137 C 
ATOM      2  C   UNL d   1       0.692  -1.765   0.274  0.00  0.00     0.056 C 
ATOM      3  C   UNL d   1       1.407   0.545   0.518  0.00  0.00     0.109 C 
ATOM      4  C   UNL d   1      -0.612  -1.391   0.637  0.00  0.00     0.035 C 
ATOM      5  C   UNL d   1       0.147   0.888   1.013  0.00  0.00     0.041 C 
ATOM      6  C   UNL d   1      -0.855  -0.081   1.085  0.00  0.00     0.020 C 
ENDROOT
BRANCH   4   7
ATOM      7  C   UNL d   1      -1.698  -2.413   0.514  0.00  0.00     0.259 C 
ATOM      8  N   UNL d   1      -2.986  -1.913   0.475  0.00  0.00    -0.275 N 
ATOM      9  C   UNL d   1      -4.132  -2.659   0.350  0.00  0.00     0.325 C 
ATOM     10  H   UNL d   1      -3.150  -0.925   0.500  0.00  0.00     0.173 HD
ATOM     11  N   UNL d   1      -5.223  -2.095   0.990  0.00  0.00    -0.334 N 
ATOM     12  O   UNL d   1      -4.223  -3.678  -0.325  0.00  0.00    -0.247 OA
ATOM     13  C   UNL d   1      -5.210  -1.035   1.986  0.00  0.00     0.127 C 
ATOM     14  C   UNL d   1      -6.506  -2.780   0.975  0.00  0.00     0.127 C 
ATOM     15  C   UNL d   1      -6.341  -1.406   2.929  0.00  0.00     0.022 C 
ATOM     16  C   UNL d   1      -7.363  -2.041   1.996  0.00  0.00     0.022 C 
ATOM     17  O   UNL d   1      -1.385  -3.594   0.456  0.00  0.00    -0.267 OA
ENDBRANCH   4   7
BRANCH   1  18
ATOM     18  N   UNL d   1       3.055  -1.192  -0.094  0.00  0.00    -0.113 N 
ATOM     19  O   UNL d   1       3.184  -1.935  -1.075  0.00  0.00    -0.532 OA
ATOM     20  O   UNL d   1       3.972  -0.786   0.627  0.00  0.00    -0.532 OA
ENDBRANCH   1  18
BRANCH   3  21
ATOM     21  O   UNL d   1       2.259   1.584   0.237  0.00  0.00    -0.308 OA
BRANCH  21  22
ATOM     22  C   UNL d   1       2.533   1.815  -1.100  0.00  0.00     0.076 A 
ATOM     23  C   UNL d   1       1.798   1.291  -2.175  0.00  0.00     0.039 A 
ATOM     24  C   UNL d   1       2.220   1.502  -3.488  0.00  0.00     0.026 A 
ATOM     25  C   UNL d   1       3.353   2.275  -3.731  0.00  0.00     0.034 A 
ATOM     26  C   UNL d   1       4.054   2.850  -2.673  0.00  0.00     0.026 A 
ATOM     27 CL   UNL d   1       3.886   2.516  -5.349  0.00  0.00    -0.084 Cl
ATOM     28  C   UNL d   1       3.644   2.620  -1.357  0.00  0.00     0.039 A 
ENDBRANCH  21  22
ENDBRANCH   3  21
TORSDOF 4
