REMARK  4 active torsions:
REMARK  status: ('A' for Active; 'I' for Inactive)
REMARK    1  A    between atoms: C_10  and  N_1 
REMARK    2  A    between atoms: C_11  and  C_7 
REMARK    3  A    between atoms: C_9  and  C_10 
REMARK    4  A    between atoms: O_16  and  C_11 
ROOT
ATOM      1  C   UNL d   1      -0.357  -2.577  -0.109  0.00  0.00     0.213 C 
ENDROOT
BRANCH   1   2
ATOM      2  C   UNL d   1       0.940  -3.287   0.056  0.00  0.00     0.073 A 
ATOM      3  O   UNL d   1       1.322  -4.137  -0.946  0.00  0.00    -0.306 OA
ATOM      4  C   UNL d   1       2.535  -4.670  -0.582  0.00  0.00     0.148 A 
ATOM      5  C   UNL d   1       2.912  -4.169   0.647  0.00  0.00     0.047 A 
ATOM      6  C   UNL d   1       1.885  -3.291   1.062  0.00  0.00     0.037 A 
BRANCH   4   7
ATOM      7  C   UNL d   1       3.194  -5.602  -1.466  0.00  0.00     0.201 C 
ATOM      8  O   UNL d   1       4.282  -6.125  -1.283  0.00  0.00    -0.645 OA
BRANCH   7   9
ATOM      9  O   UNL d   1       2.441  -5.848  -2.572  0.00  0.00    -0.771 OA
ATOM     10  H   UNL d   1       1.606  -5.338  -2.525  0.00  0.00     0.167 HD
ENDBRANCH   7   9
ENDBRANCH   4   7
ENDBRANCH   1   2
BRANCH   1  11
ATOM     11  N   UNL d   1      -0.166  -1.130  -0.091  0.00  0.00    -0.289 N 
ATOM     12  N   UNL d   1      -0.266  -0.483   1.096  0.00  0.00    -0.301 N 
ATOM     13  C   UNL d   1      -0.068   0.806   0.794  0.00  0.00     0.041 A 
ATOM     14  HN  UNL d   1      -0.451  -0.888   2.014  1.00  0.00     0.187 HD
ATOM     15  C   UNL d   1      -0.102   1.839   1.858  0.00  0.00     0.071 C 
ATOM     16  C   UNL d   1       0.147   0.970  -0.586  0.00  0.00     0.058 A 
ATOM     17  C   UNL d   1       0.075  -0.284  -1.150  0.00  0.00     0.044 A 
ATOM     18 BR   UNL d   1       0.460   2.599  -1.455  0.00  0.00    -0.047 Br
ATOM     19  C   UNL d   1       0.221  -0.704  -2.566  0.00  0.00     0.071 C 
ENDBRANCH   1  11
TORSDOF 4
