REMARK  4 active torsions:
REMARK  status: ('A' for Active; 'I' for Inactive)
REMARK    1  A    between atoms: C_2  and  C_1 
REMARK    2  A    between atoms: O_8  and  C_2 
REMARK    3  A    between atoms: C_10  and  C_5 
REMARK    4  A    between atoms: C_11  and  O_8 
ROOT
ATOM      1  C   UNL d   1      -0.058  -1.074   0.275  0.00  0.00     0.100 A 
ATOM      2  N   UNL d   1      -1.182   0.901   0.133  0.00  0.00    -0.259 N 
ATOM      3  HN  UNL d   1      -1.925   1.599   0.097  1.00  0.00     0.195 HD
ATOM      4  C   UNL d   1      -1.336  -0.420   0.336  0.00  0.00     0.084 A 
ATOM      5  O   UNL d   1       0.157   1.132  -0.018  0.00  0.00    -0.241 OA
ATOM      6  C   UNL d   1       0.835  -0.035   0.077  0.00  0.00     0.091 A 
ATOM      7  C   UNL d   1       2.301   0.080  -0.067  0.00  0.00     0.080 C 
ENDROOT
BRANCH   1   8
ATOM      8  C   UNL d   1       0.286  -2.479   0.388  0.00  0.00     0.303 C 
ATOM      9  O   UNL d   1      -0.513  -3.390   0.219  0.00  0.00    -0.259 OA
BRANCH   8  10
ATOM     10  O   UNL d   1       1.634  -2.659   0.733  0.00  0.00    -0.275 OA
BRANCH  10  11
ATOM     11  C   UNL d   1       2.315  -3.869   1.021  0.00  0.00     0.079 A 
ATOM     12  C   UNL d   1       1.797  -5.141   0.790  0.00  0.00     0.037 A 
ATOM     13  C   UNL d   1       2.562  -6.259   1.134  0.00  0.00     0.003 A 
ATOM     14  C   UNL d   1       3.831  -6.107   1.693  0.00  0.00     0.000 A 
ATOM     15  C   UNL d   1       4.349  -4.829   1.909  0.00  0.00     0.003 A 
ATOM     16  C   UNL d   1       3.591  -3.709   1.570  0.00  0.00     0.037 A 
ENDBRANCH  10  11
ENDBRANCH   8  10
ENDBRANCH   1   8
BRANCH   4  17
ATOM     17  C   UNL d   1      -2.685  -0.930   0.620  0.00  0.00    -0.006 A 
ATOM     18  C   UNL d   1      -3.807  -0.264   0.091  0.00  0.00     0.014 A 
ATOM     19  C   UNL d   1      -5.106  -0.659   0.424  0.00  0.00     0.001 A 
ATOM     20  C   UNL d   1      -5.306  -1.733   1.286  0.00  0.00     0.000 A 
ATOM     21  C   UNL d   1      -4.208  -2.409   1.812  0.00  0.00     0.001 A 
ATOM     22  C   UNL d   1      -2.907  -2.007   1.489  0.00  0.00     0.014 A 
ENDBRANCH   4  17
TORSDOF 4
