REMARK  5 active torsions:
REMARK  status: ('A' for Active; 'I' for Inactive)
REMARK    1  A    between atoms: C_5  and  C_1 
REMARK    2  A    between atoms: C_11  and  C_2 
REMARK    3  A    between atoms: C_8  and  N_10 
REMARK    4  A    between atoms: C_9  and  O_14 
REMARK       I    between atoms: N_10  and  C_9 
REMARK    5  A    between atoms: O_14  and  C_11 
ROOT
ATOM      1  O   UNL d   1       2.456  -2.907   0.036  0.00  0.00    -0.299 OA
ENDROOT
BRANCH   1   2
ATOM      2  C   UNL d   1       2.335  -3.136   1.368  0.00  0.00     0.365 C 
ATOM      3  N   UNL d   1       2.196  -4.455   1.670  0.00  0.00    -0.299 N 
ATOM      4  H   UNL d   1       1.535  -4.609   2.424  0.00  0.00     0.171 HD
ATOM      5  O   UNL d   1       2.206  -2.271   2.229  0.00  0.00    -0.238 OA
BRANCH   3   6
ATOM      6  C   UNL d   1       3.160  -5.498   1.561  0.00  0.00     0.080 A 
ATOM      7  C   UNL d   1       4.499  -5.364   1.147  0.00  0.00     0.062 A 
ATOM      8 CL   UNL d   1       5.233  -3.881   0.647  0.00  0.00    -0.082 Cl
ATOM      9  C   UNL d   1       5.375  -6.463   1.214  0.00  0.00     0.026 A 
ATOM     10  C   UNL d   1       4.943  -7.704   1.679  0.00  0.00     0.003 A 
ATOM     11  C   UNL d   1       3.623  -7.860   2.078  0.00  0.00     0.026 A 
ATOM     12  C   UNL d   1       2.747  -6.771   2.023  0.00  0.00     0.062 A 
ATOM     13 CL   UNL d   1       1.121  -7.040   2.568  0.00  0.00    -0.082 Cl
ENDBRANCH   3   6
ENDBRANCH   1   2
BRANCH   1  14
ATOM     14  C   UNL d   1       2.545  -1.522  -0.342  0.00  0.00     0.223 C 
BRANCH  14  15
ATOM     15  C   UNL d   1       1.235  -0.800  -0.301  0.00  0.00     0.016 A 
ATOM     16  C   UNL d   1       0.184  -0.769  -1.274  0.00  0.00     0.142 A 
ATOM     17  N   UNL d   1      -0.836   0.015  -0.855  0.00  0.00    -0.294 N 
ATOM     18  N   UNL d   1      -0.450   0.457   0.350  0.00  0.00    -0.307 N 
ATOM     19  HN  UNL d   1      -1.705   0.222  -1.347  1.00  0.00     0.187 HD
ATOM     20  C   UNL d   1      -1.312   1.320   1.122  0.00  0.00     0.177 C 
ATOM     21  C   UNL d   1       0.780   0.015   0.718  0.00  0.00     0.121 A 
BRANCH  16  22
ATOM     22  C   UNL d   1       0.135  -1.464  -2.612  0.00  0.00     0.434 C 
ATOM     23  F   UNL d   1       1.237  -2.229  -2.845  0.00  0.00    -0.165 F 
ATOM     24  F   UNL d   1      -0.937  -2.294  -2.732  0.00  0.00    -0.165 F 
ATOM     25  F   UNL d   1       0.067  -0.582  -3.647  0.00  0.00    -0.165 F 
ENDBRANCH  16  22
ENDBRANCH  14  15
ENDBRANCH   1  14
TORSDOF 5
