REMARK  2 active torsions:
REMARK  status: ('A' for Active; 'I' for Inactive)
REMARK    1  A    between atoms: C_8  and  N_4 
REMARK    2  A    between atoms: O_18  and  C_14 
ROOT
ATOM      1  N   UNL d   1      -1.792   1.505  -0.324  0.00  0.00    -0.301 N 
ATOM      2  HN  UNL d   1      -1.507   2.411  -0.697  1.00  0.00     0.187 HD
ATOM      3  C   UNL d   1      -1.021   0.524   0.035  0.00  0.00     0.042 C 
ATOM      4  N   UNL d   1      -3.074   1.065  -0.094  0.00  0.00    -0.291 N 
ATOM      5  C   UNL d   1      -1.722  -0.647   0.664  0.00  0.00     0.058 C 
ATOM      6  C   UNL d   1       0.439   0.475  -0.051  0.00  0.00    -0.005 A 
ATOM      7  C   UNL d   1      -3.122  -0.375   0.137  0.00  0.00     0.160 C 
ATOM      8  C   UNL d   1       1.016  -0.791  -0.235  0.00  0.00    -0.046 A 
ATOM      9  C   UNL d   1      -1.117  -2.011   0.364  0.00  0.00     0.017 C 
ATOM     10  C   UNL d   1       0.129  -1.975  -0.524  0.00  0.00     0.040 C 
ATOM     11  C   UNL d   1       1.219   1.619   0.105  0.00  0.00     0.014 A 
ATOM     12  C   UNL d   1       2.409  -0.903  -0.241  0.00  0.00     0.008 A 
ATOM     13  C   UNL d   1       2.609   1.489   0.114  0.00  0.00     0.001 A 
ATOM     14  C   UNL d   1       3.201   0.234  -0.050  0.00  0.00     0.001 A 
ENDROOT
BRANCH   4  15
ATOM     15  C   UNL d   1      -4.190   1.864  -0.336  0.00  0.00     0.051 A 
ATOM     16  C   UNL d   1      -4.066   3.143  -0.893  0.00  0.00     0.034 A 
ATOM     17  C   UNL d   1      -5.180   3.974  -1.085  0.00  0.00     0.039 A 
ATOM     18  C   UNL d   1      -6.454   3.556  -0.707  0.00  0.00     0.068 A 
ATOM     19  C   UNL d   1      -6.606   2.285  -0.164  0.00  0.00     0.039 A 
ATOM     20  C   UNL d   1      -5.487   1.454   0.013  0.00  0.00     0.034 A 
BRANCH  18  21
ATOM     21  O   UNL d   1      -7.448   4.472  -0.906  0.00  0.00    -0.356 OA
ATOM     22  C   UNL d   1      -8.757   4.110  -0.482  0.00  0.00     0.210 C 
ENDBRANCH  18  21
ENDBRANCH   4  15
TORSDOF 2
