REMARK  5 active torsions:
REMARK  status: ('A' for Active; 'I' for Inactive)
REMARK    1  A    between atoms: N_2  and  S_1 
REMARK    2  A    between atoms: C_4  and  S_1 
REMARK       I    between atoms: C_3  and  N_5 
REMARK    3  A    between atoms: C_8  and  C_3 
REMARK    4  A    between atoms: N_5  and  C_19 
REMARK    5  A    between atoms: N_11  and  C_9 
ROOT
ATOM      1  C   UNL d   1       0.434   1.667  -0.012  0.00  0.00     0.074 A 
ATOM      2  C   UNL d   1      -0.928   1.869   0.221  0.00  0.00     0.027 A 
ATOM      3  C   UNL d   1       1.301   2.754  -0.098  0.00  0.00     0.027 A 
ATOM      4  C   UNL d   1      -0.544   4.274   0.372  0.00  0.00     0.035 A 
ATOM      5  C   UNL d   1       0.808   4.051   0.089  0.00  0.00     0.031 A 
ATOM      6  C   UNL d   1      -1.412   3.172   0.408  0.00  0.00     0.031 A 
ENDROOT
BRANCH   4   7
ATOM      7  N   UNL d   1      -1.089   5.549   0.657  0.00  0.00    -0.323 N 
ATOM      8  C   UNL d   1      -0.406   6.755   0.716  0.00  0.00     0.256 C 
ATOM      9  O   UNL d   1       0.788   6.927   0.489  0.00  0.00    -0.267 OA
ATOM     10  H   UNL d   1      -2.087   5.577   0.818  0.00  0.00     0.169 HD
BRANCH   8  11
ATOM     11  C   UNL d   1      -1.232   7.957   1.036  0.00  0.00     0.032 A 
ATOM     12  C   UNL d   1      -2.314   7.921   1.912  0.00  0.00     0.019 A 
ATOM     13  C   UNL d   1      -3.070   9.084   2.138  0.00  0.00     0.030 A 
ATOM     14  C   UNL d   1      -2.790  10.311   1.504  0.00  0.00     0.029 A 
ATOM     15  C   UNL d   1      -1.657  10.327   0.677  0.00  0.00     0.030 A 
ATOM     16  C   UNL d   1      -0.884   9.176   0.450  0.00  0.00     0.019 A 
BRANCH  14  17
ATOM     17  N   UNL d   1      -3.566  11.439   1.757  0.00  0.00    -0.390 N 
ATOM     18  C   UNL d   1      -5.021  11.296   1.864  0.00  0.00     0.149 C 
ATOM     19  C   UNL d   1      -3.135  12.770   1.329  0.00  0.00     0.149 C 
ENDBRANCH  14  17
ENDBRANCH   8  11
ENDBRANCH   4   7
BRANCH   1  20
ATOM     20  S   UNL d   1       1.107   0.023  -0.047  0.00  0.00     0.243 S 
ATOM     21  O   UNL d   1       2.192  -0.005   0.915  0.00  0.00    -0.206 OA
ATOM     22  O   UNL d   1       0.008  -0.906   0.057  0.00  0.00    -0.206 OA
BRANCH  20  23
ATOM     23  N   UNL d   1       1.789  -0.123  -1.604  0.00  0.00    -0.202 NA
ATOM     24  C   UNL d   1       0.843  -0.136  -2.763  0.00  0.00     0.134 C 
ATOM     25  C   UNL d   1       0.186  -1.513  -2.951  0.00  0.00     0.183 C 
ATOM     26  O   UNL d   1       1.158  -2.566  -3.048  0.00  0.00    -0.389 OA
ATOM     27  C   UNL d   1       2.014  -2.593  -1.895  0.00  0.00     0.183 C 
ATOM     28  C   UNL d   1       2.757  -1.262  -1.750  0.00  0.00     0.134 C 
ENDBRANCH  20  23
ENDBRANCH   1  20
TORSDOF 5
