REMARK  3 active torsions:
REMARK  status: ('A' for Active; 'I' for Inactive)
REMARK    1  A    between atoms: C_2  and  N_1 
REMARK    2  A    between atoms: N_4  and  C_3 
REMARK    3  A    between atoms: C_5  and  C_12 
REMARK       I    between atoms: N_16  and  C_5 
ROOT
ATOM      1  N   UNL d   1      -0.958   1.315   1.451  0.00  0.00    -0.365 N 
ATOM      2  C   UNL d   1      -0.004   1.310   2.555  0.00  0.00     0.125 C 
ATOM      3  C   UNL d   1      -2.323   0.889   1.760  0.00  0.00     0.125 C 
ATOM      4  C   UNL d   1      -1.965   1.734   4.128  0.00  0.00     0.081 C 
ATOM      5  C   UNL d   1      -2.891   1.729   2.905  0.00  0.00     0.034 C 
ATOM      6  C   UNL d   1      -0.547   2.145   3.716  0.00  0.00     0.034 C 
ENDROOT
BRANCH   1   7
ATOM      7  C   UNL d   1      -0.642   1.660   0.156  0.00  0.00     0.136 A 
ATOM      8  C   UNL d   1       0.579   1.451  -0.488  0.00  0.00     0.146 A 
ATOM      9  C   UNL d   1       0.826   1.929  -1.786  0.00  0.00     0.041 A 
ATOM     10  C   UNL d   1      -0.180   2.610  -2.449  0.00  0.00     0.020 A 
ATOM     11  C   UNL d   1      -1.382   2.763  -1.788  0.00  0.00     0.090 A 
ATOM     12  N   UNL d   1      -1.621   2.309  -0.533  0.00  0.00    -0.350 N 
ATOM     13  HN  UNL d   1      -2.536   2.454  -0.105  1.00  0.00     0.166 HD
BRANCH   8  14
ATOM     14  N   UNL d   1       1.621   0.648   0.101  0.00  0.00    -0.112 N 
ATOM     15  O   UNL d   1       1.375  -0.544   0.327  0.00  0.00    -0.532 OA
ATOM     16  O   UNL d   1       2.716   1.201   0.286  0.00  0.00    -0.532 OA
ENDBRANCH   8  14
ENDBRANCH   1   7
BRANCH   4  17
ATOM     17  C   UNL d   1      -1.963   0.398   4.864  0.00  0.00     0.219 C 
ATOM     18  O   UNL d   1      -0.967  -0.287   5.057  0.00  0.00    -0.273 OA
ATOM     19  N   UNL d   1      -3.172  -0.003   5.351  0.00  0.00    -0.370 N 
ATOM     20  H   UNL d   1      -3.947   0.636   5.456  0.00  0.00     0.159 HD
ATOM     21  H   UNL d   1      -3.166  -0.838   5.924  0.00  0.00     0.159 HD
ENDBRANCH   4  17
TORSDOF 3
