REMARK  2 active torsions:
REMARK  status: ('A' for Active; 'I' for Inactive)
REMARK    1  A    between atoms: C_7  and  C_1 
REMARK    2  A    between atoms: N_8  and  C_7 
ROOT
ATOM      1  C   UNL d   1      -0.981   0.996  -0.046  0.00  0.00    -0.017 A 
ATOM      2  C   UNL d   1       0.311   1.596   0.006  0.00  0.00    -0.047 A 
ATOM      3  C   UNL d   1      -1.088  -0.425  -0.117  0.00  0.00    -0.047 A 
ATOM      4  C   UNL d   1       1.477   0.778  -0.049  0.00  0.00    -0.049 A 
ATOM      5  C   UNL d   1       0.082  -1.238  -0.074  0.00  0.00    -0.049 A 
ATOM      6  C   UNL d   1       1.359  -0.636  -0.062  0.00  0.00    -0.049 A 
ATOM      7  C   UNL d   1       0.507   3.091   0.127  0.00  0.00     0.049 C 
ATOM      8  C   UNL d   1      -2.438  -1.109  -0.179  0.00  0.00     0.049 C 
ATOM      9  C   UNL d   1       2.869   1.386  -0.065  0.00  0.00     0.049 C 
ATOM     10  C   UNL d   1      -0.021  -2.747  -0.022  0.00  0.00     0.049 C 
ATOM     11  C   UNL d   1       2.625  -1.472  -0.048  0.00  0.00     0.049 C 
ENDROOT
BRANCH   1  12
ATOM     12  C   UNL d   1      -2.259   1.836   0.051  0.00  0.00     0.312 C 
BRANCH  12  13
ATOM     13  N   UNL d   1      -2.942   2.139  -1.237  0.00  0.00     0.092 N 
ATOM     14  C   UNL d   1      -2.213   3.177  -1.980  0.00  0.00     0.272 C 
ATOM     15  C   UNL d   1      -2.977   3.802  -3.151  0.00  0.00     0.030 C 
ATOM     16  C   UNL d   1      -4.350   4.291  -2.714  0.00  0.00     0.003 C 
ATOM     17  C   UNL d   1      -5.112   3.124  -2.110  0.00  0.00     0.030 C 
ATOM     18  C   UNL d   1      -4.336   2.518  -0.938  0.00  0.00     0.272 C 
ENDBRANCH  12  13
ENDBRANCH   1  12
TORSDOF 2
