REMARK  3 active torsions:
REMARK  status: ('A' for Active; 'I' for Inactive)
REMARK    1  A    between atoms: N_4  and  C_1 
REMARK    2  A    between atoms: S_13  and  C_3 
REMARK    3  A    between atoms: C_16  and  S_13 
ROOT
ATOM      1  C   UNL d   1      -1.383  -1.511  -0.071  0.00  0.00     0.149 A 
ATOM      2  C   UNL d   1      -0.146  -0.824  -0.043  0.00  0.00     0.101 A 
ATOM      3  C   UNL d   1      -2.587  -0.781  -0.086  0.00  0.00     0.041 A 
ATOM      4  C   UNL d   1      -0.153   0.685  -0.003  0.00  0.00     0.069 A 
ATOM      5  N   UNL d   1       1.100  -1.328  -0.050  0.00  0.00    -0.308 N 
ATOM      6  HN  UNL d   1       1.355  -2.315  -0.085  1.00  0.00     0.176 HD
ATOM      7  S   UNL d   1       2.147  -0.041   0.009  0.00  0.00     0.068 SA
ATOM      8  N   UNL d   1       1.073   1.225   0.026  0.00  0.00    -0.310 N 
ATOM      9  HN  UNL d   1       1.301   2.218   0.053  1.00  0.00     0.176 HD
ATOM     10  C   UNL d   1      -2.558   0.640  -0.030  0.00  0.00     0.024 A 
ATOM     11  C   UNL d   1      -1.373   1.404   0.009  0.00  0.00     0.034 A 
ENDROOT
BRANCH   3  12
ATOM     12  S   UNL d   1      -4.210  -1.550  -0.074  0.00  0.00    -0.088 SA
BRANCH  12  13
ATOM     13  C   UNL d   1      -4.562  -1.722  -1.818  0.00  0.00     0.005 A 
ATOM     14  C   UNL d   1      -4.812  -2.998  -2.338  0.00  0.00     0.020 A 
ATOM     15  C   UNL d   1      -5.153  -3.164  -3.684  0.00  0.00     0.025 A 
ATOM     16  C   UNL d   1      -5.250  -2.052  -4.516  0.00  0.00     0.034 A 
ATOM     17  C   UNL d   1      -5.008  -0.776  -4.012  0.00  0.00     0.025 A 
ATOM     18 CL   UNL d   1      -5.686  -2.251  -6.168  0.00  0.00    -0.084 Cl
ATOM     19  C   UNL d   1      -4.670  -0.611  -2.664  0.00  0.00     0.020 A 
ENDBRANCH  12  13
ENDBRANCH   3  12
BRANCH   1  20
ATOM     20  N   UNL d   1      -1.335  -2.940  -0.020  0.00  0.00    -0.112 N 
ATOM     21  O   UNL d   1      -0.986  -3.455   1.049  0.00  0.00    -0.532 OA
ATOM     22  O   UNL d   1      -1.673  -3.553  -1.043  0.00  0.00    -0.532 OA
ENDBRANCH   1  20
TORSDOF 3
