REMARK  6 active torsions:
REMARK  status: ('A' for Active; 'I' for Inactive)
REMARK    1  A    between atoms: C_6  and  C_1 
REMARK    2  A    between atoms: C_7  and  C_2 
REMARK    3  A    between atoms: C_3  and  C_11 
REMARK    4  A    between atoms: O_16  and  C_17 
REMARK    5  A    between atoms: C_21  and  O_16 
REMARK    6  A    between atoms: C_18  and  C_21 
ROOT
ATOM      1  C   UNL d   1      -0.182  -6.202   1.555  0.00  0.00     0.055 C 
ATOM      2  C   UNL d   1       0.530  -5.270   2.222  0.00  0.00     0.034 C 
ATOM      3  C   UNL d   1      -0.639  -6.052   0.211  0.00  0.00     0.100 C 
ATOM      4  N   UNL d   1      -0.986  -5.966  -0.894  0.00  0.00    -0.191 NA
ENDROOT
BRANCH   1   5
ATOM      5  C   UNL d   1      -0.540  -7.472   2.208  0.00  0.00    -0.015 A 
ATOM      6  C   UNL d   1      -1.781  -7.616   2.842  0.00  0.00     0.015 A 
ATOM      7  C   UNL d   1      -2.221  -8.884   3.239  0.00  0.00     0.037 A 
ATOM      8  C   UNL d   1      -1.429 -10.006   2.999  0.00  0.00     0.069 A 
ATOM      9  C   UNL d   1      -0.150  -9.849   2.463  0.00  0.00     0.037 A 
ATOM     10  C   UNL d   1       0.291  -8.588   2.058  0.00  0.00     0.015 A 
BRANCH   8  11
ATOM     11  O   UNL d   1      -2.003 -11.217   3.294  0.00  0.00    -0.347 OA
BRANCH  11  12
ATOM     12  C   UNL d   1      -1.487 -12.313   2.535  0.00  0.00     0.214 C 
BRANCH  12  13
ATOM     13  C   UNL d   1      -2.504 -13.421   2.486  0.00  0.00    -0.034 A 
ATOM     14  C   UNL d   1      -3.503 -13.415   1.503  0.00  0.00     0.010 A 
ATOM     15  C   UNL d   1      -4.429 -14.456   1.430  0.00  0.00     0.007 A 
ATOM     16  C   UNL d   1      -4.379 -15.513   2.345  0.00  0.00    -0.062 A 
ATOM     17  C   UNL d   1      -3.392 -15.512   3.336  0.00  0.00     0.007 A 
ATOM     18  C   UNL d   1      -5.386 -16.621   2.258  0.00  0.00     0.048 C 
ATOM     19  C   UNL d   1      -2.463 -14.472   3.409  0.00  0.00     0.010 A 
ENDBRANCH  12  13
ENDBRANCH  11  12
ENDBRANCH   8  11
ENDBRANCH   1   5
BRANCH   2  20
ATOM     20  C   UNL d   1       0.969  -3.945   1.732  0.00  0.00    -0.035 A 
ATOM     21  C   UNL d   1       1.075  -2.889   2.649  0.00  0.00     0.012 A 
ATOM     22  C   UNL d   1       1.490  -1.615   2.236  0.00  0.00     0.017 A 
ATOM     23  C   UNL d   1       1.812  -1.367   0.895  0.00  0.00     0.048 A 
ATOM     24  C   UNL d   1       1.726  -2.423  -0.017  0.00  0.00     0.017 A 
ATOM     25  C   UNL d   1       1.334  -3.698   0.403  0.00  0.00     0.012 A 
BRANCH  23  26
ATOM     26  C   UNL d   1       2.259   0.005   0.451  0.00  0.00     0.417 C 
ATOM     27  F   UNL d   1       2.554   0.078  -0.878  0.00  0.00    -0.166 F 
ATOM     28  F   UNL d   1       3.380   0.421   1.102  0.00  0.00    -0.166 F 
ATOM     29  F   UNL d   1       1.317   0.962   0.676  0.00  0.00    -0.166 F 
ENDBRANCH  23  26
ENDBRANCH   2  20
TORSDOF 6
