REMARK  4 active torsions:
REMARK  status: ('A' for Active; 'I' for Inactive)
REMARK    1  A    between atoms: C_12  and  C_1 
REMARK    2  A    between atoms: S_14  and  C_2 
REMARK    3  A    between atoms: C_6  and  C_3 
REMARK    4  A    between atoms: C_13  and  C_9 
ROOT
ATOM      1  C   UNL d   1       1.218   0.073  -0.023  0.00  0.00     0.040 A 
ATOM      2  C   UNL d   1       0.278  -0.956  -0.013  0.00  0.00     0.056 A 
ATOM      3  C   UNL d   1      -0.820   1.292   0.012  0.00  0.00     0.046 A 
ATOM      4  C   UNL d   1       0.565   1.389   0.021  0.00  0.00    -0.026 A 
ATOM      5  S   UNL d   1      -1.309  -0.339   0.074  0.00  0.00    -0.079 SA
ATOM      6  C   UNL d   1       1.341   2.679   0.055  0.00  0.00     0.050 C 
ENDROOT
BRANCH   3   7
ATOM      7  C   UNL d   1      -1.805   2.353  -0.077  0.00  0.00     0.092 A 
ATOM      8  N   UNL d   1      -1.549   3.505  -0.663  0.00  0.00    -0.352 N 
ATOM      9  C   UNL d   1      -2.672   4.324  -0.674  0.00  0.00     0.024 A 
ATOM     10  HN  UNL d   1      -0.644   3.763  -1.056  1.00  0.00     0.166 HD
ATOM     11  C   UNL d   1      -3.785   3.756  -0.081  0.00  0.00     0.077 A 
ATOM     12  S   UNL d   1      -3.413   2.207   0.531  0.00  0.00    -0.081 SA
BRANCH   9  13
ATOM     13  C   UNL d   1      -2.597   5.699  -1.320  0.00  0.00    -0.008 C 
ATOM     14  C   UNL d   1      -1.168   6.025  -1.801  0.00  0.00     0.021 C 
ATOM     15  C   UNL d   1      -3.539   5.761  -2.538  0.00  0.00     0.021 C 
ATOM     16  C   UNL d   1      -3.014   6.781  -0.303  0.00  0.00     0.021 C 
ENDBRANCH   9  13
ENDBRANCH   3   7
BRANCH   1  17
ATOM     17  C   UNL d   1       2.684  -0.081  -0.147  0.00  0.00     0.158 C 
ATOM     18  O   UNL d   1       3.333   0.714  -0.828  0.00  0.00    -0.293 OA
ATOM     19  C   UNL d   1       3.441  -1.141   0.613  0.00  0.00     0.097 C 
ENDBRANCH   1  17
BRANCH   2  20
ATOM     20  S   UNL d   1       0.579  -2.699  -0.135  0.00  0.00    -0.126 SA
ATOM     21  C   UNL d   1      -1.064  -3.451  -0.033  0.00  0.00     0.096 C 
ENDBRANCH   2  20
TORSDOF 4
