REMARK  7 active torsions:
REMARK  status: ('A' for Active; 'I' for Inactive)
REMARK    1  A    between atoms: C_10  and  N_1 
REMARK    2  A    between atoms: C_13  and  C_5 
REMARK    3  A    between atoms: C_8  and  C_10 
REMARK    4  A    between atoms: C_18  and  C_11 
REMARK    5  A    between atoms: C_16  and  C_13 
REMARK    6  A    between atoms: O_20  and  C_16 
REMARK    7  A    between atoms: C_25  and  O_20 
ROOT
ATOM      1  N   UNL d   1       2.400  -0.628  -0.059  0.00  0.00    -0.251 N 
ATOM      2  N   UNL d   1       2.401   0.746  -0.037  0.00  0.00    -0.298 N 
ATOM      3  HN  UNL d   1       3.281   1.260  -0.070  1.00  0.00     0.187 HD
ATOM      4  C   UNL d   1       1.256  -1.414   0.065  0.00  0.00     0.273 A 
ATOM      5  C   UNL d   1       1.271   1.382   0.025  0.00  0.00     0.046 A 
ATOM      6  C   UNL d   1      -0.030  -0.696   0.068  0.00  0.00     0.046 A 
ATOM      7  C   UNL d   1      -0.044   0.694   0.031  0.00  0.00     0.004 A 
ATOM      8  O   UNL d   1       1.263  -2.636   0.154  0.00  0.00    -0.266 OA
ATOM      9  C   UNL d   1      -1.232  -1.419   0.056  0.00  0.00     0.018 A 
ATOM     10  C   UNL d   1      -1.273   1.366  -0.037  0.00  0.00     0.014 A 
ATOM     11  C   UNL d   1      -2.450  -0.748  -0.038  0.00  0.00     0.001 A 
ATOM     12  C   UNL d   1      -2.470   0.644  -0.087  0.00  0.00     0.001 A 
ENDROOT
BRANCH   1  13
ATOM     13  C   UNL d   1       3.707  -1.276  -0.146  0.00  0.00     0.217 C 
BRANCH  13  14
ATOM     14  C   UNL d   1       4.092  -1.542  -1.576  0.00  0.00     0.071 A 
ATOM     15  N   UNL d   1       3.903  -2.686  -2.202  0.00  0.00    -0.351 N 
ATOM     16  C   UNL d   1       4.506  -2.668  -3.450  0.00  0.00     0.049 A 
ATOM     17  HN  UNL d   1       3.383  -3.477  -1.820  1.00  0.00     0.166 HD
ATOM     18  C   UNL d   1       5.107  -1.470  -3.781  0.00  0.00     0.081 A 
ATOM     19  S   UNL d   1       4.941  -0.352  -2.490  0.00  0.00    -0.085 SA
BRANCH  16  20
ATOM     20  C   UNL d   1       4.493  -3.854  -4.297  0.00  0.00    -0.009 A 
ATOM     21  C   UNL d   1       3.388  -4.715  -4.250  0.00  0.00     0.014 A 
ATOM     22  C   UNL d   1       3.370  -5.894  -4.998  0.00  0.00     0.001 A 
ATOM     23  C   UNL d   1       4.460  -6.228  -5.798  0.00  0.00     0.000 A 
ATOM     24  C   UNL d   1       5.563  -5.378  -5.860  0.00  0.00     0.001 A 
ATOM     25  C   UNL d   1       5.581  -4.194  -5.115  0.00  0.00     0.014 A 
ENDBRANCH  16  20
ENDBRANCH  13  14
ENDBRANCH   1  13
BRANCH   5  26
ATOM     26  C   UNL d   1       1.350   2.893   0.047  0.00  0.00     0.170 C 
BRANCH  26  27
ATOM     27  C   UNL d   1       0.795   3.521   1.290  0.00  0.00     0.264 C 
ATOM     28  O   UNL d   1       0.314   2.913   2.228  0.00  0.00    -0.265 OA
BRANCH  27  29
ATOM     29  O   UNL d   1       0.787   4.879   1.154  0.00  0.00    -0.322 OA
BRANCH  29  30
ATOM     30  C   UNL d   1      -0.138   5.563   2.011  0.00  0.00     0.174 C 
ATOM     31  C   UNL d   1      -1.455   5.671   1.263  0.00  0.00     0.034 C 
ENDBRANCH  29  30
ENDBRANCH  27  29
ENDBRANCH  26  27
ENDBRANCH   5  26
TORSDOF 7
