REMARK  5 active torsions:
REMARK  status: ('A' for Active; 'I' for Inactive)
REMARK    1  A    between atoms: C_2  and  C_1 
REMARK    2  A    between atoms: C_14  and  C_12 
REMARK    3  A    between atoms: C_15  and  C_14 
REMARK    4  A    between atoms: C_17  and  C_15 
REMARK    5  A    between atoms: C_16  and  C_17 
ROOT
ATOM      1  C   UNL d   1       1.432  -0.206   0.111  0.00  0.00    -0.026 A 
ATOM      2  C   UNL d   1       0.532  -1.287   0.098  0.00  0.00     0.013 A 
ATOM      3  C   UNL d   1       0.879   1.083   0.049  0.00  0.00     0.013 A 
ATOM      4  C   UNL d   1      -0.503   1.286  -0.020  0.00  0.00     0.008 A 
ATOM      5  C   UNL d   1      -0.851  -1.090   0.008  0.00  0.00     0.008 A 
ATOM      6  C   UNL d   1      -1.382   0.201  -0.060  0.00  0.00    -0.058 A 
ENDROOT
BRANCH   1   7
ATOM      7  C   UNL d   1       2.900  -0.416   0.190  0.00  0.00    -0.026 A 
ATOM      8  C   UNL d   1       3.519  -1.532  -0.403  0.00  0.00     0.013 A 
ATOM      9  C   UNL d   1       4.902  -1.733  -0.322  0.00  0.00     0.020 A 
ATOM     10  C   UNL d   1       5.696  -0.807   0.345  0.00  0.00     0.011 A 
ATOM     11  C   UNL d   1       5.120   0.312   0.935  0.00  0.00     0.020 A 
ATOM     12 BR   UNL d   1       7.564  -1.069   0.451  0.00  0.00    -0.051 Br
ATOM     13  C   UNL d   1       3.735   0.498   0.863  0.00  0.00     0.013 A 
ENDBRANCH   1   7
BRANCH   6  14
ATOM     14  C   UNL d   1      -2.871   0.413  -0.180  0.00  0.00     0.038 C 
BRANCH  14  15
ATOM     15  C   UNL d   1      -3.288   1.206  -1.424  0.00  0.00     0.005 C 
BRANCH  15  16
ATOM     16  C   UNL d   1      -2.915   0.507  -2.737  0.00  0.00    -0.000 C 
BRANCH  16  17
ATOM     17  C   UNL d   1      -3.345   1.342  -3.943  0.00  0.00    -0.005 C 
ATOM     18  C   UNL d   1      -2.971   0.666  -5.252  0.00  0.00     0.005 C 
ENDBRANCH  16  17
ENDBRANCH  15  16
ENDBRANCH  14  15
ENDBRANCH   6  14
TORSDOF 5
