REMARK  2 active torsions:
REMARK  status: ('A' for Active; 'I' for Inactive)
REMARK    1  A    between atoms: C_8  and  C_1 
REMARK    2  A    between atoms: C_10  and  C_7 
ROOT
ATOM      1  C   UNL d   1      -0.148  -1.075  -0.083  0.00  0.00     0.175 A 
ATOM      2  O   UNL d   1      -0.958  -0.084  -0.588  0.00  0.00    -0.273 OA
ATOM      3  N   UNL d   1       1.036  -0.621   0.276  0.00  0.00    -0.277 N 
ATOM      4  HN  UNL d   1       1.807  -1.168   0.659  1.00  0.00     0.189 HD
ATOM      5  N   UNL d   1       1.032   0.732   0.033  0.00  0.00    -0.277 N 
ATOM      6  HN  UNL d   1       1.796   1.385   0.208  1.00  0.00     0.189 HD
ATOM      7  C   UNL d   1      -0.150   1.022  -0.469  0.00  0.00     0.174 A 
ENDROOT
BRANCH   1   8
ATOM      8  C   UNL d   1      -0.696  -2.429  -0.018  0.00  0.00     0.028 A 
ATOM      9  C   UNL d   1      -0.344  -3.335   1.030  0.00  0.00    -0.011 A 
ATOM     10  C   UNL d   1      -0.847  -4.662   0.980  0.00  0.00    -0.025 A 
ATOM     11  C   UNL d   1       0.474  -3.001   2.141  0.00  0.00     0.013 A 
ATOM     12  C   UNL d   1      -0.506  -5.587   1.982  0.00  0.00     0.012 A 
ATOM     13  C   UNL d   1      -1.688  -5.054  -0.071  0.00  0.00     0.012 A 
ATOM     14  C   UNL d   1       0.314  -5.226   3.049  0.00  0.00     0.001 A 
ATOM     15  C   UNL d   1       0.798  -3.930   3.132  0.00  0.00     0.001 A 
ATOM     16  C   UNL d   1      -2.049  -4.159  -1.072  0.00  0.00     0.002 A 
ATOM     17  C   UNL d   1      -1.558  -2.857  -1.046  0.00  0.00     0.017 A 
ENDBRANCH   1   8
BRANCH   7  18
ATOM     18  C   UNL d   1      -0.689   2.316  -0.866  0.00  0.00     0.017 A 
ATOM     19  C   UNL d   1      -1.955   2.459  -1.451  0.00  0.00     0.016 A 
ATOM     20  C   UNL d   1      -2.438   3.725  -1.801  0.00  0.00     0.001 A 
ATOM     21  C   UNL d   1      -1.662   4.860  -1.569  0.00  0.00     0.000 A 
ATOM     22  C   UNL d   1      -0.402   4.735  -0.993  0.00  0.00     0.001 A 
ATOM     23  C   UNL d   1       0.081   3.471  -0.646  0.00  0.00     0.016 A 
ENDBRANCH   7  18
TORSDOF 2
