REMARK  10 active torsions:
REMARK  status: ('A' for Active; 'I' for Inactive)
REMARK    1  A    between atoms: C_2  and  C_23 
REMARK    2  A    between atoms: O_22  and  C_2 
REMARK    3  A    between atoms: C_3  and  C_5 
REMARK    4  A    between atoms: C_24  and  C_3 
REMARK    5  A    between atoms: S_12  and  C_24 
REMARK    6  A    between atoms: C_23  and  S_12 
REMARK    7  A    between atoms: O_13  and  C_18 
REMARK    8  A    between atoms: C_16  and  O_13 
REMARK    9  A    between atoms: C_18  and  C_14 
REMARK   10  A    between atoms: C_25  and  O_22 
ROOT
ATOM      1  C   UNL d   1      -6.807   5.623  -0.226  0.00  0.00     0.011 A 
ATOM      2  C   UNL d   1      -6.825   4.529   0.651  0.00  0.00     0.018 A 
ATOM      3  C   UNL d   1      -5.735   5.763  -1.111  0.00  0.00     0.018 A 
ATOM      4  C   UNL d   1      -4.682   3.784  -0.200  0.00  0.00     0.069 A 
ATOM      5  C   UNL d   1      -4.688   4.841  -1.108  0.00  0.00     0.037 A 
ATOM      6  C   UNL d   1      -5.770   3.608   0.653  0.00  0.00     0.037 A 
ENDROOT
BRANCH   1   7
ATOM      7  C   UNL d   1      -7.912   6.623  -0.159  0.00  0.00     0.168 C 
ATOM      8  O   UNL d   1      -8.548   6.723   0.891  0.00  0.00    -0.292 OA
BRANCH   7   9
ATOM      9  C   UNL d   1      -8.254   7.417  -1.413  0.00  0.00     0.158 C 
BRANCH   9  10
ATOM     10  S   UNL d   1      -8.911   9.083  -1.077  0.00  0.00    -0.151 SA
BRANCH  10  11
ATOM     11  C   UNL d   1      -7.576   9.783  -0.063  0.00  0.00     0.185 C 
BRANCH  11  12
ATOM     12  C   UNL d   1      -6.264   9.880  -0.805  0.00  0.00     0.268 C 
ATOM     13  O   UNL d   1      -5.447   8.972  -0.872  0.00  0.00    -0.264 OA
BRANCH  12  14
ATOM     14  O   UNL d   1      -6.111  11.118  -1.353  0.00  0.00    -0.321 OA
BRANCH  14  15
ATOM     15  C   UNL d   1      -4.791  11.447  -1.812  0.00  0.00     0.174 C 
ATOM     16  C   UNL d   1      -4.067  12.153  -0.680  0.00  0.00     0.034 C 
ENDBRANCH  14  15
ENDBRANCH  12  14
ENDBRANCH  11  12
ENDBRANCH  10  11
ENDBRANCH   9  10
ENDBRANCH   7   9
ENDBRANCH   1   7
BRANCH   4  17
ATOM     17  O   UNL d   1      -3.654   2.888  -0.064  0.00  0.00    -0.347 OA
BRANCH  17  18
ATOM     18  C   UNL d   1      -2.381   3.388  -0.484  0.00  0.00     0.214 C 
BRANCH  18  19
ATOM     19  C   UNL d   1      -1.282   2.572   0.148  0.00  0.00    -0.032 A 
ATOM     20  C   UNL d   1      -0.403   3.163   1.068  0.00  0.00     0.035 A 
ATOM     21  C   UNL d   1       0.641   2.425   1.633  0.00  0.00     0.056 A 
ATOM     22  C   UNL d   1       0.810   1.082   1.283  0.00  0.00     0.055 A 
ATOM     23 CL   UNL d   1       1.687   3.236   2.744  0.00  0.00    -0.083 Cl
ATOM     24  C   UNL d   1      -0.069   0.485   0.374  0.00  0.00     0.026 A 
ATOM     25 CL   UNL d   1       2.081   0.109   1.932  0.00  0.00    -0.083 Cl
ATOM     26  C   UNL d   1      -1.110   1.224  -0.190  0.00  0.00     0.011 A 
ENDBRANCH  18  19
ENDBRANCH  17  18
ENDBRANCH   4  17
TORSDOF 10
