REMARK  5 active torsions:
REMARK  status: ('A' for Active; 'I' for Inactive)
REMARK    1  A    between atoms: N_3  and  C_1 
REMARK    2  A    between atoms: N_6  and  C_1 
REMARK    3  A    between atoms: C_2  and  C_12 
REMARK    4  A    between atoms: C_13  and  N_3 
REMARK    5  A    between atoms: C_12  and  N_6 
ROOT
ATOM      1  C   UNL d   1       1.247  -0.043  -0.021  0.00  0.00     0.172 C 
ATOM      2  S   UNL d   1       0.569  -1.145  -1.079  0.00  0.00    -0.041 SA
ENDROOT
BRANCH   1   3
ATOM      3  N   UNL d   1       0.593   0.812   0.835  0.00  0.00    -0.332 N 
ATOM      4  H   UNL d   1       0.962   1.753   0.815  0.00  0.00     0.168 HD
BRANCH   3   5
ATOM      5  C   UNL d   1      -0.717   0.672   1.348  0.00  0.00     0.049 A 
ATOM      6  C   UNL d   1      -1.498   1.802   1.584  0.00  0.00     0.117 A 
ATOM      7  N   UNL d   1      -2.761   1.770   2.074  0.00  0.00    -0.373 N 
ATOM      8  C   UNL d   1      -3.265   0.550   2.361  0.00  0.00     0.088 A 
ATOM      9  HN  UNL d   1      -3.303   2.622   2.219  1.00  0.00     0.164 HD
ATOM     10  C   UNL d   1      -2.555  -0.629   2.209  0.00  0.00     0.019 A 
ATOM     11  C   UNL d   1      -1.259  -0.561   1.703  0.00  0.00     0.032 A 
ENDBRANCH   3   5
ENDBRANCH   1   3
BRANCH   1  12
ATOM     12  N   UNL d   1       2.608   0.082  -0.033  0.00  0.00    -0.361 N 
ATOM     13  H   UNL d   1       3.069  -0.586  -0.645  0.00  0.00     0.162 HD
BRANCH  12  14
ATOM     14  C   UNL d   1       3.411   0.518   1.094  0.00  0.00     0.187 C 
BRANCH  14  15
ATOM     15  C   UNL d   1       4.855   0.325   0.801  0.00  0.00     0.070 A 
ATOM     16  O   UNL d   1       5.192  -0.634  -0.115  0.00  0.00    -0.325 OA
ATOM     17  C   UNL d   1       6.547  -0.646  -0.200  0.00  0.00     0.142 A 
ATOM     18  C   UNL d   1       7.091   0.281   0.656  0.00  0.00     0.027 A 
ATOM     19  C   UNL d   1       5.999   0.911   1.302  0.00  0.00     0.036 A 
ENDBRANCH  14  15
ENDBRANCH  12  14
ENDBRANCH   1  12
TORSDOF 5
