REMARK  3 active torsions:
REMARK  status: ('A' for Active; 'I' for Inactive)
REMARK    1  A    between atoms: C_4  and  C_1 
REMARK    2  A    between atoms: C_7  and  C_1 
REMARK    3  A    between atoms: O_8  and  N_2 
ROOT
ATOM      1  C   UNL d   1       0.937   0.035   0.031  0.00  0.00     0.091 C 
ATOM      2  N   UNL d   1       0.188  -1.031  -0.103  0.00  0.00    -0.266 N 
ATOM      3  HN  UNL d   1      -0.832  -0.995  -0.097  1.00  0.00     0.194 HD
ENDROOT
BRANCH   1   4
ATOM      4  C   UNL d   1       0.216   1.355   0.085  0.00  0.00     0.061 A 
ATOM      5  N   UNL d   1       0.812   2.365   0.769  0.00  0.00    -0.364 N 
ATOM      6  C   UNL d   1       0.172   3.553   0.784  0.00  0.00     0.088 A 
ATOM      7  HN  UNL d   1       1.703   2.231   1.249  1.00  0.00     0.165 HD
ATOM      8  C   UNL d   1      -1.037   3.788   0.144  0.00  0.00     0.017 A 
ATOM      9  C   UNL d   1      -1.634   2.738  -0.542  0.00  0.00     0.004 A 
ATOM     10  C   UNL d   1      -1.003   1.497  -0.571  0.00  0.00     0.032 A 
ENDBRANCH   1   4
BRANCH   1  11
ATOM     11  C   UNL d   1       2.441   0.053   0.108  0.00  0.00    -0.005 A 
ATOM     12  C   UNL d   1       3.167   1.066  -0.540  0.00  0.00     0.014 A 
ATOM     13  C   UNL d   1       4.562   1.104  -0.463  0.00  0.00     0.001 A 
ATOM     14  C   UNL d   1       5.249   0.117   0.238  0.00  0.00     0.000 A 
ATOM     15  C   UNL d   1       4.542  -0.901   0.876  0.00  0.00     0.001 A 
ATOM     16  C   UNL d   1       3.144  -0.924   0.824  0.00  0.00     0.014 A 
ENDBRANCH   1  11
BRANCH   2  17
ATOM     17  O   UNL d   1       0.901  -2.219  -0.253  0.00  0.00    -0.289 OA
ATOM     18  H   UNL d   1       0.193  -2.888  -0.258  0.00  0.00     0.244 HD
ENDBRANCH   2  17
TORSDOF 3
