REMARK  5 active torsions:
REMARK  status: ('A' for Active; 'I' for Inactive)
REMARK    1  A    between atoms: C_11  and  C_2 
REMARK    2  A    between atoms: N_12  and  C_5 
REMARK    3  A    between atoms: C_14  and  C_8 
REMARK    4  A    between atoms: O_20  and  C_14 
REMARK    5  A    between atoms: C_25  and  O_20 
ROOT
ATOM      1  C   UNL d   1       0.225  -0.872  -0.115  0.00  0.00     0.061 A 
ATOM      2  C   UNL d   1       1.623  -1.155  -0.252  0.00  0.00     0.046 A 
ATOM      3  N   UNL d   1       2.397  -0.063  -0.190  0.00  0.00    -0.300 N 
ATOM      4  HN  UNL d   1       3.415  -0.006  -0.209  1.00  0.00     0.187 HD
ATOM      5  C   UNL d   1      -0.996  -1.607  -0.004  0.00  0.00     0.064 A 
ATOM      6  C   UNL d   1       0.198   0.519  -0.054  0.00  0.00     0.136 A 
ATOM      7  N   UNL d   1       1.501   0.942  -0.095  0.00  0.00    -0.280 N 
ATOM      8  C   UNL d   1      -2.136  -0.784   0.185  0.00  0.00     0.082 A 
ATOM      9  N   UNL d   1      -0.884   1.313   0.057  0.00  0.00    -0.349 N 
ATOM     10  HN  UNL d   1      -0.844   2.332   0.048  1.00  0.00     0.167 HD
ATOM     11  C   UNL d   1      -2.028   0.609   0.181  0.00  0.00     0.110 A 
ATOM     12  C   UNL d   1       1.965   2.302   0.007  0.00  0.00     0.179 C 
ENDROOT
BRANCH   5  13
ATOM     13  N   UNL d   1      -0.990  -3.004  -0.084  0.00  0.00    -0.375 N 
ATOM     14  C   UNL d   1      -2.118  -3.727  -0.710  0.00  0.00     0.149 C 
ATOM     15  C   UNL d   1      -1.711  -5.183  -0.989  0.00  0.00     0.187 C 
ATOM     16  O   UNL d   1      -1.287  -5.850   0.213  0.00  0.00    -0.388 OA
ATOM     17  C   UNL d   1      -0.178  -5.155   0.808  0.00  0.00     0.187 C 
ATOM     18  C   UNL d   1      -0.537  -3.693   1.152  0.00  0.00     0.149 C 
ENDBRANCH   5  13
BRANCH   8  19
ATOM     19  C   UNL d   1      -3.449  -1.317   0.573  0.00  0.00     0.297 C 
ATOM     20  O   UNL d   1      -3.612  -2.122   1.475  0.00  0.00    -0.259 OA
BRANCH  19  21
ATOM     21  O   UNL d   1      -4.415  -0.795  -0.224  0.00  0.00    -0.318 OA
BRANCH  21  22
ATOM     22  C   UNL d   1      -5.721  -1.379  -0.070  0.00  0.00     0.174 C 
ATOM     23  C   UNL d   1      -6.383  -1.024   1.252  0.00  0.00     0.034 C 
ENDBRANCH  21  22
ENDBRANCH  19  21
ENDBRANCH   8  19
BRANCH   2  24
ATOM     24  C   UNL d   1       2.187  -2.564  -0.364  0.00  0.00     0.038 A 
ATOM     25  C   UNL d   1       3.228  -2.950   0.670  0.00  0.00     0.011 A 
ATOM     26  C   UNL d   1       3.602  -2.876  -0.772  0.00  0.00     0.011 A 
ENDBRANCH   2  24
TORSDOF 5
