REMARK  2 active torsions:
REMARK  status: ('A' for Active; 'I' for Inactive)
REMARK       I    between atoms: N_2  and  C_1 
REMARK    1  A    between atoms: C_3  and  C_1 
REMARK    2  A    between atoms: C_4  and  N_2 
ROOT
ATOM      1  C   UNL d   1       1.194   0.025  -0.128  0.00  0.00     0.256 C 
ATOM      2  N   UNL d   1       0.484   0.865   0.706  0.00  0.00    -0.321 N 
ATOM      3  O   UNL d   1       2.413   0.030  -0.292  0.00  0.00    -0.267 OA
ATOM      4  H   UNL d   1      -0.391   0.513   1.081  0.00  0.00     0.169 HD
ENDROOT
BRANCH   1   5
ATOM      5  C   UNL d   1       0.410  -1.015  -0.827  0.00  0.00     0.034 A 
ATOM      6  C   UNL d   1       0.927  -2.315  -0.890  0.00  0.00     0.042 A 
ATOM      7  C   UNL d   1       0.276  -3.289  -1.649  0.00  0.00     0.056 A 
ATOM      8 CL   UNL d   1       0.965  -4.873  -1.686  0.00  0.00    -0.083 Cl
ATOM      9  C   UNL d   1      -0.887  -2.961  -2.355  0.00  0.00     0.055 A 
ATOM     10  C   UNL d   1      -1.406  -1.661  -2.281  0.00  0.00     0.026 A 
ATOM     11 CL   UNL d   1      -1.717  -4.099  -3.354  0.00  0.00    -0.083 Cl
ATOM     12  C   UNL d   1      -0.762  -0.686  -1.514  0.00  0.00     0.019 A 
ENDBRANCH   1   5
BRANCH   2  13
ATOM     13  C   UNL d   1       1.103   1.907   1.441  0.00  0.00     0.056 A 
ATOM     14  C   UNL d   1       0.696   2.174   2.756  0.00  0.00     0.060 A 
ATOM     15 CL   UNL d   1      -0.544   1.235   3.513  0.00  0.00    -0.082 Cl
ATOM     16  C   UNL d   1       1.335   3.165   3.507  0.00  0.00     0.026 A 
ATOM     17  C   UNL d   1       2.353   3.928   2.934  0.00  0.00     0.002 A 
ATOM     18  C   UNL d   1       2.732   3.700   1.613  0.00  0.00     0.002 A 
ATOM     19  C   UNL d   1       2.117   2.687   0.873  0.00  0.00     0.031 A 
ENDBRANCH   2  13
TORSDOF 2
