REMARK  6 active torsions:
REMARK  status: ('A' for Active; 'I' for Inactive)
REMARK    1  A    between atoms: C_8  and  C_1 
REMARK    2  A    between atoms: O_13  and  C_4 
REMARK    3  A    between atoms: C_9  and  C_6 
REMARK    4  A    between atoms: C_7  and  C_10 
REMARK    5  A    between atoms: O_17  and  C_8 
REMARK    6  A    between atoms: C_21  and  O_17 
ROOT
ATOM      1  C   UNL d   1      -0.146   1.123  -0.054  0.00  0.00     0.133 A 
ATOM      2  N   UNL d   1      -0.599  -1.171  -0.146  0.00  0.00    -0.329 N 
ATOM      3  HN  UNL d   1      -1.172  -2.011  -0.219  1.00  0.00     0.168 HD
ATOM      4  C   UNL d   1      -1.080   0.111  -0.115  0.00  0.00     0.164 A 
ATOM      5  S   UNL d   1       1.420   0.414  -0.080  0.00  0.00    -0.061 SA
ATOM      6  C   UNL d   1       0.718  -1.156  -0.067  0.00  0.00     0.087 A 
ENDROOT
BRANCH   6   7
ATOM      7  C   UNL d   1       1.542  -2.374   0.023  0.00  0.00    -0.001 A 
ATOM      8  C   UNL d   1       2.778  -2.406   0.691  0.00  0.00     0.030 A 
ATOM      9  C   UNL d   1       3.506  -3.603   0.820  0.00  0.00     0.048 A 
ATOM     10  C   UNL d   1       2.989  -4.778   0.257  0.00  0.00     0.016 A 
ATOM     11  C   UNL d   1       1.766  -4.762  -0.411  0.00  0.00     0.002 A 
ATOM     12  C   UNL d   1       1.048  -3.570  -0.520  0.00  0.00     0.014 A 
BRANCH   9  13
ATOM     13  C   UNL d   1       4.815  -3.641   1.571  0.00  0.00     0.417 C 
ATOM     14  F   UNL d   1       5.196  -2.430   2.064  0.00  0.00    -0.166 F 
ATOM     15  F   UNL d   1       4.773  -4.482   2.642  0.00  0.00    -0.166 F 
ATOM     16  F   UNL d   1       5.849  -4.072   0.797  0.00  0.00    -0.166 F 
ENDBRANCH   9  13
ENDBRANCH   6   7
BRANCH   1  17
ATOM     17  C   UNL d   1      -0.276   2.551   0.083  0.00  0.00     0.304 C 
ATOM     18  O   UNL d   1       0.650   3.347   0.211  0.00  0.00    -0.259 OA
BRANCH  17  19
ATOM     19  O   UNL d   1      -1.590   2.903   0.151  0.00  0.00    -0.317 OA
BRANCH  19  20
ATOM     20  C   UNL d   1      -1.872   4.179   0.737  0.00  0.00     0.174 C 
ATOM     21  C   UNL d   1      -1.971   3.994   2.241  0.00  0.00     0.034 C 
ENDBRANCH  19  20
ENDBRANCH  17  19
ENDBRANCH   1  17
BRANCH   4  22
ATOM     22  O   UNL d   1      -2.402   0.319  -0.101  0.00  0.00    -0.345 OA
ATOM     23  H   UNL d   1      -2.816  -0.562  -0.102  0.00  0.00     0.219 HD
ENDBRANCH   4  22
TORSDOF 6
