REMARK  4 active torsions:
REMARK  status: ('A' for Active; 'I' for Inactive)
REMARK    1  A    between atoms: C_2  and  S_1 
REMARK    2  A    between atoms: C_10  and  S_1 
REMARK    3  A    between atoms: N_14  and  C_5 
REMARK    4  A    between atoms: C_13  and  C_6 
ROOT
ATOM      1  C   UNL d   1       0.724   0.977   1.474  0.00  0.00     0.113 A 
ATOM      2  N   UNL d   1      -0.043   1.190   3.716  0.00  0.00    -0.331 N 
ATOM      3  HN  UNL d   1      -0.370   0.772   4.587  1.00  0.00     0.168 HD
ATOM      4  C   UNL d   1       0.246   0.428   2.644  0.00  0.00     0.102 A 
ATOM      5  C   UNL d   1       0.115   2.525   3.598  0.00  0.00     0.116 A 
ATOM      6  N   UNL d   1       0.515   3.141   2.469  0.00  0.00    -0.350 N 
ATOM      7  HN  UNL d   1       0.602   4.156   2.414  1.00  0.00     0.166 HD
ATOM      8  C   UNL d   1       0.793   2.347   1.418  0.00  0.00     0.116 A 
ENDROOT
BRANCH   1   9
ATOM      9  S   UNL d   1       1.150   0.036   0.064  0.00  0.00     0.187 S 
ATOM     10  O   UNL d   1       1.017   0.928  -1.075  0.00  0.00    -0.222 OA
ATOM     11  O   UNL d   1       0.362  -1.185   0.099  0.00  0.00    -0.222 OA
BRANCH   9  12
ATOM     12  C   UNL d   1       2.919  -0.381   0.243  0.00  0.00     0.058 C 
ATOM     13  C   UNL d   1       3.173  -1.189   1.520  0.00  0.00     0.031 C 
ATOM     14  C   UNL d   1       3.330  -1.231  -0.974  0.00  0.00     0.031 C 
ATOM     15  C   UNL d   1       3.775   0.895   0.260  0.00  0.00     0.031 C 
ENDBRANCH   9  12
ENDBRANCH   1   9
BRANCH   4  16
ATOM     16  N   UNL d   1       0.136  -0.939   2.862  0.00  0.00    -0.287 NA
ATOM     17  H   UNL d   1      -0.329  -1.103   3.752  0.00  0.00     0.125 HD
ATOM     18  H   UNL d   1      -0.314  -1.429   2.084  0.00  0.00     0.125 HD
ENDBRANCH   4  16
BRANCH   5  19
ATOM     19  C   UNL d   1      -0.112   3.367   4.790  0.00  0.00     0.008 A 
ATOM     20  C   UNL d   1       0.195   4.743   4.778  0.00  0.00     0.017 A 
ATOM     21  C   UNL d   1       0.005   5.553   5.905  0.00  0.00     0.025 A 
ATOM     22  C   UNL d   1      -0.499   4.994   7.072  0.00  0.00     0.034 A 
ATOM     23  C   UNL d   1      -0.818   3.641   7.120  0.00  0.00     0.025 A 
ATOM     24 CL   UNL d   1      -0.735   5.981   8.462  0.00  0.00    -0.084 Cl
ATOM     25  C   UNL d   1      -0.624   2.835   5.990  0.00  0.00     0.017 A 
ENDBRANCH   5  19
TORSDOF 4
