REMARK  4 active torsions:
REMARK  status: ('A' for Active; 'I' for Inactive)
REMARK    1  A    between atoms: C_2  and  S_1 
REMARK    2  A    between atoms: N_10  and  S_1 
REMARK    3  A    between atoms: S_9  and  C_4 
REMARK    4  A    between atoms: C_11  and  S_9 
ROOT
ATOM      1  C   UNL d   1       0.497   0.484  -1.690  0.00  0.00     0.116 A 
ATOM      2  S   UNL d   1       0.575   2.097  -2.258  0.00  0.00    -0.070 SA
ATOM      3  C   UNL d   1      -0.006   1.654  -3.804  0.00  0.00     0.047 A 
ATOM      4  C   UNL d   1       0.017  -0.373  -2.660  0.00  0.00     0.034 A 
ATOM      5  C   UNL d   1      -0.273   0.304  -3.882  0.00  0.00     0.028 A 
ENDROOT
BRANCH   3   6
ATOM      6  S   UNL d   1      -0.293   2.836  -5.072  0.00  0.00    -0.083 SA
BRANCH   6   7
ATOM      7  C   UNL d   1       1.319   2.812  -5.838  0.00  0.00     0.006 A 
ATOM      8  C   UNL d   1       1.578   1.951  -6.910  0.00  0.00     0.019 A 
ATOM      9  C   UNL d   1       2.821   1.975  -7.549  0.00  0.00     0.001 A 
ATOM     10  C   UNL d   1       3.808   2.863  -7.124  0.00  0.00     0.000 A 
ATOM     11  C   UNL d   1       3.554   3.728  -6.061  0.00  0.00     0.001 A 
ATOM     12  C   UNL d   1       2.312   3.705  -5.421  0.00  0.00     0.019 A 
ENDBRANCH   6   7
ENDBRANCH   3   6
BRANCH   1  13
ATOM     13  S   UNL d   1       1.012   0.223  -0.017  0.00  0.00     0.245 S 
ATOM     14  O   UNL d   1       2.350   0.758   0.087  0.00  0.00    -0.206 OA
ATOM     15  O   UNL d   1       0.707  -1.156   0.285  0.00  0.00    -0.206 OA
BRANCH  13  16
ATOM     16  N   UNL d   1       0.047   1.171   0.981  0.00  0.00    -0.225 NA
ATOM     17  H   UNL d   1       0.280   2.158   0.860  0.00  0.00     0.136 HD
ATOM     18  H   UNL d   1       0.176   0.872   1.948  0.00  0.00     0.136 HD
ENDBRANCH  13  16
ENDBRANCH   1  13
TORSDOF 4
