REMARK  7 active torsions:
REMARK  status: ('A' for Active; 'I' for Inactive)
REMARK    1  A    between atoms: N_5  and  C_1 
REMARK    2  A    between atoms: C_3  and  C_2 
REMARK       I    between atoms: N_7  and  C_3 
REMARK    3  A    between atoms: O_19  and  C_4 
REMARK    4  A    between atoms: C_6  and  N_11 
REMARK       I    between atoms: C_9  and  N_7 
REMARK       I    between atoms: N_11  and  C_9 
REMARK    5  A    between atoms: O_23  and  C_10 
REMARK    6  A    between atoms: C_21  and  C_13 
REMARK    7  A    between atoms: C_22  and  C_14 
ROOT
ATOM      1  C   UNL d   1       6.973  -1.297  -3.772  0.00  0.00     0.244 C 
ATOM      2  N   UNL d   1       6.682  -1.580  -2.421  0.00  0.00    -0.180 NA
ATOM      3  C   UNL d   1       5.401  -1.550  -1.838  0.00  0.00     0.284 C 
ATOM      4  N   UNL d   1       5.219  -0.459  -0.972  0.00  0.00    -0.214 NA
ATOM      5  O   UNL d   1       7.448  -0.184  -4.005  0.00  0.00    -0.273 OA
ATOM      6  O   UNL d   1       4.583  -2.454  -1.935  0.00  0.00    -0.260 OA
ATOM      7  H   UNL d   1       7.218  -0.886  -1.916  0.00  0.00     0.141 HD
ATOM      8  H   UNL d   1       5.758   0.340  -1.265  0.00  0.00     0.138 HD
ENDROOT
BRANCH   1   9
ATOM      9  C   UNL d   1       6.998  -2.387  -4.843  0.00  0.00     0.097 C 
ATOM     10  C   UNL d   1       8.002  -2.374  -5.848  0.00  0.00     0.119 C 
ATOM     11  C   UNL d   1       8.174  -3.508  -6.655  0.00  0.00     0.138 C 
ATOM     12  C   UNL d   1       7.351  -4.625  -6.534  0.00  0.00     0.061 C 
ATOM     13  C   UNL d   1       6.271  -4.582  -5.655  0.00  0.00     0.048 C 
ATOM     14  C   UNL d   1       6.033  -3.426  -4.881  0.00  0.00     0.103 C 
ATOM     15 BR   UNL d   1       5.280  -6.207  -5.609  0.00  0.00    -0.048 Br
BRANCH  10  16
ATOM     16  O   UNL d   1       8.797  -1.268  -6.022  0.00  0.00    -0.352 OA
ATOM     17  C   UNL d   1       8.608  -0.631  -7.299  0.00  0.00     0.210 C 
ENDBRANCH  10  16
BRANCH  11  18
ATOM     18  N   UNL d   1       9.231  -3.589  -7.646  0.00  0.00    -0.113 N 
ATOM     19  O   UNL d   1      10.395  -3.463  -7.242  0.00  0.00    -0.532 OA
ATOM     20  O   UNL d   1       8.887  -3.822  -8.808  0.00  0.00    -0.532 OA
ENDBRANCH  11  18
BRANCH  14  21
ATOM     21  O   UNL d   1       4.862  -3.061  -4.296  0.00  0.00    -0.353 OA
ATOM     22  C   UNL d   1       3.746  -3.920  -4.164  0.00  0.00     0.210 C 
ENDBRANCH  14  21
ENDBRANCH   1   9
BRANCH   4  23
ATOM     23  C   UNL d   1       3.894  -0.113  -0.531  0.00  0.00     0.029 C 
ATOM     24  C   UNL d   1       3.097  -0.940   0.312  0.00  0.00    -0.033 C 
ATOM     25  C   UNL d   1       1.720  -0.602   0.455  0.00  0.00     0.009 C 
ATOM     26  C   UNL d   1       1.167   0.552  -0.074  0.00  0.00     0.001 C 
ATOM     27  C   UNL d   1       1.981   1.415  -0.780  0.00  0.00     0.009 C 
ATOM     28  C   UNL d   1       3.341   1.115  -1.026  0.00  0.00    -0.033 C 
BRANCH  24  29
ATOM     29  C   UNL d   1       3.492  -2.177   1.139  0.00  0.00     0.012 C 
ATOM     30  C   UNL d   1       4.938  -2.673   1.168  0.00  0.00     0.015 C 
ATOM     31  C   UNL d   1       3.071  -2.038   2.634  0.00  0.00     0.015 C 
ENDBRANCH  24  29
BRANCH  28  32
ATOM     32  C   UNL d   1       4.067   2.169  -1.865  0.00  0.00     0.012 C 
ATOM     33  C   UNL d   1       5.152   2.905  -1.078  0.00  0.00     0.015 C 
ATOM     34  C   UNL d   1       4.553   1.661  -3.221  0.00  0.00     0.015 C 
ENDBRANCH  28  32
ENDBRANCH   4  23
TORSDOF 7
