REMARK  2 active torsions:
REMARK  status: ('A' for Active; 'I' for Inactive)
REMARK       I    between atoms: N_2  and  C_1 
REMARK    1  A    between atoms: C_3  and  C_1 
REMARK    2  A    between atoms: C_4  and  N_2 
ROOT
ATOM      1  C   UNL d   1       1.161   0.204   0.024  0.00  0.00     0.256 C 
ATOM      2  N   UNL d   1       0.578  -0.879   0.663  0.00  0.00    -0.323 N 
ATOM      3  O   UNL d   1       2.337   0.539   0.087  0.00  0.00    -0.267 OA
ATOM      4  H   UNL d   1      -0.357  -1.142   0.381  0.00  0.00     0.169 HD
ENDROOT
BRANCH   1   5
ATOM      5  C   UNL d   1       0.280   0.989  -0.877  0.00  0.00     0.034 A 
ATOM      6  C   UNL d   1       0.854   1.518  -2.043  0.00  0.00     0.041 A 
ATOM      7  C   UNL d   1       0.095   2.327  -2.881  0.00  0.00     0.035 A 
ATOM      8 CL   UNL d   1       0.803   2.984  -4.305  0.00  0.00    -0.084 Cl
ATOM      9  C   UNL d   1      -1.231   2.619  -2.569  0.00  0.00     0.024 A 
ATOM     10  C   UNL d   1      -1.805   2.093  -1.408  0.00  0.00     0.003 A 
ATOM     11  C   UNL d   1      -1.052   1.276  -0.559  0.00  0.00     0.017 A 
ENDBRANCH   1   5
BRANCH   2  12
ATOM     12  C   UNL d   1       1.254  -1.780   1.523  0.00  0.00     0.037 A 
ATOM     13  C   UNL d   1       2.520  -1.529   2.054  0.00  0.00     0.071 A 
ATOM     14  C   UNL d   1       3.151  -2.488   2.840  0.00  0.00     0.118 A 
ATOM     15  F   UNL d   1       4.373  -2.239   3.330  0.00  0.00    -0.206 F 
ATOM     16  C   UNL d   1       2.541  -3.702   3.120  0.00  0.00     0.042 A 
ATOM     17  C   UNL d   1       1.263  -3.951   2.626  0.00  0.00     0.005 A 
ATOM     18  C   UNL d   1       0.617  -2.989   1.839  0.00  0.00     0.029 A 
ENDBRANCH   2  12
TORSDOF 2
