REMARK  3 active torsions:
REMARK  status: ('A' for Active; 'I' for Inactive)
REMARK    1  A    between atoms: C_6  and  C_1 
REMARK    2  A    between atoms: C_4  and  C_16 
REMARK       I    between atoms: N_17  and  C_6 
REMARK    3  A    between atoms: N_14  and  N_17 
ROOT
ATOM      1  N   UNL d   1      -3.944   0.541  -0.088  0.00  0.00    -0.307 N 
ATOM      2  HN  UNL d   1      -3.107   1.117  -0.176  1.00  0.00     0.186 HD
ATOM      3  C   UNL d   1      -5.119   1.074  -0.067  0.00  0.00     0.139 C 
ENDROOT
BRANCH   1   4
ATOM      4  N   UNL d   1      -3.856  -0.817   0.010  0.00  0.00    -0.265 N 
ATOM      5  C   UNL d   1      -2.597  -1.406  -0.002  0.00  0.00     0.288 C 
ATOM      6  O   UNL d   1      -1.541  -0.788  -0.106  0.00  0.00    -0.264 OA
ATOM      7  H   UNL d   1      -4.681  -1.402   0.105  0.00  0.00     0.190 HD
BRANCH   5   8
ATOM      8  C   UNL d   1      -2.606  -2.862   0.122  0.00  0.00     0.126 A 
ATOM      9  N   UNL d   1      -3.734  -3.584   0.248  0.00  0.00    -0.256 N 
ATOM     10  O   UNL d   1      -3.324  -4.909   0.334  0.00  0.00    -0.242 OA
ATOM     11  HN  UNL d   1      -4.691  -3.232   0.274  1.00  0.00     0.195 HD
ATOM     12  C   UNL d   1      -1.967  -4.972   0.259  0.00  0.00     0.075 A 
ATOM     13  C   UNL d   1      -1.465  -3.705   0.128  0.00  0.00     0.071 A 
ATOM     14  C   UNL d   1      -1.351  -6.308   0.327  0.00  0.00     0.079 C 
ENDBRANCH   5   8
ENDBRANCH   1   4
BRANCH   3  15
ATOM     15  C   UNL d   1      -5.251   2.520  -0.154  0.00  0.00     0.083 A 
ATOM     16  C   UNL d   1      -4.268   3.530  -0.309  0.00  0.00     0.057 A 
ATOM     17  C   UNL d   1      -4.939   4.724  -0.314  0.00  0.00     0.128 A 
ATOM     18 BR   UNL d   1      -2.413   3.334  -0.478  0.00  0.00    -0.047 Br
ATOM     19  N   UNL d   1      -6.252   4.399  -0.172  0.00  0.00    -0.310 N 
ATOM     20  N   UNL d   1      -6.478   3.076  -0.078  0.00  0.00    -0.298 N 
ATOM     21  H   UNL d   1      -7.048   5.028  -0.132  0.00  0.00     0.186 HD
ATOM     22  HN  UNL d   1      -7.374   2.601   0.026  1.00  0.00     0.187 HD
ENDBRANCH   3  15
TORSDOF 3
