REMARK  5 active torsions:
REMARK  status: ('A' for Active; 'I' for Inactive)
REMARK    1  A    between atoms: C_8  and  C_1 
REMARK    2  A    between atoms: C_9  and  C_3 
REMARK    3  A    between atoms: S_11  and  C_6 
REMARK    4  A    between atoms: O_12  and  C_8 
REMARK    5  A    between atoms: C_17  and  O_12 
ROOT
ATOM      1  C   UNL d   1       0.871   1.167  -0.098  0.00  0.00     0.066 C 
ATOM      2  C   UNL d   1      -0.466   1.350  -0.169  0.00  0.00     0.022 C 
ATOM      3  C   UNL d   1       1.429  -0.229   0.162  0.00  0.00     0.158 C 
ATOM      4  N   UNL d   1       0.492  -1.350  -0.114  0.00  0.00    -0.358 N 
ATOM      5  HN  UNL d   1       0.819  -2.307  -0.247  1.00  0.00     0.162 HD
ATOM      6  C   UNL d   1      -0.751  -1.041  -0.175  0.00  0.00     0.140 C 
ATOM      7  N   UNL d   1      -1.263   0.221  -0.099  0.00  0.00    -0.340 N 
ATOM      8  C   UNL d   1      -1.203   2.652  -0.340  0.00  0.00     0.069 C 
ATOM      9  H   UNL d   1      -2.261   0.327  -0.226  0.00  0.00     0.167 HD
ENDROOT
BRANCH   3  10
ATOM     10  C   UNL d   1       1.927  -0.370   1.599  0.00  0.00    -0.031 A 
ATOM     11  C   UNL d   1       1.052  -0.170   2.684  0.00  0.00     0.009 A 
ATOM     12  C   UNL d   1       1.484  -0.346   3.995  0.00  0.00     0.001 A 
ATOM     13  C   UNL d   1       2.797  -0.731   4.243  0.00  0.00     0.000 A 
ATOM     14  C   UNL d   1       3.678  -0.936   3.181  0.00  0.00     0.001 A 
ATOM     15  C   UNL d   1       3.247  -0.757   1.864  0.00  0.00     0.009 A 
ENDBRANCH   3  10
BRANCH   1  16
ATOM     16  C   UNL d   1       1.853   2.267  -0.269  0.00  0.00     0.293 C 
ATOM     17  O   UNL d   1       1.651   3.444  -0.012  0.00  0.00    -0.259 OA
BRANCH  16  18
ATOM     18  O   UNL d   1       2.963   1.777  -0.880  0.00  0.00    -0.318 OA
BRANCH  18  19
ATOM     19  C   UNL d   1       3.804   2.732  -1.539  0.00  0.00     0.174 C 
ATOM     20  C   UNL d   1       3.389   2.769  -2.999  0.00  0.00     0.034 C 
ENDBRANCH  18  19
ENDBRANCH  16  18
ENDBRANCH   1  16
BRANCH   6  21
ATOM     21  S   UNL d   1      -1.952  -2.298  -0.380  0.00  0.00    -0.099 SA
ATOM     22  C   UNL d   1      -0.892  -3.764  -0.386  0.00  0.00     0.099 C 
ENDBRANCH   6  21
TORSDOF 5
