REMARK  4 active torsions:
REMARK  status: ('A' for Active; 'I' for Inactive)
REMARK    1  A    between atoms: C_2  and  C_1 
REMARK       I    between atoms: N_3  and  C_1 
REMARK    2  A    between atoms: C_10  and  N_3 
REMARK    3  A    between atoms: O_11  and  C_5 
REMARK    4  A    between atoms: O_12  and  C_6 
ROOT
ATOM      1  C   UNL d   1       0.260   1.001  -0.712  0.00  0.00     0.034 A 
ATOM      2  C   UNL d   1       0.925   2.192  -1.048  0.00  0.00     0.056 A 
ATOM      3  C   UNL d   1       0.366   3.104  -1.962  0.00  0.00     0.102 A 
ATOM      4  C   UNL d   1      -0.873   2.797  -2.553  0.00  0.00     0.101 A 
ATOM      5  C   UNL d   1      -0.977   0.714  -1.290  0.00  0.00     0.020 A 
ATOM      6  C   UNL d   1      -1.529   1.606  -2.214  0.00  0.00     0.040 A 
ENDROOT
BRANCH   1   7
ATOM      7  C   UNL d   1       0.946   0.009   0.169  0.00  0.00     0.252 C 
ATOM      8  N   UNL d   1       0.121  -0.785   0.945  0.00  0.00    -0.352 N 
ATOM      9  H   UNL d   1      -0.833  -0.484   1.084  0.00  0.00     0.163 HD
ATOM     10  O   UNL d   1       2.167  -0.072   0.166  0.00  0.00    -0.268 OA
BRANCH   8  11
ATOM     11  C   UNL d   1       0.632  -1.866   1.788  0.00  0.00     0.084 C 
ATOM     12  C   UNL d   1      -0.422  -2.973   1.935  0.00  0.00     0.025 C 
ATOM     13  C   UNL d   1      -1.587  -2.574   2.841  0.00  0.00     0.002 C 
ATOM     14  C   UNL d   1      -1.103  -2.071   4.198  0.00  0.00     0.000 C 
ATOM     15  C   UNL d   1      -0.086  -0.944   4.050  0.00  0.00     0.002 C 
ATOM     16  C   UNL d   1       1.087  -1.361   3.165  0.00  0.00     0.025 C 
ENDBRANCH   8  11
ENDBRANCH   1   7
BRANCH   3  17
ATOM     17  O   UNL d   1       0.982   4.266  -2.342  0.00  0.00    -0.353 OA
ATOM     18  C   UNL d   1       2.242   4.585  -1.766  0.00  0.00     0.210 C 
ENDBRANCH   3  17
BRANCH   4  19
ATOM     19  O   UNL d   1      -1.536   3.501  -3.526  0.00  0.00    -0.353 OA
ATOM     20  C   UNL d   1      -1.376   4.912  -3.548  0.00  0.00     0.210 C 
ENDBRANCH   4  19
TORSDOF 4
