REMARK  4 active torsions:
REMARK  status: ('A' for Active; 'I' for Inactive)
REMARK    1  A    between atoms: C_8  and  C_1 
REMARK    2  A    between atoms: N_7  and  C_2 
REMARK    3  A    between atoms: C_10  and  C_3 
REMARK       I    between atoms: C_9  and  N_7 
REMARK       I    between atoms: N_11  and  C_9 
REMARK    4  A    between atoms: C_20  and  N_11 
ROOT
ATOM      1  C   UNL d   1       1.734   0.581   0.386  0.00  0.00     0.147 C 
ATOM      2  C   UNL d   1       0.376  -1.179   0.510  0.00  0.00     0.139 C 
ATOM      3  C   UNL d   1       1.692  -0.845   0.213  0.00  0.00     0.053 C 
ATOM      4  N   UNL d   1       0.592   1.027   0.948  0.00  0.00    -0.292 N 
ATOM      5  HN  UNL d   1       0.374   1.981   1.234  1.00  0.00     0.187 HD
ATOM      6  N   UNL d   1      -0.196  -0.054   1.050  0.00  0.00    -0.280 N 
ATOM      7  C   UNL d   1      -1.547   0.140   1.522  0.00  0.00     0.179 C 
ENDROOT
BRANCH   2   8
ATOM      8  N   UNL d   1      -0.232  -2.347   0.102  0.00  0.00    -0.292 N 
ATOM      9  C   UNL d   1      -1.156  -3.209   0.728  0.00  0.00     0.326 C 
ATOM     10  N   UNL d   1      -1.276  -3.091   2.074  0.00  0.00    -0.309 N 
ATOM     11  O   UNL d   1      -1.701  -3.975  -0.048  0.00  0.00    -0.247 OA
ATOM     12  H   UNL d   1      -0.721  -2.403   2.557  0.00  0.00     0.170 HD
ATOM     13  H   UNL d   1      -0.100  -2.606  -0.867  0.00  0.00     0.172 HD
BRANCH  10  14
ATOM     14  C   UNL d   1      -2.191  -3.833   2.856  0.00  0.00     0.036 A 
ATOM     15  C   UNL d   1      -2.814  -5.002   2.403  0.00  0.00     0.029 A 
ATOM     16  C   UNL d   1      -3.782  -5.640   3.182  0.00  0.00     0.002 A 
ATOM     17  C   UNL d   1      -4.134  -5.114   4.420  0.00  0.00     0.000 A 
ATOM     18  C   UNL d   1      -3.490  -3.974   4.897  0.00  0.00     0.002 A 
ATOM     19  C   UNL d   1      -2.507  -3.346   4.127  0.00  0.00     0.029 A 
ENDBRANCH  10  14
ENDBRANCH   2   8
BRANCH   3  20
ATOM     20  C   UNL d   1       2.772  -1.799  -0.083  0.00  0.00    -0.020 A 
ATOM     21  C   UNL d   1       2.584  -2.972  -0.833  0.00  0.00     0.015 A 
ATOM     22  C   UNL d   1       3.603  -3.926  -0.954  0.00  0.00     0.043 A 
ATOM     23  C   UNL d   1       4.836  -3.694  -0.366  0.00  0.00     0.116 A 
ATOM     24  C   UNL d   1       5.067  -2.527   0.346  0.00  0.00     0.043 A 
ATOM     25  F   UNL d   1       5.806  -4.609  -0.480  0.00  0.00    -0.206 F 
ATOM     26  C   UNL d   1       4.037  -1.593   0.499  0.00  0.00     0.015 A 
ENDBRANCH   3  20
BRANCH   1  27
ATOM     27  C   UNL d   1       2.837   1.546   0.003  0.00  0.00     0.434 C 
ATOM     28  F   UNL d   1       3.777   0.973  -0.793  0.00  0.00    -0.165 F 
ATOM     29  F   UNL d   1       2.360   2.614  -0.687  0.00  0.00    -0.165 F 
ATOM     30  F   UNL d   1       3.490   2.026   1.092  0.00  0.00    -0.165 F 
ENDBRANCH   1  27
TORSDOF 4
