REMARK  5 active torsions:
REMARK  status: ('A' for Active; 'I' for Inactive)
REMARK       I    between atoms: C_6  and  N_1 
REMARK    1  A    between atoms: S_11  and  C_4 
REMARK    2  A    between atoms: C_8  and  C_6 
REMARK    3  A    between atoms: C_9  and  C_7 
REMARK    4  A    between atoms: O_12  and  C_17 
REMARK    5  A    between atoms: C_23  and  O_12 
ROOT
ATOM      1  N   UNL d   1       0.872  -0.745  -0.068  0.00  0.00    -0.213 N 
ATOM      2  N   UNL d   1       0.904   0.621  -0.045  0.00  0.00    -0.290 N 
ATOM      3  HN  UNL d   1       1.732   1.217  -0.039  1.00  0.00     0.188 HD
ATOM      4  C   UNL d   1      -0.433  -1.205  -0.083  0.00  0.00     0.098 A 
ATOM      5  C   UNL d   1      -1.247  -0.098  -0.053  0.00  0.00     0.070 A 
ATOM      6  C   UNL d   1       2.103  -1.439  -0.086  0.00  0.00     0.277 C 
ATOM      7  C   UNL d   1      -0.377   1.017  -0.034  0.00  0.00     0.061 A 
ATOM      8  O   UNL d   1       2.135  -2.575  -0.562  0.00  0.00    -0.265 OA
ENDROOT
BRANCH   7   9
ATOM      9  C   UNL d   1      -0.726   2.437   0.019  0.00  0.00    -0.008 A 
ATOM     10  C   UNL d   1       0.097   3.388  -0.602  0.00  0.00     0.016 A 
ATOM     11  C   UNL d   1      -0.223   4.748  -0.555  0.00  0.00     0.038 A 
ATOM     12  C   UNL d   1      -1.337   5.178   0.168  0.00  0.00     0.076 A 
ATOM     13  C   UNL d   1      -2.179   4.239   0.764  0.00  0.00     0.038 A 
ATOM     14  C   UNL d   1      -1.876   2.874   0.690  0.00  0.00     0.016 A 
BRANCH  12  15
ATOM     15  O   UNL d   1      -1.704   6.499   0.297  0.00  0.00    -0.311 OA
BRANCH  15  16
ATOM     16  C   UNL d   1      -0.728   7.459   0.456  0.00  0.00     0.076 A 
ATOM     17  C   UNL d   1      -1.022   8.728  -0.049  0.00  0.00     0.037 A 
ATOM     18  C   UNL d   1      -0.084   9.757   0.054  0.00  0.00     0.003 A 
ATOM     19  C   UNL d   1       1.148   9.521   0.662  0.00  0.00     0.000 A 
ATOM     20  C   UNL d   1       1.429   8.266   1.202  0.00  0.00     0.003 A 
ATOM     21  C   UNL d   1       0.482   7.245   1.123  0.00  0.00     0.037 A 
ENDBRANCH  15  16
ENDBRANCH  12  15
ENDBRANCH   7   9
BRANCH   4  22
ATOM     22  S   UNL d   1      -0.888  -2.877   0.041  0.00  0.00    -0.115 SA
ATOM     23  C   UNL d   1      -0.983  -3.329  -1.706  0.00  0.00     0.097 C 
ENDBRANCH   4  22
BRANCH   6  24
ATOM     24  C   UNL d   1       3.372  -0.859   0.440  0.00  0.00     0.034 A 
ATOM     25  C   UNL d   1       3.357  -0.013   1.560  0.00  0.00     0.019 A 
ATOM     26  C   UNL d   1       4.552   0.492   2.077  0.00  0.00     0.025 A 
ATOM     27  C   UNL d   1       5.763   0.146   1.484  0.00  0.00     0.034 A 
ATOM     28  C   UNL d   1       5.791  -0.710   0.381  0.00  0.00     0.025 A 
ATOM     29 CL   UNL d   1       7.232   0.768   2.125  0.00  0.00    -0.084 Cl
ATOM     30  C   UNL d   1       4.595  -1.220  -0.138  0.00  0.00     0.019 A 
ENDBRANCH   6  24
TORSDOF 5
