REMARK  1 active torsions:
REMARK  status: ('A' for Active; 'I' for Inactive)
REMARK    1  A    between atoms: N_3  and  C_1 
ROOT
ATOM      1  C   UNL d   1      -2.481  -0.061   0.048  0.00  0.00     0.012 A 
ATOM      2  C   UNL d   1      -1.661  -1.131   0.062  0.00  0.00     0.037 A 
ATOM      3  C   UNL d   1      -1.663   1.234  -0.023  0.00  0.00     0.096 A 
ATOM      4  C   UNL d   1      -0.282  -0.679   0.024  0.00  0.00    -0.028 A 
ATOM      5  C   UNL d   1      -0.259   0.716  -0.015  0.00  0.00    -0.042 A 
ATOM      6  C   UNL d   1       0.892  -1.411   0.032  0.00  0.00     0.012 A 
ATOM      7  C   UNL d   1       0.933   1.420  -0.038  0.00  0.00     0.008 A 
ATOM      8  C   UNL d   1       2.124   0.690  -0.025  0.00  0.00     0.001 A 
ATOM      9  C   UNL d   1       2.104  -0.715   0.007  0.00  0.00     0.001 A 
ENDROOT
BRANCH   1  10
ATOM     10  N   UNL d   1      -3.870  -0.040   0.097  0.00  0.00    -0.380 N 
ATOM     11  C   UNL d   1      -4.686   1.188   0.007  0.00  0.00     0.149 C 
ATOM     12  C   UNL d   1      -5.496   1.376   1.300  0.00  0.00     0.187 C 
ATOM     13  O   UNL d   1      -6.320   0.231   1.577  0.00  0.00    -0.388 OA
ATOM     14  C   UNL d   1      -5.505  -0.948   1.702  0.00  0.00     0.187 C 
ATOM     15  C   UNL d   1      -4.702  -1.218   0.420  0.00  0.00     0.149 C 
ENDBRANCH   1  10
TORSDOF 1
