REMARK  3 active torsions:
REMARK  status: ('A' for Active; 'I' for Inactive)
REMARK    1  A    between atoms: C_9  and  C_1 
REMARK    2  A    between atoms: C_8  and  C_3 
REMARK    3  A    between atoms: O_23  and  C_9 
ROOT
ATOM      1  C   UNL d   1       2.842  -0.825   0.090  0.00  0.00     0.052 C 
ATOM      2  C   UNL d   1       0.294  -0.730   0.070  0.00  0.00     0.023 C 
ATOM      3  C   UNL d   1       1.523  -1.562   0.421  0.00  0.00     0.098 C 
ATOM      4  C   UNL d   1       0.383   0.610  -0.026  0.00  0.00     0.021 C 
ATOM      5  C   UNL d   1       2.830   0.531  -0.038  0.00  0.00     0.018 C 
ATOM      6  N   UNL d   1       1.621   1.216   0.074  0.00  0.00    -0.362 N 
ATOM      7  C   UNL d   1      -1.001  -1.405  -0.202  0.00  0.00     0.159 C 
ATOM      8  C   UNL d   1      -0.801   1.515  -0.243  0.00  0.00     0.067 C 
ATOM      9  C   UNL d   1      -2.164   0.843   0.023  0.00  0.00    -0.036 C 
ATOM     10  C   UNL d   1      -2.180  -0.548  -0.633  0.00  0.00     0.092 C 
ATOM     11  O   UNL d   1      -1.091  -2.631  -0.171  0.00  0.00    -0.293 OA
ATOM     12  C   UNL d   1       3.987   1.455  -0.329  0.00  0.00     0.069 C 
ATOM     13  C   UNL d   1      -3.272   1.719  -0.589  0.00  0.00     0.015 C 
ATOM     14  C   UNL d   1      -2.434   0.720   1.537  0.00  0.00     0.015 C 
ATOM     15  H   UNL d   1       1.652   2.227  -0.059  0.00  0.00     0.165 HD
ENDROOT
BRANCH   3  16
ATOM     16  C   UNL d   1       1.486  -1.931   1.917  0.00  0.00    -0.042 A 
ATOM     17  C   UNL d   1       1.463  -0.923   2.905  0.00  0.00     0.048 A 
ATOM     18  C   UNL d   1       1.406  -1.294   4.229  0.00  0.00     0.105 A 
ATOM     19  O   UNL d   1       1.355  -0.443   5.289  0.00  0.00    -0.323 OA
ATOM     20  C   UNL d   1       1.387  -2.612   4.608  0.00  0.00     0.105 A 
ATOM     21  C   UNL d   1       1.238  -1.382   6.377  0.00  0.00     0.352 A 
ATOM     22  O   UNL d   1       1.328  -2.760   5.959  0.00  0.00    -0.323 OA
ATOM     23  C   UNL d   1       1.422  -3.631   3.680  0.00  0.00     0.040 A 
ATOM     24  C   UNL d   1       1.466  -3.285   2.322  0.00  0.00     0.011 A 
ENDBRANCH   3  16
BRANCH   1  25
ATOM     25  C   UNL d   1       4.006  -1.745  -0.086  0.00  0.00     0.291 C 
ATOM     26  O   UNL d   1       3.891  -2.944  -0.317  0.00  0.00    -0.260 OA
BRANCH  25  27
ATOM     27  O   UNL d   1       5.184  -1.101   0.054  0.00  0.00    -0.323 OA
ATOM     28  C   UNL d   1       6.359  -1.885  -0.158  0.00  0.00     0.213 C 
ENDBRANCH  25  27
ENDBRANCH   1  25
TORSDOF 3
