REMARK  3 active torsions:
REMARK  status: ('A' for Active; 'I' for Inactive)
REMARK    1  A    between atoms: C_2  and  N_1 
REMARK    2  A    between atoms: S_7  and  C_3 
REMARK    3  A    between atoms: C_12  and  S_7 
ROOT
ATOM      1  C   UNL d   1       0.211   1.277  -0.169  0.00  0.00     0.118 A 
ATOM      2  C   UNL d   1      -1.124   3.635  -0.644  0.00  0.00     0.080 A 
ATOM      3  N   UNL d   1      -1.598   2.788   0.308  0.00  0.00    -0.357 N 
ATOM      4  HN  UNL d   1      -2.436   3.018   0.842  1.00  0.00     0.166 HD
ATOM      5  C   UNL d   1       0.707   2.153  -1.136  0.00  0.00     0.047 A 
ATOM      6  C   UNL d   1       0.037   3.364  -1.383  0.00  0.00    -0.026 A 
ATOM      7  C   UNL d   1      -0.928   1.631   0.529  0.00  0.00     0.124 A 
ATOM      8  C   UNL d   1       0.551   4.276  -2.461  0.00  0.00     0.051 C 
ENDROOT
BRANCH   2   9
ATOM      9  S   UNL d   1      -2.161   5.045  -0.975  0.00  0.00    -0.072 SA
BRANCH   9  10
ATOM     10  C   UNL d   1      -1.703   6.260   0.250  0.00  0.00     0.007 A 
ATOM     11  C   UNL d   1      -2.006   7.601  -0.037  0.00  0.00     0.020 A 
ATOM     12  C   UNL d   1      -1.721   8.616   0.879  0.00  0.00     0.025 A 
ATOM     13  C   UNL d   1      -1.130   8.299   2.097  0.00  0.00     0.034 A 
ATOM     14  C   UNL d   1      -0.825   6.973   2.402  0.00  0.00     0.025 A 
ATOM     15 CL   UNL d   1      -0.785   9.543   3.233  0.00  0.00    -0.084 Cl
ATOM     16  C   UNL d   1      -1.116   5.958   1.483  0.00  0.00     0.020 A 
ENDBRANCH   9  10
ENDBRANCH   2   9
BRANCH   1  17
ATOM     17  N   UNL d   1       0.862   0.002   0.098  0.00  0.00    -0.114 N 
ATOM     18  O   UNL d   1       1.860  -0.285  -0.577  0.00  0.00    -0.532 OA
ATOM     19  O   UNL d   1       0.379  -0.717   0.983  0.00  0.00    -0.532 OA
ENDBRANCH   1  17
TORSDOF 3
