REMARK  5 active torsions:
REMARK  status: ('A' for Active; 'I' for Inactive)
REMARK    1  A    between atoms: C_2  and  S_1 
REMARK    2  A    between atoms: C_6  and  S_1 
REMARK    3  A    between atoms: N_18  and  C_5 
REMARK    4  A    between atoms: C_11  and  C_6 
REMARK    5  A    between atoms: N_19  and  C_7 
ROOT
ATOM      1  C   UNL d   1       0.427  -0.233   1.691  0.00  0.00     0.113 A 
ATOM      2  N   UNL d   1      -0.584   0.244   3.784  0.00  0.00    -0.322 N 
ATOM      3  HN  UNL d   1      -1.112   0.872   4.390  1.00  0.00     0.169 HD
ATOM      4  C   UNL d   1      -0.278   0.598   2.521  0.00  0.00     0.103 A 
ATOM      5  C   UNL d   1      -0.175  -0.951   4.223  0.00  0.00     0.155 A 
ATOM      6  N   UNL d   1       0.460  -1.848   3.475  0.00  0.00    -0.341 N 
ATOM      7  HN  UNL d   1       0.713  -2.769   3.834  1.00  0.00     0.167 HD
ATOM      8  C   UNL d   1       0.749  -1.468   2.215  0.00  0.00     0.117 A 
ENDROOT
BRANCH   1   9
ATOM      9  S   UNL d   1       0.891   0.025   0.030  0.00  0.00     0.184 S 
ATOM     10  O   UNL d   1       0.028  -0.862  -0.739  0.00  0.00    -0.222 OA
ATOM     11  O   UNL d   1       2.327  -0.189  -0.022  0.00  0.00    -0.222 OA
BRANCH   9  12
ATOM     12  C   UNL d   1       0.548   1.665  -0.539  0.00  0.00     0.192 C 
BRANCH  12  13
ATOM     13  C   UNL d   1       1.343   2.771   0.098  0.00  0.00    -0.003 A 
ATOM     14  S   UNL d   1       0.662   4.357   0.033  0.00  0.00    -0.106 SA
ATOM     15  C   UNL d   1       1.999   5.049   0.833  0.00  0.00     0.050 A 
ATOM     16  C   UNL d   1       2.951   4.110   1.148  0.00  0.00     0.008 A 
ATOM     17  C   UNL d   1       2.579   2.800   0.718  0.00  0.00     0.016 A 
ENDBRANCH  12  13
ENDBRANCH   9  12
ENDBRANCH   1   9
BRANCH   4  18
ATOM     18  N   UNL d   1      -0.749   1.863   2.197  0.00  0.00    -0.287 NA
ATOM     19  H   UNL d   1      -1.299   2.165   3.004  0.00  0.00     0.125 HD
ATOM     20  H   UNL d   1       0.011   2.532   2.096  0.00  0.00     0.125 HD
ENDBRANCH   4  18
BRANCH   5  21
ATOM     21  N   UNL d   1      -0.440  -1.281   5.533  0.00  0.00    -0.274 NA
ATOM     22  H   UNL d   1      -0.472  -2.285   5.641  0.00  0.00     0.127 HD
ATOM     23  H   UNL d   1      -1.217  -0.746   5.889  0.00  0.00     0.127 HD
ENDBRANCH   5  21
TORSDOF 5
