REMARK  5 active torsions:
REMARK  status: ('A' for Active; 'I' for Inactive)
REMARK    1  A    between atoms: C_15  and  C_3 
REMARK    2  A    between atoms: C_6  and  C_17 
REMARK    3  A    between atoms: C_14  and  C_7 
REMARK    4  A    between atoms: C_16  and  C_12 
REMARK    5  A    between atoms: C_17  and  C_23 
ROOT
ATOM      1  C   UNL d   1      -0.732  -6.861   0.020  0.00  0.00     0.083 C 
ENDROOT
BRANCH   1   2
ATOM      2  C   UNL d   1       0.327  -7.671  -0.683  0.00  0.00     0.018 A 
ATOM      3  C   UNL d   1       0.111  -9.143  -0.692  0.00  0.00     0.266 A 
ATOM      4  N   UNL d   1       1.105  -9.899  -1.259  0.00  0.00    -0.266 N 
ATOM      5  O   UNL d   1      -0.899  -9.645  -0.210  0.00  0.00    -0.266 OA
ATOM      6  N   UNL d   1       2.249  -9.429  -1.835  0.00  0.00    -0.297 N 
ATOM      7  H   UNL d   1       0.980 -10.906  -1.260  0.00  0.00     0.190 HD
ATOM      8  C   UNL d   1       2.402  -8.139  -1.855  0.00  0.00     0.059 A 
ATOM      9  HN  UNL d   1       2.949 -10.057  -2.229  1.00  0.00     0.187 HD
ATOM     10  C   UNL d   1       1.433  -7.188  -1.265  0.00  0.00     0.045 A 
BRANCH   8  11
ATOM     11  C   UNL d   1       3.637  -7.547  -2.442  0.00  0.00    -0.008 A 
ATOM     12  C   UNL d   1       3.618  -6.311  -3.108  0.00  0.00     0.017 A 
ATOM     13  C   UNL d   1       4.808  -5.757  -3.586  0.00  0.00     0.043 A 
ATOM     14  C   UNL d   1       6.003  -6.444  -3.411  0.00  0.00     0.116 A 
ATOM     15  C   UNL d   1       6.034  -7.681  -2.779  0.00  0.00     0.043 A 
ATOM     16  F   UNL d   1       7.144  -5.905  -3.860  0.00  0.00    -0.206 F 
ATOM     17  C   UNL d   1       4.847  -8.238  -2.296  0.00  0.00     0.017 A 
ENDBRANCH   8  11
ENDBRANCH   1   2
BRANCH   1  18
ATOM     18  C   UNL d   1      -0.523  -5.360  -0.006  0.00  0.00    -0.054 A 
ATOM     19  C   UNL d   1      -1.064  -4.589  -1.043  0.00  0.00     0.008 A 
ATOM     20  C   UNL d   1      -0.847  -3.208  -1.088  0.00  0.00     0.015 A 
ATOM     21  C   UNL d   1      -0.085  -2.564  -0.101  0.00  0.00    -0.002 A 
ATOM     22  C   UNL d   1       0.484  -3.349   0.913  0.00  0.00     0.015 A 
ATOM     23  C   UNL d   1       0.264  -4.729   0.967  0.00  0.00     0.008 A 
BRANCH  21  24
ATOM     24  C   UNL d   1       0.147  -1.111  -0.101  0.00  0.00     0.084 A 
ATOM     25  N   UNL d   1       1.238  -0.531   0.359  0.00  0.00    -0.352 N 
ATOM     26  C   UNL d   1       1.157   0.851   0.250  0.00  0.00     0.024 A 
ATOM     27  HN  UNL d   1       2.038  -1.033   0.746  1.00  0.00     0.166 HD
ATOM     28  C   UNL d   1      -0.042   1.301  -0.275  0.00  0.00     0.077 A 
ATOM     29  S   UNL d   1      -1.062  -0.016  -0.656  0.00  0.00    -0.081 SA
BRANCH  26  30
ATOM     30  C   UNL d   1       2.334   1.711   0.690  0.00  0.00    -0.008 C 
ATOM     31  C   UNL d   1       3.503   0.844   1.202  0.00  0.00     0.021 C 
ATOM     32  C   UNL d   1       2.846   2.550  -0.498  0.00  0.00     0.021 C 
ATOM     33  C   UNL d   1       1.909   2.659   1.828  0.00  0.00     0.021 C 
ENDBRANCH  26  30
ENDBRANCH  21  24
ENDBRANCH   1  18
TORSDOF 5
