REMARK  4 active torsions:
REMARK  status: ('A' for Active; 'I' for Inactive)
REMARK    1  A    between atoms: S_9  and  C_1 
REMARK    2  A    between atoms: N_8  and  C_2 
REMARK    3  A    between atoms: C_17  and  N_4 
REMARK    4  A    between atoms: C_7  and  S_9 
ROOT
ATOM      1  C   UNL d   1       2.388   0.117   0.233  0.00  0.00     0.154 A 
ATOM      2  N   UNL d   1       1.664  -1.051   0.097  0.00  0.00    -0.321 N 
ATOM      3  N   UNL d   1       1.619   1.180   0.162  0.00  0.00    -0.334 N 
ATOM      4  HN  UNL d   1       1.914   2.157   0.170  1.00  0.00     0.168 HD
ATOM      5  C   UNL d   1       0.324  -0.691   0.074  0.00  0.00     0.063 A 
ATOM      6  C   UNL d   1       0.340   0.702   0.076  0.00  0.00     0.061 A 
ATOM      7  C   UNL d   1      -0.874  -1.421   0.043  0.00  0.00     0.032 A 
ATOM      8  C   UNL d   1      -0.870   1.410   0.007  0.00  0.00     0.032 A 
ATOM      9  C   UNL d   1      -2.072  -0.697   0.003  0.00  0.00     0.002 A 
ATOM     10  C   UNL d   1      -2.073   0.697  -0.026  0.00  0.00     0.002 A 
ENDROOT
BRANCH   1  11
ATOM     11  S   UNL d   1       4.114   0.163   0.409  0.00  0.00    -0.028 SA
BRANCH  11  12
ATOM     12  C   UNL d   1       4.273   1.694   1.242  0.00  0.00     0.121 A 
ATOM     13  S   UNL d   1       4.594   3.165   0.408  0.00  0.00    -0.039 SA
ATOM     14  C   UNL d   1       4.827   3.931   1.905  0.00  0.00     0.161 A 
ATOM     15  C   UNL d   1       4.623   3.055   2.944  0.00  0.00     0.133 A 
ATOM     16  N   UNL d   1       4.322   1.758   2.558  0.00  0.00    -0.352 N 
ATOM     17  HN  UNL d   1       4.164   0.975   3.193  1.00  0.00     0.166 HD
BRANCH  14  18
ATOM     18  N   UNL d   1       5.222   5.299   1.997  0.00  0.00    -0.107 N 
ATOM     19  O   UNL d   1       5.443   5.731   3.139  0.00  0.00    -0.531 OA
ATOM     20  O   UNL d   1       5.334   5.951   0.953  0.00  0.00    -0.531 OA
ENDBRANCH  14  18
ENDBRANCH  11  12
ENDBRANCH   1  11
BRANCH   2  21
ATOM     21  C   UNL d   1       2.138  -2.428  -0.038  0.00  0.00     0.084 C 
ATOM     22  C   UNL d   1       2.990  -2.661  -1.290  0.00  0.00     0.032 C 
ATOM     23  C   UNL d   1       2.795  -2.976   1.228  0.00  0.00     0.032 C 
ENDBRANCH   2  21
TORSDOF 4
