REMARK  2 active torsions:
REMARK  status: ('A' for Active; 'I' for Inactive)
REMARK    1  A    between atoms: C_9  and  C_3 
REMARK    2  A    between atoms: O_14  and  C_4 
ROOT
ATOM      1  N   UNL d   1       2.141  -0.725  -0.066  0.00  0.00    -0.322 N 
ATOM      2  HN  UNL d   1       3.023  -1.236  -0.113  1.00  0.00     0.169 HD
ATOM      3  C   UNL d   1       2.093   0.626  -0.048  0.00  0.00     0.117 A 
ATOM      4  C   UNL d   1       0.959  -1.349  -0.019  0.00  0.00     0.150 A 
ATOM      5  N   UNL d   1       0.955   1.351   0.017  0.00  0.00    -0.344 N 
ATOM      6  HN  UNL d   1       0.966   2.371   0.036  1.00  0.00     0.167 HD
ATOM      7  C   UNL d   1      -0.249  -0.722   0.038  0.00  0.00     0.025 A 
ATOM      8  C   UNL d   1      -0.195   0.652   0.055  0.00  0.00     0.031 A 
ATOM      9  S   UNL d   1      -2.790   0.029  -0.072  0.00  0.00    -0.158 SA
ATOM     10  C   UNL d   1      -1.592  -1.347   0.096  0.00  0.00     0.119 C 
ATOM     11  C   UNL d   1      -1.528   1.340   0.128  0.00  0.00     0.132 C 
ENDROOT
BRANCH   3  12
ATOM     12  C   UNL d   1       3.372   1.365  -0.107  0.00  0.00     0.008 A 
ATOM     13  C   UNL d   1       4.609   0.697  -0.212  0.00  0.00     0.017 A 
ATOM     14  C   UNL d   1       5.819   1.400  -0.272  0.00  0.00     0.025 A 
ATOM     15  C   UNL d   1       5.815   2.788  -0.225  0.00  0.00     0.034 A 
ATOM     16  C   UNL d   1       4.614   3.482  -0.121  0.00  0.00     0.025 A 
ATOM     17 CL   UNL d   1       7.300   3.654  -0.298  0.00  0.00    -0.084 Cl
ATOM     18  C   UNL d   1       3.408   2.774  -0.063  0.00  0.00     0.017 A 
ENDBRANCH   3  12
BRANCH   4  19
ATOM     19  O   UNL d   1       1.044  -2.702  -0.037  0.00  0.00    -0.346 OA
ATOM     20  H   UNL d   1       2.009  -2.824  -0.091  0.00  0.00     0.219 HD
ENDBRANCH   4  19
TORSDOF 2
