REMARK  6 active torsions:
REMARK  status: ('A' for Active; 'I' for Inactive)
REMARK    1  A    between atoms: C_4  and  C_1 
REMARK    2  A    between atoms: O_11  and  C_4 
REMARK    3  A    between atoms: N_6  and  O_11 
REMARK    4  A    between atoms: C_12  and  C_9 
REMARK    5  A    between atoms: N_20  and  C_9 
REMARK    6  A    between atoms: C_13  and  C_14 
ROOT
ATOM      1  N   UNL d   1      -3.938   0.477   0.227  0.00  0.00    -0.246 N 
ATOM      2  HN  UNL d   1      -3.885  -0.509   0.482  1.00  0.00     0.196 HD
ATOM      3  C   UNL d   1      -5.054   1.101  -0.004  0.00  0.00     0.109 C 
ENDROOT
BRANCH   3   4
ATOM      4  C   UNL d   1      -6.328   0.309   0.090  0.00  0.00     0.004 A 
ATOM      5  C   UNL d   1      -6.416  -0.807   0.925  0.00  0.00     0.015 A 
ATOM      6  C   UNL d   1      -7.607  -1.545   1.000  0.00  0.00     0.009 A 
ATOM      7  C   UNL d   1      -8.737  -1.206   0.228  0.00  0.00    -0.051 A 
ATOM      8  C   UNL d   1      -8.625  -0.078  -0.602  0.00  0.00     0.009 A 
ATOM      9  C   UNL d   1      -7.439   0.671  -0.672  0.00  0.00     0.015 A 
BRANCH   7  10
ATOM     10  C   UNL d   1     -10.012  -2.072   0.277  0.00  0.00    -0.024 C 
ATOM     11  C   UNL d   1     -11.128  -1.575  -0.673  0.00  0.00     0.019 C 
ATOM     12  C   UNL d   1      -9.676  -3.521  -0.138  0.00  0.00     0.019 C 
ATOM     13  C   UNL d   1     -10.607  -2.091   1.701  0.00  0.00     0.019 C 
ENDBRANCH   7  10
ENDBRANCH   3   4
BRANCH   3  14
ATOM     14  N   UNL d   1      -5.135   2.438  -0.318  0.00  0.00    -0.286 NA
ATOM     15  H   UNL d   1      -4.278   2.941  -0.111  0.00  0.00     0.125 HD
ATOM     16  H   UNL d   1      -5.958   2.917   0.028  0.00  0.00     0.125 HD
ENDBRANCH   3  14
BRANCH   1  17
ATOM     17  O   UNL d   1      -2.801   1.314   0.086  0.00  0.00    -0.192 OA
BRANCH  17  18
ATOM     18  C   UNL d   1      -1.663   0.556   0.293  0.00  0.00     0.333 C 
ATOM     19  O   UNL d   1      -1.653  -0.644   0.556  0.00  0.00    -0.256 OA
BRANCH  18  20
ATOM     20  C   UNL d   1      -0.410   1.306   0.181  0.00  0.00     0.134 A 
ATOM     21  N   UNL d   1      -0.326   2.616  -0.106  0.00  0.00    -0.255 N 
ATOM     22  O   UNL d   1       1.033   2.923  -0.095  0.00  0.00    -0.242 OA
ATOM     23  HN  UNL d   1      -1.099   3.255  -0.292  1.00  0.00     0.195 HD
ATOM     24  C   UNL d   1       1.752   1.805   0.196  0.00  0.00     0.075 A 
ATOM     25  C   UNL d   1       0.889   0.758   0.375  0.00  0.00     0.072 A 
ATOM     26  C   UNL d   1       3.219   1.939   0.263  0.00  0.00     0.079 C 
ENDBRANCH  18  20
ENDBRANCH  17  18
ENDBRANCH   1  17
TORSDOF 6
