REMARK  4 active torsions:
REMARK  status: ('A' for Active; 'I' for Inactive)
REMARK    1  A    between atoms: N_8  and  C_2 
REMARK    2  A    between atoms: C_20  and  C_3 
REMARK    3  A    between atoms: C_4  and  C_9 
REMARK    4  A    between atoms: C_11  and  N_10 
ROOT
ATOM      1  N   UNL d   1       1.867   2.866   0.004  0.00  0.00    -0.267 NA
ATOM      2  N   UNL d   1       3.127   5.412   0.722  0.00  0.00    -0.366 N 
ATOM      3  C   UNL d   1       2.331   3.181   1.393  0.00  0.00     0.116 C 
ATOM      4  C   UNL d   1       2.305   4.692   1.700  0.00  0.00     0.139 C 
ATOM      5  C   UNL d   1       2.791   4.586  -1.571  0.00  0.00     0.035 C 
ATOM      6  C   UNL d   1       2.892   3.163  -1.022  0.00  0.00     0.098 C 
ATOM      7  C   UNL d   1       2.471   5.672  -0.554  0.00  0.00     0.125 C 
ENDROOT
BRANCH   1   8
ATOM      8  C   UNL d   1       1.499   1.505  -0.082  0.00  0.00     0.097 A 
ATOM      9  C   UNL d   1       0.475   1.020  -0.942  0.00  0.00     0.048 A 
ATOM     10  C   UNL d   1      -0.425   1.620  -1.927  0.00  0.00    -0.003 A 
ATOM     11  C   UNL d   1       0.248  -0.349  -0.861  0.00  0.00     0.089 A 
ATOM     12  C   UNL d   1      -1.258   0.664  -2.491  0.00  0.00     0.065 A 
ATOM     13  S   UNL d   1      -0.977  -0.905  -1.903  0.00  0.00    -0.082 SA
ATOM     14  N   UNL d   1       0.874  -1.240  -0.079  0.00  0.00    -0.346 N 
ATOM     15  C   UNL d   1       1.806  -0.680   0.684  0.00  0.00     0.182 A 
ATOM     16  HN  UNL d   1       0.659  -2.237  -0.071  1.00  0.00     0.167 HD
ATOM     17  N   UNL d   1       2.144   0.611   0.715  0.00  0.00    -0.342 N 
ATOM     18  HN  UNL d   1       2.888   0.928   1.337  1.00  0.00     0.167 HD
BRANCH  10  19
ATOM     19  C   UNL d   1      -0.547   3.009  -2.387  0.00  0.00    -0.024 A 
ATOM     20  C   UNL d   1      -0.634   3.297  -3.761  0.00  0.00     0.012 A 
ATOM     21  C   UNL d   1      -0.692   4.616  -4.223  0.00  0.00     0.001 A 
ATOM     22  C   UNL d   1      -0.672   5.670  -3.317  0.00  0.00     0.000 A 
ATOM     23  C   UNL d   1      -0.656   5.399  -1.951  0.00  0.00     0.001 A 
ATOM     24  C   UNL d   1      -0.594   4.077  -1.488  0.00  0.00     0.012 A 
ENDBRANCH  10  19
ENDBRANCH   1   8
BRANCH   2  25
ATOM     25  C   UNL d   1       4.057   6.337   1.152  0.00  0.00     0.102 A 
ATOM     26  N   UNL d   1       3.992   6.825   2.406  0.00  0.00    -0.352 N 
ATOM     27  C   UNL d   1       4.910   7.740   2.789  0.00  0.00     0.106 A 
ATOM     28  HN  UNL d   1       3.266   6.512   3.051  1.00  0.00     0.166 HD
ATOM     29  C   UNL d   1       5.936   8.198   1.972  0.00  0.00     0.063 A 
ATOM     30  C   UNL d   1       6.015   7.668   0.689  0.00  0.00     0.021 A 
ATOM     31  C   UNL d   1       5.072   6.735   0.282  0.00  0.00     0.049 A 
BRANCH  29  32
ATOM     32  C   UNL d   1       6.925   9.207   2.452  0.00  0.00     0.418 C 
ATOM     33  F   UNL d   1       6.677   9.670   3.707  0.00  0.00    -0.166 F 
ATOM     34  F   UNL d   1       8.195   8.717   2.475  0.00  0.00    -0.166 F 
ATOM     35  F   UNL d   1       6.970  10.310   1.651  0.00  0.00    -0.166 F 
ENDBRANCH  29  32
ENDBRANCH   2  25
TORSDOF 4
