REMARK  7 active torsions:
REMARK  status: ('A' for Active; 'I' for Inactive)
REMARK       I    between atoms: C_3  and  N_5 
REMARK    1  A    between atoms: C_16  and  C_3 
REMARK    2  A    between atoms: O_14  and  C_4 
REMARK    3  A    between atoms: N_5  and  C_10 
REMARK    4  A    between atoms: C_6  and  C_17 
REMARK    5  A    between atoms: O_13  and  C_6 
REMARK    6  A    between atoms: S_9  and  C_16 
REMARK    7  A    between atoms: C_17  and  S_9 
ROOT
ATOM      1  C   UNL d   1       2.969   2.576   0.095  0.00  0.00     0.231 C 
ATOM      2  N   UNL d   1       1.610   2.386  -0.056  0.00  0.00    -0.325 N 
ATOM      3  O   UNL d   1       3.810   1.682   0.212  0.00  0.00    -0.272 OA
ATOM      4  H   UNL d   1       1.036   3.199  -0.253  0.00  0.00     0.169 HD
ENDROOT
BRANCH   2   5
ATOM      5  C   UNL d   1       0.946   1.140  -0.013  0.00  0.00     0.050 A 
ATOM      6  C   UNL d   1       1.535  -0.053   0.398  0.00  0.00     0.119 A 
ATOM      7  N   UNL d   1       0.900  -1.249   0.437  0.00  0.00    -0.345 N 
ATOM      8  C   UNL d   1      -0.387  -1.266   0.043  0.00  0.00     0.141 A 
ATOM      9  HN  UNL d   1       1.374  -2.096   0.750  1.00  0.00     0.167 HD
ATOM     10  C   UNL d   1      -1.073  -0.135  -0.369  0.00  0.00     0.058 A 
ATOM     11  C   UNL d   1      -0.398   1.087  -0.387  0.00  0.00     0.035 A 
BRANCH   8  12
ATOM     12  O   UNL d   1      -1.083  -2.456   0.035  0.00  0.00    -0.341 OA
ATOM     13  C   UNL d   1      -0.288  -3.558   0.469  0.00  0.00     0.211 C 
ENDBRANCH   8  12
ENDBRANCH   2   5
BRANCH   1  14
ATOM     14  C   UNL d   1       3.405   4.029   0.176  0.00  0.00     0.177 C 
BRANCH  14  15
ATOM     15  S   UNL d   1       3.571   4.543   1.917  0.00  0.00    -0.149 SA
BRANCH  15  16
ATOM     16  C   UNL d   1       4.716   3.276   2.571  0.00  0.00     0.184 C 
BRANCH  16  17
ATOM     17  C   UNL d   1       6.057   3.276   1.871  0.00  0.00     0.149 C 
ATOM     18  O   UNL d   1       6.967   4.045   2.153  0.00  0.00    -0.649 OA
BRANCH  17  19
ATOM     19  O   UNL d   1       6.179   2.365   0.881  0.00  0.00    -0.776 OA
ATOM     20  H   UNL d   1       5.364   1.838   0.697  0.00  0.00     0.167 HD
ENDBRANCH  17  19
ENDBRANCH  16  17
ENDBRANCH  15  16
ENDBRANCH  14  15
ENDBRANCH   1  14
TORSDOF 7
