REMARK  5 active torsions:
REMARK  status: ('A' for Active; 'I' for Inactive)
REMARK    1  A    between atoms: O_6  and  C_1 
REMARK       I    between atoms: C_3  and  N_11 
REMARK    2  A    between atoms: C_8  and  C_3 
REMARK    3  A    between atoms: C_7  and  O_6 
REMARK    4  A    between atoms: C_19  and  C_10 
REMARK    5  A    between atoms: N_11  and  C_15 
ROOT
ATOM      1  N   UNL d   1       4.530  -1.176  -1.347  0.00  0.00    -0.344 N 
ATOM      2  HN  UNL d   1       4.309  -1.572  -2.261  1.00  0.00     0.167 HD
ATOM      3  C   UNL d   1       3.699  -1.310  -0.291  0.00  0.00     0.148 A 
ATOM      4  C   UNL d   1       6.057   0.043   0.108  0.00  0.00     0.050 A 
ATOM      5  C   UNL d   1       5.674  -0.488  -1.125  0.00  0.00     0.119 A 
ATOM      6  C   UNL d   1       4.028  -0.916   0.994  0.00  0.00     0.059 A 
ATOM      7  C   UNL d   1       5.228  -0.236   1.192  0.00  0.00     0.035 A 
ENDROOT
BRANCH   4   8
ATOM      8  N   UNL d   1       7.218   0.844   0.178  0.00  0.00    -0.322 N 
ATOM      9  C   UNL d   1       7.638   1.567   1.276  0.00  0.00     0.245 C 
ATOM     10  O   UNL d   1       7.095   1.596   2.374  0.00  0.00    -0.268 OA
ATOM     11  H   UNL d   1       7.734   0.965  -0.686  0.00  0.00     0.169 HD
BRANCH   9  12
ATOM     12  C   UNL d   1       8.870   2.364   1.017  0.00  0.00     0.075 C 
ATOM     13  C   UNL d   1       9.342   3.139   2.007  0.00  0.00     0.017 C 
BRANCH  13  14
ATOM     14  C   UNL d   1      10.591   3.909   1.977  0.00  0.00    -0.036 A 
ATOM     15  C   UNL d   1      10.662   5.108   2.700  0.00  0.00     0.011 A 
ATOM     16  C   UNL d   1      11.872   5.795   2.821  0.00  0.00     0.001 A 
ATOM     17  C   UNL d   1      13.024   5.287   2.225  0.00  0.00     0.000 A 
ATOM     18  C   UNL d   1      12.963   4.102   1.495  0.00  0.00     0.001 A 
ATOM     19  C   UNL d   1      11.752   3.415   1.371  0.00  0.00     0.011 A 
ENDBRANCH  13  14
ENDBRANCH   9  12
ENDBRANCH   4   8
BRANCH   3  20
ATOM     20  O   UNL d   1       2.441  -1.875  -0.453  0.00  0.00    -0.291 OA
BRANCH  20  21
ATOM     21  C   UNL d   1       1.856  -1.820  -1.696  0.00  0.00     0.116 A 
ATOM     22  C   UNL d   1       1.900  -0.717  -2.557  0.00  0.00     0.153 A 
ATOM     23  C   UNL d   1       1.290  -0.763  -3.806  0.00  0.00     0.087 A 
ATOM     24  F   UNL d   1       2.496   0.429  -2.192  0.00  0.00    -0.203 F 
ATOM     25  C   UNL d   1       0.583  -1.900  -4.169  0.00  0.00     0.119 A 
ATOM     26  C   UNL d   1       0.464  -2.981  -3.300  0.00  0.00     0.045 A 
ATOM     27  F   UNL d   1      -0.011  -1.952  -5.368  0.00  0.00    -0.206 F 
ATOM     28  C   UNL d   1       1.101  -2.941  -2.059  0.00  0.00     0.043 A 
ENDBRANCH  20  21
ENDBRANCH   3  20
TORSDOF 5
