REMARK  8 active torsions:
REMARK  status: ('A' for Active; 'I' for Inactive)
REMARK    1  A    between atoms: C_8  and  C_1 
REMARK    2  A    between atoms: C_11  and  C_7 
REMARK    3  A    between atoms: N_10  and  C_9 
REMARK       I    between atoms: C_12  and  N_10 
REMARK    4  A    between atoms: C_22  and  C_12 
REMARK    5  A    between atoms: C_13  and  C_14 
REMARK    6  A    between atoms: C_26  and  C_22 
REMARK    7  A    between atoms: C_28  and  C_26 
REMARK    8  A    between atoms: C_27  and  C_28 
ROOT
ATOM      1  C   UNL d   1      -0.164  -1.026   0.247  0.00  0.00     0.177 A 
ATOM      2  O   UNL d   1       0.976  -0.867   0.993  0.00  0.00    -0.273 OA
ATOM      3  N   UNL d   1      -0.642   0.122  -0.193  0.00  0.00    -0.277 N 
ATOM      4  HN  UNL d   1      -1.461   0.256  -0.786  1.00  0.00     0.189 HD
ATOM      5  N   UNL d   1       0.189   1.108   0.312  0.00  0.00    -0.277 N 
ATOM      6  HN  UNL d   1       0.090   2.114   0.180  1.00  0.00     0.189 HD
ATOM      7  C   UNL d   1       1.132   0.492   0.995  0.00  0.00     0.174 A 
ENDROOT
BRANCH   1   8
ATOM      8  C   UNL d   1      -0.632  -2.393   0.052  0.00  0.00     0.043 A 
ATOM      9  C   UNL d   1      -1.536  -2.748  -0.970  0.00  0.00     0.049 A 
ATOM     10  C   UNL d   1      -1.942  -4.086  -1.101  0.00  0.00     0.030 A 
ATOM     11  C   UNL d   1      -1.484  -5.063  -0.218  0.00  0.00     0.002 A 
ATOM     12  C   UNL d   1      -0.640  -4.710   0.827  0.00  0.00     0.001 A 
ATOM     13  C   UNL d   1      -0.223  -3.387   0.962  0.00  0.00     0.018 A 
BRANCH   9  14
ATOM     14  N   UNL d   1      -2.011  -1.788  -1.897  0.00  0.00    -0.326 N 
ATOM     15  C   UNL d   1      -3.353  -1.706  -2.248  0.00  0.00     0.222 C 
ATOM     16  O   UNL d   1      -4.252  -2.377  -1.770  0.00  0.00    -0.273 OA
ATOM     17  H   UNL d   1      -1.485  -0.923  -1.983  0.00  0.00     0.169 HD
BRANCH  15  18
ATOM     18  C   UNL d   1      -3.635  -0.660  -3.312  0.00  0.00     0.103 C 
BRANCH  18  19
ATOM     19  C   UNL d   1      -3.005  -1.024  -4.654  0.00  0.00     0.009 C 
BRANCH  19  20
ATOM     20  C   UNL d   1      -3.533  -2.351  -5.210  0.00  0.00     0.000 C 
BRANCH  20  21
ATOM     21  C   UNL d   1      -2.852  -2.698  -6.533  0.00  0.00    -0.005 C 
ATOM     22  C   UNL d   1      -3.347  -4.024  -7.088  0.00  0.00     0.005 C 
ENDBRANCH  20  21
ENDBRANCH  19  20
ENDBRANCH  18  19
ENDBRANCH  15  18
ENDBRANCH   9  14
ENDBRANCH   1   8
BRANCH   7  23
ATOM     23  C   UNL d   1       2.276   1.033   1.724  0.00  0.00     0.017 A 
ATOM     24  C   UNL d   1       3.255   0.222   2.314  0.00  0.00     0.016 A 
ATOM     25  C   UNL d   1       4.345   0.787   3.002  0.00  0.00     0.009 A 
ATOM     26  C   UNL d   1       4.490   2.180   3.130  0.00  0.00    -0.051 A 
ATOM     27  C   UNL d   1       3.500   2.975   2.535  0.00  0.00     0.009 A 
ATOM     28  C   UNL d   1       2.416   2.416   1.843  0.00  0.00     0.016 A 
BRANCH  26  29
ATOM     29  C   UNL d   1       5.678   2.794   3.897  0.00  0.00    -0.024 C 
ATOM     30  C   UNL d   1       5.652   4.341   3.915  0.00  0.00     0.019 C 
ATOM     31  C   UNL d   1       5.662   2.318   5.364  0.00  0.00     0.019 C 
ATOM     32  C   UNL d   1       7.017   2.372   3.256  0.00  0.00     0.019 C 
ENDBRANCH  26  29
ENDBRANCH   7  23
TORSDOF 8
