REMARK  0 active torsions:
REMARK  status: ('A' for Active; 'I' for Inactive)
ROOT
ATOM      1  C   UNL d   1       0.306   0.639   0.001  0.00  0.00     0.138 A 
ATOM      2  C   UNL d   1       0.253  -0.772  -0.001  0.00  0.00     0.053 A 
ATOM      3  N   UNL d   1       1.560   1.097   0.003  0.00  0.00    -0.255 N 
ATOM      4  HN  UNL d   1       1.865   2.070   0.005  1.00  0.00     0.195 HD
ATOM      5  C   UNL d   1      -0.900   1.439   0.000  0.00  0.00     0.289 A 
ATOM      6  N   UNL d   1      -2.117  -0.725  -0.003  0.00  0.00    -0.301 N 
ATOM      7  HN  UNL d   1      -3.026  -1.188  -0.005  1.00  0.00     0.186 HD
ATOM      8  N   UNL d   1      -2.050   0.659  -0.002  0.00  0.00    -0.264 N 
ATOM      9  O   UNL d   1       2.355  -0.035   0.002  0.00  0.00    -0.241 OA
ATOM     10  C   UNL d   1       1.574  -1.160  -0.001  0.00  0.00     0.087 A 
ATOM     11  C   UNL d   1      -1.023  -1.443  -0.003  0.00  0.00     0.037 A 
ATOM     12  O   UNL d   1      -0.944   2.665   0.002  0.00  0.00    -0.264 OA
ATOM     13  C   UNL d   1       2.346  -2.416  -0.003  0.00  0.00     0.080 C 
ATOM     14  C   UNL d   1      -1.188  -2.936  -0.003  0.00  0.00     0.070 C 
ATOM     15  H   UNL d   1      -2.936   1.153  -0.002  0.00  0.00     0.190 HD
ENDROOT
TORSDOF 0
