REMARK  6 active torsions:
REMARK  status: ('A' for Active; 'I' for Inactive)
REMARK    1  A    between atoms: C_3  and  S_1 
REMARK    2  A    between atoms: O_5  and  S_1 
REMARK    3  A    between atoms: S_2  and  C_3 
REMARK    4  A    between atoms: O_4  and  S_2 
REMARK    5  A    between atoms: C_6  and  O_4 
REMARK    6  A    between atoms: C_7  and  O_5 
ROOT
ATOM      1  C   UNL d   1       0.649  -1.315  -1.056  0.00  0.00     0.341 C 
ENDROOT
BRANCH   1   2
ATOM      2  S   UNL d   1       1.062  -0.940  -2.712  0.00  0.00     0.285 S 
ATOM      3  O   UNL d   1       0.188   0.104  -3.207  0.00  0.00    -0.197 OA
ATOM      4  O   UNL d   1       2.499  -0.871  -2.854  0.00  0.00    -0.197 OA
BRANCH   2   5
ATOM      5  O   UNL d   1       0.554  -2.356  -3.364  0.00  0.00    -0.232 OA
BRANCH   5   6
ATOM      6  C   UNL d   1       0.958  -2.740  -4.623  0.00  0.00     0.092 A 
ATOM      7  C   UNL d   1       0.926  -4.112  -4.889  0.00  0.00     0.062 A 
ATOM      8  C   UNL d   1       1.375  -4.592  -6.121  0.00  0.00     0.038 A 
ATOM      9 CL   UNL d   1       1.365  -6.285  -6.430  0.00  0.00    -0.084 Cl
ATOM     10  C   UNL d   1       1.843  -3.718  -7.098  0.00  0.00     0.048 A 
ATOM     11  C   UNL d   1       1.837  -2.351  -6.841  0.00  0.00     0.038 A 
ATOM     12  C   UNL d   1       1.387  -1.856  -5.615  0.00  0.00     0.062 A 
ATOM     13 CL   UNL d   1       2.400  -1.256  -8.043  0.00  0.00    -0.084 Cl
ENDBRANCH   5   6
ENDBRANCH   2   5
ENDBRANCH   1   2
BRANCH   1  14
ATOM     14  S   UNL d   1       1.070   0.017   0.006  0.00  0.00     0.285 S 
ATOM     15  O   UNL d   1       2.458   0.387  -0.171  0.00  0.00    -0.197 OA
ATOM     16  O   UNL d   1       0.561  -0.326   1.323  0.00  0.00    -0.197 OA
BRANCH  14  17
ATOM     17  O   UNL d   1       0.099   1.154  -0.637  0.00  0.00    -0.232 OA
BRANCH  17  18
ATOM     18  C   UNL d   1       0.178   2.472  -0.271  0.00  0.00     0.092 A 
ATOM     19  C   UNL d   1      -0.130   3.391  -1.277  0.00  0.00     0.062 A 
ATOM     20  C   UNL d   1      -0.153   4.755  -0.991  0.00  0.00     0.038 A 
ATOM     21 CL   UNL d   1      -0.539   5.880  -2.233  0.00  0.00    -0.084 Cl
ATOM     22  C   UNL d   1       0.118   5.212   0.295  0.00  0.00     0.048 A 
ATOM     23  C   UNL d   1       0.423   4.289   1.293  0.00  0.00     0.038 A 
ATOM     24  C   UNL d   1       0.455   2.919   1.020  0.00  0.00     0.062 A 
ATOM     25 CL   UNL d   1       0.737   4.846   2.892  0.00  0.00    -0.084 Cl
ENDBRANCH  17  18
ENDBRANCH  14  17
ENDBRANCH   1  14
TORSDOF 6
