REMARK  2 active torsions:
REMARK  status: ('A' for Active; 'I' for Inactive)
REMARK    1  A    between atoms: C_2  and  C_1 
REMARK       I    between atoms: N_5  and  C_2 
REMARK    2  A    between atoms: C_9  and  N_5 
ROOT
ATOM      1  C   UNL d   1       0.439   4.525   0.690  0.00  0.00     0.264 C 
ATOM      2  N   UNL d   1       1.076   3.522  -0.026  0.00  0.00    -0.322 N 
ATOM      3  O   UNL d   1       1.051   5.452   1.222  0.00  0.00    -0.267 OA
ATOM      4  H   UNL d   1       0.491   2.909  -0.579  0.00  0.00     0.169 HD
ENDROOT
BRANCH   2   5
ATOM      5  C   UNL d   1       2.460   3.234  -0.038  0.00  0.00     0.035 A 
ATOM      6  C   UNL d   1       3.377   3.819   0.838  0.00  0.00     0.030 A 
ATOM      7  C   UNL d   1       4.718   3.421   0.840  0.00  0.00     0.009 A 
ATOM      8  C   UNL d   1       5.170   2.434  -0.038  0.00  0.00    -0.062 A 
ATOM      9  C   UNL d   1       4.263   1.868  -0.938  0.00  0.00     0.009 A 
ATOM     10  C   UNL d   1       6.603   1.995   0.014  0.00  0.00     0.048 C 
ATOM     11  C   UNL d   1       2.917   2.259  -0.932  0.00  0.00     0.030 A 
ENDBRANCH   2   5
BRANCH   1  12
ATOM     12  C   UNL d   1      -1.020   4.418   0.775  0.00  0.00     0.094 A 
ATOM     13  C   UNL d   1      -1.916   3.458   0.336  0.00  0.00     0.057 A 
ATOM     14  C   UNL d   1      -3.262   3.743   0.717  0.00  0.00     0.032 A 
ATOM     15 CL   UNL d   1      -1.561   2.033  -0.552  0.00  0.00    -0.083 Cl
ATOM     16  C   UNL d   1      -3.368   4.917   1.425  0.00  0.00     0.052 A 
ATOM     17  S   UNL d   1      -1.856   5.676   1.618  0.00  0.00    -0.095 SA
ENDBRANCH   1  12
TORSDOF 2
