REMARK  4 active torsions:
REMARK  status: ('A' for Active; 'I' for Inactive)
REMARK    1  A    between atoms: C_2  and  S_1 
REMARK    2  A    between atoms: N_6  and  S_1 
REMARK    3  A    between atoms: N_9  and  C_4 
REMARK       I    between atoms: C_8  and  N_9 
REMARK       I    between atoms: N_12  and  C_8 
REMARK    4  A    between atoms: C_14  and  N_12 
ROOT
ATOM      1  C   UNL d   1       0.492   1.570   0.108  0.00  0.00     0.187 A 
ATOM      2  C   UNL d   1       1.123   2.797   0.264  0.00  0.00     0.083 A 
ATOM      3  C   UNL d   1       0.175   3.709   0.786  0.00  0.00     0.069 A 
ATOM      4  O   UNL d   1      -0.833   1.735   0.436  0.00  0.00    -0.300 OA
ATOM      5  C   UNL d   1      -1.021   3.019   0.834  0.00  0.00     0.077 A 
ATOM      6  C   UNL d   1      -2.390   3.325   1.300  0.00  0.00     0.079 C 
ENDROOT
BRANCH   3   7
ATOM      7  N   UNL d   1       0.354   5.017   1.201  0.00  0.00    -0.306 N 
ATOM      8  C   UNL d   1       1.563   5.579   1.510  0.00  0.00     0.325 C 
ATOM      9  N   UNL d   1       1.608   6.907   1.841  0.00  0.00    -0.309 N 
ATOM     10  O   UNL d   1       2.638   4.978   1.468  0.00  0.00    -0.247 OA
ATOM     11  H   UNL d   1       2.573   7.219   1.835  0.00  0.00     0.170 HD
ATOM     12  H   UNL d   1      -0.485   5.541   1.356  0.00  0.00     0.171 HD
BRANCH   9  13
ATOM     13  C   UNL d   1       0.629   7.916   1.853  0.00  0.00     0.036 C 
ATOM     14  C   UNL d   1      -0.717   7.711   2.153  0.00  0.00     0.029 C 
ATOM     15  C   UNL d   1      -1.656   8.715   1.906  0.00  0.00     0.002 C 
ATOM     16  C   UNL d   1      -1.241   9.957   1.432  0.00  0.00     0.000 C 
ATOM     17  C   UNL d   1       0.117  10.218   1.279  0.00  0.00     0.002 C 
ATOM     18  C   UNL d   1       1.052   9.206   1.508  0.00  0.00     0.029 C 
ENDBRANCH   9  13
ENDBRANCH   3   7
BRANCH   1  19
ATOM     19  S   UNL d   1       1.151  -0.065  -0.258  0.00  0.00     0.266 S 
ATOM     20  O   UNL d   1       2.221   0.167  -1.211  0.00  0.00    -0.204 OA
ATOM     21  O   UNL d   1       0.003  -0.876  -0.581  0.00  0.00    -0.204 OA
BRANCH  19  22
ATOM     22  N   UNL d   1       1.829  -0.626   1.222  0.00  0.00    -0.205 NA
ATOM     23  C   UNL d   1       3.084   0.074   1.608  0.00  0.00     0.107 C 
ATOM     24  C   UNL d   1       3.700  -0.576   2.841  0.00  0.00     0.015 C 
ATOM     25  C   UNL d   1       2.706  -0.604   3.995  0.00  0.00     0.002 C 
ATOM     26  C   UNL d   1       1.440  -1.339   3.570  0.00  0.00     0.015 C 
ATOM     27  C   UNL d   1       0.829  -0.705   2.325  0.00  0.00     0.107 C 
ENDBRANCH  19  22
ENDBRANCH   1  19
TORSDOF 4
