REMARK  4 active torsions:
REMARK  status: ('A' for Active; 'I' for Inactive)
REMARK    1  A    between atoms: S_19  and  C_6 
REMARK    2  A    between atoms: O_14  and  N_7 
REMARK    3  A    between atoms: C_11  and  O_14 
REMARK    4  A    between atoms: C_17  and  C_11 
ROOT
ATOM      1  C   UNL d   1      -2.556  -0.721   0.327  0.00  0.00     0.026 A 
ATOM      2  C   UNL d   1      -2.386   0.414   1.106  0.00  0.00     0.025 A 
ATOM      3  C   UNL d   1      -1.385  -1.526  -0.100  0.00  0.00     0.047 C 
ATOM      4  N   UNL d   1      -3.429   1.165   1.535  0.00  0.00    -0.339 N 
ATOM      5  HN  UNL d   1      -3.281   1.997   2.105  1.00  0.00     0.168 HD
ATOM      6  C   UNL d   1      -4.665   0.774   1.184  0.00  0.00     0.144 A 
ATOM      7  N   UNL d   1      -1.350  -2.772  -0.478  0.00  0.00    -0.261 N 
ATOM      8  HN  UNL d   1      -0.504  -3.210  -0.844  1.00  0.00     0.194 HD
ATOM      9  N   UNL d   1      -4.927  -0.290   0.410  0.00  0.00    -0.346 N 
ATOM     10  HN  UNL d   1      -5.881  -0.548   0.156  1.00  0.00     0.167 HD
ATOM     11  C   UNL d   1      -3.860  -1.001  -0.015  0.00  0.00     0.105 A 
ATOM     12  C   UNL d   1       0.104  -0.113   1.352  0.00  0.00    -0.037 C 
ATOM     13  C   UNL d   1      -1.020   0.935   1.480  0.00  0.00     0.067 C 
ATOM     14  C   UNL d   1      -0.042  -0.803  -0.020  0.00  0.00     0.069 C 
ATOM     15  C   UNL d   1       0.026  -1.140   2.501  0.00  0.00     0.015 C 
ATOM     16  C   UNL d   1       1.470   0.592   1.450  0.00  0.00     0.015 C 
ENDROOT
BRANCH   7  17
ATOM     17  O   UNL d   1      -2.568  -3.468  -0.344  0.00  0.00    -0.195 OA
BRANCH  17  18
ATOM     18  C   UNL d   1      -2.424  -4.763  -0.771  0.00  0.00     0.315 C 
ATOM     19  O   UNL d   1      -1.438  -5.275  -1.274  0.00  0.00    -0.257 OA
BRANCH  18  20
ATOM     20  C   UNL d   1      -3.691  -5.535  -0.555  0.00  0.00     0.041 A 
ATOM     21  C   UNL d   1      -3.742  -6.870  -0.994  0.00  0.00     0.019 A 
ATOM     22  C   UNL d   1      -4.896  -7.642  -0.806  0.00  0.00     0.025 A 
ATOM     23  C   UNL d   1      -6.006  -7.083  -0.178  0.00  0.00     0.034 A 
ATOM     24  C   UNL d   1      -5.970  -5.762   0.266  0.00  0.00     0.025 A 
ATOM     25 CL   UNL d   1      -7.426  -8.026   0.057  0.00  0.00    -0.084 Cl
ATOM     26  C   UNL d   1      -4.816  -4.989   0.080  0.00  0.00     0.019 A 
ENDBRANCH  18  20
ENDBRANCH  17  18
ENDBRANCH   7  17
BRANCH   6  27
ATOM     27  S   UNL d   1      -6.008   1.763   1.789  0.00  0.00    -0.098 SA
ATOM     28  C   UNL d   1      -7.417   0.879   1.076  0.00  0.00     0.099 C 
ENDBRANCH   6  27
TORSDOF 4
