REMARK  7 active torsions:
REMARK  status: ('A' for Active; 'I' for Inactive)
REMARK    1  A    between atoms: C_10  and  C_1 
REMARK       I    between atoms: C_4  and  N_8 
REMARK    2  A    between atoms: C_13  and  C_4 
REMARK    3  A    between atoms: C_6  and  C_14 
REMARK    4  A    between atoms: O_15  and  C_6 
REMARK    5  A    between atoms: C_7  and  C_13 
REMARK    6  A    between atoms: C_14  and  C_7 
REMARK    7  A    between atoms: N_8  and  C_10 
ROOT
ATOM      1  C   UNL d   1       2.303  -4.180   0.011  0.00  0.00     0.218 C 
ATOM      2  N   UNL d   1       1.642  -4.122  -1.190  0.00  0.00    -0.356 N 
ATOM      3  O   UNL d   1       1.741  -4.064   1.097  0.00  0.00    -0.274 OA
ATOM      4  H   UNL d   1       2.115  -4.432  -2.040  0.00  0.00     0.162 HD
ENDROOT
BRANCH   1   5
ATOM      5  C   UNL d   1       3.803  -4.401  -0.093  0.00  0.00     0.112 C 
BRANCH   5   6
ATOM      6  C   UNL d   1       4.273  -5.876   0.013  0.00  0.00    -0.030 C 
ATOM      7  C   UNL d   1       5.816  -5.889  -0.069  0.00  0.00     0.016 C 
ATOM      8  C   UNL d   1       3.882  -6.468   1.382  0.00  0.00     0.016 C 
BRANCH   6   9
ATOM      9  C   UNL d   1       3.678  -6.785  -1.086  0.00  0.00     0.119 C 
BRANCH   9  10
ATOM     10  C   UNL d   1       3.984  -6.326  -2.491  0.00  0.00     0.140 C 
ATOM     11  O   UNL d   1       3.329  -5.473  -3.069  0.00  0.00    -0.650 OA
BRANCH  10  12
ATOM     12  O   UNL d   1       5.074  -6.904  -3.034  0.00  0.00    -0.776 OA
ATOM     13  H   UNL d   1       5.525  -7.546  -2.454  0.00  0.00     0.167 HD
ENDBRANCH  10  12
ENDBRANCH   9  10
ENDBRANCH   6   9
ENDBRANCH   5   6
ENDBRANCH   1   5
BRANCH   2  14
ATOM     14  C   UNL d   1       0.205  -3.974  -1.244  0.00  0.00     0.169 C 
BRANCH  14  15
ATOM     15  C   UNL d   1      -0.184  -3.451  -2.594  0.00  0.00     0.006 A 
ATOM     16  C   UNL d   1      -0.348  -2.140  -3.026  0.00  0.00    -0.047 A 
ATOM     17  C   UNL d   1      -0.739  -2.099  -4.408  0.00  0.00     0.015 A 
ATOM     18  C   UNL d   1      -0.155  -0.899  -2.215  0.00  0.00     0.049 C 
ATOM     19  C   UNL d   1      -0.861  -3.348  -4.967  0.00  0.00     0.051 A 
ATOM     20  S   UNL d   1      -0.504  -4.582  -3.849  0.00  0.00    -0.104 SA
ENDBRANCH  14  15
ENDBRANCH   2  14
TORSDOF 7
