REMARK  5 active torsions:
REMARK  status: ('A' for Active; 'I' for Inactive)
REMARK    1  A    between atoms: C_7  and  C_1 
REMARK    2  A    between atoms: S_2  and  C_3 
REMARK    3  A    between atoms: N_9  and  C_4 
REMARK    4  A    between atoms: N_5  and  N_9 
REMARK    5  A    between atoms: O_18  and  C_7 
ROOT
ATOM      1  C   UNL d   1       2.785   5.214  -0.482  0.00  0.00     0.223 C 
ATOM      2  N   UNL d   1       1.603   4.677  -0.618  0.00  0.00    -0.281 N 
ATOM      3  HN  UNL d   1       0.836   5.223  -1.011  1.00  0.00     0.188 HD
ATOM      4  C   UNL d   1       3.856   4.446   0.085  0.00  0.00     0.131 C 
ATOM      5  N   UNL d   1       4.680   3.745   0.517  0.00  0.00    -0.189 NA
ENDROOT
BRANCH   1   6
ATOM      6  S   UNL d   1       3.129   6.850  -1.000  0.00  0.00     0.198 S 
ATOM      7  O   UNL d   1       2.127   7.715  -0.406  0.00  0.00    -0.221 OA
ATOM      8  O   UNL d   1       4.544   7.083  -0.776  0.00  0.00    -0.221 OA
ATOM      9  C   UNL d   1       2.870   6.808  -2.752  0.00  0.00     0.169 C 
ENDBRANCH   1   6
BRANCH   2  10
ATOM     10  N   UNL d   1       1.393   3.373  -0.232  0.00  0.00    -0.298 N 
ATOM     11  H   UNL d   1       2.190   2.732  -0.111  0.00  0.00     0.187 HD
BRANCH  10  12
ATOM     12  C   UNL d   1       0.153   2.811  -0.152  0.00  0.00     0.071 A 
ATOM     13  C   UNL d   1      -0.080   1.450  -0.017  0.00  0.00     0.108 A 
ATOM     14  S   UNL d   1      -1.769   1.118   0.048  0.00  0.00    -0.094 SA
ATOM     15  C   UNL d   1      -2.175   2.769  -0.071  0.00  0.00     0.053 A 
ATOM     16  C   UNL d   1      -1.059   3.566  -0.177  0.00  0.00     0.039 A 
BRANCH  13  17
ATOM     17  C   UNL d   1       0.832   0.322   0.062  0.00  0.00     0.302 C 
ATOM     18  O   UNL d   1       0.521  -0.862   0.146  0.00  0.00    -0.259 OA
BRANCH  17  19
ATOM     19  O   UNL d   1       2.132   0.757   0.036  0.00  0.00    -0.322 OA
ATOM     20  C   UNL d   1       3.097  -0.294   0.139  0.00  0.00     0.213 C 
ENDBRANCH  17  19
ENDBRANCH  13  17
ENDBRANCH  10  12
ENDBRANCH   2  10
TORSDOF 5
