REMARK  4 active torsions:
REMARK  status: ('A' for Active; 'I' for Inactive)
REMARK    1  A    between atoms: S_8  and  C_1 
REMARK    2  A    between atoms: N_7  and  C_2 
REMARK    3  A    between atoms: C_13  and  S_8 
REMARK    4  A    between atoms: C_9  and  C_10 
ROOT
ATOM      1  S   UNL d   1       1.724  -2.710   0.042  0.00  0.00    -0.051 SA
ENDROOT
BRANCH   1   2
ATOM      2  C   UNL d   1       0.620  -1.370  -0.037  0.00  0.00     0.128 A 
ATOM      3  C   UNL d   1      -0.754  -1.307   0.085  0.00  0.00     0.161 A 
ATOM      4  C   UNL d   1      -1.091   0.058  -0.004  0.00  0.00     0.058 A 
ATOM      5  C   UNL d   1      -2.428   0.703   0.026  0.00  0.00     0.072 C 
ATOM      6  N   UNL d   1       0.006   0.817  -0.141  0.00  0.00    -0.300 N 
ATOM      7  N   UNL d   1       1.035  -0.065  -0.121  0.00  0.00    -0.287 N 
ATOM      8  HN  UNL d   1       0.054   1.831  -0.240  1.00  0.00     0.187 HD
ATOM      9  C   UNL d   1       2.373   0.483  -0.112  0.00  0.00     0.178 C 
BRANCH   3  10
ATOM     10  N   UNL d   1      -1.642  -2.402   0.294  0.00  0.00    -0.111 N 
ATOM     11  O   UNL d   1      -1.565  -3.347  -0.501  0.00  0.00    -0.532 OA
ATOM     12  O   UNL d   1      -2.432  -2.307   1.239  0.00  0.00    -0.532 OA
ENDBRANCH   3  10
ENDBRANCH   1   2
BRANCH   1  13
ATOM     13  C   UNL d   1       1.945  -3.009  -1.706  0.00  0.00     0.075 A 
ATOM     14  N   UNL d   1       2.890  -2.279  -2.344  0.00  0.00    -0.359 N 
ATOM     15  C   UNL d   1       3.164  -2.605  -3.634  0.00  0.00     0.105 A 
ATOM     16  HN  UNL d   1       3.377  -1.515  -1.875  1.00  0.00     0.166 HD
ATOM     17  C   UNL d   1       2.530  -3.625  -4.330  0.00  0.00     0.063 A 
ATOM     18  C   UNL d   1       1.535  -4.338  -3.660  0.00  0.00     0.020 A 
ATOM     19  C   UNL d   1       1.243  -4.032  -2.332  0.00  0.00     0.038 A 
BRANCH  17  20
ATOM     20  C   UNL d   1       2.921  -3.963  -5.740  0.00  0.00     0.418 C 
ATOM     21  F   UNL d   1       3.926  -3.184  -6.229  0.00  0.00    -0.166 F 
ATOM     22  F   UNL d   1       3.354  -5.248  -5.861  0.00  0.00    -0.166 F 
ATOM     23  F   UNL d   1       1.887  -3.834  -6.614  0.00  0.00    -0.166 F 
ENDBRANCH  17  20
ENDBRANCH   1  13
TORSDOF 4
