REMARK  4 active torsions:
REMARK  status: ('A' for Active; 'I' for Inactive)
REMARK    1  A    between atoms: O_7  and  C_10 
REMARK    2  A    between atoms: C_12  and  O_7 
REMARK    3  A    between atoms: C_8  and  C_12 
REMARK    4  A    between atoms: C_14  and  C_19 
ROOT
ATOM      1  N   UNL d   1       1.188  -0.590  -0.306  0.00  0.00    -0.197 NA
ATOM      2  C   UNL d   1       2.314  -0.328  -0.214  0.00  0.00     0.063 C 
ATOM      3  C   UNL d   1       3.744  -0.003  -0.083  0.00  0.00     0.162 C 
ENDROOT
BRANCH   3   4
ATOM      4  C   UNL d   1       4.164   1.094  -1.034  0.00  0.00    -0.045 A 
ATOM      5  C   UNL d   1       4.131   2.434  -0.626  0.00  0.00     0.011 A 
ATOM      6  C   UNL d   1       4.394   3.459  -1.537  0.00  0.00     0.037 A 
ATOM      7  C   UNL d   1       4.665   3.159  -2.873  0.00  0.00     0.069 A 
ATOM      8  C   UNL d   1       4.775   1.826  -3.268  0.00  0.00     0.037 A 
ATOM      9  C   UNL d   1       4.520   0.797  -2.358  0.00  0.00     0.011 A 
BRANCH   7  10
ATOM     10  O   UNL d   1       4.822   4.092  -3.864  0.00  0.00    -0.347 OA
BRANCH  10  11
ATOM     11  C   UNL d   1       4.132   5.323  -3.634  0.00  0.00     0.214 C 
BRANCH  11  12
ATOM     12  C   UNL d   1       3.850   6.006  -4.951  0.00  0.00    -0.032 A 
ATOM     13  C   UNL d   1       2.526   6.235  -5.360  0.00  0.00     0.035 A 
ATOM     14  C   UNL d   1       2.254   6.896  -6.563  0.00  0.00     0.056 A 
ATOM     15 CL   UNL d   1       0.596   7.149  -6.981  0.00  0.00    -0.083 Cl
ATOM     16  C   UNL d   1       3.308   7.332  -7.371  0.00  0.00     0.055 A 
ATOM     17  C   UNL d   1       4.628   7.102  -6.973  0.00  0.00     0.026 A 
ATOM     18 CL   UNL d   1       3.049   8.159  -8.865  0.00  0.00    -0.083 Cl
ATOM     19  C   UNL d   1       4.899   6.442  -5.771  0.00  0.00     0.011 A 
ENDBRANCH  11  12
ENDBRANCH  10  11
ENDBRANCH   7  10
ENDBRANCH   3   4
TORSDOF 4
