REMARK  4 active torsions:
REMARK  status: ('A' for Active; 'I' for Inactive)
REMARK    1  A    between atoms: O_9  and  C_3 
REMARK    2  A    between atoms: O_11  and  C_4 
REMARK    3  A    between atoms: N_10  and  C_5 
REMARK    4  A    between atoms: C_12  and  O_9 
ROOT
ATOM      1  N   UNL d   1      -0.582   1.309   0.121  0.00  0.00    -0.311 N 
ATOM      2  HN  UNL d   1      -1.013   2.229   0.214  1.00  0.00     0.170 HD
ATOM      3  C   UNL d   1      -0.775  -1.090   0.073  0.00  0.00     0.149 A 
ATOM      4  C   UNL d   1      -1.297   0.180   0.232  0.00  0.00     0.179 A 
ATOM      5  C   UNL d   1       0.719   1.166  -0.119  0.00  0.00     0.157 A 
ATOM      6  N   UNL d   1       1.355  -0.007  -0.193  0.00  0.00    -0.334 N 
ATOM      7  HN  UNL d   1       2.365  -0.057  -0.324  1.00  0.00     0.168 HD
ATOM      8  C   UNL d   1       0.601  -1.127  -0.088  0.00  0.00     0.046 A 
ATOM      9  C   UNL d   1       1.345  -2.431  -0.125  0.00  0.00     0.071 C 
ENDROOT
BRANCH   3  10
ATOM     10  O   UNL d   1      -1.449  -2.273   0.189  0.00  0.00    -0.304 OA
BRANCH  10  11
ATOM     11  C   UNL d   1      -2.656  -2.464  -0.444  0.00  0.00     0.076 A 
ATOM     12  C   UNL d   1      -3.100  -1.775  -1.575  0.00  0.00     0.037 A 
ATOM     13  C   UNL d   1      -4.389  -2.003  -2.065  0.00  0.00     0.003 A 
ATOM     14  C   UNL d   1      -5.217  -2.946  -1.456  0.00  0.00     0.000 A 
ATOM     15  C   UNL d   1      -4.753  -3.678  -0.366  0.00  0.00     0.003 A 
ATOM     16  C   UNL d   1      -3.474  -3.439   0.136  0.00  0.00     0.037 A 
ENDBRANCH  10  11
ENDBRANCH   3  10
BRANCH   4  17
ATOM     17  O   UNL d   1      -2.601   0.411   0.574  0.00  0.00    -0.344 OA
ATOM     18  H   UNL d   1      -3.012  -0.441   0.787  0.00  0.00     0.219 HD
ENDBRANCH   4  17
BRANCH   5  19
ATOM     19  N   UNL d   1       1.478   2.312  -0.225  0.00  0.00    -0.274 NA
ATOM     20  H   UNL d   1       0.995   3.073   0.236  0.00  0.00     0.127 HD
ATOM     21  H   UNL d   1       2.426   2.120   0.067  0.00  0.00     0.127 HD
ENDBRANCH   5  19
TORSDOF 4
