REMARK  2 active torsions:
REMARK  status: ('A' for Active; 'I' for Inactive)
REMARK    1  A    between atoms: N_8  and  C_1 
REMARK    2  A    between atoms: C_2  and  C_3 
REMARK       I    between atoms: C_3  and  N_8 
ROOT
ATOM      1  C   UNL d   1      -2.872  -2.754   0.328  0.00  0.00     0.255 C 
ATOM      2  N   UNL d   1      -3.504  -1.761  -0.390  0.00  0.00    -0.309 N 
ATOM      3  O   UNL d   1      -3.200  -3.172   1.437  0.00  0.00    -0.270 OA
ATOM      4  H   UNL d   1      -3.143  -1.522  -1.302  0.00  0.00     0.170 HD
ENDROOT
BRANCH   1   5
ATOM      5  C   UNL d   1      -1.624  -3.339  -0.371  0.00  0.00     0.245 C 
ATOM      6  O   UNL d   1      -1.565  -3.187  -1.792  0.00  0.00    -0.331 OA
ATOM      7  C   UNL d   1      -0.980  -2.008  -2.186  0.00  0.00     0.103 A 
ATOM      8  C   UNL d   1      -1.130  -1.663  -3.529  0.00  0.00     0.040 A 
ATOM      9  C   UNL d   1      -0.363  -1.130  -1.297  0.00  0.00     0.102 A 
ATOM     10  C   UNL d   1      -0.716  -0.403  -3.965  0.00  0.00     0.003 A 
ATOM     11  C   UNL d   1      -0.156   0.502  -3.061  0.00  0.00     0.003 A 
ATOM     12  C   UNL d   1       0.028   0.134  -1.728  0.00  0.00     0.039 A 
ATOM     13  O   UNL d   1      -0.168  -1.417   0.026  0.00  0.00    -0.345 OA
ATOM     14  C   UNL d   1      -0.363  -2.811   0.300  0.00  0.00     0.218 C 
ENDBRANCH   1   5
BRANCH   2  15
ATOM     15  C   UNL d   1      -4.667  -1.119  -0.021  0.00  0.00     0.130 A 
ATOM     16  N   UNL d   1      -5.346  -1.301   1.114  0.00  0.00    -0.245 N 
ATOM     17  O   UNL d   1      -6.497  -0.546   1.000  0.00  0.00    -0.241 OA
ATOM     18  HN  UNL d   1      -5.070  -1.880   1.906  1.00  0.00     0.196 HD
ATOM     19  C   UNL d   1      -6.502   0.091  -0.199  0.00  0.00     0.076 A 
ATOM     20  C   UNL d   1      -5.330  -0.187  -0.857  0.00  0.00     0.084 A 
ATOM     21  C   UNL d   1      -7.714   0.857  -0.532  0.00  0.00     0.079 C 
ENDBRANCH   2  15
TORSDOF 2
