REMARK  5 active torsions:
REMARK  status: ('A' for Active; 'I' for Inactive)
REMARK    1  A    between atoms: C_7  and  C_3 
REMARK    2  A    between atoms: C_15  and  C_6 
REMARK    3  A    between atoms: O_14  and  C_16 
REMARK    4  A    between atoms: C_17  and  C_15 
REMARK    5  A    between atoms: C_16  and  C_17 
ROOT
ATOM      1  N   UNL d   1      -1.100   0.057   0.096  0.00  0.00    -0.300 N 
ATOM      2  HN  UNL d   1      -2.114  -0.004   0.191  1.00  0.00     0.187 HD
ATOM      3  C   UNL d   1      -0.353   1.167  -0.027  0.00  0.00     0.060 A 
ATOM      4  C   UNL d   1       1.024   0.830  -0.123  0.00  0.00     0.058 A 
ATOM      5  N   UNL d   1      -0.215  -0.954   0.065  0.00  0.00    -0.304 N 
ATOM      6  C   UNL d   1       1.083  -0.541  -0.033  0.00  0.00     0.028 A 
ATOM      7  H   UNL d   1      -0.564  -1.903   0.142  0.00  0.00     0.186 HD
ENDROOT
BRANCH   3   8
ATOM      8  C   UNL d   1      -0.934   2.510  -0.012  0.00  0.00    -0.008 A 
ATOM      9  C   UNL d   1      -2.152   2.757   0.637  0.00  0.00     0.015 A 
ATOM     10  C   UNL d   1      -2.672   4.053   0.704  0.00  0.00     0.024 A 
ATOM     11  C   UNL d   1      -1.981   5.108   0.113  0.00  0.00     0.034 A 
ATOM     12  C   UNL d   1      -0.779   4.878  -0.552  0.00  0.00     0.024 A 
ATOM     13 CL   UNL d   1      -2.606   6.707   0.212  0.00  0.00    -0.084 Cl
ATOM     14  C   UNL d   1      -0.258   3.582  -0.616  0.00  0.00     0.015 A 
ENDBRANCH   3   8
BRANCH   6  15
ATOM     15  C   UNL d   1       2.236  -1.481   0.002  0.00  0.00     0.061 C 
BRANCH  15  16
ATOM     16  C   UNL d   1       3.155  -1.227   1.202  0.00  0.00     0.032 C 
BRANCH  16  17
ATOM     17  C   UNL d   1       2.477  -1.450   2.550  0.00  0.00     0.164 C 
BRANCH  17  18
ATOM     18  O   UNL d   1       1.990  -2.783   2.632  0.00  0.00    -0.401 OA
ATOM     19  H   UNL d   1       1.601  -2.884   3.518  0.00  0.00     0.209 HD
ENDBRANCH  17  18
ENDBRANCH  16  17
ENDBRANCH  15  16
ENDBRANCH   6  15
TORSDOF 5
