REMARK  5 active torsions:
REMARK  status: ('A' for Active; 'I' for Inactive)
REMARK    1  A    between atoms: C_8  and  N_3 
REMARK    2  A    between atoms: S_10  and  C_7 
REMARK    3  A    between atoms: C_15  and  S_10 
REMARK       I    between atoms: C_11  and  N_12 
REMARK    4  A    between atoms: N_12  and  C_13 
REMARK    5  A    between atoms: C_16  and  C_15 
ROOT
ATOM      1  N   UNL d   1      -0.444  -1.159  -0.189  0.00  0.00    -0.259 N 
ATOM      2  HN  UNL d   1      -0.663  -2.090  -0.544  1.00  0.00     0.191 HD
ATOM      3  N   UNL d   1       0.757  -0.626   0.178  0.00  0.00    -0.178 N 
ATOM      4  N   UNL d   1       0.666   0.635   0.672  0.00  0.00     0.003 NA
ATOM      5  N   UNL d   1      -0.611   0.967   0.565  0.00  0.00    -0.261 N 
ATOM      6  HN  UNL d   1      -1.032   1.860   0.820  1.00  0.00     0.186 HD
ATOM      7  C   UNL d   1      -1.252  -0.120   0.046  0.00  0.00     0.173 A 
ENDROOT
BRANCH   3   8
ATOM      8  C   UNL d   1       2.003  -1.285   0.022  0.00  0.00     0.075 A 
ATOM      9  C   UNL d   1       2.063  -2.574  -0.534  0.00  0.00     0.062 A 
ATOM     10  C   UNL d   1       3.296  -3.203  -0.734  0.00  0.00     0.036 A 
ATOM     11  C   UNL d   1       4.471  -2.539  -0.347  0.00  0.00     0.029 A 
ATOM     12  C   UNL d   1       4.419  -1.263   0.216  0.00  0.00     0.005 A 
ATOM     13  C   UNL d   1       3.189  -0.633   0.398  0.00  0.00     0.033 A 
BRANCH  10  14
ATOM     14  N   UNL d   1       3.453  -4.474  -1.328  0.00  0.00    -0.327 N 
ATOM     15  C   UNL d   1       2.456  -5.308  -1.796  0.00  0.00     0.218 C 
ATOM     16  O   UNL d   1       1.247  -5.116  -1.730  0.00  0.00    -0.274 OA
ATOM     17  C   UNL d   1       2.986  -6.564  -2.445  0.00  0.00     0.117 C 
ATOM     18  H   UNL d   1       4.406  -4.798  -1.428  0.00  0.00     0.169 HD
ENDBRANCH  10  14
ENDBRANCH   3   8
BRANCH   7  19
ATOM     19  S   UNL d   1      -2.938  -0.064  -0.384  0.00  0.00    -0.087 SA
BRANCH  19  20
ATOM     20  C   UNL d   1      -3.507  -1.723   0.066  0.00  0.00     0.121 C 
BRANCH  20  21
ATOM     21  C   UNL d   1      -5.001  -1.862  -0.150  0.00  0.00    -0.049 A 
ATOM     22  C   UNL d   1      -5.508  -2.228  -1.407  0.00  0.00     0.008 A 
ATOM     23  C   UNL d   1      -6.885  -2.340  -1.617  0.00  0.00     0.001 A 
ATOM     24  C   UNL d   1      -7.774  -2.082  -0.575  0.00  0.00     0.000 A 
ATOM     25  C   UNL d   1      -7.286  -1.707   0.675  0.00  0.00     0.001 A 
ATOM     26  C   UNL d   1      -5.909  -1.594   0.887  0.00  0.00     0.008 A 
ENDBRANCH  20  21
ENDBRANCH  19  20
ENDBRANCH   7  19
TORSDOF 5
