REMARK  7 active torsions:
REMARK  status: ('A' for Active; 'I' for Inactive)
REMARK    1  A    between atoms: C_5  and  C_1 
REMARK       I    between atoms: C_3  and  N_2 
REMARK    2  A    between atoms: C_19  and  C_3 
REMARK    3  A    between atoms: N_4  and  C_5 
REMARK    4  A    between atoms: C_8  and  C_20 
REMARK    5  A    between atoms: O_18  and  C_8 
REMARK    6  A    between atoms: S_15  and  C_19 
REMARK    7  A    between atoms: C_20  and  S_15 
ROOT
ATOM      1  N   UNL d   1      -3.543   1.198   0.613  0.00  0.00    -0.348 N 
ATOM      2  C   UNL d   1      -4.560   0.245   0.656  0.00  0.00     0.229 C 
ATOM      3  N   UNL d   1      -1.193   2.973   0.243  0.00  0.00     0.096 N 
ATOM      4  C   UNL d   1      -3.378   1.939  -0.642  0.00  0.00     0.156 C 
ATOM      5  C   UNL d   1      -2.397   1.170   1.528  0.00  0.00     0.156 C 
ATOM      6  O   UNL d   1      -5.531   0.270  -0.115  0.00  0.00    -0.273 OA
ATOM      7  C   UNL d   1      -2.394   3.130  -0.598  0.00  0.00     0.292 C 
ATOM      8  C   UNL d   1      -1.608   2.486   1.566  0.00  0.00     0.292 C 
ENDROOT
BRANCH   2   9
ATOM      9  C   UNL d   1      -4.489  -0.866   1.698  0.00  0.00     0.177 C 
BRANCH   9  10
ATOM     10  S   UNL d   1      -5.439  -0.446   3.191  0.00  0.00    -0.149 SA
BRANCH  10  11
ATOM     11  C   UNL d   1      -7.118  -0.264   2.505  0.00  0.00     0.184 C 
BRANCH  11  12
ATOM     12  C   UNL d   1      -7.607  -1.513   1.813  0.00  0.00     0.149 C 
ATOM     13  O   UNL d   1      -8.107  -2.472   2.392  0.00  0.00    -0.649 OA
BRANCH  12  14
ATOM     14  O   UNL d   1      -7.426  -1.508   0.470  0.00  0.00    -0.776 OA
ATOM     15  H   UNL d   1      -6.948  -0.720   0.109  0.00  0.00     0.167 HD
ENDBRANCH  12  14
ENDBRANCH  11  12
ENDBRANCH  10  11
ENDBRANCH   9  10
ENDBRANCH   2   9
BRANCH   3  16
ATOM     16  C   UNL d   1      -0.130   2.144  -0.349  0.00  0.00     0.316 C 
BRANCH  16  17
ATOM     17  C   UNL d   1       0.612   2.871  -1.446  0.00  0.00     0.030 A 
ATOM     18  C   UNL d   1       0.399   2.639  -2.812  0.00  0.00     0.045 A 
ATOM     19 CL   UNL d   1      -0.628   1.370  -3.381  0.00  0.00    -0.084 Cl
ATOM     20  C   UNL d   1       1.019   3.440  -3.780  0.00  0.00     0.024 A 
ATOM     21  C   UNL d   1       1.881   4.469  -3.400  0.00  0.00     0.005 A 
ATOM     22  C   UNL d   1       2.148   4.676  -2.052  0.00  0.00     0.043 A 
ATOM     23  C   UNL d   1       1.520   3.881  -1.095  0.00  0.00     0.126 A 
ATOM     24  F   UNL d   1       1.808   4.102   0.197  0.00  0.00    -0.205 F 
ENDBRANCH  16  17
ENDBRANCH   3  16
TORSDOF 7
