REMARK  6 active torsions:
REMARK  status: ('A' for Active; 'I' for Inactive)
REMARK    1  A    between atoms: C_15  and  C_1 
REMARK    2  A    between atoms: S_8  and  C_2 
REMARK    3  A    between atoms: N_3  and  C_7 
REMARK    4  A    between atoms: C_16  and  S_8 
REMARK    5  A    between atoms: C_10  and  C_12 
REMARK    6  A    between atoms: C_12  and  C_16 
ROOT
ATOM      1  S   UNL d   1       2.127  -2.886  -0.963  0.00  0.00    -0.113 SA
ENDROOT
BRANCH   1   2
ATOM      2  C   UNL d   1       1.071  -1.591  -0.441  0.00  0.00     0.061 A 
ATOM      3  C   UNL d   1       0.488  -0.724  -1.298  0.00  0.00     0.027 A 
ATOM      4  C   UNL d   1      -0.323   0.372  -0.662  0.00  0.00     0.091 A 
ATOM      5  S   UNL d   1      -0.224   0.357   1.092  0.00  0.00    -0.039 SA
ATOM      6  S   UNL d   1      -1.244   1.545  -1.438  0.00  0.00    -0.071 SA
ATOM      7  S   UNL d   1       0.836  -1.359   1.272  0.00  0.00    -0.044 SA
BRANCH   3   8
ATOM      8  C   UNL d   1       0.608  -0.785  -2.768  0.00  0.00    -0.022 A 
ATOM      9  C   UNL d   1      -0.283  -1.566  -3.517  0.00  0.00     0.012 A 
ATOM     10  C   UNL d   1      -0.258  -1.517  -4.912  0.00  0.00     0.001 A 
ATOM     11  C   UNL d   1       0.659  -0.694  -5.566  0.00  0.00     0.000 A 
ATOM     12  C   UNL d   1       1.567   0.063  -4.828  0.00  0.00     0.001 A 
ATOM     13  C   UNL d   1       1.547   0.015  -3.433  0.00  0.00     0.012 A 
ENDBRANCH   3   8
ENDBRANCH   1   2
BRANCH   1  14
ATOM     14  C   UNL d   1       1.338  -4.343  -0.211  0.00  0.00     0.164 C 
BRANCH  14  15
ATOM     15  C   UNL d   1       2.189  -5.602  -0.337  0.00  0.00     0.169 C 
ATOM     16  O   UNL d   1       3.288  -5.638  -0.887  0.00  0.00    -0.291 OA
BRANCH  15  17
ATOM     17  C   UNL d   1       1.662  -6.871   0.267  0.00  0.00     0.013 A 
ATOM     18  C   UNL d   1       0.391  -6.957   0.848  0.00  0.00     0.051 A 
ATOM     19  C   UNL d   1      -0.042  -8.177   1.398  0.00  0.00     0.103 A 
ATOM     20  C   UNL d   1       0.780  -9.309   1.376  0.00  0.00     0.036 A 
ATOM     21  C   UNL d   1       2.044  -9.222   0.798  0.00  0.00     0.003 A 
ATOM     22  C   UNL d   1       2.481  -8.013   0.247  0.00  0.00     0.015 A 
BRANCH  19  23
ATOM     23  N   UNL d   1      -1.379  -8.259   2.003  0.00  0.00    -0.116 N 
ATOM     24  O   UNL d   1      -2.073  -7.234   1.998  0.00  0.00    -0.532 OA
ATOM     25  O   UNL d   1      -1.730  -9.347   2.482  0.00  0.00    -0.532 OA
ENDBRANCH  19  23
ENDBRANCH  15  17
ENDBRANCH  14  15
ENDBRANCH   1  14
TORSDOF 6
