REMARK  4 active torsions:
REMARK  status: ('A' for Active; 'I' for Inactive)
REMARK    1  A    between atoms: C_7  and  C_1 
REMARK    2  A    between atoms: C_19  and  C_6 
REMARK    3  A    between atoms: C_15  and  N_17 
REMARK    4  A    between atoms: N_17  and  C_19 
ROOT
ATOM      1  C   UNL d   1       0.801   1.349  -0.883  0.00  0.00     0.144 A 
ATOM      2  N   UNL d   1       1.891   0.505  -0.871  0.00  0.00    -0.321 N 
ATOM      3  HN  UNL d   1       2.860   0.713  -0.628  1.00  0.00     0.169 HD
ATOM      4  N   UNL d   1      -0.333   0.780  -1.318  0.00  0.00    -0.242 N 
ATOM      5  HN  UNL d   1      -1.248   1.213  -1.443  1.00  0.00     0.196 HD
ATOM      6  C   UNL d   1       1.360  -0.636  -1.254  0.00  0.00     0.176 A 
ATOM      7  O   UNL d   1       0.035  -0.543  -1.559  0.00  0.00    -0.221 OA
ENDROOT
BRANCH   6   8
ATOM      8  C   UNL d   1       1.977  -1.995  -1.310  0.00  0.00     0.356 C 
BRANCH   8   9
ATOM      9  N   UNL d   1       2.495  -2.366   0.014  0.00  0.00     0.096 N 
ATOM     10  H   UNL d   1       3.123  -1.622   0.325  0.00  0.00     0.316 HD
BRANCH   9  11
ATOM     11  C   UNL d   1       3.205  -3.646   0.031  0.00  0.00     0.229 C 
ATOM     12  C   UNL d   1       2.335  -4.897  -0.257  0.00  0.00     0.075 C 
ATOM     13  C   UNL d   1       3.105  -5.961   0.466  0.00  0.00    -0.050 A 
ATOM     14  C   UNL d   1       3.018  -7.336   0.316  0.00  0.00     0.007 A 
ATOM     15  C   UNL d   1       3.955  -5.397   1.422  0.00  0.00    -0.050 A 
ATOM     16  C   UNL d   1       3.808  -8.142   1.139  0.00  0.00     0.001 A 
ATOM     17  C   UNL d   1       4.658  -7.573   2.100  0.00  0.00     0.001 A 
ATOM     18  C   UNL d   1       4.729  -6.188   2.254  0.00  0.00     0.007 A 
ATOM     19  C   UNL d   1       3.831  -3.905   1.426  0.00  0.00     0.075 C 
ENDBRANCH   9  11
ENDBRANCH   8   9
ENDBRANCH   6   8
BRANCH   1  20
ATOM     20  C   UNL d   1       0.882   2.760  -0.392  0.00  0.00     0.050 A 
ATOM     21  S   UNL d   1      -0.457   3.813  -0.257  0.00  0.00    -0.098 SA
ATOM     22  C   UNL d   1       0.506   5.050   0.430  0.00  0.00     0.050 A 
ATOM     23  C   UNL d   1       1.831   4.682   0.521  0.00  0.00     0.009 A 
ATOM     24  C   UNL d   1       2.049   3.357   0.040  0.00  0.00     0.023 A 
ENDBRANCH   1  20
TORSDOF 4
