REMARK  4 active torsions:
REMARK  status: ('A' for Active; 'I' for Inactive)
REMARK    1  A    between atoms: N_3  and  S_1 
REMARK    2  A    between atoms: C_6  and  S_1 
REMARK    3  A    between atoms: C_2  and  N_8 
REMARK    4  A    between atoms: C_7  and  C_9 
ROOT
ATOM      1  N   UNL d   1       0.608   0.136  -1.609  0.00  0.00    -0.205 NA
ATOM      2  N   UNL d   1       0.624   0.852  -4.552  0.00  0.00    -0.216 N 
ATOM      3  C   UNL d   1       0.964   1.496  -2.170  0.00  0.00     0.128 C 
ATOM      4  C   UNL d   1       0.254   1.792  -3.499  0.00  0.00     0.157 C 
ATOM      5  C   UNL d   1       0.275  -1.413  -3.568  0.00  0.00     0.036 C 
ATOM      6  C   UNL d   1       1.207  -0.958  -2.450  0.00  0.00     0.109 C 
ATOM      7  C   UNL d   1      -0.117  -0.392  -4.634  0.00  0.00     0.142 C 
ENDROOT
BRANCH   1   8
ATOM      8  S   UNL d   1       1.065  -0.027   0.054  0.00  0.00     0.243 S 
ATOM      9  O   UNL d   1       2.438   0.422   0.162  0.00  0.00    -0.206 OA
ATOM     10  O   UNL d   1       0.668  -1.342   0.511  0.00  0.00    -0.206 OA
BRANCH   8  11
ATOM     11  C   UNL d   1       0.030   1.141   0.909  0.00  0.00     0.075 A 
ATOM     12  C   UNL d   1       0.612   2.162   1.673  0.00  0.00     0.034 A 
ATOM     13  C   UNL d   1      -0.236   3.018   2.355  0.00  0.00    -0.021 A 
ATOM     14  C   UNL d   1       0.080   4.195   3.196  0.00  0.00     0.068 C 
ATOM     15  C   UNL d   1      -1.613   2.875   2.268  0.00  0.00     0.075 A 
ATOM     16  C   UNL d   1      -1.301   4.441   3.808  0.00  0.00     0.180 C 
ATOM     17  O   UNL d   1      -2.310   3.814   2.981  0.00  0.00    -0.350 OA
ATOM     18  C   UNL d   1      -2.203   1.879   1.514  0.00  0.00     0.039 A 
ATOM     19  C   UNL d   1      -1.368   0.990   0.832  0.00  0.00     0.027 A 
ENDBRANCH   8  11
ENDBRANCH   1   8
BRANCH   2  20
ATOM     20  C   UNL d   1       1.663   1.126  -5.403  0.00  0.00     0.680 A 
ATOM     21  N   UNL d   1       1.954   0.255  -6.382  0.00  0.00    -0.186 N 
ATOM     22  C   UNL d   1       2.932   0.569  -7.275  0.00  0.00     0.133 A 
ATOM     23  HN  UNL d   1       1.449  -0.629  -6.456  1.00  0.00     0.184 HD
ATOM     24  C   UNL d   1       3.647   1.745  -7.184  0.00  0.00     0.052 A 
ATOM     25  C   UNL d   1       3.308   2.565  -6.142  0.00  0.00     0.108 A 
ATOM     26  N   UNL d   1       2.339   2.275  -5.253  0.00  0.00    -0.202 N 
ATOM     27  HN  UNL d   1       2.126   2.912  -4.485  1.00  0.00     0.183 HD
BRANCH  22  28
ATOM     28  C   UNL d   1       3.229  -0.385  -8.418  0.00  0.00     0.433 C 
ATOM     29  F   UNL d   1       2.461  -1.511  -8.432  0.00  0.00    -0.165 F 
ATOM     30  F   UNL d   1       3.051   0.201  -9.639  0.00  0.00    -0.165 F 
ATOM     31  F   UNL d   1       4.524  -0.817  -8.411  0.00  0.00    -0.165 F 
ENDBRANCH  22  28
ENDBRANCH   2  20
TORSDOF 4
