REMARK  2 active torsions:
REMARK  status: ('A' for Active; 'I' for Inactive)
REMARK    1  A    between atoms: C_6  and  C_1 
REMARK    2  A    between atoms: C_5  and  C_2 
ROOT
ATOM      1  C   UNL d   1       1.091   0.061  -0.115  0.00  0.00     0.012 C 
ATOM      2  C   UNL d   1       0.305   1.149  -0.075  0.00  0.00     0.012 C 
ENDROOT
BRANCH   2   3
ATOM      3  C   UNL d   1      -1.167   1.107  -0.073  0.00  0.00    -0.034 A 
ATOM      4  C   UNL d   1      -1.890   0.048   0.480  0.00  0.00     0.028 A 
ATOM      5  C   UNL d   1      -3.274   0.116   0.487  0.00  0.00     0.088 A 
ATOM      6  N   UNL d   1      -3.978   1.156  -0.004  0.00  0.00    -0.375 N 
ATOM      7  C   UNL d   1      -3.263   2.176  -0.522  0.00  0.00     0.088 A 
ATOM      8  HN  UNL d   1      -4.998   1.171   0.016  1.00  0.00     0.164 HD
ATOM      9  C   UNL d   1      -1.877   2.199  -0.576  0.00  0.00     0.028 A 
ENDBRANCH   2   3
BRANCH   1  10
ATOM     10  C   UNL d   1       2.563   0.083  -0.076  0.00  0.00    -0.036 A 
ATOM     11  C   UNL d   1       3.285   1.065   0.616  0.00  0.00     0.011 A 
ATOM     12  C   UNL d   1       4.680   1.007   0.685  0.00  0.00     0.001 A 
ATOM     13  C   UNL d   1       5.368  -0.037   0.073  0.00  0.00     0.000 A 
ATOM     14  C   UNL d   1       4.663  -1.023  -0.613  0.00  0.00     0.001 A 
ATOM     15  C   UNL d   1       3.269  -0.965  -0.683  0.00  0.00     0.011 A 
ENDBRANCH   1  10
TORSDOF 2
