REMARK  6 active torsions:
REMARK  status: ('A' for Active; 'I' for Inactive)
REMARK    1  A    between atoms: C_3  and  S_1 
REMARK    2  A    between atoms: O_4  and  S_1 
REMARK    3  A    between atoms: S_2  and  C_3 
REMARK    4  A    between atoms: O_5  and  S_2 
REMARK    5  A    between atoms: C_10  and  O_4 
REMARK    6  A    between atoms: C_11  and  O_5 
ROOT
ATOM      1  C   UNL d   1       0.505   1.394   0.851  0.00  0.00     0.341 C 
ENDROOT
BRANCH   1   2
ATOM      2  S   UNL d   1       0.944   1.332   2.542  0.00  0.00     0.285 S 
ATOM      3  O   UNL d   1       0.119   0.353   3.220  0.00  0.00    -0.197 OA
ATOM      4  O   UNL d   1       2.389   1.335   2.646  0.00  0.00    -0.197 OA
BRANCH   2   5
ATOM      5  O   UNL d   1       0.395   2.818   2.962  0.00  0.00    -0.232 OA
BRANCH   5   6
ATOM      6  C   UNL d   1       0.524   3.279   4.254  0.00  0.00     0.090 A 
ATOM      7  C   UNL d   1       1.512   2.849   5.143  0.00  0.00     0.057 A 
ATOM      8  C   UNL d   1       1.581   3.384   6.429  0.00  0.00     0.013 A 
ATOM      9 BR   UNL d   1       2.927   2.784   7.615  0.00  0.00    -0.051 Br
ATOM     10  C   UNL d   1       0.674   4.355   6.842  0.00  0.00     0.019 A 
ATOM     11  C   UNL d   1      -0.308   4.797   5.956  0.00  0.00     0.004 A 
ATOM     12  C   UNL d   1      -0.380   4.265   4.664  0.00  0.00     0.038 A 
ENDBRANCH   5   6
ENDBRANCH   2   5
ENDBRANCH   1   2
BRANCH   1  13
ATOM     13  S   UNL d   1       0.982  -0.095   0.049  0.00  0.00     0.285 S 
ATOM     14  O   UNL d   1       2.388  -0.356   0.269  0.00  0.00    -0.197 OA
ATOM     15  O   UNL d   1       0.453  -0.027  -1.304  0.00  0.00    -0.197 OA
BRANCH  13  16
ATOM     16  O   UNL d   1       0.075  -1.142   0.901  0.00  0.00    -0.232 OA
BRANCH  16  17
ATOM     17  C   UNL d   1       0.095  -2.497   0.691  0.00  0.00     0.090 A 
ATOM     18  C   UNL d   1       0.846  -3.158  -0.281  0.00  0.00     0.057 A 
ATOM     19  C   UNL d   1       0.741  -4.545  -0.407  0.00  0.00     0.013 A 
ATOM     20 BR   UNL d   1       1.745  -5.442  -1.736  0.00  0.00    -0.051 Br
ATOM     21  C   UNL d   1      -0.101  -5.278   0.428  0.00  0.00     0.019 A 
ATOM     22  C   UNL d   1      -0.838  -4.620   1.409  0.00  0.00     0.004 A 
ATOM     23  C   UNL d   1      -0.738  -3.234   1.540  0.00  0.00     0.038 A 
ENDBRANCH  16  17
ENDBRANCH  13  16
ENDBRANCH   1  13
TORSDOF 6
