REMARK  6 active torsions:
REMARK  status: ('A' for Active; 'I' for Inactive)
REMARK    1  A    between atoms: C_2  and  S_1 
REMARK    2  A    between atoms: N_8  and  S_1 
REMARK    3  A    between atoms: C_9  and  C_3 
REMARK       I    between atoms: N_16  and  C_9 
REMARK    4  A    between atoms: N_10  and  C_18 
REMARK    5  A    between atoms: C_21  and  N_16 
REMARK    6  A    between atoms: C_18  and  C_21 
ROOT
ATOM      1  C   UNL d   1       0.548  -1.615   0.624  0.00  0.00     0.186 A 
ATOM      2  C   UNL d   1      -0.522  -3.293   1.738  0.00  0.00     0.064 A 
ATOM      3  C   UNL d   1      -0.447  -1.881   1.561  0.00  0.00     0.070 A 
ATOM      4  O   UNL d   1       1.075  -2.818   0.221  0.00  0.00    -0.301 OA
ATOM      5  C   UNL d   1       0.436  -3.812   0.886  0.00  0.00     0.066 A 
ATOM      6  C   UNL d   1       0.866  -5.189   0.554  0.00  0.00     0.078 C 
ENDROOT
BRANCH   2   7
ATOM      7  C   UNL d   1      -1.377  -4.084   2.611  0.00  0.00     0.254 C 
ATOM      8  O   UNL d   1      -1.064  -5.205   2.998  0.00  0.00    -0.268 OA
ATOM      9  N   UNL d   1      -2.560  -3.476   2.956  0.00  0.00    -0.355 N 
ATOM     10  H   UNL d   1      -2.784  -2.555   2.607  0.00  0.00     0.162 HD
BRANCH   9  11
ATOM     11  C   UNL d   1      -3.522  -4.092   3.857  0.00  0.00     0.143 C 
BRANCH  11  12
ATOM     12  C   UNL d   1      -3.311  -3.650   5.312  0.00  0.00     0.147 C 
BRANCH  12  13
ATOM     13  N   UNL d   1      -3.424  -2.207   5.466  0.00  0.00    -0.331 N 
ATOM     14  C   UNL d   1      -4.613  -1.501   5.298  0.00  0.00     0.318 C 
ATOM     15  N   UNL d   1      -4.384  -0.199   5.718  0.00  0.00    -0.341 N 
ATOM     16  O   UNL d   1      -5.665  -1.919   4.851  0.00  0.00    -0.247 OA
ATOM     17  C   UNL d   1      -2.990  -0.000   6.007  0.00  0.00     0.144 C 
ATOM     18  H   UNL d   1      -5.068   0.520   5.525  0.00  0.00     0.164 HD
ATOM     19  C   UNL d   1      -2.480  -1.419   6.227  0.00  0.00     0.147 C 
ENDBRANCH  12  13
ENDBRANCH  11  12
ENDBRANCH   9  11
ENDBRANCH   2   7
BRANCH   1  20
ATOM     20  S   UNL d   1       1.153  -0.060  -0.023  0.00  0.00     0.266 S 
ATOM     21  O   UNL d   1       1.710   0.627   1.123  0.00  0.00    -0.204 OA
ATOM     22  O   UNL d   1       0.028   0.490  -0.750  0.00  0.00    -0.204 OA
BRANCH  20  23
ATOM     23  N   UNL d   1       2.412  -0.382  -1.130  0.00  0.00    -0.205 NA
ATOM     24  C   UNL d   1       3.638  -0.986  -0.556  0.00  0.00     0.107 C 
ATOM     25  C   UNL d   1       4.583   0.186  -0.381  0.00  0.00     0.017 C 
ATOM     26  C   UNL d   1       4.310   1.032  -1.609  0.00  0.00     0.017 C 
ATOM     27  C   UNL d   1       2.837   0.795  -1.936  0.00  0.00     0.107 C 
ENDBRANCH  20  23
ENDBRANCH   1  20
TORSDOF 6
