REMARK  5 active torsions:
REMARK  status: ('A' for Active; 'I' for Inactive)
REMARK    1  A    between atoms: O_9  and  C_1 
REMARK    2  A    between atoms: C_2  and  C_7 
REMARK       I    between atoms: N_4  and  C_2 
REMARK    3  A    between atoms: C_21  and  N_4 
REMARK    4  A    between atoms: C_20  and  O_9 
REMARK    5  A    between atoms: C_19  and  C_21 
ROOT
ATOM      1  C   UNL d   1       1.954   0.382  -6.383  0.00  0.00     0.251 C 
ATOM      2  N   UNL d   1       1.160   0.319  -7.508  0.00  0.00    -0.353 N 
ATOM      3  O   UNL d   1       1.553   0.062  -5.265  0.00  0.00    -0.268 OA
ATOM      4  H   UNL d   1       1.496   0.651  -8.402  0.00  0.00     0.163 HD
ENDROOT
BRANCH   1   5
ATOM      5  C   UNL d   1       3.343   0.893  -6.535  0.00  0.00     0.032 A 
ATOM      6  C   UNL d   1       3.932   1.500  -5.416  0.00  0.00     0.020 A 
ATOM      7  C   UNL d   1       5.237   1.995  -5.470  0.00  0.00     0.038 A 
ATOM      8  C   UNL d   1       5.964   1.918  -6.654  0.00  0.00     0.078 A 
ATOM      9  C   UNL d   1       5.405   1.252  -7.753  0.00  0.00     0.038 A 
ATOM     10  C   UNL d   1       4.099   0.744  -7.701  0.00  0.00     0.020 A 
BRANCH   8  11
ATOM     11  O   UNL d   1       7.237   2.368  -6.824  0.00  0.00    -0.255 OA
BRANCH  11  12
ATOM     12  C   UNL d   1       7.635   3.581  -6.191  0.00  0.00     0.530 C 
ATOM     13  F   UNL d   1       6.677   4.168  -5.444  0.00  0.00    -0.144 F 
ATOM     14  F   UNL d   1       8.012   4.462  -7.144  0.00  0.00    -0.144 F 
ATOM     15  F   UNL d   1       8.704   3.335  -5.402  0.00  0.00    -0.144 F 
ENDBRANCH  11  12
ENDBRANCH   8  11
ENDBRANCH   1   5
BRANCH   2  16
ATOM     16  C   UNL d   1      -0.188  -0.206  -7.438  0.00  0.00     0.161 C 
BRANCH  16  17
ATOM     17  C   UNL d   1      -1.232   0.779  -7.906  0.00  0.00    -0.038 A 
ATOM     18  C   UNL d   1      -2.048   0.473  -9.009  0.00  0.00     0.048 A 
ATOM     19  C   UNL d   1      -3.064   1.349  -9.335  0.00  0.00     0.105 A 
ATOM     20  O   UNL d   1      -3.959   1.183 -10.346  0.00  0.00    -0.323 OA
ATOM     21  C   UNL d   1      -3.286   2.502  -8.623  0.00  0.00     0.105 A 
ATOM     22  C   UNL d   1      -4.790   2.350 -10.167  0.00  0.00     0.352 A 
ATOM     23  O   UNL d   1      -4.349   3.207  -9.093  0.00  0.00    -0.323 OA
ATOM     24  C   UNL d   1      -2.499   2.849  -7.546  0.00  0.00     0.040 A 
ATOM     25  C   UNL d   1      -1.464   1.975  -7.186  0.00  0.00     0.012 A 
ENDBRANCH  16  17
ENDBRANCH   2  16
TORSDOF 5
