REMARK  5 active torsions:
REMARK  status: ('A' for Active; 'I' for Inactive)
REMARK    1  A    between atoms: C_4  and  C_1 
REMARK       I    between atoms: N_7  and  C_1 
REMARK       I    between atoms: C_2  and  N_8 
REMARK    2  A    between atoms: C_3  and  C_2 
REMARK    3  A    between atoms: C_5  and  C_6 
REMARK    4  A    between atoms: C_10  and  N_7 
REMARK    5  A    between atoms: N_8  and  C_9 
ROOT
ATOM      1  C   UNL d   1      -3.273   0.683   0.610  0.00  0.00     0.052 A 
ATOM      2  C   UNL d   1      -3.049   1.296  -1.744  0.00  0.00     0.037 A 
ATOM      3  C   UNL d   1      -1.078   1.097  -0.338  0.00  0.00     0.037 A 
ATOM      4  C   UNL d   1      -1.884   0.767   0.750  0.00  0.00     0.046 A 
ATOM      5  C   UNL d   1      -3.845   0.934  -0.649  0.00  0.00     0.046 A 
ATOM      6  C   UNL d   1      -1.671   1.429  -1.561  0.00  0.00     0.059 A 
ENDROOT
BRANCH   2   7
ATOM      7  N   UNL d   1      -3.683   1.397  -3.003  0.00  0.00    -0.323 N 
ATOM      8  C   UNL d   1      -3.076   1.669  -4.223  0.00  0.00     0.262 C 
ATOM      9  O   UNL d   1      -1.947   2.130  -4.347  0.00  0.00    -0.267 OA
ATOM     10  H   UNL d   1      -4.664   1.139  -3.018  0.00  0.00     0.169 HD
BRANCH   8  11
ATOM     11  C   UNL d   1      -3.865   1.355  -5.450  0.00  0.00     0.109 A 
ATOM     12  C   UNL d   1      -5.198   0.939  -5.406  0.00  0.00     0.135 A 
ATOM     13  F   UNL d   1      -5.855   0.846  -4.239  0.00  0.00    -0.205 F 
ATOM     14  C   UNL d   1      -5.897   0.595  -6.566  0.00  0.00     0.043 A 
ATOM     15  C   UNL d   1      -5.266   0.662  -7.805  0.00  0.00     0.006 A 
ATOM     16  C   UNL d   1      -3.941   1.080  -7.873  0.00  0.00     0.043 A 
ATOM     17  C   UNL d   1      -3.251   1.422  -6.707  0.00  0.00     0.135 A 
ATOM     18  F   UNL d   1      -1.970   1.793  -6.848  0.00  0.00    -0.205 F 
ENDBRANCH   8  11
ENDBRANCH   2   7
BRANCH   3  19
ATOM     19  N   UNL d   1       0.331   1.052  -0.295  0.00  0.00    -0.323 N 
ATOM     20  C   UNL d   1       1.067   0.272   0.584  0.00  0.00     0.262 C 
ATOM     21  O   UNL d   1       0.595  -0.444   1.459  0.00  0.00    -0.267 OA
ATOM     22  H   UNL d   1       0.811   1.423  -1.109  0.00  0.00     0.169 HD
BRANCH  20  23
ATOM     23  C   UNL d   1       2.541   0.282   0.400  0.00  0.00     0.109 A 
ATOM     24  C   UNL d   1       3.368  -0.094   1.465  0.00  0.00     0.135 A 
ATOM     25  F   UNL d   1       2.861  -0.437   2.656  0.00  0.00    -0.205 F 
ATOM     26  C   UNL d   1       4.755  -0.102   1.329  0.00  0.00     0.043 A 
ATOM     27  C   UNL d   1       5.343   0.265   0.120  0.00  0.00     0.006 A 
ATOM     28  C   UNL d   1       4.532   0.629  -0.953  0.00  0.00     0.043 A 
ATOM     29  C   UNL d   1       3.144   0.634  -0.808  0.00  0.00     0.135 A 
ATOM     30  F   UNL d   1       2.404   0.984  -1.871  0.00  0.00    -0.205 F 
ENDBRANCH  20  23
ENDBRANCH   3  19
BRANCH   1  31
ATOM     31  C   UNL d   1      -4.137   0.271   1.774  0.00  0.00     0.417 C 
ATOM     32  F   UNL d   1      -3.452   0.057   2.930  0.00  0.00    -0.166 F 
ATOM     33  F   UNL d   1      -5.083   1.206   2.072  0.00  0.00    -0.166 F 
ATOM     34  F   UNL d   1      -4.822  -0.880   1.526  0.00  0.00    -0.166 F 
ENDBRANCH   1  31
TORSDOF 5
