REMARK  7 active torsions:
REMARK  status: ('A' for Active; 'I' for Inactive)
REMARK    1  A    between atoms: C_7  and  C_1 
REMARK    2  A    between atoms: C_9  and  N_2 
REMARK       I    between atoms: N_13  and  C_7 
REMARK    3  A    between atoms: C_8  and  C_18 
REMARK    4  A    between atoms: C_28  and  N_13 
REMARK    5  A    between atoms: C_18  and  S_23 
REMARK    6  A    between atoms: S_23  and  C_29 
REMARK    7  A    between atoms: C_29  and  C_28 
ROOT
ATOM      1  C   UNL d   1      -0.790   2.585   0.054  0.00  0.00     0.255 C 
ATOM      2  O   UNL d   1      -0.005   3.528   0.135  0.00  0.00    -0.268 OA
ATOM      3  N   UNL d   1      -2.149   2.794  -0.018  0.00  0.00    -0.356 N 
ATOM      4  H   UNL d   1      -2.799   2.025   0.045  0.00  0.00     0.162 HD
ENDROOT
BRANCH   1   5
ATOM      5  C   UNL d   1      -0.339   1.199   0.013  0.00  0.00     0.073 A 
ATOM      6  C   UNL d   1       0.990   0.793   0.028  0.00  0.00     0.048 A 
ATOM      7  N   UNL d   1       0.987  -0.593  -0.031  0.00  0.00    -0.260 N 
ATOM      8  C   UNL d   1       2.204   1.661  -0.015  0.00  0.00     0.071 C 
ATOM      9  N   UNL d   1      -0.269  -1.073  -0.226  0.00  0.00    -0.304 N 
ATOM     10  C   UNL d   1      -1.057  -0.003  -0.123  0.00  0.00     0.126 A 
ATOM     11  HN  UNL d   1      -0.547  -2.037  -0.410  1.00  0.00     0.186 HD
BRANCH   7  12
ATOM     12  C   UNL d   1       2.084  -1.497   0.024  0.00  0.00     0.056 A 
ATOM     13  C   UNL d   1       3.235  -1.195   0.775  0.00  0.00     0.034 A 
ATOM     14  C   UNL d   1       4.342  -2.044   0.726  0.00  0.00     0.044 A 
ATOM     15  C   UNL d   1       4.292  -3.196  -0.048  0.00  0.00     0.116 A 
ATOM     16  C   UNL d   1       3.140  -3.541  -0.746  0.00  0.00     0.044 A 
ATOM     17  F   UNL d   1       5.369  -3.989  -0.116  0.00  0.00    -0.206 F 
ATOM     18  C   UNL d   1       2.024  -2.699  -0.697  0.00  0.00     0.034 A 
ENDBRANCH   7  12
ENDBRANCH   1   5
BRANCH   3  19
ATOM     19  C   UNL d   1      -2.658   4.152   0.002  0.00  0.00     0.133 C 
BRANCH  19  20
ATOM     20  C   UNL d   1      -4.180   4.233   0.098  0.00  0.00     0.093 C 
BRANCH  20  21
ATOM     21  S   UNL d   1      -4.864   3.333   1.538  0.00  0.00    -0.163 SA
BRANCH  21  22
ATOM     22  C   UNL d   1      -4.091   4.287   2.886  0.00  0.00     0.117 C 
BRANCH  22  23
ATOM     23  C   UNL d   1      -4.380   3.695   4.237  0.00  0.00     0.011 A 
ATOM     24  C   UNL d   1      -3.589   2.693   4.819  0.00  0.00     0.044 A 
ATOM     25 CL   UNL d   1      -2.220   2.019   4.003  0.00  0.00    -0.084 Cl
ATOM     26  C   UNL d   1      -3.879   2.206   6.099  0.00  0.00     0.024 A 
ATOM     27  C   UNL d   1      -4.971   2.702   6.811  0.00  0.00     0.005 A 
ATOM     28  C   UNL d   1      -5.778   3.679   6.238  0.00  0.00     0.043 A 
ATOM     29  C   UNL d   1      -5.480   4.162   4.966  0.00  0.00     0.125 A 
ATOM     30  F   UNL d   1      -6.268   5.115   4.446  0.00  0.00    -0.205 F 
ENDBRANCH  22  23
ENDBRANCH  21  22
ENDBRANCH  20  21
ENDBRANCH  19  20
ENDBRANCH   3  19
TORSDOF 7
