REMARK  9 active torsions:
REMARK  status: ('A' for Active; 'I' for Inactive)
REMARK    1  A    between atoms: S_10  and  C_2 
REMARK    2  A    between atoms: C_16  and  C_7 
REMARK    3  A    between atoms: C_15  and  S_10 
REMARK    4  A    between atoms: C_11  and  O_20 
REMARK    5  A    between atoms: C_21  and  C_15 
REMARK    6  A    between atoms: S_18  and  C_16 
REMARK    7  A    between atoms: C_22  and  S_18 
REMARK    8  A    between atoms: O_20  and  C_23 
REMARK    9  A    between atoms: C_23  and  C_22 
ROOT
ATOM      1  O   UNL d   1      -0.148   0.374   1.116  0.00  0.00    -0.271 OA
ATOM      2  C   UNL d   1       0.464  -0.802   0.750  0.00  0.00     0.203 A 
ATOM      3  N   UNL d   1       0.580  -0.915  -0.557  0.00  0.00    -0.272 N 
ATOM      4  HN  UNL d   1       1.002  -1.694  -1.062  1.00  0.00     0.189 HD
ATOM      5  N   UNL d   1       0.025   0.214  -1.113  0.00  0.00    -0.280 N 
ATOM      6  HN  UNL d   1      -0.047   0.434  -2.107  1.00  0.00     0.189 HD
ATOM      7  C   UNL d   1      -0.394   0.952  -0.112  0.00  0.00     0.150 A 
ENDROOT
BRANCH   7   8
ATOM      8  C   UNL d   1      -1.011   2.299  -0.151  0.00  0.00     0.160 C 
BRANCH   8   9
ATOM      9  S   UNL d   1      -2.842   2.256  -0.203  0.00  0.00    -0.159 SA
BRANCH   9  10
ATOM     10  C   UNL d   1      -3.239   1.514   1.425  0.00  0.00     0.101 C 
BRANCH  10  11
ATOM     11  C   UNL d   1      -2.678   2.346   2.572  0.00  0.00     0.186 C 
BRANCH  11  12
ATOM     12  O   UNL d   1      -2.883   1.695   3.829  0.00  0.00    -0.349 OA
BRANCH  12  13
ATOM     13  C   UNL d   1      -2.310   2.348   4.897  0.00  0.00     0.090 A 
ATOM     14  C   UNL d   1      -2.968   2.300   6.136  0.00  0.00     0.069 A 
ATOM     15  C   UNL d   1      -2.432   2.948   7.254  0.00  0.00     0.050 A 
ATOM     16 CL   UNL d   1      -4.469   1.465   6.323  0.00  0.00    -0.081 Cl
ATOM     17  C   UNL d   1      -1.227   3.638   7.139  0.00  0.00     0.035 A 
ATOM     18  C   UNL d   1      -0.548   3.672   5.926  0.00  0.00     0.026 A 
ATOM     19 CL   UNL d   1      -0.561   4.447   8.501  0.00  0.00    -0.084 Cl
ATOM     20  C   UNL d   1      -1.081   3.020   4.814  0.00  0.00     0.040 A 
ENDBRANCH  12  13
ENDBRANCH  11  12
ENDBRANCH  10  11
ENDBRANCH   9  10
ENDBRANCH   8   9
ENDBRANCH   7   8
BRANCH   2  21
ATOM     21  S   UNL d   1       1.109  -1.979   1.849  0.00  0.00    -0.080 SA
BRANCH  21  22
ATOM     22  C   UNL d   1      -0.019  -1.849   3.258  0.00  0.00     0.121 C 
BRANCH  22  23
ATOM     23  C   UNL d   1       0.298  -2.896   4.302  0.00  0.00    -0.049 A 
ATOM     24  C   UNL d   1       1.242  -2.641   5.309  0.00  0.00     0.008 A 
ATOM     25  C   UNL d   1       1.555  -3.619   6.256  0.00  0.00     0.001 A 
ATOM     26  C   UNL d   1       0.935  -4.865   6.206  0.00  0.00     0.000 A 
ATOM     27  C   UNL d   1       0.004  -5.138   5.205  0.00  0.00     0.001 A 
ATOM     28  C   UNL d   1      -0.310  -4.160   4.257  0.00  0.00     0.008 A 
ENDBRANCH  22  23
ENDBRANCH  21  22
ENDBRANCH   2  21
TORSDOF 9
