REMARK  7 active torsions:
REMARK  status: ('A' for Active; 'I' for Inactive)
REMARK    1  A    between atoms: C_9  and  N_1 
REMARK    2  A    between atoms: S_8  and  C_2 
REMARK    3  A    between atoms: C_7  and  C_10 
REMARK    4  A    between atoms: C_17  and  S_8 
REMARK    5  A    between atoms: C_11  and  C_17 
REMARK       I    between atoms: N_12  and  C_11 
REMARK    6  A    between atoms: C_22  and  N_12 
REMARK    7  A    between atoms: O_28  and  C_23 
ROOT
ATOM      1  S   UNL d   1       2.302  -1.754  -1.165  0.00  0.00    -0.082 SA
ENDROOT
BRANCH   1   2
ATOM      2  C   UNL d   1       0.646  -1.318  -0.846  0.00  0.00     0.177 A 
ATOM      3  N   UNL d   1      -0.102  -0.346  -1.497  0.00  0.00    -0.219 N 
ATOM      4  N   UNL d   1      -1.214  -0.131  -0.742  0.00  0.00     0.001 NA
ATOM      5  N   UNL d   1      -1.191  -1.033   0.225  0.00  0.00    -0.006 NA
ATOM      6  N   UNL d   1      -0.043  -1.769   0.181  0.00  0.00    -0.264 N 
ATOM      7  HN  UNL d   1       0.227  -2.519   0.817  1.00  0.00     0.186 HD
BRANCH   3   8
ATOM      8  C   UNL d   1       0.066   0.346  -2.725  0.00  0.00     0.057 A 
ATOM      9  C   UNL d   1       0.883  -0.148  -3.747  0.00  0.00     0.034 A 
ATOM     10  C   UNL d   1       0.972   0.537  -4.963  0.00  0.00     0.039 A 
ATOM     11  C   UNL d   1       0.249   1.708  -5.158  0.00  0.00     0.065 A 
ATOM     12  C   UNL d   1      -0.565   2.216  -4.154  0.00  0.00     0.039 A 
ATOM     13  C   UNL d   1      -0.665   1.530  -2.940  0.00  0.00     0.034 A 
BRANCH  11  14
ATOM     14  O   UNL d   1       0.357   2.324  -6.367  0.00  0.00    -0.361 OA
ATOM     15  H   UNL d   1      -0.259   3.076  -6.391  0.00  0.00     0.217 HD
ENDBRANCH  11  14
ENDBRANCH   3   8
ENDBRANCH   1   2
BRANCH   1  16
ATOM     16  C   UNL d   1       2.443  -3.175  -0.046  0.00  0.00     0.185 C 
BRANCH  16  17
ATOM     17  C   UNL d   1       3.795  -3.865   0.001  0.00  0.00     0.231 C 
ATOM     18  N   UNL d   1       4.822  -3.309  -0.738  0.00  0.00    -0.327 N 
ATOM     19  H   UNL d   1       4.640  -2.404  -1.155  0.00  0.00     0.169 HD
ATOM     20  O   UNL d   1       3.901  -4.871   0.704  0.00  0.00    -0.272 OA
BRANCH  18  21
ATOM     21  C   UNL d   1       6.110  -3.861  -0.939  0.00  0.00     0.034 A 
ATOM     22  C   UNL d   1       6.465  -5.150  -0.532  0.00  0.00     0.030 A 
ATOM     23  C   UNL d   1       7.741  -5.663  -0.795  0.00  0.00     0.018 A 
ATOM     24  C   UNL d   1       8.692  -4.897  -1.472  0.00  0.00     0.048 A 
ATOM     25  C   UNL d   1       8.344  -3.598  -1.871  0.00  0.00     0.018 A 
ATOM     26  C   UNL d   1       7.062  -3.087  -1.611  0.00  0.00     0.030 A 
BRANCH  24  27
ATOM     27  C   UNL d   1      10.061  -5.458  -1.778  0.00  0.00     0.417 C 
ATOM     28  F   UNL d   1      10.233  -6.740  -1.357  0.00  0.00    -0.166 F 
ATOM     29  F   UNL d   1      10.330  -5.466  -3.114  0.00  0.00    -0.166 F 
ATOM     30  F   UNL d   1      11.062  -4.738  -1.200  0.00  0.00    -0.166 F 
ENDBRANCH  24  27
ENDBRANCH  18  21
ENDBRANCH  16  17
ENDBRANCH   1  16
TORSDOF 7
