REMARK  3 active torsions:
REMARK  status: ('A' for Active; 'I' for Inactive)
REMARK    1  A    between atoms: C_9  and  C_1 
REMARK    2  A    between atoms: C_7  and  C_10 
REMARK    3  A    between atoms: O_16  and  C_7 
ROOT
ATOM      1  C   UNL d   1      -0.627  -2.526  -0.051  0.00  0.00     0.017 A 
ATOM      2  C   UNL d   1      -1.460  -5.227  -0.139  0.00  0.00     0.039 A 
ATOM      3  C   UNL d   1      -1.466  -2.988  -1.078  0.00  0.00     0.017 A 
ATOM      4  C   UNL d   1      -0.223  -3.435   0.939  0.00  0.00     0.017 A 
ATOM      5  C   UNL d   1      -0.634  -4.771   0.895  0.00  0.00     0.018 A 
ATOM      6  C   UNL d   1      -1.879  -4.326  -1.125  0.00  0.00     0.018 A 
ENDROOT
BRANCH   1   7
ATOM      7  C   UNL d   1      -0.186  -1.137  -0.038  0.00  0.00     0.173 A 
ATOM      8  N   UNL d   1      -0.474  -0.143  -0.856  0.00  0.00    -0.278 N 
ATOM      9  N   UNL d   1       0.230   0.956  -0.405  0.00  0.00    -0.288 N 
ATOM     10  HN  UNL d   1      -1.096  -0.180  -1.664  1.00  0.00     0.189 HD
ATOM     11  C   UNL d   1       0.894   0.551   0.650  0.00  0.00     0.251 A 
ATOM     12  HN  UNL d   1       0.232   1.892  -0.810  1.00  0.00     0.188 HD
ATOM     13  O   UNL d   1       0.686  -0.759   0.954  0.00  0.00    -0.286 OA
ENDBRANCH   1   7
BRANCH   2  14
ATOM     14  C   UNL d   1      -1.844  -6.665  -0.140  0.00  0.00     0.292 C 
ATOM     15  O   UNL d   1      -1.479  -7.455   0.717  0.00  0.00    -0.259 OA
BRANCH  14  16
ATOM     16  O   UNL d   1      -2.627  -6.959  -1.207  0.00  0.00    -0.323 OA
ATOM     17  C   UNL d   1      -3.015  -8.332  -1.271  0.00  0.00     0.213 C 
ENDBRANCH  14  16
ENDBRANCH   2  14
TORSDOF 3
