REMARK  8 active torsions:
REMARK  status: ('A' for Active; 'I' for Inactive)
REMARK    1  A    between atoms: C_4  and  C_1 
REMARK    2  A    between atoms: N_2  and  C_4 
REMARK    3  A    between atoms: C_7  and  N_3 
REMARK    4  A    between atoms: C_13  and  C_7 
REMARK    5  A    between atoms: O_8  and  C_18 
REMARK    6  A    between atoms: C_14  and  O_8 
REMARK    7  A    between atoms: C_18  and  C_13 
REMARK    8  A    between atoms: O_24  and  C_13 
ROOT
ATOM      1  N   UNL d   1      -0.995   3.138  -0.313  0.00  0.00     0.096 N 
ATOM      2  N   UNL d   1      -3.815   2.161  -0.935  0.00  0.00     0.094 N 
ATOM      3  C   UNL d   1      -2.062   3.082   0.701  0.00  0.00     0.303 C 
ATOM      4  C   UNL d   1      -1.607   3.263  -1.651  0.00  0.00     0.303 C 
ATOM      5  C   UNL d   1      -2.748   2.258  -1.955  0.00  0.00     0.302 C 
ATOM      6  C   UNL d   1      -3.189   2.059   0.406  0.00  0.00     0.302 C 
ENDROOT
BRANCH   2   7
ATOM      7  C   UNL d   1      -4.771   3.280  -0.985  0.00  0.00     0.306 C 
BRANCH   7   8
ATOM      8  C   UNL d   1      -5.691   3.363  -2.230  0.00  0.00     0.170 C 
BRANCH   8   9
ATOM      9  C   UNL d   1      -6.490   2.071  -2.498  0.00  0.00     0.209 C 
BRANCH   9  10
ATOM     10  O   UNL d   1      -7.261   2.261  -3.695  0.00  0.00    -0.349 OA
BRANCH  10  11
ATOM     11  C   UNL d   1      -8.039   1.224  -4.131  0.00  0.00     0.069 A 
ATOM     12  C   UNL d   1      -8.170  -0.021  -3.513  0.00  0.00     0.040 A 
ATOM     13  C   UNL d   1      -9.002  -0.998  -4.075  0.00  0.00     0.045 A 
ATOM     14  C   UNL d   1      -9.696  -0.726  -5.247  0.00  0.00     0.116 A 
ATOM     15  C   UNL d   1      -9.580   0.505  -5.873  0.00  0.00     0.045 A 
ATOM     16  F   UNL d   1     -10.490  -1.669  -5.779  0.00  0.00    -0.206 F 
ATOM     17  C   UNL d   1      -8.750   1.480  -5.311  0.00  0.00     0.040 A 
ENDBRANCH  10  11
ENDBRANCH   9  10
ENDBRANCH   8   9
BRANCH   8  18
ATOM     18  O   UNL d   1      -6.587   4.472  -2.028  0.00  0.00    -0.392 OA
ATOM     19  H   UNL d   1      -7.316   4.169  -1.457  0.00  0.00     0.210 HD
ENDBRANCH   8  18
ENDBRANCH   7   8
ENDBRANCH   2   7
BRANCH   1  20
ATOM     20  C   UNL d   1      -0.062   1.999  -0.243  0.00  0.00     0.316 C 
BRANCH  20  21
ATOM     21  C   UNL d   1       0.889   2.048   0.935  0.00  0.00     0.030 A 
ATOM     22  C   UNL d   1       0.884   0.997   1.864  0.00  0.00     0.126 A 
ATOM     23  F   UNL d   1       0.021  -0.020   1.716  0.00  0.00    -0.205 F 
ATOM     24  C   UNL d   1       1.764   0.956   2.945  0.00  0.00     0.043 A 
ATOM     25  C   UNL d   1       2.681   1.985   3.128  0.00  0.00     0.005 A 
ATOM     26  C   UNL d   1       2.715   3.040   2.218  0.00  0.00     0.024 A 
ATOM     27  C   UNL d   1       1.835   3.068   1.125  0.00  0.00     0.045 A 
ATOM     28 CL   UNL d   1       2.008   4.385   0.018  0.00  0.00    -0.084 Cl
ENDBRANCH  20  21
ENDBRANCH   1  20
TORSDOF 8
