REMARK  5 active torsions:
REMARK  status: ('A' for Active; 'I' for Inactive)
REMARK    1  A    between atoms: C_2  and  C_1 
REMARK    2  A    between atoms: C_3  and  C_1 
REMARK    3  A    between atoms: N_4  and  C_1 
REMARK    4  A    between atoms: N_5  and  C_1 
REMARK       I    between atoms: C_6  and  N_4 
REMARK    5  A    between atoms: C_9  and  N_5 
ROOT
ATOM      1  C   UNL d   1       0.834  -0.024   0.224  0.00  0.00     0.290 C 
ENDROOT
BRANCH   1   2
ATOM      2  C   UNL d   1       0.117  -0.058   1.622  0.00  0.00     0.435 C 
ATOM      3  F   UNL d   1      -1.030   0.645   1.703  0.00  0.00    -0.167 F 
ATOM      4  F   UNL d   1      -0.209  -1.329   1.986  0.00  0.00    -0.167 F 
ATOM      5  F   UNL d   1       0.934   0.421   2.599  0.00  0.00    -0.167 F 
ENDBRANCH   1   2
BRANCH   1   6
ATOM      6  C   UNL d   1       0.612   1.444  -0.314  0.00  0.00     0.435 C 
ATOM      7  F   UNL d   1      -0.131   2.262   0.452  0.00  0.00    -0.167 F 
ATOM      8  F   UNL d   1       1.831   2.062  -0.424  0.00  0.00    -0.167 F 
ATOM      9  F   UNL d   1       0.094   1.463  -1.567  0.00  0.00    -0.167 F 
ENDBRANCH   1   6
BRANCH   1  10
ATOM     10  N   UNL d   1       0.439  -1.077  -0.722  0.00  0.00    -0.324 N 
ATOM     11  C   UNL d   1      -0.862  -1.249  -1.092  0.00  0.00     0.215 C 
ATOM     12  O   UNL d   1      -1.756  -0.561  -0.631  0.00  0.00    -0.274 OA
ATOM     13  C   UNL d   1      -1.097  -2.358  -2.079  0.00  0.00     0.117 C 
ATOM     14  H   UNL d   1       1.197  -1.586  -1.153  0.00  0.00     0.165 HD
ENDBRANCH   1  10
BRANCH   1  15
ATOM     15  N   UNL d   1       2.343  -0.310   0.247  0.00  0.00    -0.251 NA
ATOM     16  H   UNL d   1       2.847   0.582   0.196  0.00  0.00     0.130 HD
BRANCH  15  17
ATOM     17  C   UNL d   1       2.929  -1.161   1.191  0.00  0.00     0.013 C 
ATOM     18  C   UNL d   1       2.338  -2.346   1.625  0.00  0.00     0.069 C 
ATOM     19  C   UNL d   1       2.941  -3.119   2.616  0.00  0.00     0.156 C 
ATOM     20  F   UNL d   1       2.307  -4.208   3.070  0.00  0.00    -0.203 F 
ATOM     21  C   UNL d   1       4.179  -2.764   3.129  0.00  0.00     0.154 C 
ATOM     22  C   UNL d   1       4.840  -1.651   2.631  0.00  0.00     0.047 C 
ATOM     23  F   UNL d   1       4.747  -3.496   4.094  0.00  0.00    -0.203 F 
ATOM     24  C   UNL d   1       4.222  -0.863   1.653  0.00  0.00     0.027 C 
ENDBRANCH  15  17
ENDBRANCH   1  15
TORSDOF 5
