REMARK  3 active torsions:
REMARK  status: ('A' for Active; 'I' for Inactive)
REMARK    1  A    between atoms: C_6  and  C_3 
REMARK    2  A    between atoms: C_7  and  C_4 
REMARK    3  A    between atoms: C_8  and  C_5 
ROOT
ATOM      1  N   UNL d   1      -1.312  -0.056  -0.017  0.00  0.00    -0.354 N 
ATOM      2  HN  UNL d   1      -2.332  -0.095  -0.021  1.00  0.00     0.166 HD
ATOM      3  C   UNL d   1      -0.655   1.127  -0.097  0.00  0.00     0.050 A 
ATOM      4  C   UNL d   1      -0.568  -1.188   0.068  0.00  0.00     0.050 A 
ATOM      5  C   UNL d   1       1.500   0.049  -0.003  0.00  0.00    -0.015 A 
ATOM      6  C   UNL d   1       0.734   1.214  -0.071  0.00  0.00     0.043 A 
ATOM      7  C   UNL d   1       0.824  -1.170   0.056  0.00  0.00     0.043 A 
ENDROOT
BRANCH   3   8
ATOM      8  C   UNL d   1      -1.521   2.315  -0.192  0.00  0.00     0.031 A 
ATOM      9  S   UNL d   1      -0.973   3.754  -0.968  0.00  0.00    -0.100 SA
ATOM     10  C   UNL d   1      -2.438   4.575  -0.668  0.00  0.00     0.050 A 
ATOM     11  C   UNL d   1      -3.346   3.780  -0.006  0.00  0.00     0.008 A 
ATOM     12  C   UNL d   1      -2.821   2.479   0.259  0.00  0.00     0.021 A 
ENDBRANCH   3   8
BRANCH   4  13
ATOM     13  C   UNL d   1      -1.343  -2.435   0.181  0.00  0.00     0.031 A 
ATOM     14  S   UNL d   1      -0.684  -3.820   0.969  0.00  0.00    -0.100 SA
ATOM     15  C   UNL d   1      -2.089  -4.747   0.699  0.00  0.00     0.050 A 
ATOM     16  C   UNL d   1      -3.058  -4.030   0.039  0.00  0.00     0.008 A 
ATOM     17  C   UNL d   1      -2.633  -2.699  -0.251  0.00  0.00     0.021 A 
ENDBRANCH   4  13
BRANCH   5  18
ATOM     18  C   UNL d   1       2.970   0.134   0.037  0.00  0.00     0.015 A 
ATOM     19  S   UNL d   1       3.949  -1.091  -0.672  0.00  0.00    -0.101 SA
ATOM     20  C   UNL d   1       5.396  -0.305  -0.223  0.00  0.00     0.050 A 
ATOM     21  C   UNL d   1       5.158   0.878   0.434  0.00  0.00     0.008 A 
ATOM     22  C   UNL d   1       3.763   1.131   0.582  0.00  0.00     0.020 A 
ENDBRANCH   5  18
TORSDOF 3
