REMARK  7 active torsions:
REMARK  status: ('A' for Active; 'I' for Inactive)
REMARK    1  A    between atoms: N_7  and  C_1 
REMARK    2  A    between atoms: N_11  and  C_2 
REMARK    3  A    between atoms: C_8  and  C_16 
REMARK    4  A    between atoms: C_23  and  N_11 
REMARK    5  A    between atoms: C_16  and  S_19 
REMARK    6  A    between atoms: S_19  and  C_24 
REMARK    7  A    between atoms: C_24  and  C_23 
ROOT
ATOM      1  N   UNL d   1       1.575  -2.290   0.104  0.00  0.00    -0.372 N 
ATOM      2  H   UNL d   1       2.577  -2.138   0.015  0.00  0.00     0.161 HD
ENDROOT
BRANCH   1   3
ATOM      3  C   UNL d   1       0.660  -1.274   0.011  0.00  0.00     0.153 A 
ATOM      4  C   UNL d   1      -0.731  -1.218  -0.011  0.00  0.00     0.171 A 
ATOM      5  C   UNL d   1      -1.083   0.148  -0.074  0.00  0.00     0.059 A 
ATOM      6  N   UNL d   1       0.002   0.925  -0.123  0.00  0.00    -0.299 N 
ATOM      7  C   UNL d   1      -2.444   0.738  -0.108  0.00  0.00     0.072 C 
ATOM      8  N   UNL d   1       1.038   0.057  -0.073  0.00  0.00    -0.279 N 
ATOM      9  HN  UNL d   1       0.041   1.942  -0.185  1.00  0.00     0.187 HD
ATOM     10  C   UNL d   1       2.367   0.620  -0.123  0.00  0.00     0.179 C 
BRANCH   4  11
ATOM     11  N   UNL d   1      -1.668  -2.288   0.024  0.00  0.00    -0.110 N 
ATOM     12  O   UNL d   1      -1.714  -3.030  -0.964  0.00  0.00    -0.532 OA
ATOM     13  O   UNL d   1      -2.400  -2.352   1.022  0.00  0.00    -0.532 OA
ENDBRANCH   4  11
ENDBRANCH   1   3
BRANCH   1  14
ATOM     14  C   UNL d   1       1.141  -3.680  -0.008  0.00  0.00     0.131 C 
BRANCH  14  15
ATOM     15  C   UNL d   1       2.279  -4.698  -0.036  0.00  0.00     0.093 C 
BRANCH  15  16
ATOM     16  S   UNL d   1       1.637  -6.421  -0.011  0.00  0.00    -0.163 SA
BRANCH  16  17
ATOM     17  C   UNL d   1       0.550  -6.383  -1.481  0.00  0.00     0.116 C 
BRANCH  17  18
ATOM     18  C   UNL d   1      -0.215  -7.669  -1.673  0.00  0.00    -0.005 A 
ATOM     19  C   UNL d   1      -1.522  -7.827  -1.166  0.00  0.00     0.042 A 
ATOM     20 CL   UNL d   1      -2.322  -6.587  -0.259  0.00  0.00    -0.084 Cl
ATOM     21  C   UNL d   1      -2.245  -9.005  -1.382  0.00  0.00     0.024 A 
ATOM     22  C   UNL d   1      -1.676 -10.057  -2.091  0.00  0.00     0.003 A 
ATOM     23  C   UNL d   1      -0.381  -9.931  -2.583  0.00  0.00     0.024 A 
ATOM     24  C   UNL d   1       0.344  -8.751  -2.378  0.00  0.00     0.042 A 
ATOM     25 CL   UNL d   1       1.939  -8.687  -3.046  0.00  0.00    -0.084 Cl
ENDBRANCH  17  18
ENDBRANCH  16  17
ENDBRANCH  15  16
ENDBRANCH  14  15
ENDBRANCH   1  14
TORSDOF 7
