REMARK  2 active torsions:
REMARK  status: ('A' for Active; 'I' for Inactive)
REMARK    1  A    between atoms: N_4  and  C_1 
REMARK    2  A    between atoms: N_12  and  C_3 
ROOT
ATOM      1  C   UNL d   1      -1.331  -1.533  -0.089  0.00  0.00     0.158 A 
ATOM      2  C   UNL d   1      -0.104  -0.819  -0.022  0.00  0.00     0.102 A 
ATOM      3  C   UNL d   1      -2.584  -0.863  -0.102  0.00  0.00     0.066 A 
ATOM      4  C   UNL d   1      -0.143   0.678   0.047  0.00  0.00     0.069 A 
ATOM      5  N   UNL d   1       1.151  -1.300   0.001  0.00  0.00    -0.308 N 
ATOM      6  HN  UNL d   1       1.424  -2.283  -0.014  1.00  0.00     0.176 HD
ATOM      7  S   UNL d   1       2.172   0.006   0.059  0.00  0.00     0.068 SA
ATOM      8  C   UNL d   1      -2.539   0.564   0.008  0.00  0.00     0.034 A 
ATOM      9  N   UNL d   1       1.071   1.246   0.087  0.00  0.00    -0.310 N 
ATOM     10  HN  UNL d   1       1.276   2.245   0.127  1.00  0.00     0.176 HD
ATOM     11  C   UNL d   1      -1.373   1.364   0.068  0.00  0.00     0.035 A 
ENDROOT
BRANCH   3  12
ATOM     12  N   UNL d   1      -3.820  -1.489  -0.210  0.00  0.00    -0.379 N 
ATOM     13  C   UNL d   1      -4.038  -2.772  -0.895  0.00  0.00     0.123 C 
ATOM     14  C   UNL d   1      -5.443  -2.648  -1.474  0.00  0.00     0.021 C 
ATOM     15  C   UNL d   1      -6.164  -1.819  -0.432  0.00  0.00     0.021 C 
ATOM     16  C   UNL d   1      -5.105  -0.799  -0.018  0.00  0.00     0.123 C 
ENDBRANCH   3  12
BRANCH   1  17
ATOM     17  N   UNL d   1      -1.191  -2.958  -0.061  0.00  0.00    -0.111 N 
ATOM     18  O   UNL d   1      -0.844  -3.512  -1.117  0.00  0.00    -0.532 OA
ATOM     19  O   UNL d   1      -1.449  -3.534   1.003  0.00  0.00    -0.532 OA
ENDBRANCH   1  17
TORSDOF 2
