REMARK  2 active torsions:
REMARK  status: ('A' for Active; 'I' for Inactive)
REMARK    1  A    between atoms: C_12  and  C_6 
REMARK    2  A    between atoms: C_13  and  C_7 
ROOT
ATOM      1  N   UNL d   1       0.842  -0.533   0.822  0.00  0.00    -0.348 N 
ATOM      2  HN  UNL d   1       1.311  -0.957   1.623  1.00  0.00     0.166 HD
ATOM      3  C   UNL d   1       0.178  -1.204  -0.101  0.00  0.00     0.091 A 
ATOM      4  S   UNL d   1      -0.783  -3.570  -1.223  0.00  0.00    -0.085 SA
ATOM      5  C   UNL d   1       0.057  -2.645  -0.048  0.00  0.00     0.039 A 
ATOM      6  C   UNL d   1       0.814   0.827   0.552  0.00  0.00     0.050 A 
ATOM      7  C   UNL d   1      -0.532  -5.046  -0.389  0.00  0.00     0.032 A 
ATOM      8  S   UNL d   1      -0.537  -0.225  -1.325  0.00  0.00    -0.081 SA
ATOM      9  C   UNL d   1       0.086   1.176  -0.569  0.00  0.00     0.082 A 
ATOM     10  C   UNL d   1       0.579  -3.468   0.932  0.00  0.00     0.023 A 
ATOM     11  C   UNL d   1       0.259  -4.843   0.728  0.00  0.00     0.023 A 
ENDROOT
BRANCH   6  12
ATOM     12  C   UNL d   1       1.493   1.786   1.416  0.00  0.00    -0.009 A 
ATOM     13  C   UNL d   1       1.954   3.021   0.930  0.00  0.00     0.017 A 
ATOM     14  C   UNL d   1       2.602   3.922   1.777  0.00  0.00     0.043 A 
ATOM     15  C   UNL d   1       2.796   3.591   3.113  0.00  0.00     0.116 A 
ATOM     16  C   UNL d   1       2.354   2.374   3.617  0.00  0.00     0.043 A 
ATOM     17  F   UNL d   1       3.418   4.455   3.922  0.00  0.00    -0.206 F 
ATOM     18  C   UNL d   1       1.705   1.472   2.770  0.00  0.00     0.017 A 
ENDBRANCH   6  12
BRANCH   7  19
ATOM     19  C   UNL d   1      -1.110  -6.305  -0.873  0.00  0.00     0.049 A 
ATOM     20  N   UNL d   1      -0.381  -7.409  -0.573  0.00  0.00    -0.365 N 
ATOM     21  C   UNL d   1      -0.895  -8.607  -0.931  0.00  0.00     0.088 A 
ATOM     22  HN  UNL d   1       0.518  -7.338  -0.097  1.00  0.00     0.165 HD
ATOM     23  C   UNL d   1      -2.117  -8.766  -1.561  0.00  0.00     0.017 A 
ATOM     24  C   UNL d   1      -2.854  -7.628  -1.858  0.00  0.00     0.004 A 
ATOM     25  C   UNL d   1      -2.345  -6.378  -1.516  0.00  0.00     0.031 A 
ENDBRANCH   7  19
TORSDOF 2
