REMARK  6 active torsions:
REMARK  status: ('A' for Active; 'I' for Inactive)
REMARK    1  A    between atoms: C_8  and  C_1 
REMARK    2  A    between atoms: S_9  and  C_3 
REMARK    3  A    between atoms: N_6  and  C_10 
REMARK    4  A    between atoms: O_18  and  C_8 
REMARK    5  A    between atoms: C_16  and  S_9 
REMARK    6  A    between atoms: C_19  and  C_16 
ROOT
ATOM      1  C   UNL d   1      -0.856  -0.982   0.142  0.00  0.00     0.127 A 
ATOM      2  N   UNL d   1      -1.093   0.368  -0.074  0.00  0.00    -0.326 N 
ATOM      3  C   UNL d   1       0.115   1.022   0.041  0.00  0.00     0.147 A 
ATOM      4  N   UNL d   1       1.095   0.193   0.302  0.00  0.00    -0.344 N 
ATOM      5  HN  UNL d   1       2.082   0.419   0.429  1.00  0.00     0.167 HD
ATOM      6  C   UNL d   1       0.511  -1.040   0.366  0.00  0.00     0.126 A 
ATOM      7  C   UNL d   1      -2.358   1.001  -0.370  0.00  0.00     0.159 C 
ENDROOT
BRANCH   3   8
ATOM      8  S   UNL d   1       0.302   2.740  -0.136  0.00  0.00    -0.089 SA
BRANCH   8   9
ATOM      9  C   UNL d   1       2.102   2.898   0.097  0.00  0.00     0.121 C 
BRANCH   9  10
ATOM     10  C   UNL d   1       2.570   4.336   0.003  0.00  0.00    -0.048 A 
ATOM     11  C   UNL d   1       2.610   5.151   1.147  0.00  0.00     0.010 A 
ATOM     12  C   UNL d   1       3.050   6.476   1.065  0.00  0.00     0.036 A 
ATOM     13  C   UNL d   1       3.452   6.996  -0.171  0.00  0.00     0.102 A 
ATOM     14  C   UNL d   1       3.417   6.199  -1.321  0.00  0.00     0.036 A 
ATOM     15  C   UNL d   1       2.974   4.875  -1.230  0.00  0.00     0.010 A 
BRANCH  13  16
ATOM     16  N   UNL d   1       3.910   8.389  -0.263  0.00  0.00    -0.116 N 
ATOM     17  O   UNL d   1       3.917   9.065   0.776  0.00  0.00    -0.532 OA
ATOM     18  O   UNL d   1       4.263   8.808  -1.375  0.00  0.00    -0.532 OA
ENDBRANCH  13  16
ENDBRANCH   9  10
ENDBRANCH   8   9
ENDBRANCH   3   8
BRANCH   1  19
ATOM     19  C   UNL d   1      -1.804  -2.071   0.140  0.00  0.00     0.311 C 
ATOM     20  O   UNL d   1      -3.006  -1.985  -0.068  0.00  0.00    -0.258 OA
BRANCH  19  21
ATOM     21  O   UNL d   1      -1.154  -3.240   0.412  0.00  0.00    -0.321 OA
ATOM     22  C   UNL d   1      -1.991  -4.398   0.453  0.00  0.00     0.213 C 
ENDBRANCH  19  21
ENDBRANCH   1  19
TORSDOF 6
