REMARK  5 active torsions:
REMARK  status: ('A' for Active; 'I' for Inactive)
REMARK    1  A    between atoms: S_3  and  N_1 
REMARK    2  A    between atoms: S_4  and  N_1 
REMARK    3  A    between atoms: C_5  and  S_3 
REMARK    4  A    between atoms: C_6  and  S_4 
REMARK    5  A    between atoms: O_21  and  C_15 
ROOT
ATOM      1  N   UNL d   1       1.131   0.192   0.015  0.00  0.00    -0.236 N 
ATOM      2  HN  UNL d   1       0.672  -0.009   0.904  1.00  0.00     0.189 HD
ENDROOT
BRANCH   1   3
ATOM      3  S   UNL d   1       0.210   0.873  -1.216  0.00  0.00     0.269 S 
ATOM      4  O   UNL d   1      -1.174   0.931  -0.776  0.00  0.00    -0.200 OA
ATOM      5  O   UNL d   1       0.877   2.075  -1.679  0.00  0.00    -0.200 OA
BRANCH   3   6
ATOM      6  C   UNL d   1       0.282  -0.348  -2.499  0.00  0.00     0.080 A 
ATOM      7  C   UNL d   1      -0.181  -1.642  -2.239  0.00  0.00     0.028 A 
ATOM      8  C   UNL d   1      -0.001  -2.643  -3.197  0.00  0.00     0.038 A 
ATOM      9  C   UNL d   1       0.632  -2.347  -4.407  0.00  0.00     0.068 A 
ATOM     10  C   UNL d   1       1.024  -1.034  -4.683  0.00  0.00     0.038 A 
ATOM     11  C   UNL d   1       0.853  -0.028  -3.732  0.00  0.00     0.028 A 
BRANCH   9  12
ATOM     12  O   UNL d   1       0.875  -3.251  -5.405  0.00  0.00    -0.356 OA
ATOM     13  C   UNL d   1       1.162  -4.576  -4.969  0.00  0.00     0.210 C 
ENDBRANCH   9  12
ENDBRANCH   3   6
ENDBRANCH   1   3
BRANCH   1  14
ATOM     14  S   UNL d   1       2.739  -0.171  -0.131  0.00  0.00     0.061 S 
ATOM     15  O   UNL d   1       3.061  -0.923  -1.316  0.00  0.00    -0.244 OA
ATOM     16  C   UNL d   1       3.655   1.345  -0.035  0.00  0.00     0.143 C 
BRANCH  14  17
ATOM     17  C   UNL d   1       3.084  -1.104   1.308  0.00  0.00     0.038 A 
ATOM     18  C   UNL d   1       3.538  -2.416   1.186  0.00  0.00     0.022 A 
ATOM     19  C   UNL d   1       3.780  -3.165   2.339  0.00  0.00     0.008 A 
ATOM     20  C   UNL d   1       3.569  -2.607   3.608  0.00  0.00    -0.062 A 
ATOM     21  C   UNL d   1       3.111  -1.286   3.710  0.00  0.00     0.008 A 
ATOM     22  C   UNL d   1       3.824  -3.425   4.839  0.00  0.00     0.048 C 
ATOM     23  C   UNL d   1       2.865  -0.534   2.562  0.00  0.00     0.022 A 
ENDBRANCH  14  17
ENDBRANCH   1  14
TORSDOF 5
