REMARK  3 active torsions:
REMARK  status: ('A' for Active; 'I' for Inactive)
REMARK    1  A    between atoms: C4_7  and  C1_1 
REMARK    2  A    between atoms: C5_8  and  C2_4 
REMARK    3  A    between atoms: O2_10  and  C4_7 
ROOT
ATOM      1  C1  <1> d   1       1.243   0.841   0.290  0.00  0.00     0.114 A 
ATOM      2  N1  <1> d   1       1.331  -0.549   0.450  0.00  0.00    -0.344 N 
ATOM      3  H1  <1> d   1       2.106  -1.038   0.899  1.00  0.00     0.167 HD
ATOM      4  C2  <1> d   1       0.263  -1.133  -0.067  0.00  0.00     0.085 A 
ATOM      5  S1  <1> d   1      -0.911  -0.041  -0.714  0.00  0.00    -0.081 SA
ATOM      6  C3  <1> d   1       0.089   1.285  -0.320  0.00  0.00     0.088 A 
ENDROOT
BRANCH   4   7
ATOM      7  C5  <1> d   1       0.010  -2.587  -0.067  0.00  0.00    -0.002 A 
ATOM      8  C6  <1> d   1       0.524  -3.384   0.969  0.00  0.00     0.014 A 
ATOM      9  C9  <1> d   1       0.269  -4.759   1.013  0.00  0.00     0.001 A 
ATOM     10  C10 <1> d   1      -0.495  -5.361   0.016  0.00  0.00     0.000 A 
ATOM     11  C8  <1> d   1      -0.993  -4.593  -1.032  0.00  0.00     0.001 A 
ATOM     12  C7  <1> d   1      -0.738  -3.219  -1.075  0.00  0.00     0.014 A 
ENDBRANCH   4   7
BRANCH   1  13
ATOM     13  C4  <1> d   1       2.321   1.710   0.752  0.00  0.00     0.194 C 
ATOM     14  O1  <1> d   1       2.320   2.928   0.657  0.00  0.00    -0.645 OA
BRANCH  13  15
ATOM     15  O2  <1> d   1       3.345   1.008   1.305  0.00  0.00    -0.772 OA
ATOM     16  H2  <1> d   1       3.108   0.053   1.256  0.00  0.00     0.167 HD
ENDBRANCH  13  15
ENDBRANCH   1  13
TORSDOF 3
