REMARK  5 active torsions:
REMARK  status: ('A' for Active; 'I' for Inactive)
REMARK    1  A    between atoms: C_7  and  C_3 
REMARK    2  A    between atoms: O_16  and  C_9 
REMARK    3  A    between atoms: O_12  and  C_10 
REMARK    4  A    between atoms: C_15  and  O_12 
REMARK    5  A    between atoms: C_18  and  C_15 
ROOT
ATOM      1  C   UNL d   1       2.755  -2.507   0.417  0.00  0.00    -0.018 A 
ATOM      2  C   UNL d   1       2.875  -2.563   1.821  0.00  0.00     0.050 A 
ATOM      3  C   UNL d   1       3.639  -3.550   2.448  0.00  0.00     0.102 A 
ATOM      4  C   UNL d   1       4.287  -4.513   1.657  0.00  0.00     0.102 A 
ATOM      5  C   UNL d   1       3.472  -3.419  -0.358  0.00  0.00     0.013 A 
ATOM      6  C   UNL d   1       4.242  -4.405   0.259  0.00  0.00     0.040 A 
ENDROOT
BRANCH   1   7
ATOM      7  C   UNL d   1       1.811  -1.513  -0.219  0.00  0.00     0.196 C 
ATOM      8  N   UNL d   1       2.190  -0.175   0.109  0.00  0.00    -0.336 N 
ATOM      9  C   UNL d   1       1.332   0.874  -0.049  0.00  0.00     0.255 C 
ATOM     10  H   UNL d   1       3.166   0.073   0.029  0.00  0.00     0.164 HD
ATOM     11  C   UNL d   1      -0.108   0.551  -0.067  0.00  0.00     0.053 A 
ATOM     12  O   UNL d   1       1.742   2.026  -0.141  0.00  0.00    -0.268 OA
ATOM     13  C   UNL d   1      -1.065   1.566  -0.165  0.00  0.00     0.019 A 
ATOM     14  C   UNL d   1      -0.479  -0.791   0.070  0.00  0.00     0.026 A 
ATOM     15  C   UNL d   1      -2.418   1.240  -0.102  0.00  0.00     0.001 A 
ATOM     16  C   UNL d   1      -2.804  -0.089   0.068  0.00  0.00     0.002 A 
ATOM     17  C   UNL d   1      -1.840  -1.096   0.167  0.00  0.00     0.024 A 
ATOM     18  N   UNL d   1       0.478  -1.786   0.277  0.00  0.00    -0.267 NA
ATOM     19  H   UNL d   1       0.155  -2.720   0.047  0.00  0.00     0.130 HD
ENDBRANCH   1   7
BRANCH   3  20
ATOM     20  O   UNL d   1       3.731  -3.683   3.811  0.00  0.00    -0.353 OA
ATOM     21  C   UNL d   1       3.526  -2.498   4.574  0.00  0.00     0.210 C 
ENDBRANCH   3  20
BRANCH   4  22
ATOM     22  O   UNL d   1       4.943  -5.530   2.312  0.00  0.00    -0.344 OA
BRANCH  22  23
ATOM     23  C   UNL d   1       5.103  -6.730   1.552  0.00  0.00     0.214 C 
BRANCH  23  24
ATOM     24  C   UNL d   1       5.270  -7.958   2.417  0.00  0.00    -0.034 A 
ATOM     25  C   UNL d   1       4.762  -8.025   3.719  0.00  0.00     0.009 A 
ATOM     26  C   UNL d   1       4.840  -9.213   4.448  0.00  0.00     0.001 A 
ATOM     27  C   UNL d   1       5.418 -10.348   3.879  0.00  0.00     0.000 A 
ATOM     28  C   UNL d   1       5.923 -10.296   2.583  0.00  0.00     0.001 A 
ATOM     29  C   UNL d   1       5.848  -9.109   1.854  0.00  0.00     0.009 A 
ENDBRANCH  23  24
ENDBRANCH  22  23
ENDBRANCH   4  22
TORSDOF 5
