REMARK  3 active torsions:
REMARK  status: ('A' for Active; 'I' for Inactive)
REMARK    1  A    between atoms: N_9  and  N_6 
REMARK    2  A    between atoms: C_8  and  C_14 
REMARK    3  A    between atoms: O_20  and  C_12 
ROOT
ATOM      1  C   UNL d   1      -1.127   3.229  -0.367  0.00  0.00     0.128 C 
ATOM      2  C   UNL d   1       0.370   3.488  -0.132  0.00  0.00     0.275 C 
ATOM      3  N   UNL d   1       0.541   4.836  -0.390  0.00  0.00    -0.321 N 
ATOM      4  C   UNL d   1      -1.667   4.482  -0.928  0.00  0.00     0.024 A 
ATOM      5  C   UNL d   1      -0.643   5.420  -0.819  0.00  0.00     0.047 A 
ATOM      6  N   UNL d   1      -1.722   2.154   0.056  0.00  0.00    -0.295 N 
ATOM      7  HN  UNL d   1      -1.222   1.375   0.484  1.00  0.00     0.187 HD
ATOM      8  O   UNL d   1       1.192   2.690   0.240  0.00  0.00    -0.266 OA
ATOM      9  C   UNL d   1      -2.924   4.841  -1.384  0.00  0.00     0.016 A 
ATOM     10  C   UNL d   1      -0.865   6.756  -1.089  0.00  0.00     0.030 A 
ATOM     11  C   UNL d   1      -3.179   6.191  -1.615  0.00  0.00     0.001 A 
ATOM     12  C   UNL d   1      -2.159   7.144  -1.460  0.00  0.00     0.002 A 
ATOM     13  H   UNL d   1       1.426   5.303  -0.268  0.00  0.00     0.169 HD
ENDROOT
BRANCH   6  14
ATOM     14  N   UNL d   1      -3.104   2.161  -0.128  0.00  0.00    -0.310 N 
ATOM     15  C   UNL d   1      -3.735   2.808   0.809  0.00  0.00     0.121 C 
ATOM     16  HN  UNL d   1      -3.571   1.707  -0.913  1.00  0.00     0.186 HD
BRANCH  15  17
ATOM     17  C   UNL d   1      -5.171   3.129   0.674  0.00  0.00     0.015 A 
ATOM     18  C   UNL d   1      -5.817   4.194   1.323  0.00  0.00     0.080 A 
ATOM     19  C   UNL d   1      -7.166   4.446   1.010  0.00  0.00     0.039 A 
ATOM     20  C   UNL d   1      -7.854   3.699   0.053  0.00  0.00     0.022 A 
ATOM     21  C   UNL d   1      -7.189   2.688  -0.624  0.00  0.00     0.011 A 
ATOM     22  C   UNL d   1      -5.866   2.394  -0.312  0.00  0.00     0.034 A 
ATOM     23 BR   UNL d   1      -8.062   1.749  -2.010  0.00  0.00    -0.051 Br
BRANCH  18  24
ATOM     24  O   UNL d   1      -5.321   5.170   2.139  0.00  0.00    -0.355 OA
ATOM     25  C   UNL d   1      -4.248   4.912   3.025  0.00  0.00     0.210 C 
ENDBRANCH  18  24
ENDBRANCH  15  17
ENDBRANCH   6  14
TORSDOF 3
