REMARK  4 active torsions:
REMARK  status: ('A' for Active; 'I' for Inactive)
REMARK    1  A    between atoms: C_10  and  C_3 
REMARK    2  A    between atoms: O_15  and  C_7 
REMARK    3  A    between atoms: O_19  and  C_11 
REMARK    4  A    between atoms: O_20  and  C_16 
ROOT
ATOM      1  C   UNL d   1      -0.072   0.535   0.063  0.00  0.00     0.081 A 
ATOM      2  C   UNL d   1      -1.553   0.710   0.130  0.00  0.00     0.190 A 
ATOM      3  C   UNL d   1      -1.816  -1.690  -0.038  0.00  0.00     0.090 A 
ATOM      4  C   UNL d   1      -2.393  -0.490   0.019  0.00  0.00     0.094 A 
ATOM      5  C   UNL d   1       0.371  -0.807   0.029  0.00  0.00     0.095 A 
ATOM      6  O   UNL d   1      -0.463  -1.905   0.004  0.00  0.00    -0.309 OA
ATOM      7  C   UNL d   1       0.904   1.550   0.042  0.00  0.00     0.087 A 
ATOM      8  C   UNL d   1       1.731  -1.138   0.006  0.00  0.00     0.075 A 
ATOM      9  C   UNL d   1       2.273   1.182   0.011  0.00  0.00     0.074 A 
ATOM     10  C   UNL d   1       2.694  -0.143   0.000  0.00  0.00     0.073 A 
ATOM     11  O   UNL d   1      -2.146   1.769   0.269  0.00  0.00    -0.287 OA
ENDROOT
BRANCH   3  12
ATOM     12  C   UNL d   1      -2.643  -2.884  -0.210  0.00  0.00    -0.002 A 
ATOM     13  C   UNL d   1      -2.951  -3.324  -1.503  0.00  0.00     0.017 A 
ATOM     14  C   UNL d   1      -3.818  -4.402  -1.698  0.00  0.00     0.037 A 
ATOM     15  C   UNL d   1      -4.385  -5.050  -0.602  0.00  0.00     0.068 A 
ATOM     16  C   UNL d   1      -4.053  -4.635   0.689  0.00  0.00     0.037 A 
ATOM     17  C   UNL d   1      -3.193  -3.551   0.889  0.00  0.00     0.017 A 
BRANCH  15  18
ATOM     18  O   UNL d   1      -5.241  -6.115  -0.675  0.00  0.00    -0.356 OA
ATOM     19  C   UNL d   1      -6.051  -6.173  -1.845  0.00  0.00     0.210 C 
ENDBRANCH  15  18
ENDBRANCH   3  12
BRANCH   7  20
ATOM     20  O   UNL d   1       0.840   2.914   0.038  0.00  0.00    -0.355 OA
ATOM     21  C   UNL d   1      -0.370   3.639   0.008  0.00  0.00     0.210 C 
ENDBRANCH   7  20
BRANCH  10  22
ATOM     22  O   UNL d   1       3.987  -0.582  -0.022  0.00  0.00    -0.356 OA
ATOM     23  C   UNL d   1       5.006   0.412  -0.034  0.00  0.00     0.210 C 
ENDBRANCH  10  22
TORSDOF 4
