REMARK  4 active torsions:
REMARK  status: ('A' for Active; 'I' for Inactive)
REMARK    1  A    between atoms: C_10  and  N_3 
REMARK    2  A    between atoms: C_8  and  C_4 
REMARK    3  A    between atoms: O_9  and  C_8 
REMARK    4  A    between atoms: C_14  and  O_9 
ROOT
ATOM      1  N   UNL d   1      -0.170  -1.084  -0.242  0.00  0.00    -0.272 N 
ATOM      2  HN  UNL d   1      -0.399  -2.007  -0.610  1.00  0.00     0.189 HD
ATOM      3  N   UNL d   1       1.048  -0.593   0.114  0.00  0.00    -0.196 N 
ATOM      4  C   UNL d   1      -1.000  -0.051   0.012  0.00  0.00     0.149 A 
ATOM      5  N   UNL d   1       1.053   0.674   0.596  0.00  0.00    -0.281 N 
ATOM      6  HN  UNL d   1       1.843   1.221   0.938  1.00  0.00     0.189 HD
ATOM      7  C   UNL d   1      -0.233   1.031   0.513  0.00  0.00     0.058 A 
ATOM      8  C   UNL d   1      -0.645   2.398   0.905  0.00  0.00     0.072 C 
ENDROOT
BRANCH   4   9
ATOM      9  C   UNL d   1      -2.445  -0.102  -0.218  0.00  0.00     0.318 C 
ATOM     10  O   UNL d   1      -3.194   0.851  -0.037  0.00  0.00    -0.257 OA
BRANCH   9  11
ATOM     11  O   UNL d   1      -2.860  -1.365  -0.666  0.00  0.00    -0.272 OA
BRANCH  11  12
ATOM     12  C   UNL d   1      -4.208  -1.712  -0.865  0.00  0.00     0.096 A 
ATOM     13  C   UNL d   1      -5.260  -1.248  -0.082  0.00  0.00     0.064 A 
ATOM     14  C   UNL d   1      -6.537  -1.750  -0.323  0.00  0.00     0.052 A 
ATOM     15 CL   UNL d   1      -7.873  -1.226   0.621  0.00  0.00    -0.083 Cl
ATOM     16  C   UNL d   1      -6.709  -2.695  -1.327  0.00  0.00     0.111 A 
ATOM     17  N   UNL d   1      -5.699  -3.164  -2.099  0.00  0.00    -0.371 N 
ATOM     18  C   UNL d   1      -4.467  -2.664  -1.844  0.00  0.00     0.125 A 
ATOM     19  HN  UNL d   1      -5.858  -3.856  -2.832  1.00  0.00     0.164 HD
ENDBRANCH  11  12
ENDBRANCH   9  11
ENDBRANCH   4   9
BRANCH   3  20
ATOM     20  C   UNL d   1       2.248  -1.337  -0.035  0.00  0.00     0.074 A 
ATOM     21  C   UNL d   1       2.228  -2.609  -0.624  0.00  0.00     0.033 A 
ATOM     22  C   UNL d   1       3.424  -3.312  -0.797  0.00  0.00     0.002 A 
ATOM     23  C   UNL d   1       4.633  -2.756  -0.375  0.00  0.00     0.000 A 
ATOM     24  C   UNL d   1       4.654  -1.498   0.224  0.00  0.00     0.002 A 
ATOM     25  C   UNL d   1       3.466  -0.786   0.394  0.00  0.00     0.033 A 
ENDBRANCH   3  20
TORSDOF 4
