REMARK  8 active torsions:
REMARK  status: ('A' for Active; 'I' for Inactive)
REMARK    1  A    between atoms: C_2  and  S_1 
REMARK    2  A    between atoms: N_3  and  S_1 
REMARK    3  A    between atoms: C_4  and  C_15 
REMARK    4  A    between atoms: C_5  and  C_17 
REMARK    5  A    between atoms: O_12  and  C_7 
REMARK    6  A    between atoms: C_15  and  O_12 
REMARK    7  A    between atoms: O_25  and  C_16 
REMARK    8  A    between atoms: C_17  and  O_25 
ROOT
ATOM      1  C   UNL d   1       0.400   1.361  -1.094  0.00  0.00     0.116 A 
ATOM      2  C   UNL d   1      -0.672   1.215  -1.989  0.00  0.00     0.065 A 
ATOM      3  C   UNL d   1       1.043   2.604  -0.941  0.00  0.00     0.092 A 
ATOM      4  C   UNL d   1      -1.110   2.316  -2.725  0.00  0.00     0.070 A 
ATOM      5  C   UNL d   1       0.524   3.713  -1.623  0.00  0.00     0.041 A 
ATOM      6  C   UNL d   1      -0.544   3.567  -2.504  0.00  0.00     0.039 A 
ENDROOT
BRANCH   1   7
ATOM      7  S   UNL d   1       0.980  -0.014  -0.129  0.00  0.00     0.271 S 
ATOM      8  O   UNL d   1       0.813   0.314   1.274  0.00  0.00    -0.200 OA
ATOM      9  O   UNL d   1       2.237  -0.459  -0.701  0.00  0.00    -0.200 OA
BRANCH   7  10
ATOM     10  N   UNL d   1      -0.095  -1.321  -0.382  0.00  0.00    -0.258 N 
ATOM     11  C   UNL d   1      -1.271  -1.505   0.302  0.00  0.00     0.108 A 
ATOM     12  C   UNL d   1      -1.858  -2.655  -0.192  0.00  0.00     0.020 A 
ATOM     13  C   UNL d   1      -1.027  -3.136  -1.242  0.00  0.00     0.020 A 
ATOM     14  C   UNL d   1       0.040  -2.272  -1.360  0.00  0.00     0.108 A 
ENDBRANCH   7  10
ENDBRANCH   1   7
BRANCH   3  15
ATOM     15  O   UNL d   1       2.159   2.666  -0.145  0.00  0.00    -0.341 OA
BRANCH  15  16
ATOM     16  C   UNL d   1       2.926   3.881  -0.186  0.00  0.00     0.293 C 
BRANCH  16  17
ATOM     17  C   UNL d   1       4.284   3.762   0.498  0.00  0.00     0.408 C 
ATOM     18  F   UNL d   1       4.367   2.716   1.345  0.00  0.00    -0.169 F 
ATOM     19  F   UNL d   1       5.276   3.639  -0.415  0.00  0.00    -0.169 F 
ATOM     20  F   UNL d   1       4.545   4.884   1.214  0.00  0.00    -0.169 F 
ENDBRANCH  16  17
ENDBRANCH  15  16
ENDBRANCH   3  15
BRANCH   4  21
ATOM     21  O   UNL d   1      -2.114   2.285  -3.651  0.00  0.00    -0.342 OA
BRANCH  21  22
ATOM     22  C   UNL d   1      -2.198   1.081  -4.432  0.00  0.00     0.293 C 
BRANCH  22  23
ATOM     23  C   UNL d   1      -2.782   1.351  -5.816  0.00  0.00     0.408 C 
ATOM     24  F   UNL d   1      -2.878   2.667  -6.102  0.00  0.00    -0.169 F 
ATOM     25  F   UNL d   1      -2.006   0.788  -6.774  0.00  0.00    -0.169 F 
ATOM     26  F   UNL d   1      -4.017   0.813  -5.935  0.00  0.00    -0.169 F 
ENDBRANCH  22  23
ENDBRANCH  21  22
ENDBRANCH   4  21
TORSDOF 8
