REMARK  2 active torsions:
REMARK  status: ('A' for Active; 'I' for Inactive)
REMARK       I    between atoms: N_2  and  C_1 
REMARK    1  A    between atoms: C_3  and  C_1 
REMARK    2  A    between atoms: C_4  and  N_2 
ROOT
ATOM      1  C   UNL d   1       2.385   0.001   0.508  0.00  0.00     0.257 C 
ATOM      2  N   UNL d   1       3.052  -1.121   0.076  0.00  0.00    -0.309 N 
ATOM      3  O   UNL d   1       2.902   1.016   0.969  0.00  0.00    -0.267 OA
ATOM      4  H   UNL d   1       2.575  -1.809  -0.487  0.00  0.00     0.170 HD
ENDROOT
BRANCH   1   5
ATOM      5  C   UNL d   1       0.905  -0.008   0.343  0.00  0.00     0.032 A 
ATOM      6  C   UNL d   1       0.264   1.221   0.128  0.00  0.00     0.023 A 
ATOM      7  C   UNL d   1      -1.130   1.295   0.034  0.00  0.00    -0.061 A 
ATOM      8  C   UNL d   1      -1.816   2.613  -0.173  0.00  0.00     0.048 C 
ATOM      9  C   UNL d   1      -1.879   0.119   0.156  0.00  0.00     0.007 A 
ATOM     10  C   UNL d   1      -1.246  -1.108   0.369  0.00  0.00     0.002 A 
ATOM     11  C   UNL d   1       0.147  -1.176   0.465  0.00  0.00     0.017 A 
ENDBRANCH   1   5
BRANCH   2  12
ATOM     12  C   UNL d   1       4.437  -1.320   0.106  0.00  0.00     0.107 A 
ATOM     13  N   UNL d   1       4.866  -2.325  -0.687  0.00  0.00    -0.352 N 
ATOM     14  C   UNL d   1       6.203  -2.522  -0.766  0.00  0.00     0.089 A 
ATOM     15  HN  UNL d   1       4.211  -2.911  -1.204  1.00  0.00     0.166 HD
ATOM     16  C   UNL d   1       7.139  -1.782  -0.065  0.00  0.00     0.017 A 
ATOM     17  C   UNL d   1       6.676  -0.788   0.784  0.00  0.00     0.005 A 
ATOM     18  C   UNL d   1       5.306  -0.554   0.874  0.00  0.00     0.048 A 
ENDBRANCH   2  12
TORSDOF 2
