REMARK  7 active torsions:
REMARK  status: ('A' for Active; 'I' for Inactive)
REMARK       I    between atoms: C_2  and  N_1 
REMARK    1  A    between atoms: C_22  and  C_2 
REMARK    2  A    between atoms: C_16  and  N_3 
REMARK    3  A    between atoms: C_8  and  C_24 
REMARK    4  A    between atoms: O_21  and  C_8 
REMARK    5  A    between atoms: C_14  and  C_16 
REMARK    6  A    between atoms: C_23  and  C_22 
REMARK    7  A    between atoms: C_24  and  C_23 
ROOT
ATOM      1  N   UNL d   1      -1.463   0.075   0.287  0.00  0.00    -0.349 N 
ATOM      2  C   UNL d   1      -2.605   0.221   1.051  0.00  0.00     0.219 C 
ATOM      3  N   UNL d   1       1.427  -0.068  -0.224  0.00  0.00     0.095 N 
ATOM      4  C   UNL d   1      -0.843  -1.200  -0.091  0.00  0.00     0.156 C 
ATOM      5  C   UNL d   1      -0.743   1.267  -0.169  0.00  0.00     0.156 C 
ATOM      6  O   UNL d   1      -3.046   1.331   1.357  0.00  0.00    -0.273 OA
ATOM      7  C   UNL d   1       0.756   1.190   0.191  0.00  0.00     0.292 C 
ATOM      8  C   UNL d   1       0.646  -1.212   0.302  0.00  0.00     0.292 C 
ENDROOT
BRANCH   3   9
ATOM      9  C   UNL d   1       1.586  -0.103  -1.689  0.00  0.00     0.311 C 
BRANCH   9  10
ATOM     10  C   UNL d   1       2.295  -1.338  -2.201  0.00  0.00    -0.027 A 
ATOM     11  C   UNL d   1       1.635  -2.214  -3.080  0.00  0.00     0.048 A 
ATOM     12  C   UNL d   1       2.324  -3.318  -3.534  0.00  0.00     0.105 A 
ATOM     13  O   UNL d   1       1.838  -4.257  -4.389  0.00  0.00    -0.323 OA
ATOM     14  C   UNL d   1       3.618  -3.574  -3.149  0.00  0.00     0.105 A 
ATOM     15  C   UNL d   1       2.988  -5.117  -4.524  0.00  0.00     0.352 A 
ATOM     16  O   UNL d   1       4.111  -4.708  -3.716  0.00  0.00    -0.323 OA
ATOM     17  C   UNL d   1       4.295  -2.745  -2.283  0.00  0.00     0.040 A 
ATOM     18  C   UNL d   1       3.624  -1.615  -1.806  0.00  0.00     0.012 A 
ENDBRANCH   9  10
ENDBRANCH   3   9
BRANCH   2  19
ATOM     19  C   UNL d   1      -3.306  -1.052   1.498  0.00  0.00     0.103 C 
BRANCH  19  20
ATOM     20  C   UNL d   1      -4.585  -0.804   2.305  0.00  0.00     0.019 C 
BRANCH  20  21
ATOM     21  C   UNL d   1      -5.711  -0.120   1.525  0.00  0.00     0.110 C 
BRANCH  21  22
ATOM     22  C   UNL d   1      -6.154  -0.916   0.321  0.00  0.00     0.139 C 
ATOM     23  O   UNL d   1      -6.168  -2.136   0.264  0.00  0.00    -0.650 OA
BRANCH  22  24
ATOM     24  O   UNL d   1      -6.565  -0.141  -0.706  0.00  0.00    -0.776 OA
ATOM     25  H   UNL d   1      -6.496   0.818  -0.531  0.00  0.00     0.167 HD
ENDBRANCH  22  24
ENDBRANCH  21  22
ENDBRANCH  20  21
ENDBRANCH  19  20
ENDBRANCH   2  19
TORSDOF 7
