REMARK  5 active torsions:
REMARK  status: ('A' for Active; 'I' for Inactive)
REMARK    1  A    between atoms: C_7  and  C_1 
REMARK    2  A    between atoms: C_9  and  C_3 
REMARK       I    between atoms: N_11  and  C_7 
REMARK    3  A    between atoms: C_8  and  C_14 
REMARK       I    between atoms: C_10  and  N_12 
REMARK    4  A    between atoms: C_15  and  C_10 
REMARK    5  A    between atoms: N_12  and  N_11 
ROOT
ATOM      1  C   UNL d   1      -0.171  -2.446   0.127  0.00  0.00     0.279 C 
ATOM      2  N   UNL d   1       0.831  -3.403   0.202  0.00  0.00    -0.262 N 
ATOM      3  O   UNL d   1       0.124  -1.280  -0.146  0.00  0.00    -0.265 OA
ATOM      4  H   UNL d   1       0.655  -4.394   0.372  0.00  0.00     0.190 HD
ENDROOT
BRANCH   2   5
ATOM      5  N   UNL d   1       2.157  -3.023  -0.074  0.00  0.00    -0.263 N 
ATOM      6  C   UNL d   1       3.150  -3.980  -0.006  0.00  0.00     0.270 C 
ATOM      7  O   UNL d   1       2.925  -5.151   0.286  0.00  0.00    -0.266 OA
ATOM      8  H   UNL d   1       2.336  -2.022  -0.126  0.00  0.00     0.190 HD
BRANCH   6   9
ATOM      9  C   UNL d   1       4.542  -3.525  -0.294  0.00  0.00     0.033 A 
ATOM     10  C   UNL d   1       5.606  -4.197   0.321  0.00  0.00     0.018 A 
ATOM     11  C   UNL d   1       6.931  -3.846   0.034  0.00  0.00     0.017 A 
ATOM     12  C   UNL d   1       7.215  -2.826  -0.886  0.00  0.00     0.048 A 
ATOM     13  C   UNL d   1       6.144  -2.155  -1.500  0.00  0.00     0.017 A 
ATOM     14  C   UNL d   1       4.817  -2.499  -1.207  0.00  0.00     0.018 A 
BRANCH  12  15
ATOM     15  C   UNL d   1       8.642  -2.464  -1.237  0.00  0.00     0.417 C 
ATOM     16  F   UNL d   1       9.573  -3.186  -0.552  0.00  0.00    -0.166 F 
ATOM     17  F   UNL d   1       8.917  -2.660  -2.556  0.00  0.00    -0.166 F 
ATOM     18  F   UNL d   1       8.925  -1.156  -0.987  0.00  0.00    -0.166 F 
ENDBRANCH  12  15
ENDBRANCH   6   9
ENDBRANCH   2   5
BRANCH   1  19
ATOM     19  C   UNL d   1      -1.537  -2.883   0.383  0.00  0.00     0.098 A 
ATOM     20  S   UNL d   1      -1.937  -4.488   0.833  0.00  0.00    -0.064 SA
ATOM     21  C   UNL d   1      -3.601  -4.064   0.953  0.00  0.00     0.092 A 
ATOM     22  N   UNL d   1      -3.865  -2.807   0.653  0.00  0.00    -0.352 N 
ATOM     23  C   UNL d   1      -2.698  -2.125   0.330  0.00  0.00     0.029 A 
ATOM     24  HN  UNL d   1      -4.797  -2.393   0.658  1.00  0.00     0.166 HD
ATOM     25  C   UNL d   1      -2.810  -0.681  -0.022  0.00  0.00     0.070 C 
BRANCH  21  26
ATOM     26  C   UNL d   1      -4.653  -4.980   1.353  0.00  0.00     0.038 A 
ATOM     27  S   UNL d   1      -4.367  -6.621   1.784  0.00  0.00    -0.099 SA
ATOM     28  C   UNL d   1      -6.018  -6.913   2.109  0.00  0.00     0.050 A 
ATOM     29  C   UNL d   1      -6.790  -5.796   1.892  0.00  0.00     0.008 A 
ATOM     30  C   UNL d   1      -6.004  -4.686   1.457  0.00  0.00     0.022 A 
ENDBRANCH  21  26
ENDBRANCH   1  19
TORSDOF 5
