REMARK  3 active torsions:
REMARK  status: ('A' for Active; 'I' for Inactive)
REMARK       I    between atoms: C_2  and  N_1 
REMARK       I    between atoms: C_3  and  N_1 
REMARK       I    between atoms: N_5  and  C_2 
REMARK    1  A    between atoms: C_8  and  C_3 
REMARK    2  A    between atoms: C_4  and  C_7 
REMARK    3  A    between atoms: N_6  and  N_5 
ROOT
ATOM      1  N   UNL d   1      -0.960   0.908  -0.561  0.00  0.00    -0.274 N 
ATOM      2  C   UNL d   1       0.425   0.942  -0.558  0.00  0.00     0.341 C 
ATOM      3  C   UNL d   1      -1.839   1.788  -1.167  0.00  0.00     0.259 C 
ATOM      4  N   UNL d   1       0.993   1.896  -1.378  0.00  0.00    -0.254 N 
ATOM      5  O   UNL d   1       1.034   0.151   0.161  0.00  0.00    -0.245 OA
ATOM      6  O   UNL d   1      -1.500   2.633  -1.990  0.00  0.00    -0.267 OA
ATOM      7  H   UNL d   1      -1.317   0.172   0.027  0.00  0.00     0.173 HD
ATOM      8  H   UNL d   1       0.365   2.504  -1.910  0.00  0.00     0.191 HD
ENDROOT
BRANCH   3   9
ATOM      9  C   UNL d   1      -3.279   1.650  -0.805  0.00  0.00     0.032 A 
ATOM     10  C   UNL d   1      -3.687   1.248   0.472  0.00  0.00     0.018 A 
ATOM     11  C   UNL d   1      -5.049   1.221   0.797  0.00  0.00     0.017 A 
ATOM     12  C   UNL d   1      -6.021   1.602  -0.143  0.00  0.00     0.048 A 
ATOM     13  C   UNL d   1      -5.606   1.981  -1.428  0.00  0.00     0.017 A 
ATOM     14  C   UNL d   1      -4.245   2.013  -1.753  0.00  0.00     0.018 A 
BRANCH  12  15
ATOM     15  C   UNL d   1      -7.480   1.634   0.253  0.00  0.00     0.417 C 
ATOM     16  F   UNL d   1      -8.304   2.087  -0.732  0.00  0.00    -0.166 F 
ATOM     17  F   UNL d   1      -7.952   0.406   0.602  0.00  0.00    -0.166 F 
ATOM     18  F   UNL d   1      -7.704   2.441   1.327  0.00  0.00    -0.166 F 
ENDBRANCH  12  15
ENDBRANCH   3   9
BRANCH   4  19
ATOM     19  N   UNL d   1       2.384   2.086  -1.530  0.00  0.00    -0.324 N 
ATOM     20  C   UNL d   1       2.973   2.888  -0.463  0.00  0.00     0.142 C 
ATOM     21  C   UNL d   1       4.298   3.551  -0.856  0.00  0.00     0.021 C 
ATOM     22  C   UNL d   1       5.525   2.665  -0.684  0.00  0.00     0.002 C 
ATOM     23  C   UNL d   1       5.555   1.448  -1.596  0.00  0.00     0.002 C 
ATOM     24  C   UNL d   1       4.399   0.485  -1.355  0.00  0.00     0.021 C 
ATOM     25  C   UNL d   1       3.093   0.907  -2.031  0.00  0.00     0.142 C 
ENDBRANCH   4  19
TORSDOF 3
