REMARK  6 active torsions:
REMARK  status: ('A' for Active; 'I' for Inactive)
REMARK    1  A    between atoms: S_4  and  C_1 
REMARK    2  A    between atoms: C_3  and  C_2 
REMARK       I    between atoms: N_5  and  C_3 
REMARK    3  A    between atoms: C_12  and  S_4 
REMARK    4  A    between atoms: C_11  and  N_5 
REMARK    5  A    between atoms: C_8  and  C_11 
REMARK    6  A    between atoms: O_14  and  C_8 
ROOT
ATOM      1  C   UNL d   1      -0.678   1.409  -0.554  0.00  0.00     0.090 A 
ATOM      2  C   UNL d   1       0.269   1.348   0.480  0.00  0.00     0.065 A 
ATOM      3  N   UNL d   1      -0.981   0.318  -1.303  0.00  0.00    -0.359 N 
ATOM      4  HN  UNL d   1      -1.678   0.370  -2.046  1.00  0.00     0.166 HD
ATOM      5  C   UNL d   1       0.943   0.138   0.703  0.00  0.00     0.021 A 
ATOM      6  C   UNL d   1      -0.333  -0.841  -1.039  0.00  0.00     0.089 A 
ATOM      7  C   UNL d   1       0.632  -0.976  -0.064  0.00  0.00     0.018 A 
ENDROOT
BRANCH   2   8
ATOM      8  C   UNL d   1       0.620   2.469   1.387  0.00  0.00     0.254 C 
ATOM      9  N   UNL d   1      -0.421   3.237   1.864  0.00  0.00    -0.347 N 
ATOM     10  H   UNL d   1      -1.335   3.136   1.429  0.00  0.00     0.163 HD
ATOM     11  O   UNL d   1       1.780   2.626   1.747  0.00  0.00    -0.268 OA
BRANCH   9  12
ATOM     12  C   UNL d   1      -0.197   4.472   2.619  0.00  0.00     0.232 C 
BRANCH  12  13
ATOM     13  C   UNL d   1      -0.847   4.397   3.995  0.00  0.00     0.158 C 
ATOM     14  O   UNL d   1      -1.009   5.357   4.733  0.00  0.00    -0.649 OA
BRANCH  13  15
ATOM     15  O   UNL d   1      -1.201   3.136   4.347  0.00  0.00    -0.775 OA
ATOM     16  H   UNL d   1      -0.898   2.516   3.651  0.00  0.00     0.167 HD
ENDBRANCH  13  15
ENDBRANCH  12  13
ENDBRANCH   9  12
ENDBRANCH   2   8
BRANCH   1  17
ATOM     17  S   UNL d   1      -1.510   2.943  -0.959  0.00  0.00    -0.072 SA
BRANCH  17  18
ATOM     18  C   UNL d   1      -2.675   2.647  -2.269  0.00  0.00     0.007 A 
ATOM     19  C   UNL d   1      -3.532   1.544  -2.325  0.00  0.00     0.020 A 
ATOM     20  C   UNL d   1      -4.497   1.440  -3.334  0.00  0.00     0.025 A 
ATOM     21  C   UNL d   1      -4.628   2.454  -4.279  0.00  0.00     0.034 A 
ATOM     22  C   UNL d   1      -3.796   3.568  -4.230  0.00  0.00     0.025 A 
ATOM     23 CL   UNL d   1      -5.836   2.342  -5.498  0.00  0.00    -0.084 Cl
ATOM     24  C   UNL d   1      -2.824   3.661  -3.230  0.00  0.00     0.020 A 
ENDBRANCH  17  18
ENDBRANCH   1  17
TORSDOF 6
