REMARK  2 active torsions:
REMARK  status: ('A' for Active; 'I' for Inactive)
REMARK    1  A    between atoms: C_8  and  C_2 
REMARK    2  A    between atoms: C_11  and  C_7 
ROOT
ATOM      1  O   UNL d   1      -1.023  -0.110   0.115  0.00  0.00    -0.277 OA
ATOM      2  C   UNL d   1      -0.095  -1.114  -0.057  0.00  0.00     0.144 A 
ATOM      3  N   UNL d   1       1.101  -0.647  -0.347  0.00  0.00    -0.281 N 
ATOM      4  HN  UNL d   1       1.943  -1.197  -0.519  1.00  0.00     0.189 HD
ATOM      5  N   UNL d   1       0.999   0.720  -0.376  0.00  0.00    -0.277 N 
ATOM      6  HN  UNL d   1       1.749   1.382  -0.574  1.00  0.00     0.189 HD
ATOM      7  C   UNL d   1      -0.257   1.012  -0.097  0.00  0.00     0.174 A 
ENDROOT
BRANCH   7   8
ATOM      8  C   UNL d   1      -0.873   2.331   0.017  0.00  0.00     0.017 A 
ATOM      9  C   UNL d   1      -0.070   3.466  -0.203  0.00  0.00     0.017 A 
ATOM     10  C   UNL d   1      -0.593   4.758  -0.099  0.00  0.00     0.025 A 
ATOM     11  C   UNL d   1      -1.932   4.930   0.228  0.00  0.00     0.034 A 
ATOM     12  C   UNL d   1      -2.750   3.820   0.448  0.00  0.00     0.025 A 
ATOM     13 CL   UNL d   1      -2.576   6.518   0.366  0.00  0.00    -0.084 Cl
ATOM     14  C   UNL d   1      -2.223   2.525   0.342  0.00  0.00     0.017 A 
ENDBRANCH   7   8
BRANCH   2  15
ATOM     15  C   UNL d   1      -0.353  -2.606   0.071  0.00  0.00     0.062 A 
ATOM     16  C   UNL d   1      -1.675  -3.184  -0.384  0.00  0.00     0.013 A 
ATOM     17  C   UNL d   1      -1.374  -3.099   1.074  0.00  0.00     0.013 A 
ENDBRANCH   2  15
TORSDOF 2
