REMARK  8 active torsions:
REMARK  status: ('A' for Active; 'I' for Inactive)
REMARK    1  A    between atoms: O_7  and  C_1 
REMARK    2  A    between atoms: C_13  and  C_1 
REMARK    3  A    between atoms: C_2  and  O_6 
REMARK    4  A    between atoms: C_12  and  C_2 
REMARK    5  A    between atoms: C_4  and  C_9 
REMARK    6  A    between atoms: C_8  and  C_5 
REMARK    7  A    between atoms: O_6  and  C_8 
REMARK    8  A    between atoms: C_9  and  O_7 
ROOT
ATOM      1  C   UNL d   1      -1.492  -3.218  -0.155  0.00  0.00     0.133 A 
ATOM      2  C   UNL d   1      -0.119  -3.473  -0.146  0.00  0.00     0.005 A 
ATOM      3  C   UNL d   1      -2.434  -4.255  -0.144  0.00  0.00     0.005 A 
ATOM      4  F   UNL d   1      -1.921  -1.947  -0.158  0.00  0.00    -0.205 F 
ATOM      5  C   UNL d   1      -1.984  -5.580  -0.105  0.00  0.00     0.012 A 
ATOM      6  C   UNL d   1       0.311  -4.809  -0.101  0.00  0.00     0.012 A 
ATOM      7  C   UNL d   1      -0.617  -5.855  -0.081  0.00  0.00     0.001 A 
ENDROOT
BRANCH   2   8
ATOM      8  C   UNL d   1       0.866  -2.332  -0.141  0.00  0.00     0.221 C 
BRANCH   8   9
ATOM      9  O   UNL d   1       0.716  -1.461  -1.285  0.00  0.00    -0.313 OA
BRANCH   9  10
ATOM     10  C   UNL d   1       1.417  -1.844  -2.374  0.00  0.00     0.293 C 
ATOM     11  O   UNL d   1       2.107  -2.857  -2.444  0.00  0.00    -0.259 OA
BRANCH  10  12
ATOM     12  C   UNL d   1       1.284  -0.911  -3.527  0.00  0.00     0.039 A 
ATOM     13  C   UNL d   1       1.861  -1.313  -4.743  0.00  0.00     0.017 A 
ATOM     14  C   UNL d   1       1.789  -0.503  -5.877  0.00  0.00     0.001 A 
ATOM     15  C   UNL d   1       1.140   0.727  -5.807  0.00  0.00     0.000 A 
ATOM     16  C   UNL d   1       0.572   1.146  -4.601  0.00  0.00     0.001 A 
ATOM     17  C   UNL d   1       0.642   0.333  -3.460  0.00  0.00     0.017 A 
ENDBRANCH  10  12
ENDBRANCH   9  10
ENDBRANCH   8   9
ENDBRANCH   2   8
BRANCH   3  18
ATOM     18  C   UNL d   1      -3.903  -3.942  -0.158  0.00  0.00     0.221 C 
BRANCH  18  19
ATOM     19  O   UNL d   1      -4.266  -3.174   0.996  0.00  0.00    -0.313 OA
BRANCH  19  20
ATOM     20  C   UNL d   1      -4.545  -3.893   2.107  0.00  0.00     0.293 C 
ATOM     21  O   UNL d   1      -4.541  -5.111   2.207  0.00  0.00    -0.259 OA
BRANCH  20  22
ATOM     22  C   UNL d   1      -4.950  -2.981   3.203  0.00  0.00     0.039 A 
ATOM     23  C   UNL d   1      -4.520  -1.648   3.260  0.00  0.00     0.017 A 
ATOM     24  C   UNL d   1      -4.955  -0.821   4.298  0.00  0.00     0.001 A 
ATOM     25  C   UNL d   1      -5.815  -1.321   5.276  0.00  0.00     0.000 A 
ATOM     26  C   UNL d   1      -6.231  -2.651   5.231  0.00  0.00     0.001 A 
ATOM     27  C   UNL d   1      -5.794  -3.483   4.200  0.00  0.00     0.017 A 
ENDBRANCH  20  22
ENDBRANCH  19  20
ENDBRANCH  18  19
ENDBRANCH   3  18
TORSDOF 8
