REMARK  4 active torsions:
REMARK  status: ('A' for Active; 'I' for Inactive)
REMARK    1  A    between atoms: C_15  and  C_5 
REMARK    2  A    between atoms: N_17  and  C_7 
REMARK    3  A    between atoms: C_9  and  S_13 
REMARK    4  A    between atoms: S_13  and  C_15 
ROOT
ATOM      1  C   UNL d   1      -0.562  -0.705  -0.931  0.00  0.00     0.073 A 
ATOM      2  N   UNL d   1      -0.529   0.909   0.710  0.00  0.00    -0.300 N 
ATOM      3  HN  UNL d   1      -0.767   1.500   1.507  1.00  0.00     0.186 HD
ATOM      4  C   UNL d   1       0.667   0.090  -1.118  0.00  0.00     0.273 A 
ATOM      5  C   UNL d   1      -1.246  -0.080   0.224  0.00  0.00     0.052 A 
ATOM      6  N   UNL d   1       0.606   0.991  -0.067  0.00  0.00    -0.266 N 
ATOM      7  C   UNL d   1      -0.862  -1.754  -1.698  0.00  0.00     0.103 C 
ATOM      8  O   UNL d   1       1.527  -0.036  -1.966  0.00  0.00    -0.266 OA
ATOM      9  H   UNL d   1       1.313   1.690   0.124  0.00  0.00     0.190 HD
ENDROOT
BRANCH   5  10
ATOM     10  C   UNL d   1      -2.624  -0.488   0.696  0.00  0.00     0.139 C 
BRANCH  10  11
ATOM     11  S   UNL d   1      -3.074   0.376   2.248  0.00  0.00    -0.122 SA
BRANCH  11  12
ATOM     12  C   UNL d   1      -4.780  -0.112   2.510  0.00  0.00     0.023 A 
ATOM     13  C   UNL d   1      -5.223  -1.417   2.765  0.00  0.00     0.052 A 
ATOM     14  C   UNL d   1      -6.566  -1.661   3.080  0.00  0.00     0.049 A 
ATOM     15 CL   UNL d   1      -4.168  -2.787   2.781  0.00  0.00    -0.083 Cl
ATOM     16  C   UNL d   1      -7.477  -0.608   3.177  0.00  0.00     0.041 A 
ATOM     17  C   UNL d   1      -7.059   0.710   2.968  0.00  0.00    -0.039 A 
ATOM     18 CL   UNL d   1      -9.108  -1.001   3.589  0.00  0.00    -0.084 Cl
ATOM     19  C   UNL d   1      -5.714   0.938   2.614  0.00  0.00     0.028 A 
ATOM     20  C   UNL d   1      -7.988   1.892   3.075  0.00  0.00     0.050 C 
ENDBRANCH  11  12
ENDBRANCH  10  11
ENDBRANCH   5  10
BRANCH   7  21
ATOM     21  N   UNL d   1      -1.884  -2.687  -1.558  0.00  0.00    -0.398 N 
ATOM     22  C   UNL d   1      -1.722  -3.726  -0.521  0.00  0.00     0.148 C 
ATOM     23  C   UNL d   1      -2.564  -3.197  -2.760  0.00  0.00     0.148 C 
ENDBRANCH   7  21
TORSDOF 4
