REMARK  2 active torsions:
REMARK  status: ('A' for Active; 'I' for Inactive)
REMARK    1  A    between atoms: N_2  and  S_1 
REMARK    2  A    between atoms: C_3  and  S_1 
ROOT
ATOM      1  S   UNL d   1       0.937  -0.084   0.063  0.00  0.00     0.243 S 
ATOM      2  O   UNL d   1       0.178  -0.881   1.000  0.00  0.00    -0.206 OA
ATOM      3  O   UNL d   1       2.383  -0.121   0.045  0.00  0.00    -0.206 OA
ENDROOT
BRANCH   1   4
ATOM      4  N   UNL d   1       0.443   1.546   0.228  0.00  0.00    -0.205 NA
ATOM      5  C   UNL d   1       1.184   2.538  -0.606  0.00  0.00     0.117 C 
ATOM      6  C   UNL d   1       1.024   3.966  -0.080  0.00  0.00     0.089 C 
ATOM      7  S   UNL d   1      -0.715   4.511  -0.051  0.00  0.00    -0.167 SA
ATOM      8  C   UNL d   1      -1.388   3.104   0.891  0.00  0.00     0.089 C 
ATOM      9  C   UNL d   1      -1.033   1.772   0.232  0.00  0.00     0.117 C 
ENDBRANCH   1   4
BRANCH   1  10
ATOM     10  C   UNL d   1       0.375  -0.512  -1.577  0.00  0.00     0.074 A 
ATOM     11  C   UNL d   1       1.200  -0.263  -2.678  0.00  0.00     0.026 A 
ATOM     12  C   UNL d   1       0.747  -0.569  -3.962  0.00  0.00     0.025 A 
ATOM     13  C   UNL d   1      -0.516  -1.136  -4.136  0.00  0.00     0.034 A 
ATOM     14  C   UNL d   1      -1.323  -1.426  -3.035  0.00  0.00     0.025 A 
ATOM     15 CL   UNL d   1      -1.083  -1.481  -5.724  0.00  0.00    -0.084 Cl
ATOM     16  C   UNL d   1      -0.875  -1.122  -1.747  0.00  0.00     0.026 A 
ENDBRANCH   1  10
TORSDOF 2
