REMARK  5 active torsions:
REMARK  status: ('A' for Active; 'I' for Inactive)
REMARK    1  A    between atoms: C_3  and  C_1 
REMARK       I    between atoms: N_5  and  C_1 
REMARK    2  A    between atoms: C_6  and  C_2 
REMARK    3  A    between atoms: C_4  and  C_8 
REMARK    4  A    between atoms: C_7  and  N_5 
REMARK       I    between atoms: N_9  and  C_6 
REMARK    5  A    between atoms: C_8  and  N_9 
ROOT
ATOM      1  C   UNL d   1      -1.757  -0.966  -0.039  0.00  0.00     0.058 A 
ATOM      2  C   UNL d   1      -1.069  -0.561   1.116  0.00  0.00     0.050 A 
ATOM      3  C   UNL d   1      -3.143  -1.194   0.010  0.00  0.00     0.019 A 
ATOM      4  C   UNL d   1      -1.772  -0.487   2.327  0.00  0.00     0.030 A 
ATOM      5  C   UNL d   1      -3.834  -1.084   1.216  0.00  0.00     0.001 A 
ATOM      6  C   UNL d   1      -3.145  -0.750   2.376  0.00  0.00     0.002 A 
ENDROOT
BRANCH   1   7
ATOM      7  C   UNL d   1      -1.114  -1.255  -1.353  0.00  0.00     0.254 C 
ATOM      8  N   UNL d   1      -0.087  -2.164  -1.470  0.00  0.00    -0.352 N 
ATOM      9  H   UNL d   1       0.234  -2.278  -2.423  0.00  0.00     0.163 HD
ATOM     10  O   UNL d   1      -1.565  -0.721  -2.366  0.00  0.00    -0.268 OA
BRANCH   8  11
ATOM     11  C   UNL d   1       0.709  -2.773  -0.422  0.00  0.00     0.166 C 
BRANCH  11  12
ATOM     12  C   UNL d   1       0.898  -4.253  -0.510  0.00  0.00     0.020 A 
ATOM     13  C   UNL d   1      -0.013  -5.063   0.181  0.00  0.00     0.126 A 
ATOM     14  F   UNL d   1      -1.090  -4.512   0.761  0.00  0.00    -0.205 F 
ATOM     15  C   UNL d   1       0.198  -6.425   0.348  0.00  0.00     0.043 A 
ATOM     16  C   UNL d   1       1.336  -7.014  -0.204  0.00  0.00     0.005 A 
ATOM     17  C   UNL d   1       2.229  -6.237  -0.936  0.00  0.00     0.024 A 
ATOM     18  C   UNL d   1       2.011  -4.865  -1.096  0.00  0.00     0.044 A 
ATOM     19 CL   UNL d   1       3.180  -3.959  -1.988  0.00  0.00    -0.084 Cl
ENDBRANCH  11  12
ENDBRANCH   8  11
ENDBRANCH   1   7
BRANCH   2  20
ATOM     20  N   UNL d   1       0.304  -0.206   1.062  0.00  0.00    -0.322 N 
ATOM     21  C   UNL d   1       1.224  -0.487   2.058  0.00  0.00     0.257 C 
ATOM     22  O   UNL d   1       0.938  -1.088   3.093  0.00  0.00    -0.267 OA
ATOM     23  H   UNL d   1       0.665   0.030   0.143  0.00  0.00     0.169 HD
BRANCH  21  24
ATOM     24  C   UNL d   1       2.664  -0.133   1.825  0.00  0.00     0.054 A 
ATOM     25  C   UNL d   1       3.203   0.511   0.700  0.00  0.00     0.049 A 
ATOM     26 CL   UNL d   1       2.301   0.939  -0.713  0.00  0.00    -0.083 Cl
ATOM     27  C   UNL d   1       4.569   0.833   0.659  0.00  0.00     0.025 A 
ATOM     28  C   UNL d   1       5.414   0.506   1.719  0.00  0.00     0.002 A 
ATOM     29  C   UNL d   1       4.905  -0.167   2.820  0.00  0.00     0.001 A 
ATOM     30  C   UNL d   1       3.547  -0.485   2.870  0.00  0.00     0.019 A 
ENDBRANCH  21  24
ENDBRANCH   2  20
TORSDOF 5
