REMARK  5 active torsions:
REMARK  status: ('A' for Active; 'I' for Inactive)
REMARK    1  A    between atoms: C_11  and  C_6 
REMARK    2  A    between atoms: C_12  and  C_8 
REMARK    3  A    between atoms: O_21  and  C_11 
REMARK    4  A    between atoms: C_14  and  C_15 
REMARK    5  A    between atoms: C_25  and  O_21 
ROOT
ATOM      1  N   UNL d   1      -0.319  -0.180   0.710  0.00  0.00    -0.203 N 
ATOM      2  C   UNL d   1      -0.190   0.435  -0.515  0.00  0.00     0.132 A 
ATOM      3  N   UNL d   1      -1.614  -0.428   1.026  0.00  0.00    -0.289 N 
ATOM      4  HN  UNL d   1      -1.974  -0.868   1.873  1.00  0.00     0.188 HD
ATOM      5  C   UNL d   1       0.749  -0.541   1.550  0.00  0.00     0.285 A 
ATOM      6  C   UNL d   1       2.091  -0.191   0.993  0.00  0.00     0.124 A 
ATOM      7  C   UNL d   1      -1.454   0.581  -1.014  0.00  0.00     0.082 A 
ATOM      8  C   UNL d   1      -2.320   0.031  -0.021  0.00  0.00     0.062 A 
ATOM      9  C   UNL d   1       2.153   0.410  -0.210  0.00  0.00     0.113 A 
ATOM     10  N   UNL d   1       1.047   0.742  -0.963  0.00  0.00    -0.350 N 
ATOM     11  O   UNL d   1       0.539  -1.120   2.606  0.00  0.00    -0.265 OA
ATOM     12  H   UNL d   1       1.212   1.163  -1.877  0.00  0.00     0.166 HD
ENDROOT
BRANCH   8  13
ATOM     13  C   UNL d   1      -3.785  -0.056  -0.050  0.00  0.00    -0.008 A 
ATOM     14  C   UNL d   1      -4.504  -0.577   1.033  0.00  0.00     0.014 A 
ATOM     15  C   UNL d   1      -5.906  -0.632   1.011  0.00  0.00     0.009 A 
ATOM     16  C   UNL d   1      -6.638  -0.169  -0.098  0.00  0.00    -0.051 A 
ATOM     17  C   UNL d   1      -5.902   0.335  -1.181  0.00  0.00     0.009 A 
ATOM     18  C   UNL d   1      -4.505   0.392  -1.159  0.00  0.00     0.014 A 
BRANCH  16  19
ATOM     19  C   UNL d   1      -8.175  -0.215  -0.104  0.00  0.00    -0.024 C 
ATOM     20  C   UNL d   1      -8.794   0.351  -1.404  0.00  0.00     0.019 C 
ATOM     21  C   UNL d   1      -8.662  -1.672   0.040  0.00  0.00     0.019 C 
ATOM     22  C   UNL d   1      -8.736   0.619   1.067  0.00  0.00     0.019 C 
ENDBRANCH  16  19
ENDBRANCH   8  13
BRANCH   6  23
ATOM     23  C   UNL d   1       3.355  -0.555   1.656  0.00  0.00     0.300 C 
ATOM     24  O   UNL d   1       4.425  -0.653   1.072  0.00  0.00    -0.259 OA
BRANCH  23  25
ATOM     25  O   UNL d   1       3.141  -0.822   2.963  0.00  0.00    -0.318 OA
BRANCH  25  26
ATOM     26  C   UNL d   1       4.094  -1.679   3.601  0.00  0.00     0.174 C 
ATOM     27  C   UNL d   1       3.688  -3.119   3.340  0.00  0.00     0.034 C 
ENDBRANCH  25  26
ENDBRANCH  23  25
ENDBRANCH   6  23
TORSDOF 5
