REMARK  3 active torsions:
REMARK  status: ('A' for Active; 'I' for Inactive)
REMARK    1  A    between atoms: N_8  and  C_1 
REMARK       I    between atoms: C_9  and  N_8 
REMARK    2  A    between atoms: C_10  and  C_9 
REMARK    3  A    between atoms: C_13  and  C_15 
ROOT
ATOM      1  N   UNL d   1       5.589   1.543   0.506  0.00  0.00    -0.303 N 
ATOM      2  C   UNL d   1       4.517   0.786   0.033  0.00  0.00     0.259 C 
ATOM      3  O   UNL d   1       3.432   1.243  -0.302  0.00  0.00    -0.267 OA
ATOM      4  H   UNL d   1       6.455   1.066   0.710  0.00  0.00     0.171 HD
ENDROOT
BRANCH   2   5
ATOM      5  C   UNL d   1       4.713  -0.688  -0.042  0.00  0.00     0.054 A 
ATOM      6  C   UNL d   1       4.057  -1.460  -1.012  0.00  0.00     0.021 A 
ATOM      7  N   UNL d   1       4.131  -2.820  -1.029  0.00  0.00    -0.355 N 
ATOM      8  C   UNL d   1       3.241  -0.867  -2.127  0.00  0.00     0.069 C 
ATOM      9  C   UNL d   1       4.851  -3.463  -0.069  0.00  0.00     0.117 A 
ATOM     10  HN  UNL d   1       3.651  -3.352  -1.755  1.00  0.00     0.166 HD
ATOM     11  C   UNL d   1       5.557  -2.752   0.900  0.00  0.00     0.035 A 
ATOM     12  C   UNL d   1       5.482  -1.358   0.917  0.00  0.00     0.021 A 
BRANCH   9  13
ATOM     13  C   UNL d   1       4.856  -4.987  -0.026  0.00  0.00     0.432 C 
ATOM     14  F   UNL d   1       4.083  -5.584  -0.974  0.00  0.00    -0.165 F 
ATOM     15  F   UNL d   1       6.110  -5.505  -0.182  0.00  0.00    -0.165 F 
ATOM     16  F   UNL d   1       4.413  -5.468   1.174  0.00  0.00    -0.165 F 
ENDBRANCH   9  13
ENDBRANCH   2   5
BRANCH   1  17
ATOM     17  C   UNL d   1       5.733   2.916   0.660  0.00  0.00     0.155 C 
ATOM     18  S   UNL d   1       4.364   3.921   0.282  0.00  0.00    -0.010 SA
ATOM     19  C   UNL d   1       5.212   5.342  -0.270  0.00  0.00     0.235 C 
ATOM     20  O   UNL d   1       4.750   6.040  -1.167  0.00  0.00    -0.279 OA
ATOM     21  C   UNL d   1       6.393   5.601   0.485  0.00  0.00     0.089 A 
ATOM     22  C   UNL d   1       7.128   4.667   1.162  0.00  0.00     0.056 A 
ATOM     23  S   UNL d   1       7.049   7.165   0.636  0.00  0.00    -0.095 SA
ATOM     24  N   UNL d   1       6.897   3.288   1.094  0.00  0.00    -0.335 N 
ATOM     25  C   UNL d   1       8.218   5.230   1.870  0.00  0.00     0.038 A 
ATOM     26  HN  UNL d   1       7.608   2.611   1.371  1.00  0.00     0.168 HD
ATOM     27  C   UNL d   1       8.288   6.596   1.677  0.00  0.00     0.053 A 
ENDBRANCH   1  17
TORSDOF 3
