REMARK  3 active torsions:
REMARK  status: ('A' for Active; 'I' for Inactive)
REMARK    1  A    between atoms: C_1  and  C_2 
REMARK    2  A    between atoms: C_2  and  C_6 
REMARK    3  A    between atoms: C_6  and  C_10 
ROOT
ATOM      1  C   UNL d   1      -3.351  -1.414  -0.013  0.00  0.00     0.234 C 
ATOM      2  C   UNL d   1      -4.294  -0.633  -0.819  0.00  0.00     0.080 C 
ATOM      3  N   UNL d   1      -5.040  -0.029  -1.476  0.00  0.00    -0.196 NA
ENDROOT
BRANCH   1   4
ATOM      4  C   UNL d   1      -3.849  -1.531   1.416  0.00  0.00     0.184 C 
ATOM      5  O   UNL d   1      -4.128  -0.548   2.104  0.00  0.00    -0.290 OA
BRANCH   4   6
ATOM      6  C   UNL d   1      -4.072  -2.889   1.997  0.00  0.00     0.014 A 
ATOM      7  C   UNL d   1      -3.346  -4.009   1.594  0.00  0.00     0.032 A 
ATOM      8  C   UNL d   1      -3.664  -5.229   2.168  0.00  0.00     0.088 A 
ATOM      9  N   UNL d   1      -4.628  -5.393   3.099  0.00  0.00    -0.375 N 
ATOM     10  C   UNL d   1      -5.295  -4.289   3.494  0.00  0.00     0.088 A 
ATOM     11  HN  UNL d   1      -4.842  -6.312   3.486  1.00  0.00     0.164 HD
ATOM     12  C   UNL d   1      -5.055  -3.027   2.981  0.00  0.00     0.032 A 
ENDBRANCH   4   6
ENDBRANCH   1   4
BRANCH   1  13
ATOM     13  C   UNL d   1      -1.945  -0.880  -0.004  0.00  0.00     0.110 A 
ATOM     14  N   UNL d   1      -1.541   0.447   0.025  0.00  0.00    -0.338 N 
ATOM     15  C   UNL d   1      -0.161   0.476   0.015  0.00  0.00     0.062 A 
ATOM     16  C   UNL d   1      -2.380   1.625   0.039  0.00  0.00     0.158 C 
ATOM     17  C   UNL d   1       0.784   1.513   0.020  0.00  0.00     0.032 A 
ATOM     18  C   UNL d   1       0.211  -0.863  -0.001  0.00  0.00     0.060 A 
ATOM     19  C   UNL d   1       2.137   1.153   0.008  0.00  0.00     0.002 A 
ATOM     20  C   UNL d   1       2.528  -0.185  -0.007  0.00  0.00     0.002 A 
ATOM     21  C   UNL d   1       1.572  -1.207  -0.011  0.00  0.00     0.032 A 
ATOM     22  N   UNL d   1      -0.890  -1.679  -0.010  0.00  0.00    -0.342 N 
ATOM     23  HN  UNL d   1      -0.896  -2.699  -0.019  1.00  0.00     0.167 HD
ENDBRANCH   1  13
TORSDOF 3
