REMARK  5 active torsions:
REMARK  status: ('A' for Active; 'I' for Inactive)
REMARK    1  A    between atoms: C_5  and  C_1 
REMARK    2  A    between atoms: O_4  and  C_2 
REMARK    3  A    between atoms: C_3  and  O_4 
REMARK    4  A    between atoms: C_7  and  C_3 
REMARK    5  A    between atoms: C_10  and  C_11 
ROOT
ATOM      1  C   UNL d   1       1.185  -1.409  -0.032  0.00  0.00     0.010 A 
ATOM      2  C   UNL d   1       2.348  -0.628  -0.249  0.00  0.00     0.088 A 
ATOM      3  C   UNL d   1      -0.095  -0.753  -0.077  0.00  0.00    -0.015 A 
ATOM      4  C   UNL d   1       2.276   0.741  -0.500  0.00  0.00     0.039 A 
ATOM      5  C   UNL d   1      -0.137   0.656  -0.259  0.00  0.00    -0.025 A 
ATOM      6  C   UNL d   1       1.041   1.375  -0.490  0.00  0.00     0.015 A 
ATOM      7  C   UNL d   1      -1.351  -1.401   0.070  0.00  0.00     0.013 A 
ATOM      8  C   UNL d   1      -1.356   1.352  -0.197  0.00  0.00     0.012 A 
ATOM      9  C   UNL d   1      -2.559  -0.697   0.114  0.00  0.00     0.001 A 
ATOM     10  C   UNL d   1      -2.559   0.683   0.004  0.00  0.00     0.001 A 
ENDROOT
BRANCH   2  11
ATOM     11  O   UNL d   1       3.603  -1.233   0.002  0.00  0.00    -0.274 OA
BRANCH  11  12
ATOM     12  C   UNL d   1       4.801  -0.690  -0.433  0.00  0.00     0.298 C 
ATOM     13  O   UNL d   1       5.032  -0.234  -1.541  0.00  0.00    -0.259 OA
BRANCH  12  14
ATOM     14  C   UNL d   1       5.769  -0.711   0.694  0.00  0.00     0.040 A 
ATOM     15  C   UNL d   1       5.341  -0.610   2.022  0.00  0.00     0.018 A 
ATOM     16  C   UNL d   1       6.271  -0.462   3.057  0.00  0.00     0.009 A 
ATOM     17  C   UNL d   1       7.654  -0.406   2.800  0.00  0.00    -0.051 A 
ATOM     18  C   UNL d   1       8.067  -0.567   1.464  0.00  0.00     0.009 A 
ATOM     19  C   UNL d   1       7.137  -0.705   0.422  0.00  0.00     0.018 A 
BRANCH  17  20
ATOM     20  C   UNL d   1       8.637  -0.105   3.948  0.00  0.00    -0.024 C 
ATOM     21  C   UNL d   1      10.118  -0.074   3.507  0.00  0.00     0.019 C 
ATOM     22  C   UNL d   1       8.309   1.286   4.538  0.00  0.00     0.019 C 
ATOM     23  C   UNL d   1       8.512  -1.163   5.065  0.00  0.00     0.019 C 
ENDBRANCH  17  20
ENDBRANCH  12  14
ENDBRANCH  11  12
ENDBRANCH   2  11
BRANCH   1  24
ATOM     24  C   UNL d   1       1.292  -2.893   0.284  0.00  0.00     0.145 C 
ATOM     25  S   UNL d   1       2.247  -3.298   1.781  0.00  0.00    -0.148 SA
ATOM     26  C   UNL d   1       2.632  -4.988   1.273  0.00  0.00     0.085 C 
ATOM     27  C   UNL d   1       3.020  -4.956  -0.194  0.00  0.00     0.085 C 
ATOM     28  S   UNL d   1       1.868  -3.902  -1.119  0.00  0.00    -0.148 SA
ENDBRANCH   1  24
TORSDOF 5
