REMARK  3 active torsions:
REMARK  status: ('A' for Active; 'I' for Inactive)
REMARK    1  A    between atoms: C_13  and  C_2 
REMARK    2  A    between atoms: C_6  and  C_13 
REMARK    3  A    between atoms: S_17  and  C_8 
ROOT
ATOM      1  N   UNL d   1       1.579  -3.429  -1.151  0.00  0.00    -0.299 N 
ATOM      2  HN  UNL d   1       1.205  -2.860  -1.911  1.00  0.00     0.187 HD
ATOM      3  N   UNL d   1       1.426  -4.788  -1.169  0.00  0.00    -0.261 N 
ATOM      4  C   UNL d   1       2.203  -2.867  -0.159  0.00  0.00     0.044 A 
ATOM      5  C   UNL d   1       1.855  -5.640  -0.159  0.00  0.00     0.272 A 
ATOM      6  C   UNL d   1       2.606  -5.020   0.946  0.00  0.00     0.046 A 
ATOM      7  C   UNL d   1       2.800  -3.640   0.957  0.00  0.00     0.004 A 
ATOM      8  O   UNL d   1       1.644  -6.853  -0.151  0.00  0.00    -0.266 OA
ATOM      9  C   UNL d   1       0.646  -5.338  -2.260  0.00  0.00     0.181 C 
ATOM     10  C   UNL d   1       3.117  -5.823   1.975  0.00  0.00     0.018 A 
ATOM     11  C   UNL d   1       3.525  -3.060   2.005  0.00  0.00     0.014 A 
ATOM     12  C   UNL d   1       3.833  -5.242   3.018  0.00  0.00     0.001 A 
ATOM     13  C   UNL d   1       4.037  -3.862   3.032  0.00  0.00     0.001 A 
ENDROOT
BRANCH   4  14
ATOM     14  C   UNL d   1       2.242  -1.349  -0.164  0.00  0.00     0.137 C 
BRANCH  14  15
ATOM     15  C   UNL d   1       3.528  -0.822  -0.691  0.00  0.00     0.105 A 
ATOM     16  N   UNL d   1       3.976  -0.880  -1.995  0.00  0.00    -0.319 N 
ATOM     17  C   UNL d   1       5.164  -0.196  -2.004  0.00  0.00     0.159 A 
ATOM     18  C   UNL d   1       3.323  -1.514  -3.112  0.00  0.00     0.159 C 
ATOM     19  N   UNL d   1       5.416   0.268  -0.804  0.00  0.00    -0.279 N 
ATOM     20  N   UNL d   1       4.395  -0.129   0.022  0.00  0.00    -0.286 N 
ATOM     21  HN  UNL d   1       6.226   0.824  -0.532  1.00  0.00     0.189 HD
ATOM     22  HN  UNL d   1       4.319   0.078   1.018  1.00  0.00     0.188 HD
BRANCH  17  23
ATOM     23  S   UNL d   1       6.187   0.038  -3.378  0.00  0.00    -0.105 SA
ATOM     24  H   UNL d   1       5.703  -0.899  -4.201  0.00  0.00     0.110 HD
ENDBRANCH  17  23
ENDBRANCH  14  15
ENDBRANCH   4  14
TORSDOF 3
