REMARK  8 active torsions:
REMARK  status: ('A' for Active; 'I' for Inactive)
REMARK    1  A    between atoms: N_4  and  S_1 
REMARK    2  A    between atoms: C_8  and  S_1 
REMARK    3  A    between atoms: C_6  and  C_2 
REMARK    4  A    between atoms: C_3  and  N_5 
REMARK    5  A    between atoms: C_7  and  N_4 
REMARK    6  A    between atoms: N_5  and  C_9 
REMARK    7  A    between atoms: O_18  and  C_6 
REMARK    8  A    between atoms: O_22  and  C_19 
ROOT
ATOM      1  C   UNL d   1       0.791   1.575  -2.322  0.00  0.00     0.064 A 
ATOM      2  C   UNL d   1       2.155   1.884  -2.139  0.00  0.00     0.040 A 
ATOM      3  C   UNL d   1      -0.044   2.455  -3.021  0.00  0.00     0.032 A 
ATOM      4  C   UNL d   1       2.631   3.113  -2.627  0.00  0.00     0.026 A 
ATOM      5  C   UNL d   1       0.456   3.657  -3.520  0.00  0.00     0.002 A 
ATOM      6  C   UNL d   1       1.794   3.986  -3.325  0.00  0.00     0.002 A 
ENDROOT
BRANCH   1   7
ATOM      7  N   UNL d   1       0.199   0.413  -1.744  0.00  0.00    -0.279 N 
ATOM      8  H   UNL d   1      -0.396  -0.161  -2.334  0.00  0.00     0.179 HD
BRANCH   7   9
ATOM      9  S   UNL d   1      -0.278   0.447  -0.130  0.00  0.00     0.263 S 
ATOM     10  O   UNL d   1       0.834   0.876   0.689  0.00  0.00    -0.200 OA
ATOM     11  O   UNL d   1      -0.956  -0.809   0.117  0.00  0.00    -0.200 OA
BRANCH   9  12
ATOM     12  C   UNL d   1      -1.511   1.730  -0.060  0.00  0.00     0.080 A 
ATOM     13  C   UNL d   1      -2.852   1.432  -0.326  0.00  0.00     0.028 A 
ATOM     14  C   UNL d   1      -3.824   2.433  -0.194  0.00  0.00     0.038 A 
ATOM     15  C   UNL d   1      -3.456   3.718   0.213  0.00  0.00     0.068 A 
ATOM     16  C   UNL d   1      -2.118   3.993   0.506  0.00  0.00     0.038 A 
ATOM     17  C   UNL d   1      -1.142   3.005   0.371  0.00  0.00     0.028 A 
BRANCH  15  18
ATOM     18  O   UNL d   1      -4.304   4.774   0.398  0.00  0.00    -0.356 OA
ATOM     19  C   UNL d   1      -5.563   4.701  -0.260  0.00  0.00     0.210 C 
ENDBRANCH  15  18
ENDBRANCH   9  12
ENDBRANCH   7   9
ENDBRANCH   1   7
BRANCH   2  20
ATOM     20  N   UNL d   1       3.052   1.119  -1.340  0.00  0.00    -0.260 NA
ATOM     21  H   UNL d   1       2.865   1.378  -0.364  0.00  0.00     0.133 HD
BRANCH  20  22
ATOM     22  C   UNL d   1       3.259  -0.256  -1.444  0.00  0.00     0.012 C 
ATOM     23  C   UNL d   1       3.357  -1.061  -2.523  0.00  0.00     0.044 C 
ATOM     24  C   UNL d   1       3.546  -2.525  -2.273  0.00  0.00     0.120 C 
ATOM     25  S   UNL d   1       3.424  -2.759  -0.487  0.00  0.00    -0.159 SA
ATOM     26  C   UNL d   1       3.453  -0.991  -0.128  0.00  0.00     0.126 C 
BRANCH  23  27
ATOM     27  C   UNL d   1       3.300  -0.714  -3.958  0.00  0.00     0.291 C 
ATOM     28  O   UNL d   1       2.914  -1.507  -4.807  0.00  0.00    -0.260 OA
BRANCH  27  29
ATOM     29  O   UNL d   1       3.809   0.513  -4.210  0.00  0.00    -0.323 OA
ATOM     30  C   UNL d   1       3.732   0.902  -5.581  0.00  0.00     0.213 C 
ENDBRANCH  27  29
ENDBRANCH  23  27
ENDBRANCH  20  22
ENDBRANCH   2  20
TORSDOF 8
