REMARK  6 active torsions:
REMARK  status: ('A' for Active; 'I' for Inactive)
REMARK    1  A    between atoms: C_12  and  C_1 
REMARK    2  A    between atoms: S_8  and  C_2 
REMARK    3  A    between atoms: C_6  and  C_7 
REMARK    4  A    between atoms: C_19  and  S_8 
REMARK    5  A    between atoms: C_9  and  C_19 
REMARK       I    between atoms: N_11  and  C_9 
REMARK    6  A    between atoms: C_14  and  N_11 
ROOT
ATOM      1  C   UNL d   1       2.199  -5.546  -0.258  0.00  0.00     0.231 C 
ATOM      2  N   UNL d   1       3.373  -5.542  -0.982  0.00  0.00    -0.327 N 
ATOM      3  O   UNL d   1       1.836  -6.462   0.492  0.00  0.00    -0.272 OA
ATOM      4  H   UNL d   1       3.626  -4.669  -1.435  0.00  0.00     0.169 HD
ENDROOT
BRANCH   1   5
ATOM      5  C   UNL d   1       1.302  -4.319  -0.316  0.00  0.00     0.183 C 
BRANCH   5   6
ATOM      6  S   UNL d   1       1.796  -3.001  -1.458  0.00  0.00    -0.112 SA
BRANCH   6   7
ATOM      7  C   UNL d   1       0.645  -1.756  -0.999  0.00  0.00     0.061 C 
ATOM      8  C   UNL d   1      -0.253  -1.208  -1.848  0.00  0.00     0.027 C 
ATOM      9  C   UNL d   1      -1.110  -0.116  -1.257  0.00  0.00     0.091 C 
ATOM     10  S   UNL d   1      -1.018  -0.109   0.498  0.00  0.00    -0.039 SA
ATOM     11  S   UNL d   1      -2.103   0.971  -2.065  0.00  0.00    -0.071 SA
ATOM     12  S   UNL d   1       0.759  -1.079   0.611  0.00  0.00    -0.044 SA
BRANCH   8  13
ATOM     13  C   UNL d   1      -0.448  -1.600  -3.256  0.00  0.00    -0.022 A 
ATOM     14  C   UNL d   1      -1.302  -2.661  -3.583  0.00  0.00     0.012 A 
ATOM     15  C   UNL d   1      -1.629  -2.911  -4.917  0.00  0.00     0.001 A 
ATOM     16  C   UNL d   1      -1.107  -2.105  -5.928  0.00  0.00     0.000 A 
ATOM     17  C   UNL d   1      -0.231  -1.069  -5.612  0.00  0.00     0.001 A 
ATOM     18  C   UNL d   1       0.109  -0.823  -4.281  0.00  0.00     0.012 A 
ENDBRANCH   8  13
ENDBRANCH   6   7
ENDBRANCH   5   6
ENDBRANCH   1   5
BRANCH   2  19
ATOM     19  C   UNL d   1       4.349  -6.572  -0.968  0.00  0.00     0.035 A 
ATOM     20  C   UNL d   1       4.093  -7.854  -0.470  0.00  0.00     0.045 A 
ATOM     21  C   UNL d   1       5.113  -8.812  -0.330  0.00  0.00     0.050 A 
ATOM     22  C   UNL d   1       6.407  -8.486  -0.754  0.00  0.00     0.016 A 
ATOM     23  C   UNL d   1       6.661  -7.237  -1.322  0.00  0.00     0.003 A 
ATOM     24  C   UNL d   1       5.637  -6.286  -1.434  0.00  0.00     0.029 A 
BRANCH  21  25
ATOM     25  C   UNL d   1       4.830 -10.146   0.315  0.00  0.00     0.417 C 
ATOM     26  F   UNL d   1       3.517 -10.349   0.615  0.00  0.00    -0.166 F 
ATOM     27  F   UNL d   1       5.197 -11.197  -0.470  0.00  0.00    -0.166 F 
ATOM     28  F   UNL d   1       5.508 -10.305   1.487  0.00  0.00    -0.166 F 
ENDBRANCH  21  25
ENDBRANCH   2  19
TORSDOF 6
