REMARK  5 active torsions:
REMARK  status: ('A' for Active; 'I' for Inactive)
REMARK    1  A    between atoms: C_2  and  C_1 
REMARK    2  A    between atoms: C_15  and  C_5 
REMARK    3  A    between atoms: O_13  and  C_9 
REMARK    4  A    between atoms: O_14  and  C_11 
REMARK    5  A    between atoms: O_16  and  C_15 
ROOT
ATOM      1  C   UNL d   1       0.270  -2.574  -0.010  0.00  0.00    -0.008 A 
ATOM      2  C   UNL d   1       0.983  -3.021   1.119  0.00  0.00     0.052 A 
ATOM      3  C   UNL d   1      -0.045  -3.480  -1.035  0.00  0.00    -0.021 A 
ATOM      4  C   UNL d   1       1.361  -4.363   1.271  0.00  0.00     0.102 A 
ATOM      5  C   UNL d   1       0.313  -4.827  -0.867  0.00  0.00     0.049 A 
ATOM      6  C   UNL d   1       1.007  -5.275   0.266  0.00  0.00     0.102 A 
ENDROOT
BRANCH   1   7
ATOM      7  C   UNL d   1      -0.134  -1.177  -0.044  0.00  0.00     0.056 C 
ATOM      8  C   UNL d   1      -1.438  -0.620   0.417  0.00  0.00     0.268 C 
ATOM      9  N   UNL d   1      -1.310   0.765   0.365  0.00  0.00    -0.283 N 
ATOM     10  O   UNL d   1      -2.424  -1.252   0.738  0.00  0.00    -0.266 OA
ATOM     11  N   UNL d   1      -0.134   1.087  -0.318  0.00  0.00    -0.213 NA
ATOM     12  H   UNL d   1      -2.132   1.355   0.308  0.00  0.00     0.184 HD
ATOM     13  C   UNL d   1       0.557  -0.100  -0.441  0.00  0.00     0.097 C 
ATOM     14  H   UNL d   1       0.422   1.827   0.117  0.00  0.00     0.152 HD
ENDBRANCH   1   7
BRANCH   3  15
ATOM     15  C   UNL d   1      -0.766  -3.073  -2.293  0.00  0.00     0.203 C 
BRANCH  15  16
ATOM     16  O   UNL d   1       0.039  -2.167  -3.035  0.00  0.00    -0.396 OA
ATOM     17  H   UNL d   1      -0.343  -1.283  -2.901  0.00  0.00     0.209 HD
ENDBRANCH  15  16
ENDBRANCH   3  15
BRANCH   4  18
ATOM     18  O   UNL d   1       2.027  -4.839   2.368  0.00  0.00    -0.353 OA
ATOM     19  C   UNL d   1       2.386  -3.917   3.390  0.00  0.00     0.210 C 
ENDBRANCH   4  18
BRANCH   6  20
ATOM     20  O   UNL d   1       1.199  -6.633   0.263  0.00  0.00    -0.353 OA
ATOM     21  C   UNL d   1       2.362  -7.128   0.910  0.00  0.00     0.210 C 
ENDBRANCH   6  20
TORSDOF 5
