REMARK  4 active torsions:
REMARK  status: ('A' for Active; 'I' for Inactive)
REMARK       I    between atoms: C_3  and  N_4 
REMARK    1  A    between atoms: C_13  and  C_3 
REMARK    2  A    between atoms: N_4  and  C_6 
REMARK    3  A    between atoms: C_5  and  S_10 
REMARK    4  A    between atoms: S_10  and  C_13 
ROOT
ATOM      1  C   UNL d   1      -4.368   2.331   0.077  0.00  0.00     0.231 C 
ATOM      2  N   UNL d   1      -2.983   2.370   0.006  0.00  0.00    -0.326 N 
ATOM      3  O   UNL d   1      -5.049   1.308   0.029  0.00  0.00    -0.272 OA
ATOM      4  H   UNL d   1      -2.552   3.283  -0.082  0.00  0.00     0.169 HD
ENDROOT
BRANCH   1   5
ATOM      5  C   UNL d   1      -5.013   3.709   0.164  0.00  0.00     0.184 C 
BRANCH   5   6
ATOM      6  S   UNL d   1      -6.175   3.788   1.561  0.00  0.00    -0.103 SA
BRANCH   6   7
ATOM      7  C   UNL d   1      -5.042   3.504   2.906  0.00  0.00     0.069 A 
ATOM      8  N   UNL d   1      -3.796   4.022   2.799  0.00  0.00    -0.361 N 
ATOM      9  C   UNL d   1      -2.971   3.849   3.856  0.00  0.00     0.089 A 
ATOM     10  HN  UNL d   1      -3.494   4.520   1.961  1.00  0.00     0.165 HD
ATOM     11  C   UNL d   1      -3.325   3.177   5.014  0.00  0.00     0.017 A 
ATOM     12  C   UNL d   1      -4.605   2.645   5.097  0.00  0.00     0.004 A 
ATOM     13  C   UNL d   1      -5.482   2.813   4.029  0.00  0.00     0.037 A 
ENDBRANCH   6   7
ENDBRANCH   5   6
ENDBRANCH   1   5
BRANCH   2  14
ATOM     14  C   UNL d   1      -2.112   1.260   0.004  0.00  0.00     0.036 A 
ATOM     15  C   UNL d   1      -2.515  -0.034   0.353  0.00  0.00     0.056 A 
ATOM     16  C   UNL d   1      -1.598  -1.087   0.333  0.00  0.00     0.074 A 
ATOM     17  C   UNL d   1      -0.279  -0.853  -0.043  0.00  0.00     0.138 A 
ATOM     18 CL   UNL d   1      -2.111  -2.667   0.789  0.00  0.00    -0.081 Cl
ATOM     19  C   UNL d   1       0.139   0.428  -0.382  0.00  0.00     0.046 A 
ATOM     20  F   UNL d   1       0.613  -1.853  -0.081  0.00  0.00    -0.204 F 
ATOM     21  C   UNL d   1      -0.774   1.487  -0.346  0.00  0.00     0.032 A 
ENDBRANCH   2  14
TORSDOF 4
