REMARK  3 active torsions:
REMARK  status: ('A' for Active; 'I' for Inactive)
REMARK    1  A    between atoms: C_2  and  S_1 
REMARK    2  A    between atoms: N_3  and  S_1 
REMARK    3  A    between atoms: C_11  and  N_3 
ROOT
ATOM      1  C   UNL d   1       0.666   1.687   0.430  0.00  0.00     0.092 C 
ATOM      2  C   UNL d   1       1.327   2.852  -0.050  0.00  0.00    -0.032 C 
ATOM      3  C   UNL d   1      -0.409   1.808   1.371  0.00  0.00    -0.032 C 
ATOM      4  C   UNL d   1       0.804   4.131   0.300  0.00  0.00    -0.048 C 
ATOM      5  C   UNL d   1      -0.776   3.097   1.859  0.00  0.00    -0.048 C 
ATOM      6  C   UNL d   1      -0.193   4.256   1.299  0.00  0.00    -0.049 C 
ATOM      7  C   UNL d   1       2.575   2.858  -0.900  0.00  0.00     0.050 C 
ATOM      8  C   UNL d   1      -1.173   0.626   1.931  0.00  0.00     0.050 C 
ATOM      9  C   UNL d   1       1.311   5.399  -0.368  0.00  0.00     0.049 C 
ATOM     10  C   UNL d   1      -1.797   3.266   2.968  0.00  0.00     0.049 C 
ATOM     11  C   UNL d   1      -0.604   5.645   1.748  0.00  0.00     0.049 C 
ENDROOT
BRANCH   1  12
ATOM     12  S   UNL d   1       1.079   0.027  -0.195  0.00  0.00     0.265 S 
ATOM     13  O   UNL d   1       2.255   0.046  -1.039  0.00  0.00    -0.200 OA
ATOM     14  O   UNL d   1      -0.141  -0.573  -0.681  0.00  0.00    -0.200 OA
BRANCH  12  15
ATOM     15  N   UNL d   1       1.515  -0.791   1.193  0.00  0.00    -0.270 N 
ATOM     16  H   UNL d   1       0.760  -1.372   1.548  0.00  0.00     0.180 HD
BRANCH  15  17
ATOM     17  C   UNL d   1       2.712  -0.710   1.903  0.00  0.00     0.080 C 
ATOM     18  N   UNL d   1       3.791  -0.220   1.409  0.00  0.00    -0.389 N 
ATOM     19  H   UNL d   1       3.639   0.015   0.418  0.00  0.00     0.157 HD
ATOM     20  HN  UNL d   1       4.663  -0.085   1.920  1.00  0.00     0.157 HD
ATOM     21  C   UNL d   1       2.695  -1.245   3.306  0.00  0.00     0.089 C 
ENDBRANCH  15  17
ENDBRANCH  12  15
ENDBRANCH   1  12
TORSDOF 3
