REMARK  6 active torsions:
REMARK  status: ('A' for Active; 'I' for Inactive)
REMARK    1  A    between atoms: C_5  and  N_1 
REMARK    2  A    between atoms: S_2  and  C_7 
REMARK    3  A    between atoms: N_17  and  S_2 
REMARK    4  A    between atoms: C_15  and  C_24 
REMARK    5  A    between atoms: C_25  and  N_17 
REMARK    6  A    between atoms: C_24  and  C_25 
ROOT
ATOM      1  C   UNL d   1       2.854  -1.631   0.123  0.00  0.00     0.067 A 
ATOM      2  C   UNL d   1       5.037  -3.376   0.339  0.00  0.00     0.076 A 
ATOM      3  C   UNL d   1       3.064  -2.637  -0.839  0.00  0.00     0.062 A 
ATOM      4  C   UNL d   1       4.158  -3.501  -0.738  0.00  0.00     0.051 A 
ATOM      5  C   UNL d   1       3.769  -1.496   1.179  0.00  0.00     0.033 A 
ATOM      6  C   UNL d   1       4.850  -2.377   1.298  0.00  0.00     0.027 A 
ATOM      7 CL   UNL d   1       2.087  -2.760  -2.264  0.00  0.00    -0.082 Cl
ENDROOT
BRANCH   2   8
ATOM      8  S   UNL d   1       6.469  -4.425   0.408  0.00  0.00     0.241 S 
ATOM      9  O   UNL d   1       7.081  -4.389  -0.899  0.00  0.00    -0.206 OA
ATOM     10  O   UNL d   1       7.213  -4.115   1.610  0.00  0.00    -0.206 OA
BRANCH   8  11
ATOM     11  N   UNL d   1       5.814  -5.974   0.579  0.00  0.00    -0.215 NA
ATOM     12  H   UNL d   1       6.301  -6.620  -0.046  0.00  0.00     0.139 HD
BRANCH  11  13
ATOM     13  C   UNL d   1       5.562  -6.438   1.954  0.00  0.00     0.109 C 
BRANCH  13  14
ATOM     14  C   UNL d   1       4.946  -7.841   1.958  0.00  0.00     0.061 C 
BRANCH  14  15
ATOM     15  C   UNL d   1       4.710  -8.314   3.365  0.00  0.00    -0.017 A 
ATOM     16  S   UNL d   1       5.951  -9.130   4.222  0.00  0.00    -0.106 SA
ATOM     17  C   UNL d   1       4.990  -9.245   5.631  0.00  0.00     0.050 A 
ATOM     18  C   UNL d   1       3.742  -8.694   5.451  0.00  0.00     0.008 A 
ATOM     19  C   UNL d   1       3.576  -8.163   4.139  0.00  0.00     0.015 A 
ENDBRANCH  14  15
ENDBRANCH  13  14
ENDBRANCH  11  13
ENDBRANCH   8  11
ENDBRANCH   2   8
BRANCH   1  20
ATOM     20  N   UNL d   1       1.748  -0.753   0.050  0.00  0.00    -0.250 N 
ATOM     21  C   UNL d   1       1.854   0.612   0.026  0.00  0.00     0.232 C 
ATOM     22  C   UNL d   1       0.480   1.203  -0.134  0.00  0.00     0.123 C 
ATOM     23  O   UNL d   1       2.875   1.285   0.069  0.00  0.00    -0.273 OA
ATOM     24  C   UNL d   1      -0.466   0.019   0.068  0.00  0.00     0.050 C 
ATOM     25  C   UNL d   1       0.447  -1.189   0.106  0.00  0.00     0.240 C 
ATOM     26  C   UNL d   1      -1.536  -0.120  -1.015  0.00  0.00     0.020 C 
ATOM     27  C   UNL d   1      -1.294   0.141   1.352  0.00  0.00     0.020 C 
ATOM     28  O   UNL d   1       0.058  -2.338   0.265  0.00  0.00    -0.272 OA
ATOM     29  C   UNL d   1      -2.687   0.768  -0.559  0.00  0.00     0.001 C 
ATOM     30  C   UNL d   1      -2.539   0.927   0.951  0.00  0.00     0.001 C 
ENDBRANCH   1  20
TORSDOF 6
