REMARK  10 active torsions:
REMARK  status: ('A' for Active; 'I' for Inactive)
REMARK    1  A    between atoms: S_11  and  C_2 
REMARK    2  A    between atoms: N_3  and  C_14 
REMARK    3  A    between atoms: N_4  and  C_13 
REMARK    4  A    between atoms: S_12  and  C_7 
REMARK    5  A    between atoms: C_23  and  S_11 
REMARK    6  A    between atoms: C_24  and  S_12 
REMARK    7  A    between atoms: C_17  and  C_24 
REMARK    8  A    between atoms: C_21  and  C_17 
REMARK    9  A    between atoms: C_18  and  C_23 
REMARK   10  A    between atoms: C_22  and  C_18 
ROOT
ATOM      1  C   UNL d   1      -0.362  -1.181  -0.006  0.00  0.00     0.103 A 
ATOM      2  C   UNL d   1       0.911  -0.671  -0.240  0.00  0.00     0.082 A 
ATOM      3  N   UNL d   1      -0.801   1.120   0.183  0.00  0.00    -0.319 N 
ATOM      4  HN  UNL d   1      -1.336   1.978   0.321  1.00  0.00     0.175 HD
ATOM      5  C   UNL d   1      -1.294  -0.116   0.234  0.00  0.00     0.099 A 
ATOM      6  S   UNL d   1       0.806   1.040  -0.137  0.00  0.00    -0.005 SA
ATOM      7  C   UNL d   1      -0.680  -2.575  -0.015  0.00  0.00     0.104 C 
ATOM      8  N   UNL d   1      -0.930  -3.709  -0.026  0.00  0.00    -0.191 NA
ENDROOT
BRANCH   2   9
ATOM      9  S   UNL d   1       2.402  -1.559  -0.590  0.00  0.00    -0.112 SA
BRANCH   9  10
ATOM     10  C   UNL d   1       3.640  -0.241  -0.757  0.00  0.00     0.164 C 
BRANCH  10  11
ATOM     11  C   UNL d   1       5.026  -0.791  -1.008  0.00  0.00     0.169 C 
ATOM     12  O   UNL d   1       5.777  -1.102  -0.085  0.00  0.00    -0.291 OA
BRANCH  11  13
ATOM     13  C   UNL d   1       5.538  -0.874  -2.407  0.00  0.00     0.011 A 
ATOM     14  C   UNL d   1       6.913  -0.691  -2.622  0.00  0.00     0.017 A 
ATOM     15  C   UNL d   1       7.453  -0.799  -3.909  0.00  0.00     0.037 A 
ATOM     16  C   UNL d   1       6.611  -1.108  -4.984  0.00  0.00     0.102 A 
ATOM     17  C   UNL d   1       5.234  -1.280  -4.780  0.00  0.00     0.037 A 
ATOM     18  C   UNL d   1       4.699  -1.157  -3.491  0.00  0.00     0.017 A 
BRANCH  16  19
ATOM     19  N   UNL d   1       7.176  -1.272  -6.330  0.00  0.00    -0.116 N 
ATOM     20  O   UNL d   1       6.398  -1.577  -7.246  0.00  0.00    -0.532 OA
ATOM     21  O   UNL d   1       8.394  -1.097  -6.470  0.00  0.00    -0.532 OA
ENDBRANCH  16  19
ENDBRANCH  11  13
ENDBRANCH  10  11
ENDBRANCH   9  10
ENDBRANCH   2   9
BRANCH   5  22
ATOM     22  S   UNL d   1      -3.014  -0.321   0.580  0.00  0.00    -0.102 SA
BRANCH  22  23
ATOM     23  C   UNL d   1      -3.546   1.417   0.754  0.00  0.00     0.164 C 
BRANCH  23  24
ATOM     24  C   UNL d   1      -5.016   1.559   1.114  0.00  0.00     0.169 C 
ATOM     25  O   UNL d   1      -5.779   0.609   1.268  0.00  0.00    -0.291 OA
BRANCH  24  26
ATOM     26  C   UNL d   1      -5.569   2.948   1.285  0.00  0.00     0.011 A 
ATOM     27  C   UNL d   1      -4.782   4.101   1.152  0.00  0.00     0.017 A 
ATOM     28  C   UNL d   1      -5.352   5.374   1.305  0.00  0.00     0.037 A 
ATOM     29  C   UNL d   1      -6.719   5.497   1.593  0.00  0.00     0.102 A 
ATOM     30  C   UNL d   1      -7.513   4.355   1.738  0.00  0.00     0.037 A 
ATOM     31  C   UNL d   1      -6.936   3.089   1.585  0.00  0.00     0.017 A 
BRANCH  29  32
ATOM     32  N   UNL d   1      -7.319   6.831   1.734  0.00  0.00    -0.116 N 
ATOM     33  O   UNL d   1      -8.534   6.895   1.966  0.00  0.00    -0.532 OA
ATOM     34  O   UNL d   1      -6.573   7.813   1.609  0.00  0.00    -0.532 OA
ENDBRANCH  29  32
ENDBRANCH  24  26
ENDBRANCH  23  24
ENDBRANCH  22  23
ENDBRANCH   5  22
TORSDOF 10
