REMARK  3 active torsions:
REMARK  status: ('A' for Active; 'I' for Inactive)
REMARK    1  A    between atoms: C_2  and  N_1 
REMARK    2  A    between atoms: O_4  and  C_3 
REMARK    3  A    between atoms: C_5  and  O_4 
ROOT
ATOM      1  C   UNL d   1      -3.579  -1.338   0.651  0.00  0.00     0.154 A 
ATOM      2  C   UNL d   1      -2.668  -1.894  -0.230  0.00  0.00     0.181 A 
ATOM      3  N   UNL d   1      -3.059  -2.727  -1.231  0.00  0.00    -0.345 N 
ATOM      4  HN  UNL d   1      -2.376  -3.169  -1.846  1.00  0.00     0.167 HD
ATOM      5  C   UNL d   1      -4.946  -1.593   0.498  0.00  0.00     0.042 A 
ATOM      6  C   UNL d   1      -4.386  -2.949  -1.383  0.00  0.00     0.090 A 
ATOM      7  C   UNL d   1      -5.355  -2.407  -0.554  0.00  0.00     0.020 A 
ENDROOT
BRANCH   2   8
ATOM      8  O   UNL d   1      -1.312  -1.647  -0.087  0.00  0.00    -0.291 OA
BRANCH   8   9
ATOM      9  C   UNL d   1      -0.570  -1.498  -1.247  0.00  0.00     0.084 A 
ATOM     10  C   UNL d   1       0.752  -1.992  -1.273  0.00  0.00    -0.022 A 
ATOM     11  C   UNL d   1       1.544  -1.763  -2.425  0.00  0.00    -0.053 A 
ATOM     12  C   UNL d   1       1.313  -2.757  -0.103  0.00  0.00     0.052 C 
ATOM     13  C   UNL d   1       2.989  -2.171  -2.538  0.00  0.00     0.049 C 
ATOM     14  C   UNL d   1       0.984  -1.102  -3.532  0.00  0.00     0.007 A 
ATOM     15  C   UNL d   1      -0.323  -0.625  -3.498  0.00  0.00     0.003 A 
ATOM     16  C   UNL d   1      -1.083  -0.795  -2.347  0.00  0.00     0.038 A 
ENDBRANCH   8   9
ENDBRANCH   2   8
BRANCH   1  17
ATOM     17  N   UNL d   1      -3.144  -0.461   1.702  0.00  0.00    -0.111 N 
ATOM     18  O   UNL d   1      -2.536   0.566   1.375  0.00  0.00    -0.532 OA
ATOM     19  O   UNL d   1      -3.475  -0.765   2.856  0.00  0.00    -0.532 OA
ENDBRANCH   1  17
TORSDOF 3
