REMARK  5 active torsions:
REMARK  status: ('A' for Active; 'I' for Inactive)
REMARK    1  A    between atoms: N_3  and  C_1 
REMARK    2  A    between atoms: C_2  and  N_3 
REMARK    3  A    between atoms: N_5  and  C_2 
REMARK    4  A    between atoms: C_4  and  C_13 
REMARK    5  A    between atoms: C_13  and  N_5 
ROOT
ATOM      1  C   UNL d   1       1.437   1.575   3.532  0.00  0.00     0.168 C 
ATOM      2  S   UNL d   1       1.782   3.108   4.101  0.00  0.00    -0.041 SA
ENDROOT
BRANCH   1   3
ATOM      3  N   UNL d   1       1.447   1.426   2.185  0.00  0.00    -0.358 N 
ATOM      4  H   UNL d   1       1.649   2.336   1.780  0.00  0.00     0.162 HD
BRANCH   3   5
ATOM      5  C   UNL d   1       0.791   0.515   1.220  0.00  0.00     0.033 C 
ATOM      6  C   UNL d   1      -0.739   0.722   1.284  0.00  0.00     0.035 C 
ATOM      7  C   UNL d   1      -1.441  -0.036   0.148  0.00  0.00    -0.012 C 
ATOM      8  C   UNL d   1      -0.901   0.456  -1.207  0.00  0.00     0.009 C 
ATOM      9  C   UNL d   1      -1.152  -1.538   0.301  0.00  0.00     0.009 C 
ATOM     10  C   UNL d   1       0.606   0.169  -1.307  0.00  0.00    -0.012 C 
ATOM     11  C   UNL d   1       1.323   0.926  -0.186  0.00  0.00     0.035 C 
ATOM     12  C   UNL d   1       0.870  -1.333  -1.138  0.00  0.00     0.009 C 
ATOM     13  C   UNL d   1       0.364  -1.795   0.236  0.00  0.00    -0.012 C 
ATOM     14  C   UNL d   1       1.080  -1.003   1.361  0.00  0.00     0.035 C 
ENDBRANCH   3   5
ENDBRANCH   1   3
BRANCH   1  15
ATOM     15  N   UNL d   1       1.197   0.486   4.293  0.00  0.00    -0.363 N 
ATOM     16  H   UNL d   1       0.944  -0.362   3.820  0.00  0.00     0.162 HD
BRANCH  15  17
ATOM     17  C   UNL d   1       1.557   0.308   5.699  0.00  0.00     0.162 C 
BRANCH  17  18
ATOM     18  C   UNL d   1       2.863  -0.434   5.911  0.00  0.00    -0.019 A 
ATOM     19  C   UNL d   1       3.334  -0.694   7.210  0.00  0.00     0.042 A 
ATOM     20 CL   UNL d   1       2.491  -0.124   8.611  0.00  0.00    -0.084 Cl
ATOM     21  C   UNL d   1       4.509  -1.427   7.423  0.00  0.00     0.024 A 
ATOM     22  C   UNL d   1       5.239  -1.912   6.338  0.00  0.00     0.002 A 
ATOM     23  C   UNL d   1       4.808  -1.642   5.046  0.00  0.00     0.001 A 
ATOM     24  C   UNL d   1       3.636  -0.911   4.830  0.00  0.00     0.010 A 
ENDBRANCH  17  18
ENDBRANCH  15  17
ENDBRANCH   1  15
TORSDOF 5
