REMARK  8 active torsions:
REMARK  status: ('A' for Active; 'I' for Inactive)
REMARK    1  A    between atoms: C_2  and  C_1 
REMARK    2  A    between atoms: C_10  and  C_7 
REMARK    3  A    between atoms: C_11  and  C_10 
REMARK    4  A    between atoms: C_15  and  C_11 
REMARK    5  A    between atoms: C_12  and  C_13 
REMARK    6  A    between atoms: C_13  and  C_14 
REMARK    7  A    between atoms: C_14  and  C_16 
REMARK    8  A    between atoms: C_16  and  C_15 
ROOT
ATOM      1  C   UNL d   1       1.404  -0.376   0.120  0.00  0.00    -0.026 A 
ATOM      2  C   UNL d   1       0.722   0.321   1.135  0.00  0.00     0.013 A 
ATOM      3  C   UNL d   1       0.653  -0.774  -0.996  0.00  0.00     0.013 A 
ATOM      4  C   UNL d   1      -0.648   0.593   1.045  0.00  0.00     0.008 A 
ATOM      5  C   UNL d   1      -0.709  -0.482  -1.103  0.00  0.00     0.008 A 
ATOM      6  C   UNL d   1      -1.377   0.189  -0.076  0.00  0.00    -0.058 A 
ENDROOT
BRANCH   6   7
ATOM      7  C   UNL d   1      -2.855   0.463  -0.178  0.00  0.00     0.038 C 
BRANCH   7   8
ATOM      8  C   UNL d   1      -3.654  -0.836  -0.291  0.00  0.00     0.005 C 
BRANCH   8   9
ATOM      9  C   UNL d   1      -5.151  -0.574  -0.413  0.00  0.00     0.000 C 
BRANCH   9  10
ATOM     10  C   UNL d   1      -5.900  -1.897  -0.543  0.00  0.00     0.000 C 
BRANCH  10  11
ATOM     11  C   UNL d   1      -7.404  -1.679  -0.670  0.00  0.00     0.000 C 
BRANCH  11  12
ATOM     12  C   UNL d   1      -8.130  -3.017  -0.793  0.00  0.00    -0.000 C 
BRANCH  12  13
ATOM     13  C   UNL d   1      -9.638  -2.818  -0.916  0.00  0.00    -0.005 C 
ATOM     14  C   UNL d   1     -10.358  -4.150  -1.037  0.00  0.00     0.005 C 
ENDBRANCH  12  13
ENDBRANCH  11  12
ENDBRANCH  10  11
ENDBRANCH   9  10
ENDBRANCH   8   9
ENDBRANCH   7   8
ENDBRANCH   6   7
BRANCH   1  15
ATOM     15  C   UNL d   1       2.851  -0.680   0.221  0.00  0.00    -0.026 A 
ATOM     16  C   UNL d   1       3.470  -0.921   1.461  0.00  0.00     0.012 A 
ATOM     17  C   UNL d   1       4.837  -1.210   1.551  0.00  0.00     0.001 A 
ATOM     18  C   UNL d   1       5.612  -1.278   0.399  0.00  0.00     0.000 A 
ATOM     19  C   UNL d   1       5.027  -1.049  -0.840  0.00  0.00     0.001 A 
ATOM     20  C   UNL d   1       3.665  -0.746  -0.925  0.00  0.00     0.012 A 
ENDBRANCH   1  15
TORSDOF 8
