REMARK  3 active torsions:
REMARK  status: ('A' for Active; 'I' for Inactive)
REMARK    1  A    between atoms: C_9  and  C_2 
REMARK    2  A    between atoms: C_13  and  C_3 
REMARK    3  A    between atoms: O_23  and  C_19 
ROOT
ATOM      1  C   UNL d   1       0.247  -0.725   0.040  0.00  0.00     0.141 A 
ATOM      2  C   UNL d   1       2.321   0.099  -0.034  0.00  0.00     0.147 A 
ATOM      3  C   UNL d   1       1.579  -1.121   0.032  0.00  0.00     0.053 A 
ATOM      4  N   UNL d   1       0.247   0.672   0.019  0.00  0.00    -0.243 N 
ATOM      5  N   UNL d   1       1.504   1.169  -0.006  0.00  0.00    -0.287 N 
ATOM      6  HN  UNL d   1       1.776   2.152  -0.005  1.00  0.00     0.187 HD
ATOM      7  N   UNL d   1      -0.925  -1.439   0.056  0.00  0.00    -0.344 N 
ATOM      8  HN  UNL d   1      -0.926  -2.459   0.082  1.00  0.00     0.167 HD
ATOM      9  C   UNL d   1      -0.952   1.398   0.015  0.00  0.00     0.034 A 
ATOM     10  C   UNL d   1      -2.122   0.732   0.021  0.00  0.00     0.051 A 
ATOM     11  C   UNL d   1      -2.034  -0.759   0.037  0.00  0.00     0.009 A 
ATOM     12  C   UNL d   1      -0.910   2.897   0.001  0.00  0.00     0.070 C 
ATOM     13  C   UNL d   1      -3.333  -1.524   0.023  0.00  0.00     0.068 C 
ENDROOT
BRANCH   3  14
ATOM     14  C   UNL d   1       2.023  -2.515   0.043  0.00  0.00    -0.020 A 
ATOM     15  C   UNL d   1       3.163  -2.899   0.760  0.00  0.00     0.015 A 
ATOM     16  C   UNL d   1       3.656  -4.210   0.693  0.00  0.00     0.037 A 
ATOM     17  C   UNL d   1       2.987  -5.175  -0.056  0.00  0.00     0.068 A 
ATOM     18  C   UNL d   1       1.816  -4.818  -0.724  0.00  0.00     0.037 A 
ATOM     19  C   UNL d   1       1.343  -3.501  -0.684  0.00  0.00     0.015 A 
BRANCH  17  20
ATOM     20  O   UNL d   1       3.365  -6.480  -0.205  0.00  0.00    -0.356 OA
ATOM     21  C   UNL d   1       4.610  -6.856   0.370  0.00  0.00     0.210 C 
ENDBRANCH  17  20
ENDBRANCH   3  14
BRANCH   2  22
ATOM     22  C   UNL d   1       3.812   0.310  -0.132  0.00  0.00     0.434 C 
ATOM     23  F   UNL d   1       4.516  -0.817  -0.415  0.00  0.00    -0.165 F 
ATOM     24  F   UNL d   1       4.143   1.202  -1.107  0.00  0.00    -0.165 F 
ATOM     25  F   UNL d   1       4.328   0.798   1.030  0.00  0.00    -0.165 F 
ENDBRANCH   2  22
TORSDOF 3
