REMARK  3 active torsions:
REMARK  status: ('A' for Active; 'I' for Inactive)
REMARK    1  A    between atoms: C_14  and  C_5 
REMARK    2  A    between atoms: O_13  and  C_6 
REMARK    3  A    between atoms: C_15  and  C_14 
ROOT
ATOM      1  N   UNL d   1      -0.022  -0.668   0.015  0.00  0.00    -0.274 N 
ATOM      2  C   UNL d   1       1.177  -1.362   0.067  0.00  0.00     0.263 A 
ATOM      3  N   UNL d   1       1.060   1.444   0.017  0.00  0.00    -0.322 N 
ATOM      4  HN  UNL d   1       1.015   2.462   0.053  1.00  0.00     0.169 HD
ATOM      5  C   UNL d   1       2.409  -0.541  -0.042  0.00  0.00     0.061 A 
ATOM      6  C   UNL d   1       2.250   0.789  -0.026  0.00  0.00     0.153 A 
ATOM      7  C   UNL d   1      -0.015   0.719   0.011  0.00  0.00     0.116 A 
ATOM      8  C   UNL d   1      -1.218  -1.378   0.002  0.00  0.00     0.102 A 
ATOM      9  O   UNL d   1       1.261  -2.584   0.199  0.00  0.00    -0.267 OA
ATOM     10  C   UNL d   1      -1.341   1.401  -0.007  0.00  0.00     0.049 A 
ATOM     11  C   UNL d   1      -2.405  -0.762  -0.034  0.00  0.00     0.018 A 
ATOM     12  C   UNL d   1      -2.465   0.676  -0.041  0.00  0.00     0.005 A 
ENDROOT
BRANCH   5  13
ATOM     13  C   UNL d   1       3.733  -1.255  -0.134  0.00  0.00     0.048 C 
BRANCH  13  14
ATOM     14  C   UNL d   1       3.903  -2.138  -1.379  0.00  0.00     0.000 C 
ATOM     15  C   UNL d   1       3.800  -1.377  -2.692  0.00  0.00     0.005 C 
ENDBRANCH  13  14
ENDBRANCH   5  13
BRANCH   6  16
ATOM     16  O   UNL d   1       3.338   1.620  -0.075  0.00  0.00    -0.345 OA
ATOM     17  H   UNL d   1       2.923   2.501  -0.031  0.00  0.00     0.219 HD
ENDBRANCH   6  16
TORSDOF 3
