REMARK  3 active torsions:
REMARK  status: ('A' for Active; 'I' for Inactive)
REMARK    1  A    between atoms: N_3  and  S_1 
REMARK    2  A    between atoms: C_4  and  S_1 
REMARK    3  A    between atoms: C_6  and  N_3 
ROOT
ATOM      1  S   UNL d   1       1.117   0.064  -0.044  0.00  0.00     0.259 S 
ATOM      2  O   UNL d   1       0.502   0.235  -1.342  0.00  0.00    -0.201 OA
ATOM      3  O   UNL d   1       2.547  -0.001   0.142  0.00  0.00    -0.201 OA
ENDROOT
BRANCH   1   4
ATOM      4  N   UNL d   1       0.461  -1.333   0.661  0.00  0.00    -0.310 N 
ATOM      5  H   UNL d   1       0.657  -1.388   1.660  0.00  0.00     0.172 HD
BRANCH   4   6
ATOM      6  C   UNL d   1      -0.863  -1.809   0.212  0.00  0.00     0.108 C 
ATOM      7  C   UNL d   1      -1.995  -0.847   0.522  0.00  0.00     0.166 C 
ATOM      8  S   UNL d   1      -3.458  -1.843   0.341  0.00  0.00     0.146 S 
ATOM      9  O   UNL d   1      -3.891  -1.777  -1.037  0.00  0.00    -0.228 OA
ATOM     10  O   UNL d   1      -4.346  -1.557   1.448  0.00  0.00    -0.228 OA
ATOM     11  C   UNL d   1      -2.672  -3.423   0.615  0.00  0.00     0.142 C 
ATOM     12  C   UNL d   1      -1.216  -3.110   0.947  0.00  0.00     0.041 C 
ENDBRANCH   4   6
ENDBRANCH   1   4
BRANCH   1  13
ATOM     13  C   UNL d   1       0.523   1.348   1.038  0.00  0.00     0.080 A 
ATOM     14  C   UNL d   1      -0.344   2.339   0.556  0.00  0.00     0.035 A 
ATOM     15  C   UNL d   1      -0.751   3.318   1.447  0.00  0.00    -0.021 A 
ATOM     16  C   UNL d   1      -1.685   4.452   1.254  0.00  0.00     0.068 C 
ATOM     17  C   UNL d   1      -0.322   3.307   2.767  0.00  0.00     0.075 A 
ATOM     18  C   UNL d   1      -1.394   5.232   2.538  0.00  0.00     0.180 C 
ATOM     19  O   UNL d   1      -0.829   4.333   3.521  0.00  0.00    -0.350 OA
ATOM     20  C   UNL d   1       0.531   2.340   3.257  0.00  0.00     0.039 A 
ATOM     21  C   UNL d   1       0.972   1.353   2.375  0.00  0.00     0.028 A 
ENDBRANCH   1  13
TORSDOF 3
