REMARK  9 active torsions:
REMARK  status: ('A' for Active; 'I' for Inactive)
REMARK    1  A    between atoms: N_2  and  C_1 
REMARK    2  A    between atoms: C_3  and  C_1 
REMARK    3  A    between atoms: N_4  and  C_1 
REMARK    4  A    between atoms: C_9  and  C_1 
REMARK       I    between atoms: C_5  and  N_2 
REMARK    5  A    between atoms: C_10  and  N_4 
REMARK    6  A    between atoms: C_8  and  C_5 
REMARK    7  A    between atoms: C_6  and  C_7 
REMARK    8  A    between atoms: O_20  and  C_9 
REMARK    9  A    between atoms: C_26  and  O_20 
ROOT
ATOM      1  C   UNL d   1       1.198   0.054  -0.000  0.00  0.00     0.297 C 
ENDROOT
BRANCH   1   2
ATOM      2  N   UNL d   1       0.619   0.352  -1.330  0.00  0.00    -0.314 N 
ATOM      3  C   UNL d   1       1.113   1.163  -2.315  0.00  0.00     0.255 C 
ATOM      4  O   UNL d   1       2.179   1.758  -2.233  0.00  0.00    -0.268 OA
ATOM      5  H   UNL d   1      -0.296  -0.052  -1.476  0.00  0.00     0.166 HD
BRANCH   3   6
ATOM      6  C   UNL d   1       0.370   1.208  -3.617  0.00  0.00     0.053 A 
ATOM      7  C   UNL d   1      -0.946   0.776  -3.835  0.00  0.00     0.049 A 
ATOM      8 CL   UNL d   1      -2.048   0.362  -2.567  0.00  0.00    -0.083 Cl
ATOM      9  C   UNL d   1      -1.450   0.687  -5.141  0.00  0.00     0.025 A 
ATOM     10  C   UNL d   1      -0.671   1.070  -6.232  0.00  0.00     0.002 A 
ATOM     11  C   UNL d   1       0.604   1.582  -6.024  0.00  0.00     0.001 A 
ATOM     12  C   UNL d   1       1.118   1.651  -4.728  0.00  0.00     0.019 A 
ENDBRANCH   3   6
ENDBRANCH   1   2
BRANCH   1  13
ATOM     13  C   UNL d   1       0.864  -1.471   0.340  0.00  0.00     0.442 C 
ATOM     14  F   UNL d   1       0.268  -2.091  -0.717  0.00  0.00    -0.166 F 
ATOM     15  F   UNL d   1       1.916  -2.240   0.697  0.00  0.00    -0.166 F 
ATOM     16  F   UNL d   1      -0.032  -1.544   1.364  0.00  0.00    -0.166 F 
ENDBRANCH   1  13
BRANCH   1  17
ATOM     17  N   UNL d   1       0.486   0.976   0.978  0.00  0.00    -0.347 N 
ATOM     18  H   UNL d   1       0.073   0.419   1.735  0.00  0.00     0.163 HD
BRANCH  17  19
ATOM     19  C   UNL d   1       0.999   2.196   1.436  0.00  0.00     0.045 A 
ATOM     20  C   UNL d   1       0.633   2.756   2.680  0.00  0.00     0.074 A 
ATOM     21  C   UNL d   1       1.107   4.040   3.054  0.00  0.00     0.018 A 
ATOM     22  C   UNL d   1       1.950   4.774   2.225  0.00  0.00     0.001 A 
ATOM     23  C   UNL d   1       2.322   4.235   1.014  0.00  0.00     0.002 A 
ATOM     24  C   UNL d   1       1.839   2.983   0.633  0.00  0.00     0.030 A 
BRANCH  20  25
ATOM     25  C   UNL d   1      -0.200   2.040   3.714  0.00  0.00     0.419 C 
ATOM     26  F   UNL d   1      -0.567   0.773   3.367  0.00  0.00    -0.166 F 
ATOM     27  F   UNL d   1       0.464   1.909   4.901  0.00  0.00    -0.166 F 
ATOM     28  F   UNL d   1      -1.355   2.697   4.015  0.00  0.00    -0.166 F 
ENDBRANCH  20  25
ENDBRANCH  17  19
ENDBRANCH   1  17
BRANCH   1  29
ATOM     29  C   UNL d   1       2.744  -0.003   0.146  0.00  0.00     0.318 C 
ATOM     30  O   UNL d   1       3.530  -0.309  -0.736  0.00  0.00    -0.260 OA
BRANCH  29  31
ATOM     31  O   UNL d   1       3.100   0.218   1.453  0.00  0.00    -0.318 OA
BRANCH  31  32
ATOM     32  C   UNL d   1       4.502   0.267   1.736  0.00  0.00     0.174 C 
ATOM     33  C   UNL d   1       5.021  -1.127   2.024  0.00  0.00     0.034 C 
ENDBRANCH  31  32
ENDBRANCH  29  31
ENDBRANCH   1  29
TORSDOF 9
