REMARK  1 active torsions:
REMARK  status: ('A' for Active; 'I' for Inactive)
REMARK    1  A    between atoms: O_12  and  C_4 
ROOT
ATOM      1  C   UNL d   1       2.118   0.154  -0.019  0.00  0.00     0.073 A 
ATOM      2  C   UNL d   1       3.564   0.158  -0.058  0.00  0.00     0.094 A 
ATOM      3  S   UNL d   1       1.177   1.585   0.005  0.00  0.00    -0.084 SA
ATOM      4  C   UNL d   1       1.295  -0.959  -0.003  0.00  0.00     0.097 A 
ATOM      5  N   UNL d   1       4.247  -0.976  -0.086  0.00  0.00    -0.353 N 
ATOM      6  HN  UNL d   1       3.832  -1.908  -0.067  1.00  0.00     0.166 HD
ATOM      7  C   UNL d   1      -0.106  -0.652   0.007  0.00  0.00     0.016 A 
ATOM      8  S   UNL d   1       4.529   1.583  -0.084  0.00  0.00    -0.081 SA
ATOM      9  C   UNL d   1      -0.311   0.727   0.009  0.00  0.00     0.018 A 
ATOM     10  C   UNL d   1       5.611  -0.715  -0.144  0.00  0.00     0.012 A 
ATOM     11  C   UNL d   1       5.942   0.625  -0.152  0.00  0.00     0.076 A 
ATOM     12  C   UNL d   1      -1.246  -1.494   0.009  0.00  0.00     0.015 A 
ATOM     13  C   UNL d   1      -1.606   1.284   0.012  0.00  0.00     0.020 A 
ATOM     14  C   UNL d   1       6.571  -1.847  -0.197  0.00  0.00     0.068 C 
ATOM     15  C   UNL d   1      -2.534  -0.948   0.009  0.00  0.00     0.001 A 
ATOM     16  C   UNL d   1      -2.710   0.429   0.009  0.00  0.00     0.001 A 
ENDROOT
BRANCH   4  17
ATOM     17  O   UNL d   1       1.774  -2.227  -0.007  0.00  0.00    -0.358 OA
ATOM     18  H   UNL d   1       2.756  -2.207  -0.024  0.00  0.00     0.217 HD
ENDBRANCH   4  17
TORSDOF 1
