REMARK  4 active torsions:
REMARK  status: ('A' for Active; 'I' for Inactive)
REMARK    1  A    between atoms: N_2  and  C_1 
REMARK    2  A    between atoms: N_7  and  C_3 
REMARK       I    between atoms: N_4  and  C_5 
REMARK       I    between atoms: C_6  and  N_4 
REMARK       I    between atoms: C_5  and  N_8 
REMARK    3  A    between atoms: C_9  and  C_6 
REMARK    4  A    between atoms: N_8  and  N_7 
ROOT
ATOM      1  C   UNL d   1       5.977  -0.212  -2.199  0.00  0.00     0.132 A 
ATOM      2  C   UNL d   1       4.658  -0.063  -1.719  0.00  0.00     0.083 A 
ATOM      3  N   UNL d   1       7.825   4.196  -3.086  0.00  0.00    -0.191 NA
ATOM      4  C   UNL d   1       4.231   1.282  -1.616  0.00  0.00     0.035 A 
ATOM      5  C   UNL d   1       6.814   0.873  -2.544  0.00  0.00     0.061 A 
ATOM      6  C   UNL d   1       7.164   3.292  -2.788  0.00  0.00     0.099 C 
ATOM      7  C   UNL d   1       6.341   2.175  -2.421  0.00  0.00     0.047 A 
ATOM      8  C   UNL d   1       5.045   2.377  -1.958  0.00  0.00     0.025 A 
ENDROOT
BRANCH   1   9
ATOM      9  N   UNL d   1       6.536  -1.514  -2.486  0.00  0.00    -0.113 N 
ATOM     10  O   UNL d   1       7.187  -2.063  -1.586  0.00  0.00    -0.532 OA
ATOM     11  O   UNL d   1       6.406  -1.931  -3.645  0.00  0.00    -0.532 OA
ENDBRANCH   1   9
BRANCH   2  12
ATOM     12  N   UNL d   1       3.762  -1.109  -1.416  0.00  0.00    -0.290 N 
ATOM     13  C   UNL d   1       2.380  -0.838  -1.008  0.00  0.00     0.178 C 
BRANCH  12  14
ATOM     14  N   UNL d   1       4.299  -2.352  -1.012  0.00  0.00    -0.249 N 
ATOM     15  C   UNL d   1       4.074  -2.846   0.261  0.00  0.00     0.341 C 
ATOM     16  N   UNL d   1       4.337  -4.190   0.439  0.00  0.00    -0.274 N 
ATOM     17  O   UNL d   1       3.641  -2.198   1.213  0.00  0.00    -0.245 OA
ATOM     18  C   UNL d   1       4.561  -5.143  -0.539  0.00  0.00     0.259 C 
ATOM     19  H   UNL d   1       4.201  -4.464   1.398  0.00  0.00     0.173 HD
ATOM     20  O   UNL d   1       4.626  -4.862  -1.734  0.00  0.00    -0.267 OA
ATOM     21  H   UNL d   1       4.386  -3.051  -1.757  0.00  0.00     0.192 HD
BRANCH  18  22
ATOM     22  C   UNL d   1       4.734  -6.568  -0.112  0.00  0.00     0.034 A 
ATOM     23  C   UNL d   1       5.267  -7.462  -1.057  0.00  0.00     0.044 A 
ATOM     24  C   UNL d   1       5.450  -8.810  -0.736  0.00  0.00     0.073 A 
ATOM     25 CL   UNL d   1       6.106  -9.880  -1.913  0.00  0.00    -0.081 Cl
ATOM     26  C   UNL d   1       5.106  -9.275   0.531  0.00  0.00     0.138 A 
ATOM     27  C   UNL d   1       4.562  -8.405   1.472  0.00  0.00     0.045 A 
ATOM     28  F   UNL d   1       5.265 -10.563   0.856  0.00  0.00    -0.204 F 
ATOM     29  C   UNL d   1       4.374  -7.052   1.155  0.00  0.00     0.020 A 
ENDBRANCH  18  22
ENDBRANCH  12  14
ENDBRANCH   2  12
TORSDOF 4
