REMARK  3 active torsions:
REMARK  status: ('A' for Active; 'I' for Inactive)
REMARK       I    between atoms: N_2  and  C_1 
REMARK    1  A    between atoms: C_5  and  C_1 
REMARK       I    between atoms: C_3  and  N_4 
REMARK    2  A    between atoms: C_10  and  C_3 
REMARK    3  A    between atoms: N_4  and  C_11 
ROOT
ATOM      1  C   UNL d   1       0.971  -0.035  -0.030  0.00  0.00     0.253 C 
ATOM      2  N   UNL d   1       0.293   0.693  -1.015  0.00  0.00    -0.348 N 
ATOM      3  C   UNL d   1      -0.808   1.636  -0.823  0.00  0.00     0.128 C 
ATOM      4  C   UNL d   1       0.700   0.545  -2.409  0.00  0.00     0.128 C 
ATOM      5  O   UNL d   1       1.998  -0.666  -0.272  0.00  0.00    -0.267 OA
ATOM      6  C   UNL d   1      -1.752   0.904  -3.045  0.00  0.00     0.087 C 
ATOM      7  C   UNL d   1      -2.044   1.114  -1.550  0.00  0.00     0.045 C 
ATOM      8  C   UNL d   1      -0.480   0.069  -3.260  0.00  0.00     0.045 C 
ENDROOT
BRANCH   6   9
ATOM      9  N   UNL d   1      -1.684   2.181  -3.746  0.00  0.00    -0.356 N 
ATOM     10  C   UNL d   1      -2.829   2.878  -4.072  0.00  0.00     0.222 C 
ATOM     11  O   UNL d   1      -3.954   2.419  -3.897  0.00  0.00    -0.273 OA
ATOM     12  H   UNL d   1      -0.789   2.642  -3.846  0.00  0.00     0.162 HD
BRANCH  10  13
ATOM     13  C   UNL d   1      -2.568   4.266  -4.668  0.00  0.00     0.078 C 
ATOM     14  C   UNL d   1      -1.885   5.203  -3.661  0.00  0.00     0.014 C 
ATOM     15  C   UNL d   1      -2.837   5.673  -2.563  0.00  0.00     0.001 C 
ATOM     16  C   UNL d   1      -4.081   6.335  -3.146  0.00  0.00     0.000 C 
ATOM     17  C   UNL d   1      -4.792   5.427  -4.143  0.00  0.00     0.001 C 
ATOM     18  C   UNL d   1      -3.846   4.906  -5.227  0.00  0.00     0.014 C 
ENDBRANCH  10  13
ENDBRANCH   6   9
BRANCH   1  19
ATOM     19  C   UNL d   1       0.468  -0.074   1.375  0.00  0.00     0.032 A 
ATOM     20  C   UNL d   1      -0.894  -0.167   1.683  0.00  0.00     0.018 A 
ATOM     21  C   UNL d   1      -1.328  -0.146   3.009  0.00  0.00     0.025 A 
ATOM     22  C   UNL d   1      -0.394  -0.122   4.040  0.00  0.00     0.034 A 
ATOM     23  C   UNL d   1       0.970  -0.128   3.753  0.00  0.00     0.025 A 
ATOM     24 CL   UNL d   1      -0.932  -0.105   5.673  0.00  0.00    -0.084 Cl
ATOM     25  C   UNL d   1       1.401  -0.099   2.422  0.00  0.00     0.018 A 
ENDBRANCH   1  19
TORSDOF 3
