REMARK  5 active torsions:
REMARK  status: ('A' for Active; 'I' for Inactive)
REMARK    1  A    between atoms: C_14  and  N_1 
REMARK    2  A    between atoms: C_7  and  C_14 
REMARK    3  A    between atoms: S_17  and  C_9 
REMARK    4  A    between atoms: C_15  and  C_16 
REMARK    5  A    between atoms: C_16  and  S_17 
ROOT
ATOM      1  C   UNL d   1       0.978  -3.397   0.046  0.00  0.00     0.161 A 
ATOM      2  O   UNL d   1       1.896  -3.125   1.028  0.00  0.00    -0.270 OA
ATOM      3  C   UNL d   1       2.939  -3.949   0.687  0.00  0.00     0.203 A 
ATOM      4  N   UNL d   1       1.418  -4.282  -0.825  0.00  0.00    -0.279 N 
ATOM      5  HN  UNL d   1       0.923  -4.631  -1.646  1.00  0.00     0.189 HD
ATOM      6  N   UNL d   1       2.683  -4.642  -0.405  0.00  0.00    -0.272 N 
ATOM      7  HN  UNL d   1       3.302  -5.317  -0.855  1.00  0.00     0.189 HD
ENDROOT
BRANCH   1   8
ATOM      8  C   UNL d   1      -0.278  -2.620   0.043  0.00  0.00     0.234 C 
BRANCH   8   9
ATOM      9  N   UNL d   1      -1.354  -3.365   0.681  0.00  0.00    -0.288 N 
ATOM     10  N   UNL d   1      -1.575  -3.159   2.001  0.00  0.00    -0.301 N 
ATOM     11  C   UNL d   1      -2.638  -3.921   2.289  0.00  0.00     0.041 A 
ATOM     12  HN  UNL d   1      -1.049  -2.557   2.635  1.00  0.00     0.187 HD
ATOM     13  C   UNL d   1      -3.170  -3.969   3.672  0.00  0.00     0.071 C 
ATOM     14  C   UNL d   1      -3.103  -4.585   1.140  0.00  0.00     0.058 A 
ATOM     15  C   UNL d   1      -2.279  -4.208   0.104  0.00  0.00     0.044 A 
ATOM     16 BR   UNL d   1      -4.575  -5.742   1.071  0.00  0.00    -0.047 Br
ATOM     17  C   UNL d   1      -2.313  -4.593  -1.330  0.00  0.00     0.071 C 
ENDBRANCH   8   9
ENDBRANCH   1   8
BRANCH   3  18
ATOM     18  S   UNL d   1       4.422  -4.014   1.592  0.00  0.00    -0.080 SA
BRANCH  18  19
ATOM     19  C   UNL d   1       5.394  -5.134   0.542  0.00  0.00     0.125 C 
BRANCH  19  20
ATOM     20  C   UNL d   1       6.795  -5.355   1.074  0.00  0.00    -0.005 A 
ATOM     21  C   UNL d   1       7.085  -6.414   1.958  0.00  0.00     0.042 A 
ATOM     22 CL   UNL d   1       5.865  -7.503   2.522  0.00  0.00    -0.084 Cl
ATOM     23  C   UNL d   1       8.388  -6.635   2.425  0.00  0.00     0.024 A 
ATOM     24  C   UNL d   1       9.428  -5.798   2.032  0.00  0.00     0.003 A 
ATOM     25  C   UNL d   1       9.161  -4.732   1.179  0.00  0.00     0.024 A 
ATOM     26  C   UNL d   1       7.861  -4.508   0.709  0.00  0.00     0.042 A 
ATOM     27 CL   UNL d   1       7.638  -3.147  -0.338  0.00  0.00    -0.084 Cl
ENDBRANCH  19  20
ENDBRANCH  18  19
ENDBRANCH   3  18
TORSDOF 5
