REMARK  3 active torsions:
REMARK  status: ('A' for Active; 'I' for Inactive)
REMARK    1  A    between atoms: O_9  and  N_1 
REMARK    2  A    between atoms: C_12  and  O_9 
REMARK    3  A    between atoms: C_13  and  C_12 
ROOT
ATOM      1  N   UNL d   1      -2.223   0.040  -0.496  0.00  0.00    -0.144 N 
ATOM      2  C   UNL d   1      -0.325   0.864   0.515  0.00  0.00     0.129 C 
ATOM      3  C   UNL d   1      -0.052  -0.564  -0.027  0.00  0.00     0.129 C 
ATOM      4  C   UNL d   1      -1.742   1.155   0.110  0.00  0.00     0.259 C 
ATOM      5  C   UNL d   1      -1.325  -0.951  -0.718  0.00  0.00     0.259 C 
ATOM      6  C   UNL d   1       1.076  -0.320  -1.022  0.00  0.00     0.159 C 
ATOM      7  C   UNL d   1       0.690   1.694  -0.267  0.00  0.00     0.159 C 
ATOM      8  O   UNL d   1       0.684   0.984  -1.537  0.00  0.00    -0.371 OA
ATOM      9  C   UNL d   1       2.073   1.326   0.194  0.00  0.00     0.004 C 
ATOM     10  C   UNL d   1       2.308   0.088  -0.268  0.00  0.00     0.004 C 
ATOM     11  O   UNL d   1      -2.320   2.210   0.320  0.00  0.00    -0.270 OA
ATOM     12  O   UNL d   1      -1.485  -1.988  -1.347  0.00  0.00    -0.270 OA
ENDROOT
BRANCH   1  13
ATOM     13  O   UNL d   1      -3.542  -0.059  -0.935  0.00  0.00    -0.183 OA
BRANCH  13  14
ATOM     14  C   UNL d   1      -4.287  -0.738  -0.024  0.00  0.00     0.305 C 
ATOM     15  O   UNL d   1      -3.858  -1.196   1.031  0.00  0.00    -0.258 OA
BRANCH  14  16
ATOM     16  C   UNL d   1      -5.695  -0.955  -0.416  0.00  0.00     0.086 C 
ATOM     17  C   UNL d   1      -6.506  -0.328  -1.289  0.00  0.00    -0.082 C 
ATOM     18  C   UNL d   1      -6.167   0.836  -2.176  0.00  0.00     0.043 C 
ATOM     19  C   UNL d   1      -7.944  -0.777  -1.406  0.00  0.00     0.043 C 
ENDBRANCH  14  16
ENDBRANCH  13  14
ENDBRANCH   1  13
TORSDOF 3
