REMARK  7 active torsions:
REMARK  status: ('A' for Active; 'I' for Inactive)
REMARK    1  A    between atoms: S_11  and  C_2 
REMARK    2  A    between atoms: C_16  and  C_7 
REMARK    3  A    between atoms: C_10  and  O_20 
REMARK    4  A    between atoms: S_18  and  C_16 
REMARK    5  A    between atoms: C_21  and  S_18 
REMARK    6  A    between atoms: O_20  and  C_22 
REMARK    7  A    between atoms: C_22  and  C_21 
ROOT
ATOM      1  S   UNL d   1      -3.209  -1.982  -0.327  0.00  0.00    -0.159 SA
ENDROOT
BRANCH   1   2
ATOM      2  C   UNL d   1      -2.857  -0.206  -0.177  0.00  0.00     0.151 C 
BRANCH   2   3
ATOM      3  C   UNL d   1      -3.372   0.578  -1.329  0.00  0.00     0.109 A 
ATOM      4  N   UNL d   1      -4.468   1.309  -1.325  0.00  0.00    -0.286 N 
ATOM      5  N   UNL d   1      -4.599   1.890  -2.558  0.00  0.00    -0.279 N 
ATOM      6  HN  UNL d   1      -5.108   1.424  -0.538  1.00  0.00     0.188 HD
ATOM      7  C   UNL d   1      -3.582   1.512  -3.297  0.00  0.00     0.159 A 
ATOM      8  HN  UNL d   1      -5.355   2.508  -2.852  1.00  0.00     0.189 HD
ATOM      9  N   UNL d   1      -2.772   0.681  -2.571  0.00  0.00    -0.319 N 
ATOM     10  C   UNL d   1      -1.557   0.013  -2.958  0.00  0.00     0.159 C 
BRANCH   7  11
ATOM     11  S   UNL d   1      -3.355   2.012  -4.936  0.00  0.00    -0.105 SA
ATOM     12  H   UNL d   1      -2.115   1.582  -5.182  0.00  0.00     0.110 HD
ENDBRANCH   7  11
ENDBRANCH   2   3
ENDBRANCH   1   2
BRANCH   1  13
ATOM     13  C   UNL d   1      -5.027  -1.967  -0.091  0.00  0.00     0.101 C 
BRANCH  13  14
ATOM     14  C   UNL d   1      -5.537  -3.405  -0.208  0.00  0.00     0.186 C 
BRANCH  14  15
ATOM     15  O   UNL d   1      -6.964  -3.436  -0.086  0.00  0.00    -0.349 OA
BRANCH  15  16
ATOM     16  C   UNL d   1      -7.531  -4.688  -0.131  0.00  0.00     0.090 A 
ATOM     17  C   UNL d   1      -8.740  -4.887   0.559  0.00  0.00     0.069 A 
ATOM     18  C   UNL d   1      -9.374  -6.133   0.546  0.00  0.00     0.050 A 
ATOM     19 CL   UNL d   1      -9.477  -3.614   1.468  0.00  0.00    -0.081 Cl
ATOM     20  C   UNL d   1      -8.810  -7.185  -0.169  0.00  0.00     0.035 A 
ATOM     21  C   UNL d   1      -7.627  -6.999  -0.877  0.00  0.00     0.026 A 
ATOM     22 CL   UNL d   1      -9.578  -8.724  -0.188  0.00  0.00    -0.084 Cl
ATOM     23  C   UNL d   1      -6.994  -5.753  -0.862  0.00  0.00     0.040 A 
ENDBRANCH  15  16
ENDBRANCH  14  15
ENDBRANCH  13  14
ENDBRANCH   1  13
TORSDOF 7
