REMARK  3 active torsions:
REMARK  status: ('A' for Active; 'I' for Inactive)
REMARK    1  A    between atoms: C_2  and  C_1 
REMARK    2  A    between atoms: O_3  and  C_1 
REMARK    3  A    between atoms: C_4  and  O_3 
ROOT
ATOM      1  C   UNL d   1       0.978  -0.059  -0.064  0.00  0.00     0.301 C 
ATOM      2  O   UNL d   1       2.193   0.071  -0.021  0.00  0.00    -0.259 OA
ENDROOT
BRANCH   1   3
ATOM      3  C   UNL d   1       0.215  -0.751   1.006  0.00  0.00     0.078 A 
ATOM      4  C   UNL d   1      -1.180  -0.807   1.045  0.00  0.00     0.132 A 
ATOM      5  F   UNL d   1      -1.937  -0.231   0.102  0.00  0.00    -0.205 F 
ATOM      6  C   UNL d   1      -1.840  -1.463   2.086  0.00  0.00     0.043 A 
ATOM      7  C   UNL d   1      -1.109  -2.071   3.105  0.00  0.00     0.003 A 
ATOM      8  C   UNL d   1       0.284  -2.021   3.083  0.00  0.00     0.001 A 
ATOM      9  C   UNL d   1       0.943  -1.364   2.040  0.00  0.00     0.021 A 
ENDBRANCH   1   3
BRANCH   1  10
ATOM     10  O   UNL d   1       0.135   0.399  -1.062  0.00  0.00    -0.275 OA
BRANCH  10  11
ATOM     11  C   UNL d   1       0.622   1.136  -2.163  0.00  0.00     0.082 A 
ATOM     12  C   UNL d   1       1.833   0.861  -2.795  0.00  0.00     0.061 A 
ATOM     13  C   UNL d   1       2.214   1.634  -3.892  0.00  0.00     0.038 A 
ATOM     14 CL   UNL d   1       3.718   1.323  -4.670  0.00  0.00    -0.084 Cl
ATOM     15  C   UNL d   1       1.391   2.652  -4.370  0.00  0.00     0.048 A 
ATOM     16  C   UNL d   1       0.170   2.893  -3.745  0.00  0.00     0.038 A 
ATOM     17  C   UNL d   1      -0.225   2.136  -2.644  0.00  0.00     0.061 A 
ATOM     18 CL   UNL d   1      -0.863   4.133  -4.342  0.00  0.00    -0.084 Cl
ENDBRANCH  10  11
ENDBRANCH   1  10
TORSDOF 3
