REMARK  5 active torsions:
REMARK  status: ('A' for Active; 'I' for Inactive)
REMARK       I    between atoms: C_3  and  N_1 
REMARK    1  A    between atoms: C_2  and  C_3 
REMARK    2  A    between atoms: S_15  and  C_7 
REMARK    3  A    between atoms: C_28  and  N_8 
REMARK    4  A    between atoms: C_13  and  C_14 
REMARK    5  A    between atoms: C_19  and  S_15 
ROOT
ATOM      1  N   UNL d   1      -0.214  -1.050  -0.112  0.00  0.00    -0.222 N 
ATOM      2  C   UNL d   1      -0.508  -2.447  -0.274  0.00  0.00     0.295 C 
ATOM      3  N   UNL d   1       1.095  -0.666  -0.051  0.00  0.00    -0.294 N 
ATOM      4  HN  UNL d   1       1.913  -1.274  -0.051  1.00  0.00     0.187 HD
ATOM      5  C   UNL d   1      -1.059   0.059  -0.023  0.00  0.00     0.053 A 
ATOM      6  C   UNL d   1      -0.230   1.167  -0.002  0.00  0.00     0.055 A 
ATOM      7  C   UNL d   1       1.085   0.665   0.008  0.00  0.00     0.041 A 
ATOM      8  O   UNL d   1      -1.681  -2.744  -0.485  0.00  0.00    -0.264 OA
ATOM      9  C   UNL d   1      -2.545  -0.002   0.035  0.00  0.00     0.072 C 
ATOM     10  C   UNL d   1       2.378   1.389   0.095  0.00  0.00     0.071 C 
ENDROOT
BRANCH   6  11
ATOM     11  S   UNL d   1      -0.722   2.840   0.116  0.00  0.00    -0.069 SA
BRANCH  11  12
ATOM     12  C   UNL d   1      -0.164   3.593  -1.406  0.00  0.00     0.074 A 
ATOM     13  N   UNL d   1       0.556   2.862  -2.286  0.00  0.00    -0.359 N 
ATOM     14  C   UNL d   1       0.944   3.458  -3.439  0.00  0.00     0.105 A 
ATOM     15  HN  UNL d   1       0.800   1.892  -2.087  1.00  0.00     0.166 HD
ATOM     16  C   UNL d   1       0.646   4.768  -3.776  0.00  0.00     0.063 A 
ATOM     17  C   UNL d   1      -0.089   5.513  -2.850  0.00  0.00     0.020 A 
ATOM     18  C   UNL d   1      -0.495   4.922  -1.652  0.00  0.00     0.038 A 
BRANCH  16  19
ATOM     19  C   UNL d   1       1.079   5.344  -5.090  0.00  0.00     0.418 C 
ATOM     20  F   UNL d   1       1.785   4.473  -5.861  0.00  0.00    -0.166 F 
ATOM     21  F   UNL d   1       0.027   5.749  -5.851  0.00  0.00    -0.166 F 
ATOM     22  F   UNL d   1       1.875   6.439  -4.941  0.00  0.00    -0.166 F 
ENDBRANCH  16  19
ENDBRANCH  11  12
ENDBRANCH   6  11
BRANCH   2  23
ATOM     23  C   UNL d   1       0.537  -3.468  -0.221  0.00  0.00     0.122 A 
ATOM     24  N   UNL d   1       0.499  -4.696  -0.843  0.00  0.00    -0.287 N 
ATOM     25  N   UNL d   1       1.625  -5.423  -0.677  0.00  0.00    -0.302 N 
ATOM     26  C   UNL d   1       2.407  -4.656   0.085  0.00  0.00     0.024 A 
ATOM     27  HN  UNL d   1       1.832  -6.350  -1.051  1.00  0.00     0.186 HD
ATOM     28  C   UNL d   1       1.760  -3.456   0.431  0.00  0.00     0.063 A 
ATOM     29  C   UNL d   1       3.777  -5.089   0.447  0.00  0.00     0.070 C 
BRANCH  24  30
ATOM     30  C   UNL d   1      -0.534  -5.241  -1.708  0.00  0.00     0.145 C 
ATOM     31  C   UNL d   1      -1.499  -6.145  -0.962  0.00  0.00     0.028 C 
ENDBRANCH  24  30
ENDBRANCH   2  23
TORSDOF 5
