REMARK  4 active torsions:
REMARK  status: ('A' for Active; 'I' for Inactive)
REMARK    1  A    between atoms: C_7  and  C_2 
REMARK    2  A    between atoms: N_6  and  C_3 
REMARK    3  A    between atoms: N_10  and  C_5 
REMARK    4  A    between atoms: O_13  and  C_7 
ROOT
ATOM      1  C   UNL d   1      -0.548   0.329   0.052  0.00  0.00     0.106 A 
ATOM      2  C   UNL d   1       1.284  -1.130   0.013  0.00  0.00     0.110 A 
ATOM      3  C   UNL d   1       0.490   1.252   0.033  0.00  0.00     0.096 A 
ATOM      4  S   UNL d   1       2.002   0.427   0.000  0.00  0.00    -0.063 SA
ATOM      5  C   UNL d   1      -0.095  -1.032   0.042  0.00  0.00     0.073 A 
ATOM      6  C   UNL d   1      -1.933   0.710   0.039  0.00  0.00     0.104 C 
ATOM      7  N   UNL d   1      -3.062   0.983   0.048  0.00  0.00    -0.191 NA
ENDROOT
BRANCH   3   8
ATOM      8  N   UNL d   1       0.385   2.626   0.012  0.00  0.00    -0.370 N 
ATOM      9  C   UNL d   1       1.445   3.442  -0.624  0.00  0.00     0.149 C 
ATOM     10  C   UNL d   1       0.894   4.846  -0.930  0.00  0.00     0.187 C 
ATOM     11  O   UNL d   1       0.393   5.488   0.255  0.00  0.00    -0.388 OA
ATOM     12  C   UNL d   1      -0.650   4.696   0.850  0.00  0.00     0.187 C 
ATOM     13  C   UNL d   1      -0.138   3.296   1.226  0.00  0.00     0.149 C 
ENDBRANCH   3   8
BRANCH   5  14
ATOM     14  N   UNL d   1      -0.926  -2.100   0.051  0.00  0.00    -0.397 N 
ATOM     15  H   UNL d   1      -0.569  -3.056   0.024  0.00  0.00     0.156 HD
ATOM     16  H   UNL d   1      -1.942  -2.042   0.062  0.00  0.00     0.156 HD
ENDBRANCH   5  14
BRANCH   2  17
ATOM     17  C   UNL d   1       2.169  -2.285  -0.016  0.00  0.00     0.302 C 
ATOM     18  O   UNL d   1       3.395  -2.259  -0.033  0.00  0.00    -0.259 OA
BRANCH  17  19
ATOM     19  O   UNL d   1       1.444  -3.448  -0.025  0.00  0.00    -0.322 OA
ATOM     20  C   UNL d   1       2.237  -4.636  -0.063  0.00  0.00     0.213 C 
ENDBRANCH  17  19
ENDBRANCH   2  17
TORSDOF 4
