REMARK  6 active torsions:
REMARK  status: ('A' for Active; 'I' for Inactive)
REMARK    1  A    between atoms: N_4  and  C_1 
REMARK    2  A    between atoms: S_11  and  C_3 
REMARK       I    between atoms: C_10  and  N_4 
REMARK    3  A    between atoms: C_9  and  S_11 
REMARK    4  A    between atoms: C_12  and  C_9 
REMARK    5  A    between atoms: C_13  and  C_9 
REMARK    6  A    between atoms: C_14  and  C_10 
REMARK       I    between atoms: N_18  and  C_12 
ROOT
ATOM      1  C   UNL d   1      -0.061   1.139  -0.178  0.00  0.00     0.168 A 
ATOM      2  S   UNL d   1       1.007  -0.033   0.447  0.00  0.00    -0.026 SA
ATOM      3  C   UNL d   1      -0.147  -1.221   0.049  0.00  0.00     0.131 A 
ATOM      4  N   UNL d   1      -1.212   0.643  -0.590  0.00  0.00    -0.278 N 
ATOM      5  HN  UNL d   1      -1.980   1.210  -0.951  1.00  0.00     0.189 HD
ATOM      6  N   UNL d   1      -1.259  -0.743  -0.473  0.00  0.00    -0.286 N 
ATOM      7  HN  UNL d   1      -2.053  -1.317  -0.756  1.00  0.00     0.188 HD
ENDROOT
BRANCH   1   8
ATOM      8  N   UNL d   1       0.259   2.481  -0.248  0.00  0.00    -0.302 N 
ATOM      9  C   UNL d   1       1.508   3.009   0.011  0.00  0.00     0.257 C 
ATOM     10  O   UNL d   1       2.486   2.386   0.414  0.00  0.00    -0.267 OA
ATOM     11  H   UNL d   1      -0.501   3.067  -0.561  0.00  0.00     0.171 HD
BRANCH   9  12
ATOM     12  C   UNL d   1       1.710   4.469  -0.239  0.00  0.00     0.032 A 
ATOM     13  C   UNL d   1       2.812   5.078   0.389  0.00  0.00     0.018 A 
ATOM     14  C   UNL d   1       3.139   6.411   0.135  0.00  0.00     0.025 A 
ATOM     15  C   UNL d   1       2.362   7.148  -0.753  0.00  0.00     0.034 A 
ATOM     16  C   UNL d   1       1.258   6.563  -1.376  0.00  0.00     0.025 A 
ATOM     17 CL   UNL d   1       2.783   8.778  -1.103  0.00  0.00    -0.084 Cl
ATOM     18  C   UNL d   1       0.930   5.223  -1.124  0.00  0.00     0.018 A 
ENDBRANCH   9  12
ENDBRANCH   1   8
BRANCH   3  19
ATOM     19  S   UNL d   1       0.158  -2.908   0.327  0.00  0.00    -0.081 SA
BRANCH  19  20
ATOM     20  C   UNL d   1      -0.747  -3.733  -1.024  0.00  0.00     0.215 C 
BRANCH  20  21
ATOM     21  C   UNL d   1      -0.207  -3.274  -2.378  0.00  0.00     0.238 C 
ATOM     22  O   UNL d   1       0.744  -3.815  -2.933  0.00  0.00    -0.272 OA
ATOM     23  N   UNL d   1      -0.911  -2.232  -2.954  0.00  0.00    -0.364 N 
ATOM     24  C   UNL d   1      -0.498  -1.671  -4.218  0.00  0.00     0.149 C 
ATOM     25  H   UNL d   1      -1.468  -1.637  -2.345  0.00  0.00     0.161 HD
ENDBRANCH  20  21
BRANCH  20  26
ATOM     26  C   UNL d   1      -0.636  -5.253  -0.869  0.00  0.00     0.146 C 
ATOM     27  O   UNL d   1      -0.146  -5.813   0.116  0.00  0.00    -0.297 OA
ATOM     28  C   UNL d   1      -1.224  -6.102  -1.971  0.00  0.00     0.092 C 
ENDBRANCH  20  26
ENDBRANCH  19  20
ENDBRANCH   3  19
TORSDOF 6
