REMARK  4 active torsions:
REMARK  status: ('A' for Active; 'I' for Inactive)
REMARK    1  A    between atoms: C_14  and  C_6 
REMARK    2  A    between atoms: O_12  and  C_7 
REMARK    3  A    between atoms: O_13  and  C_8 
REMARK    4  A    between atoms: C_16  and  C_14 
ROOT
ATOM      1  C   UNL d   1       0.139   0.209  -0.004  0.00  0.00     0.084 A 
ATOM      2  C   UNL d   1      -0.063  -1.173  -0.010  0.00  0.00     0.126 A 
ATOM      3  C   UNL d   1      -1.032   1.090   0.003  0.00  0.00     0.190 A 
ATOM      4  C   UNL d   1      -2.352   0.451   0.019  0.00  0.00     0.088 A 
ATOM      5  O   UNL d   1      -1.326  -1.727  -0.009  0.00  0.00    -0.311 OA
ATOM      6  C   UNL d   1      -2.430  -0.888   0.021  0.00  0.00     0.057 A 
ATOM      7  C   UNL d   1       1.435   0.731  -0.004  0.00  0.00     0.082 A 
ATOM      8  C   UNL d   1       1.040  -2.044  -0.019  0.00  0.00     0.103 A 
ATOM      9  O   UNL d   1      -0.913   2.312  -0.001  0.00  0.00    -0.287 OA
ATOM     10  C   UNL d   1       2.530  -0.123  -0.011  0.00  0.00     0.040 A 
ATOM     11  C   UNL d   1       2.334  -1.507  -0.019  0.00  0.00     0.042 A 
ENDROOT
BRANCH   6  12
ATOM     12  C   UNL d   1      -3.756  -1.605   0.038  0.00  0.00     0.065 C 
BRANCH  12  13
ATOM     13  C   UNL d   1      -3.961  -2.512   1.256  0.00  0.00     0.002 C 
ATOM     14  C   UNL d   1      -3.933  -1.766   2.583  0.00  0.00     0.005 C 
ENDBRANCH  12  13
ENDBRANCH   6  12
BRANCH   8  15
ATOM     15  O   UNL d   1       0.756  -3.386  -0.029  0.00  0.00    -0.353 OA
ATOM     16  C   UNL d   1       1.859  -4.285  -0.049  0.00  0.00     0.210 C 
ENDBRANCH   8  15
BRANCH   7  17
ATOM     17  O   UNL d   1       1.702   2.073   0.003  0.00  0.00    -0.360 OA
ATOM     18  H   UNL d   1       0.844   2.555   0.004  0.00  0.00     0.217 HD
ENDBRANCH   7  17
TORSDOF 4
