REMARK  5 active torsions:
REMARK  status: ('A' for Active; 'I' for Inactive)
REMARK    1  A    between atoms: C_2  and  S_1 
REMARK    2  A    between atoms: N_5  and  S_1 
REMARK    3  A    between atoms: C_12  and  C_4 
REMARK    4  A    between atoms: N_10  and  N_5 
REMARK    5  A    between atoms: C_16  and  C_15 
ROOT
ATOM      1  S   UNL d   1       0.946   0.061   0.137  0.00  0.00     0.282 S 
ATOM      2  O   UNL d   1       0.121   0.497  -0.972  0.00  0.00    -0.198 OA
ATOM      3  O   UNL d   1       2.392   0.101   0.079  0.00  0.00    -0.198 OA
ENDROOT
BRANCH   1   4
ATOM      4  C   UNL d   1       0.575  -1.675   0.271  0.00  0.00     0.122 A 
ATOM      5  S   UNL d   1      -0.274  -2.203   1.653  0.00  0.00    -0.074 SA
ATOM      6  C   UNL d   1      -0.278  -3.842   1.127  0.00  0.00     0.033 A 
ATOM      7  C   UNL d   1       0.355  -3.958  -0.101  0.00  0.00     0.023 A 
ATOM      8  C   UNL d   1       0.845  -2.717  -0.590  0.00  0.00     0.034 A 
BRANCH   6   9
ATOM      9  C   UNL d   1      -0.888  -4.903   1.944  0.00  0.00     0.049 A 
ATOM     10  N   UNL d   1      -1.911  -4.531   2.750  0.00  0.00    -0.365 N 
ATOM     11  C   UNL d   1      -2.518  -5.503   3.468  0.00  0.00     0.088 A 
ATOM     12  HN  UNL d   1      -2.212  -3.558   2.812  1.00  0.00     0.165 HD
ATOM     13  C   UNL d   1      -2.155  -6.839   3.424  0.00  0.00     0.017 A 
ATOM     14  C   UNL d   1      -1.099  -7.203   2.600  0.00  0.00     0.004 A 
ATOM     15  C   UNL d   1      -0.454  -6.224   1.850  0.00  0.00     0.031 A 
ENDBRANCH   6   9
ENDBRANCH   1   4
BRANCH   1  16
ATOM     16  N   UNL d   1       0.409   0.865   1.551  0.00  0.00    -0.223 N 
ATOM     17  H   UNL d   1      -0.522   0.549   1.831  0.00  0.00     0.200 HD
BRANCH  16  18
ATOM     18  N   UNL d   1       0.690   2.282   1.623  0.00  0.00    -0.302 N 
ATOM     19  C   UNL d   1       0.108   2.909   2.594  0.00  0.00     0.119 C 
ATOM     20  HN  UNL d   1       1.302   2.753   0.957  1.00  0.00     0.186 HD
BRANCH  19  21
ATOM     21  C   UNL d   1       0.273   4.366   2.767  0.00  0.00    -0.019 A 
ATOM     22  C   UNL d   1       1.026   5.111   1.852  0.00  0.00     0.014 A 
ATOM     23  C   UNL d   1       1.158   6.491   2.019  0.00  0.00     0.024 A 
ATOM     24  C   UNL d   1       0.539   7.119   3.099  0.00  0.00     0.034 A 
ATOM     25  C   UNL d   1      -0.209   6.379   4.016  0.00  0.00     0.024 A 
ATOM     26 CL   UNL d   1       0.696   8.820   3.301  0.00  0.00    -0.084 Cl
ATOM     27  C   UNL d   1      -0.345   4.997   3.851  0.00  0.00     0.014 A 
ENDBRANCH  19  21
ENDBRANCH  16  18
ENDBRANCH   1  16
TORSDOF 5
