REMARK  3 active torsions:
REMARK  status: ('A' for Active; 'I' for Inactive)
REMARK    1  A    between atoms: C_7  and  C_3 
REMARK    2  A    between atoms: C_12  and  C_7 
REMARK    3  A    between atoms: N_9  and  C_8 
ROOT
ATOM      1  C   UNL d   1       1.545  -1.001   3.460  0.00  0.00     0.231 A 
ATOM      2  N   UNL d   1       1.919  -1.747   4.574  0.00  0.00    -0.326 N 
ATOM      3  C   UNL d   1       0.774  -1.944   2.516  0.00  0.00     0.117 A 
ATOM      4  C   UNL d   1       1.462  -3.051   4.486  0.00  0.00     0.042 A 
ATOM      5  C   UNL d   1       0.733  -3.222   3.310  0.00  0.00    -0.018 A 
ATOM      6  O   UNL d   1       1.788   0.178   3.276  0.00  0.00    -0.272 OA
ATOM      7  C   UNL d   1       0.140  -4.437   3.016  0.00  0.00     0.010 A 
ATOM      8  C   UNL d   1       1.667  -4.075   5.383  0.00  0.00     0.030 A 
ATOM      9  C   UNL d   1       0.331  -5.491   3.913  0.00  0.00     0.001 A 
ATOM     10  C   UNL d   1       1.096  -5.314   5.081  0.00  0.00     0.002 A 
ATOM     11  H   UNL d   1       2.467  -1.363   5.328  0.00  0.00     0.169 HD
ENDROOT
BRANCH   3  12
ATOM     12  C   UNL d   1       1.461  -2.058   1.148  0.00  0.00     0.057 C 
BRANCH  12  13
ATOM     13  C   UNL d   1       2.869  -2.619   1.162  0.00  0.00    -0.057 A 
ATOM     14  C   UNL d   1       3.100  -3.991   1.061  0.00  0.00     0.009 A 
ATOM     15  C   UNL d   1       4.405  -4.506   1.099  0.00  0.00     0.030 A 
ATOM     16  C   UNL d   1       5.535  -3.682   1.219  0.00  0.00     0.029 A 
ATOM     17  C   UNL d   1       5.275  -2.306   1.319  0.00  0.00     0.030 A 
ATOM     18  C   UNL d   1       3.973  -1.779   1.300  0.00  0.00     0.009 A 
BRANCH  16  19
ATOM     19  N   UNL d   1       6.825  -4.186   1.214  0.00  0.00    -0.390 N 
ATOM     20  C   UNL d   1       7.922  -3.512   1.901  0.00  0.00     0.149 C 
ATOM     21  C   UNL d   1       7.152  -5.494   0.655  0.00  0.00     0.149 C 
ENDBRANCH  16  19
ENDBRANCH  12  13
ENDBRANCH   3  12
TORSDOF 3
