REMARK  6 active torsions:
REMARK  status: ('A' for Active; 'I' for Inactive)
REMARK    1  A    between atoms: C_2  and  C_1 
REMARK    2  A    between atoms: C_6  and  C_2 
REMARK    3  A    between atoms: N_11  and  N_3 
REMARK    4  A    between atoms: C_5  and  O_12 
REMARK    5  A    between atoms: C_17  and  N_11 
REMARK    6  A    between atoms: O_12  and  C_18 
ROOT
ATOM      1  C   UNL d   1       0.882   0.089  -0.038  0.00  0.00     0.175 C 
ATOM      2  N   UNL d   1       0.214  -0.489  -0.997  0.00  0.00    -0.287 N 
ATOM      3  HN  UNL d   1       0.711  -1.041  -1.697  1.00  0.00     0.188 HD
ATOM      4  C   UNL d   1       0.170   0.823   0.975  0.00  0.00     0.123 C 
ATOM      5  N   UNL d   1      -0.457   1.425   1.754  0.00  0.00    -0.190 NA
ENDROOT
BRANCH   1   6
ATOM      6  C   UNL d   1       2.380  -0.016  -0.009  0.00  0.00     0.192 C 
ATOM      7  O   UNL d   1       2.976  -0.082   1.056  0.00  0.00    -0.290 OA
BRANCH   6   8
ATOM      8  C   UNL d   1       3.067   0.026  -1.329  0.00  0.00     0.063 A 
ATOM      9  C   UNL d   1       4.391  -0.677  -1.523  0.00  0.00     0.013 A 
ATOM     10  C   UNL d   1       4.343   0.823  -1.481  0.00  0.00     0.013 A 
ENDBRANCH   6   8
ENDBRANCH   1   6
BRANCH   2  11
ATOM     11  N   UNL d   1      -1.139  -0.365  -1.073  0.00  0.00    -0.300 N 
ATOM     12  H   UNL d   1      -1.684   0.327  -0.556  0.00  0.00     0.187 HD
BRANCH  11  13
ATOM     13  C   UNL d   1      -1.802  -0.985  -2.148  0.00  0.00     0.048 A 
ATOM     14  C   UNL d   1      -1.300  -2.143  -2.754  0.00  0.00     0.034 A 
ATOM     15  C   UNL d   1      -1.962  -2.751  -3.830  0.00  0.00     0.039 A 
ATOM     16  C   UNL d   1      -3.144  -2.203  -4.318  0.00  0.00     0.078 A 
ATOM     17  C   UNL d   1      -3.611  -1.006  -3.768  0.00  0.00     0.039 A 
ATOM     18  C   UNL d   1      -2.954  -0.407  -2.689  0.00  0.00     0.034 A 
BRANCH  16  19
ATOM     19  O   UNL d   1      -3.904  -2.694  -5.333  0.00  0.00    -0.255 OA
BRANCH  19  20
ATOM     20  C   UNL d   1      -3.900  -4.089  -5.601  0.00  0.00     0.530 C 
ATOM     21  F   UNL d   1      -3.392  -4.842  -4.604  0.00  0.00    -0.144 F 
ATOM     22  F   UNL d   1      -5.178  -4.485  -5.802  0.00  0.00    -0.144 F 
ATOM     23  F   UNL d   1      -3.205  -4.330  -6.733  0.00  0.00    -0.144 F 
ENDBRANCH  19  20
ENDBRANCH  16  19
ENDBRANCH  11  13
ENDBRANCH   2  11
TORSDOF 6
