REMARK  6 active torsions:
REMARK  status: ('A' for Active; 'I' for Inactive)
REMARK    1  A    between atoms: S_8  and  C_3 
REMARK    2  A    between atoms: C_9  and  C_5 
REMARK    3  A    between atoms: C_12  and  S_8 
REMARK    4  A    between atoms: O_13  and  C_9 
REMARK    5  A    between atoms: O_14  and  C_9 
REMARK    6  A    between atoms: C_15  and  C_12 
ROOT
ATOM      1  N   UNL d   1      -1.468  -1.071  -0.193  0.00  0.00    -0.349 N 
ATOM      2  HN  UNL d   1      -1.965  -1.959  -0.257  1.00  0.00     0.166 HD
ATOM      3  C   UNL d   1      -0.118  -1.052  -0.169  0.00  0.00     0.091 A 
ATOM      4  C   UNL d   1       0.592   0.142  -0.081  0.00  0.00     0.078 A 
ATOM      5  C   UNL d   1      -2.168   0.097  -0.133  0.00  0.00     0.065 A 
ATOM      6  C   UNL d   1       2.022   0.183  -0.017  0.00  0.00     0.102 C 
ATOM      7  N   UNL d   1       3.176   0.274   0.049  0.00  0.00    -0.191 NA
ATOM      8  C   UNL d   1      -0.128   1.344  -0.056  0.00  0.00     0.027 A 
ATOM      9  C   UNL d   1      -1.523   1.326  -0.081  0.00  0.00     0.032 A 
ENDROOT
BRANCH   3  10
ATOM     10  S   UNL d   1       0.659  -2.664  -0.157  0.00  0.00    -0.106 SA
BRANCH  10  11
ATOM     11  C   UNL d   1      -0.679  -3.659  -0.901  0.00  0.00     0.119 C 
BRANCH  11  12
ATOM     12  C   UNL d   1      -0.382  -5.139  -0.880  0.00  0.00    -0.049 A 
ATOM     13  C   UNL d   1      -0.914  -5.952   0.133  0.00  0.00     0.008 A 
ATOM     14  C   UNL d   1      -0.688  -7.329   0.130  0.00  0.00     0.001 A 
ATOM     15  C   UNL d   1       0.080  -7.907  -0.878  0.00  0.00     0.000 A 
ATOM     16  C   UNL d   1       0.630  -7.108  -1.879  0.00  0.00     0.001 A 
ATOM     17  C   UNL d   1       0.404  -5.729  -1.879  0.00  0.00     0.008 A 
ENDBRANCH  11  12
ENDBRANCH  10  11
ENDBRANCH   3  10
BRANCH   5  18
ATOM     18  C   UNL d   1      -3.695   0.008  -0.064  0.00  0.00     0.309 C 
BRANCH  18  19
ATOM     19  O   UNL d   1      -4.181   0.054  -1.410  0.00  0.00    -0.360 OA
ATOM     20  C   UNL d   1      -5.600   0.051  -1.471  0.00  0.00     0.205 C 
ENDBRANCH  18  19
BRANCH  18  21
ATOM     21  O   UNL d   1      -4.136  -1.193   0.584  0.00  0.00    -0.360 OA
ATOM     22  C   UNL d   1      -3.780  -1.260   1.958  0.00  0.00     0.205 C 
ENDBRANCH  18  21
ENDBRANCH   5  18
TORSDOF 6
