REMARK  5 active torsions:
REMARK  status: ('A' for Active; 'I' for Inactive)
REMARK    1  A    between atoms: N_6  and  C_4 
REMARK    2  A    between atoms: S_7  and  C_4 
REMARK    3  A    between atoms: C_9  and  N_6 
REMARK    4  A    between atoms: S_8  and  C_10 
REMARK    5  A    between atoms: C_10  and  C_9 
ROOT
ATOM      1  N   UNL d   1       2.910   1.126   0.719  0.00  0.00    -0.274 N 
ATOM      2  HN  UNL d   1       2.340   1.457   1.498  1.00  0.00     0.180 HD
ATOM      3  C   UNL d   1       4.242   1.180   0.775  0.00  0.00     0.183 C 
ATOM      4  C   UNL d   1       2.363   0.644  -0.346  0.00  0.00     0.148 C 
ATOM      5  N   UNL d   1       5.400   1.218   0.795  0.00  0.00    -0.172 NA
ENDROOT
BRANCH   4   6
ATOM      6  N   UNL d   1       3.010   0.111  -1.437  0.00  0.00    -0.369 N 
ATOM      7  H   UNL d   1       3.958  -0.231  -1.282  0.00  0.00     0.161 HD
BRANCH   6   8
ATOM      8  C   UNL d   1       2.402  -0.402  -2.656  0.00  0.00     0.132 C 
BRANCH   8   9
ATOM      9  C   UNL d   1       3.467  -0.703  -3.716  0.00  0.00     0.093 C 
BRANCH   9  10
ATOM     10  S   UNL d   1       4.538  -2.094  -3.208  0.00  0.00    -0.172 SA
ATOM     11  C   UNL d   1       5.560  -2.202  -4.698  0.00  0.00     0.089 C 
ENDBRANCH   9  10
ENDBRANCH   8   9
ENDBRANCH   6   8
ENDBRANCH   4   6
BRANCH   4  12
ATOM     12  S   UNL d   1       0.593   0.657  -0.404  0.00  0.00    -0.098 SA
ATOM     13  C   UNL d   1       0.185   1.685   1.023  0.00  0.00     0.099 C 
ENDBRANCH   4  12
TORSDOF 5
