REMARK  6 active torsions:
REMARK  status: ('A' for Active; 'I' for Inactive)
REMARK    1  A    between atoms: N_2  and  C_1 
REMARK    2  A    between atoms: N_7  and  C_1 
REMARK    3  A    between atoms: C_4  and  N_2 
REMARK       I    between atoms: C_3  and  N_8 
REMARK    4  A    between atoms: O_14  and  C_3 
REMARK    5  A    between atoms: N_8  and  N_7 
REMARK    6  A    between atoms: C_17  and  O_14 
ROOT
ATOM      1  C   UNL d   1       1.221   0.105   0.094  0.00  0.00     0.191 C 
ATOM      2  S   UNL d   1       2.862   0.230   0.402  0.00  0.00    -0.039 SA
ENDROOT
BRANCH   1   3
ATOM      3  N   UNL d   1       0.590  -0.656  -0.864  0.00  0.00    -0.331 N 
ATOM      4  H   UNL d   1      -0.190  -0.186  -1.310  0.00  0.00     0.168 HD
BRANCH   3   5
ATOM      5  C   UNL d   1       1.104  -1.778  -1.574  0.00  0.00     0.056 A 
ATOM      6  C   UNL d   1       0.629  -2.067  -2.867  0.00  0.00     0.062 A 
ATOM      7  C   UNL d   1       1.128  -3.155  -3.591  0.00  0.00     0.050 A 
ATOM      8 CL   UNL d   1      -0.569  -1.069  -3.617  0.00  0.00    -0.082 Cl
ATOM      9  C   UNL d   1       2.091  -3.980  -3.016  0.00  0.00     0.035 A 
ATOM     10  C   UNL d   1       2.537  -3.741  -1.720  0.00  0.00     0.026 A 
ATOM     11 CL   UNL d   1       2.721  -5.313  -3.900  0.00  0.00    -0.084 Cl
ATOM     12  C   UNL d   1       2.034  -2.653  -1.000  0.00  0.00     0.033 A 
ENDBRANCH   3   5
ENDBRANCH   1   3
BRANCH   1  13
ATOM     13  N   UNL d   1       0.398   0.880   0.864  0.00  0.00    -0.272 N 
ATOM     14  H   UNL d   1       0.823   1.480   1.576  0.00  0.00     0.189 HD
BRANCH  13  15
ATOM     15  N   UNL d   1      -0.993   0.967   0.743  0.00  0.00    -0.243 N 
ATOM     16  C   UNL d   1      -1.613   1.808   1.641  0.00  0.00     0.379 C 
ATOM     17  O   UNL d   1      -1.007   2.579   2.380  0.00  0.00    -0.237 OA
ATOM     18  H   UNL d   1      -1.515   0.149   0.455  0.00  0.00     0.192 HD
BRANCH  16  19
ATOM     19  O   UNL d   1      -2.954   1.619   1.626  0.00  0.00    -0.303 OA
BRANCH  19  20
ATOM     20  C   UNL d   1      -3.691   2.349   2.623  0.00  0.00     0.176 C 
ATOM     21  C   UNL d   1      -4.044   1.399   3.750  0.00  0.00     0.034 C 
ENDBRANCH  19  20
ENDBRANCH  16  19
ENDBRANCH  13  15
ENDBRANCH   1  13
TORSDOF 6
