REMARK  2 active torsions:
REMARK  status: ('A' for Active; 'I' for Inactive)
REMARK    1  A    between atoms: C_8  and  N_1 
REMARK    2  A    between atoms: C_9  and  C_8 
ROOT
ATOM      1  N   UNL d   1      -0.747  -0.974  -0.330  0.00  0.00    -0.265 N 
ATOM      2  C   UNL d   1       0.605  -0.971  -0.169  0.00  0.00     0.326 C 
ATOM      3  C   UNL d   1      -1.227   0.307  -0.372  0.00  0.00     0.255 C 
ATOM      4  N   UNL d   1       1.033   0.332  -0.064  0.00  0.00    -0.325 N 
ATOM      5  C   UNL d   1      -0.027   1.270  -0.355  0.00  0.00     0.108 C 
ATOM      6  O   UNL d   1       1.354  -1.934  -0.137  0.00  0.00    -0.247 OA
ATOM      7  O   UNL d   1      -2.396   0.647  -0.502  0.00  0.00    -0.270 OA
ATOM      8  C   UNL d   1      -0.148   2.345   0.711  0.00  0.00     0.049 C 
ATOM      9  C   UNL d   1       0.144   1.857  -1.755  0.00  0.00     0.049 C 
ATOM     10  H   UNL d   1       2.022   0.543  -0.045  0.00  0.00     0.165 HD
ENDROOT
BRANCH   1  11
ATOM     11  C   UNL d   1      -1.542  -2.158  -0.542  0.00  0.00     0.163 C 
BRANCH  11  12
ATOM     12  C   UNL d   1      -2.055  -2.673   0.769  0.00  0.00    -0.017 C 
ATOM     13  C   UNL d   1      -3.355  -2.770   1.082  0.00  0.00     0.008 C 
ENDBRANCH  11  12
ENDBRANCH   1  11
TORSDOF 2
