REMARK  7 active torsions:
REMARK  status: ('A' for Active; 'I' for Inactive)
REMARK    1  A    between atoms: C_4  and  C_1 
REMARK    2  A    between atoms: C_22  and  N_5 
REMARK    3  A    between atoms: C_31  and  C_6 
REMARK    4  A    between atoms: C_16  and  C_9 
REMARK    5  A    between atoms: C_13  and  C_17 
REMARK    6  A    between atoms: C_14  and  C_18 
REMARK    7  A    between atoms: C_36  and  C_31 
ROOT
ATOM      1  N   UNL d   1      -0.086   3.770  -0.165  0.00  0.00    -0.318 N 
ATOM      2  HN  UNL d   1       0.917   3.842  -0.337  1.00  0.00     0.169 HD
ATOM      3  C   UNL d   1      -0.796   2.694   0.101  0.00  0.00     0.185 A 
ATOM      4  C   UNL d   1      -1.029   4.776  -0.153  0.00  0.00     0.138 A 
ATOM      5  N   UNL d   1      -2.264   4.357   0.162  0.00  0.00    -0.242 N 
ATOM      6  HN  UNL d   1      -3.112   4.916   0.263  1.00  0.00     0.196 HD
ATOM      7  O   UNL d   1      -2.118   2.988   0.319  0.00  0.00    -0.217 OA
ENDROOT
BRANCH   3   8
ATOM      8  C   UNL d   1      -0.287   1.300   0.138  0.00  0.00     0.059 A 
ATOM      9  C   UNL d   1       1.017   0.839   0.032  0.00  0.00     0.050 A 
ATOM     10  N   UNL d   1       0.930  -0.553   0.143  0.00  0.00    -0.260 N 
ATOM     11  N   UNL d   1      -0.352  -0.942   0.402  0.00  0.00    -0.304 N 
ATOM     12  C   UNL d   1      -1.077   0.167   0.336  0.00  0.00     0.125 A 
ATOM     13  HN  UNL d   1      -0.683  -1.885   0.604  1.00  0.00     0.186 HD
BRANCH   9  14
ATOM     14  C   UNL d   1       2.280   1.641  -0.032  0.00  0.00     0.060 C 
BRANCH  14  15
ATOM     15  C   UNL d   1       2.605   2.126  -1.447  0.00  0.00     0.002 C 
ATOM     16  C   UNL d   1       3.888   2.942  -1.462  0.00  0.00     0.005 C 
ENDBRANCH  14  15
ENDBRANCH   9  14
BRANCH  10  17
ATOM     17  C   UNL d   1       1.913  -1.584   0.015  0.00  0.00     0.056 A 
ATOM     18  C   UNL d   1       1.633  -2.850   0.567  0.00  0.00     0.033 A 
ATOM     19  C   UNL d   1       2.524  -3.916   0.410  0.00  0.00     0.026 A 
ATOM     20  C   UNL d   1       3.694  -3.733  -0.318  0.00  0.00     0.034 A 
ATOM     21  C   UNL d   1       3.988  -2.488  -0.867  0.00  0.00     0.026 A 
ATOM     22 CL   UNL d   1       4.768  -5.053  -0.562  0.00  0.00    -0.084 Cl
ATOM     23  C   UNL d   1       3.105  -1.413  -0.695  0.00  0.00     0.033 A 
ENDBRANCH  10  17
ENDBRANCH   3   8
BRANCH   4  24
ATOM     24  C   UNL d   1      -0.733   6.150  -0.553  0.00  0.00     0.011 A 
ATOM     25  C   UNL d   1       0.578   6.553  -0.843  0.00  0.00     0.031 A 
ATOM     26  C   UNL d   1       0.849   7.846  -1.332  0.00  0.00     0.049 A 
ATOM     27  C   UNL d   1      -0.218   8.742  -1.518  0.00  0.00     0.032 A 
ATOM     28  C   UNL d   1      -1.537   8.364  -1.227  0.00  0.00     0.049 A 
ATOM     29  C   UNL d   1      -1.777   7.073  -0.731  0.00  0.00     0.031 A 
BRANCH  26  30
ATOM     30  C   UNL d   1       2.267   8.244  -1.674  0.00  0.00     0.417 C 
ATOM     31  F   UNL d   1       2.361   9.488  -2.224  0.00  0.00    -0.166 F 
ATOM     32  F   UNL d   1       3.080   8.254  -0.584  0.00  0.00    -0.166 F 
ATOM     33  F   UNL d   1       2.842   7.395  -2.568  0.00  0.00    -0.166 F 
ENDBRANCH  26  30
BRANCH  28  34
ATOM     34  C   UNL d   1      -2.700   9.297  -1.468  0.00  0.00     0.417 C 
ATOM     35  F   UNL d   1      -2.336  10.480  -2.037  0.00  0.00    -0.166 F 
ATOM     36  F   UNL d   1      -3.631   8.754  -2.301  0.00  0.00    -0.166 F 
ATOM     37  F   UNL d   1      -3.359   9.616  -0.322  0.00  0.00    -0.166 F 
ENDBRANCH  28  34
ENDBRANCH   4  24
TORSDOF 7
