REMARK  1 active torsions:
REMARK  status: ('A' for Active; 'I' for Inactive)
REMARK       I    between atoms: N_2  and  C_1 
REMARK    1  A    between atoms: C_3  and  C_1 
ROOT
ATOM      1  C   UNL d   1       0.919  -0.225  -0.177  0.00  0.00     0.253 C 
ATOM      2  N   UNL d   1       0.319   0.939  -0.679  0.00  0.00    -0.348 N 
ATOM      3  O   UNL d   1       1.772  -0.818  -0.845  0.00  0.00    -0.270 OA
ATOM      4  S   UNL d   1      -1.903   2.112  -2.623  0.00  0.00    -0.166 SA
ATOM      5  C   UNL d   1       0.716   1.414  -2.012  0.00  0.00     0.136 C 
ATOM      6  C   UNL d   1      -0.828   1.646  -0.091  0.00  0.00     0.136 C 
ATOM      7  C   UNL d   1      -0.381   1.198  -3.056  0.00  0.00     0.093 C 
ATOM      8  C   UNL d   1      -2.107   1.487  -0.921  0.00  0.00     0.093 C 
ENDROOT
BRANCH   1   9
ATOM      9  C   UNL d   1       0.493  -0.726   1.213  0.00  0.00     0.269 C 
ATOM     10 CL   UNL d   1      -1.048  -1.601   1.064  0.00  0.00    -0.098 Cl
ATOM     11 CL   UNL d   1       1.728  -1.798   1.917  0.00  0.00    -0.098 Cl
ENDBRANCH   1   9
TORSDOF 1
