REMARK  4 active torsions:
REMARK  status: ('A' for Active; 'I' for Inactive)
REMARK    1  A    between atoms: C_2  and  S_1 
REMARK    2  A    between atoms: N_11  and  S_1 
REMARK    3  A    between atoms: C_8  and  C_14 
REMARK    4  A    between atoms: C_14  and  N_11 
ROOT
ATOM      1  N   UNL d   1       0.364   0.929   1.151  0.00  0.00    -0.311 N 
ATOM      2  H   UNL d   1      -0.614   1.183   1.077  0.00  0.00     0.172 HD
ENDROOT
BRANCH   1   3
ATOM      3  S   UNL d   1       0.809  -0.159  -0.049  0.00  0.00     0.263 S 
ATOM      4  O   UNL d   1       0.088   0.230  -1.239  0.00  0.00    -0.200 OA
ATOM      5  O   UNL d   1       2.241  -0.315  -0.022  0.00  0.00    -0.200 OA
BRANCH   3   6
ATOM      6  C   UNL d   1       0.162  -1.693   0.326  0.00  0.00     0.134 A 
ATOM      7  C   UNL d   1      -1.167  -2.021   0.463  0.00  0.00     0.098 A 
ATOM      8  O   UNL d   1      -1.262  -3.348   0.746  0.00  0.00    -0.241 OA
ATOM      9  C   UNL d   1      -2.450  -1.302   0.369  0.00  0.00     0.081 C 
ATOM     10  N   UNL d   1       0.000  -3.902   0.809  0.00  0.00    -0.264 N 
ATOM     11  C   UNL d   1       0.857  -2.903   0.551  0.00  0.00     0.054 A 
ATOM     12  HN  UNL d   1       0.234  -4.874   1.010  1.00  0.00     0.194 HD
ATOM     13  C   UNL d   1       2.313  -3.179   0.547  0.00  0.00     0.072 C 
ENDBRANCH   3   6
ENDBRANCH   1   3
BRANCH   1  14
ATOM     14  C   UNL d   1       0.915   0.712   2.496  0.00  0.00     0.173 C 
BRANCH  14  15
ATOM     15  C   UNL d   1       0.422   1.711   3.526  0.00  0.00    -0.003 A 
ATOM     16  C   UNL d   1       1.257   2.126   4.583  0.00  0.00     0.088 A 
ATOM     17  C   UNL d   1       0.781   2.972   5.598  0.00  0.00     0.003 A 
ATOM     18  O   UNL d   1       2.543   1.650   4.608  0.00  0.00    -0.325 OA
ATOM     19  C   UNL d   1       1.683   3.376   6.726  0.00  0.00     0.212 C 
ATOM     20  C   UNL d   1      -0.531   3.450   5.539  0.00  0.00     0.054 A 
ATOM     21  O   UNL d   1       2.818   2.522   6.801  0.00  0.00    -0.362 OA
ATOM     22  C   UNL d   1       3.388   2.367   5.510  0.00  0.00     0.345 C 
ATOM     23  C   UNL d   1      -1.356   3.051   4.499  0.00  0.00     0.117 A 
ATOM     24  C   UNL d   1      -0.902   2.180   3.513  0.00  0.00     0.054 A 
ATOM     25  F   UNL d   1      -2.617   3.497   4.448  0.00  0.00    -0.206 F 
ENDBRANCH  14  15
ENDBRANCH   1  14
TORSDOF 4
