REMARK  4 active torsions:
REMARK  status: ('A' for Active; 'I' for Inactive)
REMARK    1  A    between atoms: S_2  and  C_1 
REMARK    2  A    between atoms: C_14  and  S_2 
REMARK    3  A    between atoms: N_6  and  C_4 
REMARK       I    between atoms: C_5  and  N_6 
REMARK       I    between atoms: N_9  and  C_5 
REMARK    4  A    between atoms: C_12  and  N_9 
ROOT
ATOM      1  C   UNL d   1      -1.223   2.659  -0.253  0.00  0.00     0.325 C 
ATOM      2  N   UNL d   1      -0.137   2.066   0.344  0.00  0.00    -0.303 N 
ATOM      3  N   UNL d   1      -2.361   1.916  -0.353  0.00  0.00    -0.307 N 
ATOM      4  O   UNL d   1      -1.139   3.837  -0.599  0.00  0.00    -0.247 OA
ATOM      5  H   UNL d   1       0.585   2.743   0.565  0.00  0.00     0.171 HD
ATOM      6  H   UNL d   1      -2.528   1.304   0.437  0.00  0.00     0.170 HD
ENDROOT
BRANCH   2   7
ATOM      7  C   UNL d   1       0.241   0.732   0.373  0.00  0.00     0.079 A 
ATOM      8  C   UNL d   1       1.457   0.249   0.824  0.00  0.00     0.061 A 
ATOM      9  C   UNL d   1       1.590  -1.160   0.598  0.00  0.00     0.068 A 
ATOM     10  C   UNL d   1       0.449  -1.704   0.059  0.00  0.00     0.075 A 
ATOM     11  S   UNL d   1      -0.736  -0.512  -0.241  0.00  0.00    -0.083 SA
BRANCH   9  12
ATOM     12  S   UNL d   1       2.992  -2.112   0.990  0.00  0.00     0.179 S 
ATOM     13  O   UNL d   1       3.981  -1.147   1.435  0.00  0.00    -0.222 OA
ATOM     14  O   UNL d   1       2.456  -3.136   1.860  0.00  0.00    -0.222 OA
BRANCH  12  15
ATOM     15  C   UNL d   1       3.501  -2.850  -0.576  0.00  0.00     0.105 C 
ATOM     16  C   UNL d   1       4.149  -1.825  -1.500  0.00  0.00     0.026 C 
ATOM     17  C   UNL d   1       4.452  -4.019  -0.326  0.00  0.00     0.026 C 
ENDBRANCH  12  15
ENDBRANCH   9  12
ENDBRANCH   2   7
BRANCH   3  18
ATOM     18  C   UNL d   1      -3.474   2.195  -1.168  0.00  0.00     0.058 A 
ATOM     19  C   UNL d   1      -4.760   1.854  -0.721  0.00  0.00     0.060 A 
ATOM     20 CL   UNL d   1      -5.016   1.293   0.895  0.00  0.00    -0.082 Cl
ATOM     21  C   UNL d   1      -5.867   1.990  -1.561  0.00  0.00     0.026 A 
ATOM     22  C   UNL d   1      -5.692   2.427  -2.873  0.00  0.00     0.002 A 
ATOM     23  C   UNL d   1      -4.418   2.774  -3.326  0.00  0.00     0.002 A 
ATOM     24  C   UNL d   1      -3.312   2.682  -2.470  0.00  0.00     0.031 A 
ENDBRANCH   3  18
TORSDOF 4
