REMARK  5 active torsions:
REMARK  status: ('A' for Active; 'I' for Inactive)
REMARK    1  A    between atoms: C_4  and  C_1 
REMARK    2  A    between atoms: C_2  and  C_3 
REMARK    3  A    between atoms: C_3  and  N_5 
REMARK    4  A    between atoms: N_5  and  C_4 
REMARK    5  A    between atoms: O_14  and  N_5 
ROOT
ATOM      1  N   UNL d   1      -1.464   3.037   0.216  0.00  0.00    -0.191 NA
ENDROOT
BRANCH   1   2
ATOM      2  C   UNL d   1      -1.838   2.692   1.599  0.00  0.00     0.164 C 
BRANCH   2   3
ATOM      3  C   UNL d   1      -3.152   3.330   1.984  0.00  0.00     0.017 A 
ATOM      4  C   UNL d   1      -3.141   4.579   2.617  0.00  0.00     0.125 A 
ATOM      5  F   UNL d   1      -1.977   5.157   2.944  0.00  0.00    -0.205 F 
ATOM      6  C   UNL d   1      -4.318   5.264   2.919  0.00  0.00     0.043 A 
ATOM      7  C   UNL d   1      -5.546   4.699   2.596  0.00  0.00     0.005 A 
ATOM      8  C   UNL d   1      -5.587   3.448   1.981  0.00  0.00     0.024 A 
ATOM      9  C   UNL d   1      -4.399   2.769   1.673  0.00  0.00     0.044 A 
ATOM     10 CL   UNL d   1      -4.546   1.229   0.903  0.00  0.00    -0.084 Cl
ENDBRANCH   2   3
ENDBRANCH   1   2
BRANCH   1  11
ATOM     11  C   UNL d   1      -0.262   2.298  -0.216  0.00  0.00     0.164 C 
BRANCH  11  12
ATOM     12  C   UNL d   1       0.139   2.658  -1.628  0.00  0.00     0.017 A 
ATOM     13  C   UNL d   1       1.336   3.352  -1.845  0.00  0.00     0.125 A 
ATOM     14  F   UNL d   1       2.155   3.616  -0.817  0.00  0.00    -0.205 F 
ATOM     15  C   UNL d   1       1.714   3.789  -3.113  0.00  0.00     0.043 A 
ATOM     16  C   UNL d   1       0.889   3.539  -4.205  0.00  0.00     0.005 A 
ATOM     17  C   UNL d   1      -0.295   2.828  -4.021  0.00  0.00     0.024 A 
ATOM     18  C   UNL d   1      -0.666   2.382  -2.745  0.00  0.00     0.044 A 
ATOM     19 CL   UNL d   1      -2.136   1.482  -2.619  0.00  0.00    -0.084 Cl
ENDBRANCH  11  12
ENDBRANCH   1  11
BRANCH   1  20
ATOM     20  O   UNL d   1      -1.073   4.444   0.243  0.00  0.00    -0.312 OA
ATOM     21  H   UNL d   1      -1.730   4.831  -0.366  0.00  0.00     0.237 HD
ENDBRANCH   1  20
TORSDOF 5
