REMARK  2 active torsions:
REMARK  status: ('A' for Active; 'I' for Inactive)
REMARK    1  A    between atoms: C_8  and  C_1 
REMARK    2  A    between atoms: C_3  and  C_2 
REMARK       I    between atoms: N_6  and  C_3 
REMARK       I    between atoms: C_7  and  N_6 
REMARK       I    between atoms: N_11  and  C_7 
ROOT
ATOM      1  C   UNL d   1       1.248  -0.541   0.062  0.00  0.00     0.086 A 
ATOM      2  C   UNL d   1       0.227  -1.555   0.057  0.00  0.00     0.093 A 
ATOM      3  N   UNL d   1       0.976   0.402   0.976  0.00  0.00    -0.259 N 
ATOM      4  HN  UNL d   1       1.544   1.220   1.198  1.00  0.00     0.195 HD
ATOM      5  O   UNL d   1      -0.214   0.050   1.553  0.00  0.00    -0.241 OA
ATOM      6  C   UNL d   1      -0.667  -1.113   1.019  0.00  0.00     0.090 A 
ATOM      7  C   UNL d   1      -1.940  -1.577   1.607  0.00  0.00     0.080 C 
ENDROOT
BRANCH   2   8
ATOM      8  C   UNL d   1       0.198  -2.776  -0.738  0.00  0.00     0.274 C 
ATOM      9  N   UNL d   1      -1.017  -3.438  -0.835  0.00  0.00    -0.156 N 
ATOM     10  C   UNL d   1      -1.183  -4.792  -1.018  0.00  0.00     0.676 C 
ATOM     11  H   UNL d   1      -1.853  -2.935  -0.600  0.00  0.00     0.187 HD
ATOM     12  N   UNL d   1      -2.459  -5.288  -1.119  0.00  0.00    -0.218 N 
ATOM     13  N   UNL d   1      -0.160  -5.577  -1.062  0.00  0.00    -0.234 N 
ATOM     14  C   UNL d   1      -2.684  -6.726  -1.346  0.00  0.00     0.141 C 
ATOM     15  C   UNL d   1      -3.614  -4.527  -1.591  0.00  0.00     0.141 C 
ATOM     16  C   UNL d   1      -3.839  -6.782  -2.336  0.00  0.00     0.022 C 
ATOM     17  C   UNL d   1      -4.666  -5.570  -1.954  0.00  0.00     0.022 C 
ATOM     18  H   UNL d   1       0.710  -5.029  -1.010  0.00  0.00     0.174 HD
ATOM     19  HN  UNL d   1      -0.206  -6.593  -1.137  1.00  0.00     0.174 HD
ATOM     20  O   UNL d   1       1.189  -3.168  -1.345  0.00  0.00    -0.267 OA
ENDBRANCH   2   8
BRANCH   1  21
ATOM     21  C   UNL d   1       2.437  -0.393  -0.779  0.00  0.00     0.037 A 
ATOM     22  C   UNL d   1       2.514   0.652  -1.721  0.00  0.00     0.048 A 
ATOM     23 CL   UNL d   1       1.218   1.778  -1.978  0.00  0.00    -0.083 Cl
ATOM     24  C   UNL d   1       3.656   0.827  -2.513  0.00  0.00     0.025 A 
ATOM     25  C   UNL d   1       4.729  -0.051  -2.399  0.00  0.00     0.003 A 
ATOM     26  C   UNL d   1       4.672  -1.088  -1.471  0.00  0.00     0.025 A 
ATOM     27  C   UNL d   1       3.548  -1.246  -0.647  0.00  0.00     0.048 A 
ATOM     28 CL   UNL d   1       3.634  -2.487   0.559  0.00  0.00    -0.083 Cl
ENDBRANCH   1  21
TORSDOF 2
