REMARK  2 active torsions:
REMARK  status: ('A' for Active; 'I' for Inactive)
REMARK       I    between atoms: N_4  and  C_1 
REMARK       I    between atoms: N_7  and  C_1 
REMARK    1  A    between atoms: C_6  and  N_4 
REMARK    2  A    between atoms: C_11  and  N_7 
ROOT
ATOM      1  C   UNL d   1       1.107   0.088   0.127  0.00  0.00     0.325 C 
ATOM      2  N   UNL d   1       0.448  -0.642   1.111  0.00  0.00    -0.308 N 
ATOM      3  N   UNL d   1       0.221   0.449  -0.879  0.00  0.00    -0.309 N 
ATOM      4  O   UNL d   1       2.302   0.352   0.138  0.00  0.00    -0.247 OA
ATOM      5  H   UNL d   1      -0.315  -1.185   0.744  0.00  0.00     0.170 HD
ATOM      6  H   UNL d   1      -0.745   0.519  -0.593  0.00  0.00     0.170 HD
ENDROOT
BRANCH   2   7
ATOM      7  C   UNL d   1       1.167  -1.226   2.189  0.00  0.00     0.047 A 
ATOM      8  C   UNL d   1       1.050  -2.618   2.462  0.00  0.00     0.001 A 
ATOM      9  C   UNL d   1       1.843  -3.163   3.504  0.00  0.00    -0.024 A 
ATOM     10  C   UNL d   1       0.241  -3.515   1.720  0.00  0.00     0.014 A 
ATOM     11  C   UNL d   1       1.821  -4.545   3.755  0.00  0.00     0.012 A 
ATOM     12  C   UNL d   1       2.670  -2.327   4.270  0.00  0.00     0.012 A 
ATOM     13  C   UNL d   1       1.022  -5.400   2.998  0.00  0.00     0.001 A 
ATOM     14  C   UNL d   1       0.226  -4.885   1.986  0.00  0.00     0.001 A 
ATOM     15  C   UNL d   1       2.741  -0.961   4.014  0.00  0.00     0.003 A 
ATOM     16  C   UNL d   1       2.001  -0.414   2.970  0.00  0.00     0.030 A 
ENDBRANCH   2   7
BRANCH   3  17
ATOM     17  C   UNL d   1       0.571   1.038  -2.113  0.00  0.00     0.037 A 
ATOM     18  C   UNL d   1       1.857   0.965  -2.657  0.00  0.00     0.048 A 
ATOM     19  C   UNL d   1       2.092   1.614  -3.859  0.00  0.00     0.050 A 
ATOM     20  C   UNL d   1       3.329   1.696  -4.621  0.00  0.00     0.294 A 
ATOM     21  C   UNL d   1       1.113   2.316  -4.530  0.00  0.00    -0.018 A 
ATOM     22  O   UNL d   1       3.063   2.468  -5.720  0.00  0.00    -0.313 OA
ATOM     23  O   UNL d   1       4.393   1.172  -4.353  0.00  0.00    -0.259 OA
ATOM     24  C   UNL d   1       1.695   2.926  -5.741  0.00  0.00     0.218 A 
ATOM     25  C   UNL d   1      -0.175   2.370  -4.031  0.00  0.00     0.012 A 
ATOM     26  C   UNL d   1      -0.444   1.716  -2.821  0.00  0.00     0.030 A 
ENDBRANCH   3  17
TORSDOF 2
