REMARK  3 active torsions:
REMARK  status: ('A' for Active; 'I' for Inactive)
REMARK    1  A    between atoms: C_6  and  C_1 
REMARK    2  A    between atoms: S_10  and  C_3 
REMARK       I    between atoms: N_7  and  C_6 
REMARK    3  A    between atoms: C_11  and  N_7 
ROOT
ATOM      1  C   UNL d   1      -1.757  -0.768  -0.140  0.00  0.00     0.081 A 
ATOM      2  S   UNL d   1      -2.699   0.669  -0.134  0.00  0.00    -0.076 SA
ATOM      3  C   UNL d   1      -1.323   1.688  -0.061  0.00  0.00     0.052 A 
ATOM      4  C   UNL d   1      -0.400  -0.468  -0.179  0.00  0.00    -0.023 A 
ATOM      5  C   UNL d   1      -0.160   0.948  -0.109  0.00  0.00    -0.005 A 
ATOM      6  C   UNL d   1       1.177   1.452  -0.049  0.00  0.00     0.010 C 
ATOM      7  C   UNL d   1       2.240   0.644  -0.198  0.00  0.00    -0.025 C 
ATOM      8  C   UNL d   1       0.733  -1.461  -0.173  0.00  0.00     0.045 C 
ATOM      9  C   UNL d   1       2.120  -0.840  -0.433  0.00  0.00     0.032 C 
ENDROOT
BRANCH   1  10
ATOM     10  C   UNL d   1      -2.382  -2.095  -0.040  0.00  0.00     0.263 C 
ATOM     11  N   UNL d   1      -3.767  -2.097  -0.067  0.00  0.00    -0.323 N 
ATOM     12  H   UNL d   1      -4.199  -1.211  -0.303  0.00  0.00     0.169 HD
ATOM     13  O   UNL d   1      -1.704  -3.116   0.068  0.00  0.00    -0.267 OA
BRANCH  11  14
ATOM     14  C   UNL d   1      -4.638  -3.147   0.289  0.00  0.00     0.035 A 
ATOM     15  C   UNL d   1      -4.212  -4.353   0.854  0.00  0.00     0.031 A 
ATOM     16  C   UNL d   1      -5.142  -5.306   1.286  0.00  0.00     0.026 A 
ATOM     17  C   UNL d   1      -6.504  -5.061   1.143  0.00  0.00     0.034 A 
ATOM     18  C   UNL d   1      -6.944  -3.880   0.552  0.00  0.00     0.026 A 
ATOM     19 CL   UNL d   1      -7.647  -6.211   1.717  0.00  0.00    -0.084 Cl
ATOM     20  C   UNL d   1      -6.013  -2.926   0.129  0.00  0.00     0.031 A 
ENDBRANCH  11  14
ENDBRANCH   1  10
BRANCH   3  21
ATOM     21  S   UNL d   1      -1.530   3.427   0.127  0.00  0.00    -0.126 SA
ATOM     22  C   UNL d   1      -0.904   4.031  -1.455  0.00  0.00     0.096 C 
ENDBRANCH   3  21
TORSDOF 3
