REMARK  6 active torsions:
REMARK  status: ('A' for Active; 'I' for Inactive)
REMARK    1  A    between atoms: C_2  and  N_1 
REMARK    2  A    between atoms: C_3  and  C_6 
REMARK    3  A    between atoms: C_4  and  N_7 
REMARK       I    between atoms: N_7  and  C_11 
REMARK    4  A    between atoms: S_13  and  C_10 
REMARK    5  A    between atoms: C_11  and  C_24 
REMARK    6  A    between atoms: C_24  and  S_13 
ROOT
ATOM      1  S   UNL d   1       1.415  -2.136  -0.111  0.00  0.00    -0.118 SA
ENDROOT
BRANCH   1   2
ATOM      2  C   UNL d   1       1.984  -0.455   0.142  0.00  0.00     0.034 A 
ATOM      3  C   UNL d   1       1.885   0.513  -0.866  0.00  0.00     0.120 A 
ATOM      4  C   UNL d   1       2.694   1.668  -0.877  0.00  0.00     0.053 A 
ATOM      5  C   UNL d   1       3.609   1.885   0.161  0.00  0.00     0.050 A 
ATOM      6  C   UNL d   1       3.618   0.987   1.242  0.00  0.00     0.017 A 
ATOM      7  C   UNL d   1       2.827  -0.174   1.227  0.00  0.00     0.022 A 
BRANCH   3   8
ATOM      8  N   UNL d   1       0.920   0.366  -1.939  0.00  0.00    -0.114 N 
ATOM      9  O   UNL d   1       1.336   0.486  -3.099  0.00  0.00    -0.532 OA
ATOM     10  O   UNL d   1      -0.269   0.199  -1.612  0.00  0.00    -0.532 OA
ENDBRANCH   3   8
BRANCH   5  11
ATOM     11  C   UNL d   1       4.604   3.025   0.103  0.00  0.00     0.417 C 
ATOM     12  F   UNL d   1       4.590   3.691  -1.084  0.00  0.00    -0.166 F 
ATOM     13  F   UNL d   1       4.386   3.959   1.065  0.00  0.00    -0.166 F 
ATOM     14  F   UNL d   1       5.886   2.597   0.273  0.00  0.00    -0.166 F 
ENDBRANCH   5  11
ENDBRANCH   1   2
BRANCH   1  15
ATOM     15  C   UNL d   1       0.188  -2.381   1.219  0.00  0.00     0.182 C 
BRANCH  15  16
ATOM     16  C   UNL d   1      -0.108  -3.882   1.335  0.00  0.00     0.231 C 
ATOM     17  N   UNL d   1      -1.468  -4.180   1.383  0.00  0.00    -0.326 N 
ATOM     18  H   UNL d   1      -2.077  -3.469   1.007  0.00  0.00     0.169 HD
ATOM     19  O   UNL d   1       0.797  -4.713   1.373  0.00  0.00    -0.272 OA
BRANCH  17  20
ATOM     20  C   UNL d   1      -1.984  -5.505   1.373  0.00  0.00     0.046 A 
ATOM     21  C   UNL d   1      -1.512  -6.510   2.249  0.00  0.00    -0.034 A 
ATOM     22  C   UNL d   1      -2.025  -7.819   2.142  0.00  0.00     0.015 A 
ATOM     23  C   UNL d   1      -0.507  -6.287   3.349  0.00  0.00     0.050 C 
ATOM     24  C   UNL d   1      -3.034  -8.139   1.234  0.00  0.00    -0.061 A 
ATOM     25  C   UNL d   1      -3.539  -7.128   0.417  0.00  0.00     0.015 A 
ATOM     26  C   UNL d   1      -3.529  -9.551   1.119  0.00  0.00     0.048 C 
ATOM     27  C   UNL d   1      -3.030  -5.814   0.472  0.00  0.00    -0.034 A 
ATOM     28  C   UNL d   1      -3.634  -4.838  -0.505  0.00  0.00     0.050 C 
ENDBRANCH  17  20
ENDBRANCH  15  16
ENDBRANCH   1  15
TORSDOF 6
