REMARK  2 active torsions:
REMARK  status: ('A' for Active; 'I' for Inactive)
REMARK    1  A    between atoms: S_7  and  C_2 
REMARK    2  A    between atoms: C_14  and  S_7 
ROOT
ATOM      1  C   UNL d   1       0.094  -0.717   0.172  0.00  0.00     0.042 A 
ATOM      2  C   UNL d   1       1.234  -1.498   0.131  0.00  0.00     0.057 A 
ATOM      3  C   UNL d   1       0.393   0.697   0.064  0.00  0.00    -0.014 A 
ATOM      4  C   UNL d   1       1.753   0.924  -0.023  0.00  0.00     0.093 A 
ATOM      5  S   UNL d   1       2.644  -0.533   0.007  0.00  0.00    -0.071 SA
ATOM      6  C   UNL d   1      -1.287  -1.185   0.283  0.00  0.00     0.162 C 
ATOM      7  C   UNL d   1       2.380   2.203  -0.145  0.00  0.00     0.107 C 
ATOM      8  N   UNL d   1       2.863   3.257  -0.242  0.00  0.00    -0.191 NA
ATOM      9  C   UNL d   1      -0.700   1.748   0.021  0.00  0.00     0.050 C 
ATOM     10  C   UNL d   1      -2.098   1.202   0.428  0.00  0.00    -0.037 C 
ATOM     11  C   UNL d   1      -2.330  -0.193  -0.198  0.00  0.00     0.093 C 
ATOM     12  O   UNL d   1      -1.610  -2.273   0.750  0.00  0.00    -0.292 OA
ATOM     13  C   UNL d   1      -3.194   2.153  -0.086  0.00  0.00     0.015 C 
ATOM     14  C   UNL d   1      -2.219   1.125   1.964  0.00  0.00     0.015 C 
ENDROOT
BRANCH   2  15
ATOM     15  S   UNL d   1       1.312  -3.259   0.066  0.00  0.00    -0.117 SA
BRANCH  15  16
ATOM     16  C   UNL d   1       2.356  -3.682   1.503  0.00  0.00     0.045 C 
ATOM     17  C   UNL d   1       1.676  -3.316   2.819  0.00  0.00     0.021 C 
ATOM     18  C   UNL d   1       2.643  -5.183   1.460  0.00  0.00     0.021 C 
ENDBRANCH  15  16
ENDBRANCH   2  15
TORSDOF 2
