REMARK  9 active torsions:
REMARK  status: ('A' for Active; 'I' for Inactive)
REMARK    1  A    between atoms: C_10  and  C_1 
REMARK    2  A    between atoms: C_2  and  C_5 
REMARK    3  A    between atoms: C_3  and  C_11 
REMARK       I    between atoms: N_6  and  C_3 
REMARK    4  A    between atoms: C_4  and  C_9 
REMARK       I    between atoms: N_7  and  C_4 
REMARK       I    between atoms: C_5  and  N_8 
REMARK    5  A    between atoms: C_9  and  N_6 
REMARK    6  A    between atoms: N_8  and  N_7 
REMARK    7  A    between atoms: C_24  and  C_9 
REMARK    8  A    between atoms: C_27  and  C_24 
REMARK    9  A    between atoms: S_25  and  C_27 
ROOT
ATOM      1  C   UNL d   1       0.562   6.393  -0.124  0.00  0.00     0.179 C 
ENDROOT
BRANCH   1   2
ATOM      2  C   UNL d   1      -0.316   5.854  -1.275  0.00  0.00     0.259 C 
ATOM      3  N   UNL d   1      -0.725   4.546  -1.115  0.00  0.00    -0.265 N 
ATOM      4  H   UNL d   1      -0.617   4.041  -0.232  0.00  0.00     0.190 HD
ATOM      5  O   UNL d   1      -0.575   6.495  -2.295  0.00  0.00    -0.269 OA
BRANCH   3   6
ATOM      6  N   UNL d   1      -1.580   3.994  -2.079  0.00  0.00    -0.263 N 
ATOM      7  C   UNL d   1      -2.536   3.093  -1.669  0.00  0.00     0.271 C 
ATOM      8  O   UNL d   1      -2.578   2.692  -0.505  0.00  0.00    -0.266 OA
ATOM      9  H   UNL d   1      -1.571   4.429  -3.001  0.00  0.00     0.190 HD
BRANCH   7  10
ATOM     10  C   UNL d   1      -3.570   2.638  -2.650  0.00  0.00     0.055 A 
ATOM     11  C   UNL d   1      -3.514   2.769  -4.046  0.00  0.00     0.049 A 
ATOM     12 CL   UNL d   1      -2.184   3.462  -4.906  0.00  0.00    -0.083 Cl
ATOM     13  C   UNL d   1      -4.575   2.301  -4.840  0.00  0.00     0.025 A 
ATOM     14  C   UNL d   1      -5.691   1.697  -4.260  0.00  0.00     0.002 A 
ATOM     15  C   UNL d   1      -5.753   1.551  -2.880  0.00  0.00     0.001 A 
ATOM     16  C   UNL d   1      -4.703   2.015  -2.086  0.00  0.00     0.019 A 
ENDBRANCH   7  10
ENDBRANCH   3   6
ENDBRANCH   1   2
BRANCH   1  17
ATOM     17  N   UNL d   1      -0.128   6.348   1.173  0.00  0.00    -0.344 N 
ATOM     18  C   UNL d   1       0.003   5.279   2.036  0.00  0.00     0.252 C 
ATOM     19  O   UNL d   1       0.614   4.268   1.710  0.00  0.00    -0.268 OA
ATOM     20  H   UNL d   1      -0.820   7.056   1.359  0.00  0.00     0.163 HD
BRANCH  18  21
ATOM     21  C   UNL d   1      -0.628   5.383   3.394  0.00  0.00     0.032 A 
ATOM     22  C   UNL d   1      -1.328   6.512   3.841  0.00  0.00     0.018 A 
ATOM     23  C   UNL d   1      -1.865   6.549   5.135  0.00  0.00     0.017 A 
ATOM     24  C   UNL d   1      -1.709   5.466   6.013  0.00  0.00     0.048 A 
ATOM     25  C   UNL d   1      -1.004   4.340   5.569  0.00  0.00     0.017 A 
ATOM     26  C   UNL d   1      -0.472   4.300   4.274  0.00  0.00     0.018 A 
BRANCH  24  27
ATOM     27  C   UNL d   1      -2.281   5.539   7.410  0.00  0.00     0.417 C 
ATOM     28  F   UNL d   1      -2.120   4.396   8.131  0.00  0.00    -0.166 F 
ATOM     29  F   UNL d   1      -3.619   5.796   7.410  0.00  0.00    -0.166 F 
ATOM     30  F   UNL d   1      -1.713   6.532   8.149  0.00  0.00    -0.166 F 
ENDBRANCH  24  27
ENDBRANCH  18  21
ENDBRANCH   1  17
BRANCH   1  31
ATOM     31  C   UNL d   1       1.135   7.795  -0.406  0.00  0.00     0.045 C 
BRANCH  31  32
ATOM     32  C   UNL d   1       0.083   8.898  -0.540  0.00  0.00     0.076 C 
BRANCH  32  33
ATOM     33  S   UNL d   1       0.884  10.520  -0.769  0.00  0.00    -0.173 SA
ATOM     34  C   UNL d   1      -0.608  11.512  -1.024  0.00  0.00     0.089 C 
ENDBRANCH  32  33
ENDBRANCH  31  32
ENDBRANCH   1  31
TORSDOF 9
