REMARK  1 active torsions:
REMARK  status: ('A' for Active; 'I' for Inactive)
REMARK    1  A    between atoms: C_8  and  C_5 
ROOT
ATOM      1  N   UNL d   1      -0.359  -2.437  -2.084  0.00  0.00    -0.277 N 
ATOM      2  C   UNL d   1       0.188  -2.314  -0.841  0.00  0.00     0.253 A 
ATOM      3  C   UNL d   1      -1.499  -1.715  -2.182  0.00  0.00     0.323 A 
ATOM      4  N   UNL d   1      -1.702  -1.050  -0.999  0.00  0.00    -0.325 N 
ATOM      5  C   UNL d   1      -0.696  -1.373  -0.016  0.00  0.00     0.212 A 
ATOM      6  O   UNL d   1       1.212  -2.871  -0.475  0.00  0.00    -0.270 OA
ATOM      7  O   UNL d   1      -2.240  -1.667  -3.147  0.00  0.00    -0.247 OA
ATOM      8  H   UNL d   1       0.005  -3.020  -2.817  0.00  0.00     0.173 HD
ATOM      9  H   UNL d   1      -2.527  -0.493  -0.831  0.00  0.00     0.165 HD
ENDROOT
BRANCH   5  10
ATOM     10  C   UNL d   1      -1.290  -2.001   1.219  0.00  0.00    -0.026 A 
ATOM     11  C   UNL d   1      -0.986  -1.479   2.486  0.00  0.00     0.010 A 
ATOM     12  C   UNL d   1      -1.545  -2.037   3.638  0.00  0.00     0.001 A 
ATOM     13  C   UNL d   1      -2.411  -3.123   3.541  0.00  0.00     0.000 A 
ATOM     14  C   UNL d   1      -2.716  -3.658   2.292  0.00  0.00     0.001 A 
ATOM     15  C   UNL d   1      -2.159  -3.103   1.138  0.00  0.00     0.010 A 
ENDBRANCH   5  10
TORSDOF 1
