REMARK  6 active torsions:
REMARK  status: ('A' for Active; 'I' for Inactive)
REMARK    1  A    between atoms: C_4  and  C_1 
REMARK    2  A    between atoms: C_11  and  C_2 
REMARK    3  A    between atoms: S_3  and  N_5 
REMARK    4  A    between atoms: C_16  and  S_3 
REMARK       I    between atoms: N_10  and  C_4 
REMARK    5  A    between atoms: N_5  and  C_9 
REMARK    6  A    between atoms: C_9  and  N_10 
ROOT
ATOM      1  C   UNL d   1       0.358  -2.655   0.883  0.00  0.00     0.262 C 
ATOM      2  N   UNL d   1      -0.758  -3.305   0.372  0.00  0.00    -0.299 N 
ATOM      3  O   UNL d   1       1.502  -3.026   0.687  0.00  0.00    -0.267 OA
ATOM      4  H   UNL d   1      -1.595  -2.762   0.242  0.00  0.00     0.171 HD
ENDROOT
BRANCH   1   5
ATOM      5  C   UNL d   1       0.057  -1.388   1.525  0.00  0.00     0.093 C 
ATOM      6  C   UNL d   1       0.800  -0.156   1.547  0.00  0.00     0.085 C 
ATOM      7  N   UNL d   1       0.051   0.794   2.134  0.00  0.00    -0.259 N 
ATOM      8  O   UNL d   1      -1.037   0.175   2.679  0.00  0.00    -0.241 OA
ATOM      9  HN  UNL d   1       0.258   1.793   2.166  1.00  0.00     0.195 HD
ATOM     10  C   UNL d   1      -1.018  -1.136   2.360  0.00  0.00     0.090 C 
ATOM     11  C   UNL d   1      -2.078  -1.948   2.994  0.00  0.00     0.080 C 
BRANCH   6  12
ATOM     12  C   UNL d   1       2.110   0.234   0.996  0.00  0.00     0.015 A 
ATOM     13  C   UNL d   1       2.975   1.110   1.693  0.00  0.00     0.046 A 
ATOM     14 CL   UNL d   1       2.732   1.582   3.346  0.00  0.00    -0.083 Cl
ATOM     15  C   UNL d   1       4.128   1.625   1.082  0.00  0.00     0.025 A 
ATOM     16  C   UNL d   1       4.461   1.250  -0.215  0.00  0.00     0.002 A 
ATOM     17  C   UNL d   1       3.664   0.329  -0.887  0.00  0.00     0.001 A 
ATOM     18  C   UNL d   1       2.499  -0.176  -0.290  0.00  0.00     0.015 A 
ENDBRANCH   6  12
ENDBRANCH   1   5
BRANCH   2  19
ATOM     19  C   UNL d   1      -0.867  -4.585  -0.111  0.00  0.00     0.186 C 
ATOM     20  S   UNL d   1      -2.150  -4.940  -1.123  0.00  0.00    -0.040 SA
BRANCH  19  21
ATOM     21  N   UNL d   1      -0.007  -5.643   0.141  0.00  0.00    -0.289 N 
ATOM     22  HN  UNL d   1       0.346  -6.182  -0.650  1.00  0.00     0.178 HD
BRANCH  21  23
ATOM     23  S   UNL d   1       0.439  -6.041   1.559  0.00  0.00     0.054 S 
ATOM     24  O   UNL d   1       0.520  -5.107   2.666  0.00  0.00    -0.245 OA
ATOM     25  C   UNL d   1       2.007  -6.888   1.405  0.00  0.00     0.142 C 
BRANCH  23  26
ATOM     26  C   UNL d   1      -0.561  -7.390   2.166  0.00  0.00     0.038 A 
ATOM     27  C   UNL d   1      -1.512  -8.038   1.379  0.00  0.00     0.022 A 
ATOM     28  C   UNL d   1      -2.085  -9.220   1.857  0.00  0.00     0.001 A 
ATOM     29  C   UNL d   1      -1.703  -9.745   3.095  0.00  0.00     0.000 A 
ATOM     30  C   UNL d   1      -0.789  -9.063   3.896  0.00  0.00     0.001 A 
ATOM     31  C   UNL d   1      -0.235  -7.873   3.441  0.00  0.00     0.022 A 
ENDBRANCH  23  26
ENDBRANCH  21  23
ENDBRANCH  19  21
ENDBRANCH   2  19
TORSDOF 6
