REMARK  3 active torsions:
REMARK  status: ('A' for Active; 'I' for Inactive)
REMARK    1  A    between atoms: C_6  and  C_1 
REMARK    2  A    between atoms: S_12  and  C_3 
REMARK       I    between atoms: N_8  and  C_6 
REMARK       I    between atoms: C_7  and  N_9 
REMARK       I    between atoms: N_14  and  C_7 
REMARK    3  A    between atoms: N_9  and  N_8 
ROOT
ATOM      1  C   UNL d   1      -1.735  -0.877  -0.052  0.00  0.00     0.082 A 
ATOM      2  S   UNL d   1      -2.633   0.586  -0.043  0.00  0.00    -0.076 SA
ATOM      3  C   UNL d   1      -1.231   1.563   0.019  0.00  0.00     0.052 A 
ATOM      4  C   UNL d   1      -0.367  -0.621  -0.034  0.00  0.00    -0.023 A 
ATOM      5  C   UNL d   1      -0.090   0.789   0.009  0.00  0.00    -0.005 A 
ATOM      6  C   UNL d   1       1.258   1.263   0.066  0.00  0.00     0.010 C 
ATOM      7  C   UNL d   1       2.303   0.424   0.019  0.00  0.00    -0.025 C 
ATOM      8  C   UNL d   1       0.734  -1.650  -0.006  0.00  0.00     0.045 C 
ATOM      9  C   UNL d   1       2.164  -1.071  -0.088  0.00  0.00     0.032 C 
ENDROOT
BRANCH   1  10
ATOM     10  C   UNL d   1      -2.410  -2.175  -0.083  0.00  0.00     0.277 C 
ATOM     11  N   UNL d   1      -3.794  -2.155   0.003  0.00  0.00    -0.261 N 
ATOM     12  H   UNL d   1      -4.331  -1.305   0.169  0.00  0.00     0.190 HD
ATOM     13  O   UNL d   1      -1.815  -3.250  -0.180  0.00  0.00    -0.265 OA
BRANCH  11  14
ATOM     14  N   UNL d   1      -4.503  -3.363  -0.092  0.00  0.00    -0.249 N 
ATOM     15  C   UNL d   1      -5.779  -3.408   0.444  0.00  0.00     0.334 C 
ATOM     16  O   UNL d   1      -6.358  -2.434   0.904  0.00  0.00    -0.246 OA
ATOM     17  N   UNL d   1      -6.300  -4.679   0.375  0.00  0.00    -0.346 N 
ATOM     18  C   UNL d   1      -7.625  -5.000   0.844  0.00  0.00     0.151 C 
ATOM     19  H   UNL d   1      -5.898  -5.285  -0.327  0.00  0.00     0.163 HD
ATOM     20  H   UNL d   1      -3.926  -4.194  -0.008  0.00  0.00     0.192 HD
ENDBRANCH  11  14
ENDBRANCH   1  10
BRANCH   3  21
ATOM     21  S   UNL d   1      -1.387   3.314   0.149  0.00  0.00    -0.126 SA
ATOM     22  C   UNL d   1      -0.754   3.848  -1.456  0.00  0.00     0.096 C 
ENDBRANCH   3  21
TORSDOF 3
