REMARK  6 active torsions:
REMARK  status: ('A' for Active; 'I' for Inactive)
REMARK    1  A    between atoms: C_2  and  C_1 
REMARK       I    between atoms: N_5  and  C_2 
REMARK    2  A    between atoms: C_3  and  O_6 
REMARK       I    between atoms: N_9  and  C_3 
REMARK    3  A    between atoms: O_6  and  C_4 
REMARK    4  A    between atoms: C_7  and  N_5 
REMARK    5  A    between atoms: C_23  and  N_9 
REMARK    6  A    between atoms: C_24  and  N_9 
ROOT
ATOM      1  C   UNL d   1       2.441  -0.974  -0.794  0.00  0.00     0.067 C 
ATOM      2  C   UNL d   1       2.827  -0.260   0.346  0.00  0.00     0.096 C 
ATOM      3  C   UNL d   1       1.128  -0.809  -1.244  0.00  0.00     0.039 C 
ATOM      4  C   UNL d   1       2.149   0.886   0.762  0.00  0.00     0.040 C 
ATOM      5  C   UNL d   1       0.335   0.185  -0.656  0.00  0.00     0.012 C 
ATOM      6  C   UNL d   1       0.877   1.107   0.247  0.00  0.00     0.022 C 
ATOM      7 BR   UNL d   1      -1.528   0.218  -0.989  0.00  0.00    -0.051 Br
ENDROOT
BRANCH   1   8
ATOM      8  C   UNL d   1       3.447  -1.895  -1.391  0.00  0.00     0.259 C 
ATOM      9  N   UNL d   1       2.941  -3.050  -1.950  0.00  0.00    -0.320 N 
ATOM     10  H   UNL d   1       1.966  -3.234  -1.767  0.00  0.00     0.169 HD
ATOM     11  O   UNL d   1       4.612  -1.545  -1.362  0.00  0.00    -0.267 OA
BRANCH   9  12
ATOM     12  C   UNL d   1       3.626  -4.029  -2.715  0.00  0.00     0.074 A 
ATOM     13  C   UNL d   1       4.985  -4.028  -3.085  0.00  0.00     0.146 A 
ATOM     14  C   UNL d   1       5.524  -5.052  -3.871  0.00  0.00     0.086 A 
ATOM     15  F   UNL d   1       5.837  -3.056  -2.733  0.00  0.00    -0.204 F 
ATOM     16  C   UNL d   1       4.706  -6.092  -4.289  0.00  0.00     0.119 A 
ATOM     17  C   UNL d   1       3.364  -6.126  -3.940  0.00  0.00     0.044 A 
ATOM     18  F   UNL d   1       5.214  -7.073  -5.049  0.00  0.00    -0.206 F 
ATOM     19  C   UNL d   1       2.826  -5.101  -3.151  0.00  0.00     0.036 A 
ENDBRANCH   9  12
ENDBRANCH   1   8
BRANCH   2  20
ATOM     20  O   UNL d   1       3.521  -0.973   1.362  0.00  0.00    -0.260 OA
BRANCH  20  21
ATOM     21  C   UNL d   1       2.648  -1.936   1.916  0.00  0.00     0.368 C 
ATOM     22  N   UNL d   1       3.142  -2.616   3.025  0.00  0.00    -0.328 N 
ATOM     23  O   UNL d   1       1.512  -2.165   1.496  0.00  0.00    -0.238 OA
BRANCH  22  24
ATOM     24  C   UNL d   1       4.482  -2.364   3.538  0.00  0.00     0.123 C 
ATOM     25  C   UNL d   1       4.524  -1.234   4.551  0.00  0.00     0.026 C 
ENDBRANCH  22  24
BRANCH  22  26
ATOM     26  C   UNL d   1       2.133  -3.263   3.877  0.00  0.00     0.123 C 
ATOM     27  C   UNL d   1       2.607  -4.447   4.701  0.00  0.00     0.026 C 
ENDBRANCH  22  26
ENDBRANCH  20  21
ENDBRANCH   2  20
TORSDOF 6
