REMARK  6 active torsions:
REMARK  status: ('A' for Active; 'I' for Inactive)
REMARK    1  A    between atoms: C_2  and  C_1 
REMARK    2  A    between atoms: C_3  and  C_1 
REMARK       I    between atoms: N_7  and  C_2 
REMARK    3  A    between atoms: C_4  and  C_3 
REMARK    4  A    between atoms: O_14  and  C_6 
REMARK    5  A    between atoms: C_13  and  N_7 
REMARK    6  A    between atoms: O_15  and  C_8 
ROOT
ATOM      1  C   UNL d   1       2.168  -0.744  -0.505  0.00  0.00     0.168 C 
ATOM      2  O   UNL d   1       2.463  -1.837  -0.023  0.00  0.00    -0.292 OA
ENDROOT
BRANCH   1   3
ATOM      3  C   UNL d   1       0.930   0.009  -0.088  0.00  0.00     0.186 C 
BRANCH   3   4
ATOM      4  C   UNL d   1       0.097  -0.526   1.057  0.00  0.00     0.229 C 
ATOM      5  N   UNL d   1       0.172  -1.880   1.295  0.00  0.00    -0.327 N 
ATOM      6  H   UNL d   1       0.941  -2.372   0.838  0.00  0.00     0.169 HD
ATOM      7  O   UNL d   1      -0.636   0.267   1.652  0.00  0.00    -0.273 OA
BRANCH   5   8
ATOM      8  C   UNL d   1      -0.544  -2.616   2.263  0.00  0.00     0.034 A 
ATOM      9  C   UNL d   1      -1.622  -2.103   2.991  0.00  0.00     0.029 A 
ATOM     10  C   UNL d   1      -2.249  -2.873   3.977  0.00  0.00     0.002 A 
ATOM     11  C   UNL d   1      -1.808  -4.167   4.239  0.00  0.00     0.000 A 
ATOM     12  C   UNL d   1      -0.759  -4.702   3.498  0.00  0.00     0.002 A 
ATOM     13  C   UNL d   1      -0.136  -3.934   2.508  0.00  0.00     0.029 A 
ENDBRANCH   5   8
ENDBRANCH   3   4
ENDBRANCH   1   3
BRANCH   1  14
ATOM     14  C   UNL d   1       3.030  -0.160  -1.585  0.00  0.00     0.013 A 
ATOM     15  C   UNL d   1       2.736   1.064  -2.212  0.00  0.00     0.054 A 
ATOM     16  C   UNL d   1       3.533   1.549  -3.263  0.00  0.00     0.102 A 
ATOM     17  C   UNL d   1       4.632   0.784  -3.693  0.00  0.00     0.101 A 
ATOM     18  C   UNL d   1       4.952  -0.408  -3.034  0.00  0.00     0.040 A 
ATOM     19  C   UNL d   1       4.155  -0.882  -1.992  0.00  0.00     0.018 A 
BRANCH  16  20
ATOM     20  O   UNL d   1       3.314   2.743  -3.897  0.00  0.00    -0.353 OA
ATOM     21  C   UNL d   1       2.271   3.585  -3.429  0.00  0.00     0.210 C 
ENDBRANCH  16  20
BRANCH  17  22
ATOM     22  O   UNL d   1       5.506   1.103  -4.701  0.00  0.00    -0.353 OA
ATOM     23  C   UNL d   1       4.939   1.735  -5.845  0.00  0.00     0.210 C 
ENDBRANCH  17  22
ENDBRANCH   1  14
TORSDOF 6
