REMARK  6 active torsions:
REMARK  status: ('A' for Active; 'I' for Inactive)
REMARK    1  A    between atoms: S_8  and  C_1 
REMARK    2  A    between atoms: C_2  and  N_5 
REMARK    3  A    between atoms: N_13  and  C_2 
REMARK    4  A    between atoms: C_3  and  C_14 
REMARK       I    between atoms: N_6  and  C_3 
REMARK    5  A    between atoms: N_5  and  N_6 
REMARK    6  A    between atoms: C_14  and  S_8 
ROOT
ATOM      1  C   UNL d   1       0.848   5.364  -0.050  0.00  0.00     0.245 C 
ATOM      2  N   UNL d   1      -0.459   5.785   0.094  0.00  0.00    -0.267 N 
ATOM      3  O   UNL d   1       1.785   6.164  -0.114  0.00  0.00    -0.271 OA
ATOM      4  H   UNL d   1      -1.243   5.152  -0.065  0.00  0.00     0.190 HD
ENDROOT
BRANCH   1   5
ATOM      5  C   UNL d   1       1.080   3.864   0.006  0.00  0.00     0.184 C 
BRANCH   5   6
ATOM      6  S   UNL d   1      -0.196   2.933  -0.878  0.00  0.00    -0.113 SA
BRANCH   6   7
ATOM      7  C   UNL d   1       0.342   1.262  -0.743  0.00  0.00     0.041 A 
ATOM      8  S   UNL d   1      -0.611   0.007  -1.426  0.00  0.00    -0.095 SA
ATOM      9  C   UNL d   1       0.492  -1.199  -0.930  0.00  0.00     0.051 A 
ATOM     10  C   UNL d   1       1.567  -0.668  -0.257  0.00  0.00     0.009 A 
ATOM     11  C   UNL d   1       1.478   0.755  -0.146  0.00  0.00     0.026 A 
ENDBRANCH   6   7
ENDBRANCH   5   6
ENDBRANCH   1   5
BRANCH   2  12
ATOM     12  N   UNL d   1      -0.718   7.158  -0.001  0.00  0.00    -0.274 N 
ATOM     13  H   UNL d   1       0.107   7.751  -0.066  0.00  0.00     0.189 HD
BRANCH  12  14
ATOM     14  C   UNL d   1      -2.006   7.668  -0.008  0.00  0.00     0.186 C 
ATOM     15  S   UNL d   1      -3.376   6.706   0.031  0.00  0.00    -0.040 SA
BRANCH  14  16
ATOM     16  N   UNL d   1      -1.996   9.047  -0.049  0.00  0.00    -0.370 N 
ATOM     17  C   UNL d   1      -3.136   9.945  -0.037  0.00  0.00     0.148 C 
ATOM     18  H   UNL d   1      -1.091   9.496  -0.031  0.00  0.00     0.161 HD
ENDBRANCH  14  16
ENDBRANCH  12  14
ENDBRANCH   2  12
TORSDOF 6
