REMARK  5 active torsions:
REMARK  status: ('A' for Active; 'I' for Inactive)
REMARK    1  A    between atoms: C_2  and  S_1 
REMARK    2  A    between atoms: N_3  and  S_1 
REMARK    3  A    between atoms: N_15  and  C_10 
REMARK    4  A    between atoms: S_16  and  C_10 
REMARK    5  A    between atoms: C_17  and  N_15 
ROOT
ATOM      1  C   UNL d   1      -1.549   4.352   1.680  0.00  0.00    -0.098 C 
ATOM      2  C   UNL d   1      -1.889   5.386   1.174  0.00  0.00     0.014 C 
ATOM      3  C   UNL d   1      -1.210   3.109   2.395  0.00  0.00     0.215 C 
ENDROOT
BRANCH   3   4
ATOM      4  N   UNL d   1      -0.456   2.188   1.562  0.00  0.00    -0.360 N 
ATOM      5  H   UNL d   1      -0.481   2.415   0.567  0.00  0.00     0.162 HD
BRANCH   4   6
ATOM      6  C   UNL d   1      -0.213   0.869   1.882  0.00  0.00     0.150 C 
ATOM      7  N   UNL d   1       0.160  -0.106   1.135  0.00  0.00    -0.260 N 
ATOM      8  HN  UNL d   1       0.240  -1.037   1.544  1.00  0.00     0.181 HD
BRANCH   7   9
ATOM      9  S   UNL d   1       0.505   0.091  -0.423  0.00  0.00     0.269 S 
ATOM     10  O   UNL d   1      -0.332   1.100  -1.029  0.00  0.00    -0.200 OA
ATOM     11  O   UNL d   1       1.936   0.050  -0.630  0.00  0.00    -0.200 OA
BRANCH   9  12
ATOM     12  C   UNL d   1      -0.087  -1.397  -1.039  0.00  0.00     0.135 A 
ATOM     13  C   UNL d   1       0.601  -2.486  -1.530  0.00  0.00     0.098 A 
ATOM     14  O   UNL d   1      -0.298  -3.460  -1.846  0.00  0.00    -0.241 OA
ATOM     15  C   UNL d   1       2.003  -2.838  -1.822  0.00  0.00     0.081 C 
ATOM     16  N   UNL d   1      -1.581  -2.997  -1.649  0.00  0.00    -0.264 N 
ATOM     17  C   UNL d   1      -1.451  -1.737  -1.213  0.00  0.00     0.054 A 
ATOM     18  HN  UNL d   1      -2.450  -3.508  -1.803  1.00  0.00     0.194 HD
ATOM     19  C   UNL d   1      -2.663  -0.906  -1.034  0.00  0.00     0.072 C 
ENDBRANCH   9  12
ENDBRANCH   7   9
BRANCH   6  20
ATOM     20  S   UNL d   1      -0.429   0.458   3.603  0.00  0.00    -0.098 SA
ATOM     21  C   UNL d   1      -0.653  -1.329   3.538  0.00  0.00     0.099 C 
ENDBRANCH   6  20
ENDBRANCH   4   6
ENDBRANCH   3   4
TORSDOF 5
