REMARK  4 active torsions:
REMARK  status: ('A' for Active; 'I' for Inactive)
REMARK    1  A    between atoms: N_3  and  S_1 
REMARK    2  A    between atoms: C_9  and  S_1 
REMARK    3  A    between atoms: C_2  and  N_7 
REMARK    4  A    between atoms: C_6  and  C_8 
ROOT
ATOM      1  N   UNL d   1       0.542   0.330  -1.584  0.00  0.00    -0.205 NA
ATOM      2  N   UNL d   1       0.650   1.501  -4.379  0.00  0.00    -0.216 N 
ATOM      3  C   UNL d   1       0.968   1.745  -1.914  0.00  0.00     0.128 C 
ATOM      4  C   UNL d   1       0.304   2.280  -3.193  0.00  0.00     0.157 C 
ATOM      5  C   UNL d   1       0.165  -0.866  -3.768  0.00  0.00     0.036 C 
ATOM      6  C   UNL d   1       1.105  -0.639  -2.590  0.00  0.00     0.109 C 
ATOM      7  C   UNL d   1      -0.145   0.326  -4.672  0.00  0.00     0.142 C 
ENDROOT
BRANCH   2   8
ATOM      8  C   UNL d   1       1.742   1.834  -5.144  0.00  0.00     0.680 A 
ATOM      9  N   UNL d   1       2.014   1.109  -6.239  0.00  0.00    -0.186 N 
ATOM     10  C   UNL d   1       3.047   1.488  -7.042  0.00  0.00     0.133 A 
ATOM     11  HN  UNL d   1       1.456   0.286  -6.467  1.00  0.00     0.184 HD
ATOM     12  C   UNL d   1       3.831   2.583  -6.744  0.00  0.00     0.052 A 
ATOM     13  C   UNL d   1       3.503   3.253  -5.594  0.00  0.00     0.108 A 
ATOM     14  N   UNL d   1       2.482   2.896  -4.792  0.00  0.00    -0.202 N 
ATOM     15  HN  UNL d   1       2.277   3.419  -3.941  1.00  0.00     0.183 HD
BRANCH  10  16
ATOM     16  C   UNL d   1       3.333   0.708  -8.312  0.00  0.00     0.433 C 
ATOM     17  F   UNL d   1       2.501  -0.349  -8.528  0.00  0.00    -0.165 F 
ATOM     18  F   UNL d   1       3.243   1.486  -9.431  0.00  0.00    -0.165 F 
ATOM     19  F   UNL d   1       4.599   0.194  -8.333  0.00  0.00    -0.165 F 
ENDBRANCH  10  16
ENDBRANCH   2   8
BRANCH   1  20
ATOM     20  S   UNL d   1       0.969  -0.135   0.027  0.00  0.00     0.243 S 
ATOM     21  O   UNL d   1       2.352   0.250   0.230  0.00  0.00    -0.206 OA
ATOM     22  O   UNL d   1       0.533  -1.498   0.238  0.00  0.00    -0.206 OA
BRANCH  20  23
ATOM     23  C   UNL d   1      -0.047   0.877   1.081  0.00  0.00     0.074 A 
ATOM     24  C   UNL d   1      -1.438   0.734   1.024  0.00  0.00     0.028 A 
ATOM     25  C   UNL d   1      -2.238   1.442   1.924  0.00  0.00     0.044 A 
ATOM     26  C   UNL d   1      -1.643   2.274   2.869  0.00  0.00     0.116 A 
ATOM     27  C   UNL d   1      -0.259   2.418   2.930  0.00  0.00     0.044 A 
ATOM     28  F   UNL d   1      -2.413   2.936   3.742  0.00  0.00    -0.206 F 
ATOM     29  C   UNL d   1       0.548   1.716   2.033  0.00  0.00     0.028 A 
ENDBRANCH  20  23
ENDBRANCH   1  20
TORSDOF 4
