REMARK  4 active torsions:
REMARK  status: ('A' for Active; 'I' for Inactive)
REMARK    1  A    between atoms: N_3  and  C_1 
REMARK    2  A    between atoms: O_8  and  C_4 
REMARK    3  A    between atoms: N_15  and  C_7 
REMARK    4  A    between atoms: C_13  and  O_8 
ROOT
ATOM      1  C   UNL d   1       0.379   1.387  -0.009  0.00  0.00     0.062 A 
ATOM      2  C   UNL d   1      -0.999   1.673   0.059  0.00  0.00     0.071 A 
ATOM      3  C   UNL d   1      -1.957   0.650  -0.049  0.00  0.00     0.099 A 
ATOM      4  C   UNL d   1       0.778   0.045  -0.100  0.00  0.00     0.063 A 
ATOM      5  C   UNL d   1      -0.184  -0.964  -0.243  0.00  0.00     0.052 A 
ATOM      6  C   UNL d   1      -1.556  -0.684  -0.239  0.00  0.00     0.042 A 
ATOM      7 CL   UNL d   1       2.410  -0.509   0.078  0.00  0.00    -0.082 Cl
ENDROOT
BRANCH   3   8
ATOM      8  O   UNL d   1      -3.268   1.080  -0.059  0.00  0.00    -0.309 OA
BRANCH   8   9
ATOM      9  C   UNL d   1      -4.224   0.445   0.704  0.00  0.00     0.076 A 
ATOM     10  C   UNL d   1      -3.967  -0.361   1.818  0.00  0.00     0.039 A 
ATOM     11  C   UNL d   1      -5.018  -1.028   2.458  0.00  0.00     0.026 A 
ATOM     12  C   UNL d   1      -6.328  -0.846   2.018  0.00  0.00     0.034 A 
ATOM     13  C   UNL d   1      -6.600   0.001   0.947  0.00  0.00     0.026 A 
ATOM     14 CL   UNL d   1      -7.615  -1.676   2.801  0.00  0.00    -0.084 Cl
ATOM     15  C   UNL d   1      -5.547   0.644   0.291  0.00  0.00     0.039 A 
ENDBRANCH   8   9
ENDBRANCH   3   8
BRANCH   6  16
ATOM     16  N   UNL d   1      -2.430  -1.701  -0.651  0.00  0.00    -0.300 NA
ATOM     17  H   UNL d   1      -2.153  -2.637  -0.374  0.00  0.00     0.124 HD
ATOM     18  H   UNL d   1      -3.415  -1.522  -0.482  0.00  0.00     0.124 HD
ENDBRANCH   6  16
BRANCH   1  19
ATOM     19  N   UNL d   1       1.299   2.478  -0.062  0.00  0.00    -0.331 N 
ATOM     20  C   UNL d   1       2.491   2.523  -0.764  0.00  0.00     0.096 A 
ATOM     21  C   UNL d   1       3.067   3.767  -0.615  0.00  0.00     0.019 A 
ATOM     22  C   UNL d   1       2.191   4.534   0.178  0.00  0.00     0.019 A 
ATOM     23  C   UNL d   1       1.111   3.735   0.484  0.00  0.00     0.096 A 
ENDBRANCH   1  19
TORSDOF 4
