REMARK  7 active torsions:
REMARK  status: ('A' for Active; 'I' for Inactive)
REMARK    1  A    between atoms: C_10  and  C_1 
REMARK    2  A    between atoms: C_4  and  S_14 
REMARK    3  A    between atoms: O_18  and  C_7 
REMARK    4  A    between atoms: C_16  and  C_10 
REMARK    5  A    between atoms: S_14  and  C_16 
REMARK    6  A    between atoms: C_22  and  C_15 
REMARK    7  A    between atoms: O_19  and  C_22 
ROOT
ATOM      1  N   UNL d   1      -4.100  -5.371  -1.273  0.00  0.00    -0.318 N 
ATOM      2  HN  UNL d   1      -3.091  -5.516  -1.312  1.00  0.00     0.170 HD
ATOM      3  C   UNL d   1      -4.642  -4.190  -0.938  0.00  0.00     0.146 A 
ATOM      4  C   UNL d   1      -4.970  -6.341  -1.552  0.00  0.00     0.143 A 
ATOM      5  N   UNL d   1      -5.963  -3.941  -0.872  0.00  0.00    -0.338 N 
ATOM      6  HN  UNL d   1      -6.320  -3.020  -0.619  1.00  0.00     0.168 HD
ATOM      7  C   UNL d   1      -6.332  -6.219  -1.523  0.00  0.00     0.083 A 
ATOM      8  C   UNL d   1      -6.800  -4.975  -1.160  0.00  0.00     0.039 A 
ENDROOT
BRANCH   3   9
ATOM      9  S   UNL d   1      -3.475  -2.885  -0.642  0.00  0.00    -0.086 SA
BRANCH   9  10
ATOM     10  C   UNL d   1      -4.583  -1.485  -0.302  0.00  0.00     0.168 C 
BRANCH  10  11
ATOM     11  C   UNL d   1      -3.741  -0.235  -0.081  0.00  0.00     0.192 C 
ATOM     12  O   UNL d   1      -3.254  -0.002   1.027  0.00  0.00    -0.289 OA
BRANCH  11  13
ATOM     13  C   UNL d   1      -3.515   0.646  -1.215  0.00  0.00     0.123 A 
ATOM     14  O   UNL d   1      -4.125   0.406  -2.416  0.00  0.00    -0.306 OA
ATOM     15  C   UNL d   1      -3.714   1.376  -3.284  0.00  0.00     0.086 A 
ATOM     16  C   UNL d   1      -4.100   1.490  -4.618  0.00  0.00     0.038 A 
ATOM     17  C   UNL d   1      -2.838   2.250  -2.652  0.00  0.00     0.001 A 
ATOM     18  C   UNL d   1      -3.541   2.550  -5.343  0.00  0.00     0.003 A 
ATOM     19  C   UNL d   1      -2.649   3.444  -4.745  0.00  0.00     0.001 A 
ATOM     20  C   UNL d   1      -2.291   3.312  -3.396  0.00  0.00     0.014 A 
ATOM     21  C   UNL d   1      -2.730   1.783  -1.316  0.00  0.00     0.055 A 
ENDBRANCH  11  13
ENDBRANCH  10  11
ENDBRANCH   9  10
ENDBRANCH   3   9
BRANCH   4  22
ATOM     22  O   UNL d   1      -4.398  -7.516  -1.914  0.00  0.00    -0.346 OA
ATOM     23  H   UNL d   1      -3.454  -7.286  -1.840  0.00  0.00     0.219 HD
ENDBRANCH   4  22
BRANCH   8  24
ATOM     24  C   UNL d   1      -8.288  -4.710  -1.143  0.00  0.00     0.224 C 
BRANCH  24  25
ATOM     25  O   UNL d   1      -8.964  -5.690  -0.350  0.00  0.00    -0.390 OA
ATOM     26  C   UNL d   1     -10.365  -5.449  -0.308  0.00  0.00     0.201 C 
ENDBRANCH  24  25
ENDBRANCH   8  24
TORSDOF 7
