REMARK  4 active torsions:
REMARK  status: ('A' for Active; 'I' for Inactive)
REMARK    1  A    between atoms: C_2  and  N_1 
REMARK    2  A    between atoms: N_6  and  C_3 
REMARK       I    between atoms: N_4  and  C_7 
REMARK       I    between atoms: C_5  and  N_4 
REMARK       I    between atoms: N_10  and  C_5 
REMARK    3  A    between atoms: C_7  and  C_13 
REMARK    4  A    between atoms: C_20  and  N_10 
ROOT
ATOM      1  N   UNL d   1      -1.172  -0.351   0.748  0.00  0.00    -0.365 N 
ATOM      2  C   UNL d   1      -2.156  -1.020   3.426  0.00  0.00     0.081 C 
ATOM      3  C   UNL d   1      -0.253  -0.766   1.808  0.00  0.00     0.125 C 
ATOM      4  C   UNL d   1      -2.504  -0.959   0.835  0.00  0.00     0.125 C 
ATOM      5  C   UNL d   1      -3.116  -0.838   2.236  0.00  0.00     0.034 C 
ATOM      6  C   UNL d   1      -0.801  -0.359   3.171  0.00  0.00     0.034 C 
ENDROOT
BRANCH   2   7
ATOM      7  C   UNL d   1      -1.949  -2.475   3.844  0.00  0.00     0.229 C 
ATOM      8  N   UNL d   1      -1.330  -2.751   5.052  0.00  0.00    -0.279 N 
ATOM      9  C   UNL d   1      -1.297  -1.959   6.193  0.00  0.00     0.327 C 
ATOM     10  H   UNL d   1      -1.293  -3.746   5.213  0.00  0.00     0.173 HD
ATOM     11  N   UNL d   1      -0.889  -2.675   7.306  0.00  0.00    -0.309 N 
ATOM     12  O   UNL d   1      -1.562  -0.762   6.200  0.00  0.00    -0.247 OA
ATOM     13  H   UNL d   1      -0.382  -3.533   7.140  0.00  0.00     0.170 HD
ATOM     14  O   UNL d   1      -2.309  -3.424   3.145  0.00  0.00    -0.273 OA
BRANCH  11  15
ATOM     15  C   UNL d   1      -0.989  -2.259   8.655  0.00  0.00     0.036 A 
ATOM     16  C   UNL d   1      -1.681  -1.113   9.063  0.00  0.00     0.031 A 
ATOM     17  C   UNL d   1      -1.805  -0.796  10.420  0.00  0.00     0.026 A 
ATOM     18  C   UNL d   1      -1.237  -1.625  11.381  0.00  0.00     0.034 A 
ATOM     19  C   UNL d   1      -0.534  -2.763  10.993  0.00  0.00     0.026 A 
ATOM     20 CL   UNL d   1      -1.417  -1.253  13.050  0.00  0.00    -0.084 Cl
ATOM     21  C   UNL d   1      -0.411  -3.078   9.634  0.00  0.00     0.031 A 
ENDBRANCH  11  15
ENDBRANCH   2   7
BRANCH   1  22
ATOM     22  C   UNL d   1      -0.969   0.923   0.230  0.00  0.00     0.136 A 
ATOM     23  C   UNL d   1      -1.385   1.365  -1.027  0.00  0.00     0.146 A 
ATOM     24  C   UNL d   1      -1.065   2.650  -1.501  0.00  0.00     0.041 A 
ATOM     25  C   UNL d   1      -0.319   3.497  -0.697  0.00  0.00     0.020 A 
ATOM     26  C   UNL d   1       0.069   3.020   0.536  0.00  0.00     0.090 A 
ATOM     27  N   UNL d   1      -0.236   1.781   0.991  0.00  0.00    -0.350 N 
ATOM     28  HN  UNL d   1       0.088   1.488   1.913  1.00  0.00     0.166 HD
BRANCH  23  29
ATOM     29  N   UNL d   1      -2.070   0.492  -1.948  0.00  0.00    -0.112 N 
ATOM     30  O   UNL d   1      -1.459  -0.494  -2.377  0.00  0.00    -0.532 OA
ATOM     31  O   UNL d   1      -3.208   0.839  -2.296  0.00  0.00    -0.532 OA
ENDBRANCH  23  29
ENDBRANCH   1  22
TORSDOF 4
