REMARK  7 active torsions:
REMARK  status: ('A' for Active; 'I' for Inactive)
REMARK    1  A    between atoms: N_8  and  C_1 
REMARK    2  A    between atoms: C_2  and  S_17 
REMARK       I    between atoms: C_14  and  N_8 
REMARK    3  A    between atoms: C_12  and  C_9 
REMARK    4  A    between atoms: C_16  and  C_12 
REMARK    5  A    between atoms: C_20  and  C_14 
REMARK    6  A    between atoms: O_21  and  C_16 
REMARK    7  A    between atoms: S_17  and  C_20 
ROOT
ATOM      1  N   UNL d   1       2.229  -2.887  -0.508  0.00  0.00    -0.306 N 
ATOM      2  C   UNL d   1       1.247  -3.566   0.181  0.00  0.00     0.233 C 
ATOM      3  O   UNL d   1       0.407  -3.076   0.934  0.00  0.00    -0.272 OA
ATOM      4  H   UNL d   1       2.899  -3.408  -1.055  0.00  0.00     0.171 HD
ENDROOT
BRANCH   2   5
ATOM      5  C   UNL d   1       1.192  -5.061  -0.128  0.00  0.00     0.184 C 
BRANCH   5   6
ATOM      6  S   UNL d   1       2.714  -5.953   0.320  0.00  0.00    -0.096 SA
BRANCH   6   7
ATOM      7  C   UNL d   1       2.913  -5.340   1.946  0.00  0.00     0.113 C 
ATOM      8  N   UNL d   1       3.791  -4.395   2.166  0.00  0.00    -0.344 N 
ATOM      9  C   UNL d   1       3.479  -3.769   3.358  0.00  0.00     0.050 A 
ATOM     10  HN  UNL d   1       4.576  -4.159   1.559  1.00  0.00     0.167 HD
ATOM     11  C   UNL d   1       4.078  -2.591   3.840  0.00  0.00     0.031 A 
ATOM     12  C   UNL d   1       2.424  -4.337   4.077  0.00  0.00     0.034 A 
ATOM     13  C   UNL d   1       3.538  -1.957   4.962  0.00  0.00     0.002 A 
ATOM     14  C   UNL d   1       2.471  -2.527   5.651  0.00  0.00     0.002 A 
ATOM     15  C   UNL d   1       1.925  -3.750   5.250  0.00  0.00     0.021 A 
ATOM     16  S   UNL d   1       1.887  -5.750   3.250  0.00  0.00    -0.063 SA
ENDBRANCH   6   7
ENDBRANCH   5   6
ENDBRANCH   2   5
BRANCH   1  17
ATOM     17  C   UNL d   1       2.438  -1.530  -0.527  0.00  0.00     0.151 A 
ATOM     18  N   UNL d   1       3.389  -0.993  -1.263  0.00  0.00    -0.339 N 
ATOM     19  C   UNL d   1       3.316   0.394  -1.204  0.00  0.00     0.027 A 
ATOM     20  HN  UNL d   1       4.079  -1.518  -1.799  1.00  0.00     0.168 HD
ATOM     21  C   UNL d   1       2.349   0.879  -0.342  0.00  0.00     0.078 A 
ATOM     22  S   UNL d   1       1.490  -0.425   0.357  0.00  0.00    -0.064 SA
BRANCH  19  23
ATOM     23  C   UNL d   1       4.254   1.201  -2.040  0.00  0.00     0.167 C 
BRANCH  23  24
ATOM     24  C   UNL d   1       5.258   1.967  -1.215  0.00  0.00     0.145 C 
ATOM     25  O   UNL d   1       5.514   3.148  -1.387  0.00  0.00    -0.650 OA
BRANCH  24  26
ATOM     26  O   UNL d   1       5.911   1.217  -0.289  0.00  0.00    -0.776 OA
ATOM     27  H   UNL d   1       5.620   0.285  -0.265  0.00  0.00     0.167 HD
ENDBRANCH  24  26
ENDBRANCH  23  24
ENDBRANCH  19  23
ENDBRANCH   1  17
TORSDOF 7
