REMARK  5 active torsions:
REMARK  status: ('A' for Active; 'I' for Inactive)
REMARK    1  A    between atoms: S_14  and  C_2 
REMARK    2  A    between atoms: C_6  and  C_4 
REMARK       I    between atoms: N_13  and  C_6 
REMARK    3  A    between atoms: C_7  and  C_12 
REMARK    4  A    between atoms: N_8  and  N_13 
REMARK    5  A    between atoms: O_20  and  C_11 
ROOT
ATOM      1  C   UNL d   1       0.110  -0.830  -0.050  0.00  0.00     0.002 A 
ATOM      2  C   UNL d   1       1.250  -1.615   0.026  0.00  0.00     0.051 A 
ATOM      3  C   UNL d   1       0.439   0.585   0.024  0.00  0.00    -0.025 A 
ATOM      4  C   UNL d   1       1.810   0.817   0.002  0.00  0.00     0.082 A 
ATOM      5  S   UNL d   1       2.673  -0.656   0.052  0.00  0.00    -0.076 SA
ATOM      6  C   UNL d   1      -1.326  -1.290  -0.164  0.00  0.00     0.153 C 
ATOM      7  C   UNL d   1      -0.627   1.655   0.049  0.00  0.00     0.041 C 
ATOM      8  C   UNL d   1      -2.012   1.089   0.374  0.00  0.00     0.007 C 
ATOM      9  C   UNL d   1      -2.303  -0.147  -0.470  0.00  0.00     0.037 C 
ENDROOT
BRANCH   4  10
ATOM     10  C   UNL d   1       2.506   2.110  -0.059  0.00  0.00     0.277 C 
ATOM     11  N   UNL d   1       3.902   2.049  -0.115  0.00  0.00    -0.266 N 
ATOM     12  H   UNL d   1       4.365   1.148  -0.100  0.00  0.00     0.190 HD
ATOM     13  O   UNL d   1       1.898   3.178  -0.075  0.00  0.00    -0.265 OA
BRANCH  11  14
ATOM     14  N   UNL d   1       4.628   3.206  -0.145  0.00  0.00    -0.308 N 
ATOM     15  C   UNL d   1       5.920   3.098  -0.173  0.00  0.00     0.126 C 
ATOM     16  HN  UNL d   1       4.172   4.119  -0.146  1.00  0.00     0.186 HD
BRANCH  15  17
ATOM     17  C   UNL d   1       6.736   4.289  -0.158  0.00  0.00     0.021 A 
ATOM     18  S   UNL d   1       8.437   4.160  -0.064  0.00  0.00    -0.101 SA
ATOM     19  C   UNL d   1       8.628   5.862  -0.007  0.00  0.00     0.050 A 
ATOM     20  C   UNL d   1       7.420   6.519  -0.090  0.00  0.00     0.008 A 
ATOM     21  C   UNL d   1       6.328   5.609  -0.187  0.00  0.00     0.021 A 
ENDBRANCH  15  17
ENDBRANCH  11  14
ENDBRANCH   4  10
BRANCH   2  22
ATOM     22  S   UNL d   1       1.447  -3.367   0.011  0.00  0.00    -0.126 SA
ATOM     23  C   UNL d   1       0.083  -3.985   1.015  0.00  0.00     0.096 C 
ENDBRANCH   2  22
BRANCH   6  24
ATOM     24  O   UNL d   1      -1.497  -2.267  -1.188  0.00  0.00    -0.391 OA
ATOM     25  H   UNL d   1      -0.979  -1.965  -1.955  0.00  0.00     0.210 HD
ENDBRANCH   6  24
TORSDOF 5
