REMARK  8 active torsions:
REMARK  status: ('A' for Active; 'I' for Inactive)
REMARK    1  A    between atoms: C_2  and  C_1 
REMARK       I    between atoms: N_12  and  C_1 
REMARK    2  A    between atoms: N_4  and  C_2 
REMARK    3  A    between atoms: C_20  and  C_2 
REMARK       I    between atoms: C_3  and  N_4 
REMARK    4  A    between atoms: C_21  and  C_3 
REMARK    5  A    between atoms: C_5  and  C_11 
REMARK    6  A    between atoms: N_6  and  N_12 
REMARK    7  A    between atoms: C_10  and  C_21 
REMARK    8  A    between atoms: C_23  and  C_20 
ROOT
ATOM      1  C   UNL d   1       0.217   0.860  -0.736  0.00  0.00     0.178 C 
ENDROOT
BRANCH   1   2
ATOM      2  C   UNL d   1       1.017  -0.003   0.258  0.00  0.00     0.258 C 
ATOM      3  N   UNL d   1       0.346  -1.155   0.655  0.00  0.00    -0.269 N 
ATOM      4  H   UNL d   1      -0.634  -1.290   0.410  0.00  0.00     0.190 HD
ATOM      5  O   UNL d   1       2.099   0.367   0.710  0.00  0.00    -0.269 OA
BRANCH   3   6
ATOM      6  N   UNL d   1       1.008  -2.068   1.425  0.00  0.00    -0.308 N 
ATOM      7  C   UNL d   1       0.346  -3.121   1.794  0.00  0.00     0.126 C 
ATOM      8  HN  UNL d   1       1.980  -1.928   1.699  1.00  0.00     0.186 HD
BRANCH   7   9
ATOM      9  C   UNL d   1       1.014  -4.162   2.538  0.00  0.00     0.021 A 
ATOM     10  S   UNL d   1       0.176  -5.605   2.914  0.00  0.00    -0.101 SA
ATOM     11  C   UNL d   1       1.573  -6.311   3.610  0.00  0.00     0.050 A 
ATOM     12  C   UNL d   1       2.646  -5.448   3.599  0.00  0.00     0.008 A 
ATOM     13  C   UNL d   1       2.317  -4.198   2.997  0.00  0.00     0.021 A 
ENDBRANCH   7   9
ENDBRANCH   3   6
ENDBRANCH   1   2
BRANCH   1  14
ATOM     14  N   UNL d   1      -0.560   1.826   0.044  0.00  0.00    -0.347 N 
ATOM     15  C   UNL d   1      -1.775   1.493   0.606  0.00  0.00     0.222 C 
ATOM     16  O   UNL d   1      -2.280   0.382   0.463  0.00  0.00    -0.273 OA
ATOM     17  H   UNL d   1      -0.041   2.583   0.477  0.00  0.00     0.163 HD
BRANCH  15  18
ATOM     18  C   UNL d   1      -2.416   2.623   1.397  0.00  0.00     0.141 C 
BRANCH  18  19
ATOM     19  C   UNL d   1      -2.127   2.581   2.871  0.00  0.00    -0.043 A 
ATOM     20  C   UNL d   1      -2.996   3.072   3.831  0.00  0.00     0.057 A 
ATOM     21  S   UNL d   1      -2.394   2.923   5.423  0.00  0.00    -0.113 SA
ATOM     22  C   UNL d   1      -0.950   2.208   4.864  0.00  0.00     0.050 A 
ATOM     23  C   UNL d   1      -0.929   2.087   3.491  0.00  0.00     0.015 A 
ENDBRANCH  18  19
ENDBRANCH  15  18
ENDBRANCH   1  14
BRANCH   1  24
ATOM     24  C   UNL d   1       1.145   1.642  -1.682  0.00  0.00     0.038 C 
BRANCH  24  25
ATOM     25  C   UNL d   1       2.023   0.792  -2.620  0.00  0.00    -0.020 C 
ATOM     26  C   UNL d   1       1.199  -0.081  -3.566  0.00  0.00     0.009 C 
ATOM     27  C   UNL d   1       2.936   1.715  -3.435  0.00  0.00     0.009 C 
ENDBRANCH  24  25
ENDBRANCH   1  24
TORSDOF 8
