REMARK  5 active torsions:
REMARK  status: ('A' for Active; 'I' for Inactive)
REMARK    1  A    between atoms: C_7  and  C_1 
REMARK    2  A    between atoms: C_3  and  C_2 
REMARK    3  A    between atoms: S_11  and  C_6 
REMARK    4  A    between atoms: O_17  and  C_7 
REMARK    5  A    between atoms: C_16  and  S_11 
ROOT
ATOM      1  C   UNL d   1      -0.028  -1.482  -0.043  0.00  0.00     0.086 A 
ATOM      2  C   UNL d   1       1.181  -0.813  -0.044  0.00  0.00     0.136 A 
ATOM      3  N   UNL d   1       1.227   0.556  -0.010  0.00  0.00    -0.332 N 
ATOM      4  HN  UNL d   1       2.120   1.048   0.019  1.00  0.00     0.168 HD
ATOM      5  C   UNL d   1       0.067   1.234  -0.015  0.00  0.00     0.149 A 
ATOM      6  N   UNL d   1      -1.141   0.657  -0.045  0.00  0.00    -0.345 N 
ATOM      7  HN  UNL d   1      -2.000   1.208  -0.053  1.00  0.00     0.167 HD
ATOM      8  C   UNL d   1      -1.161  -0.692  -0.065  0.00  0.00     0.110 A 
ENDROOT
BRANCH   5   9
ATOM      9  S   UNL d   1       0.151   3.002   0.050  0.00  0.00    -0.054 SA
BRANCH   9  10
ATOM     10  C   UNL d   1       0.201   3.415  -1.684  0.00  0.00     0.008 A 
ATOM     11  C   UNL d   1      -0.747   4.310  -2.196  0.00  0.00     0.021 A 
ATOM     12  C   UNL d   1      -0.715   4.684  -3.542  0.00  0.00     0.025 A 
ATOM     13  C   UNL d   1       0.270   4.168  -4.381  0.00  0.00     0.034 A 
ATOM     14  C   UNL d   1       1.225   3.284  -3.883  0.00  0.00     0.025 A 
ATOM     15 CL   UNL d   1       0.312   4.631  -6.037  0.00  0.00    -0.084 Cl
ATOM     16  C   UNL d   1       1.194   2.914  -2.535  0.00  0.00     0.021 A 
ENDBRANCH   9  10
ENDBRANCH   5   9
BRANCH   2  17
ATOM     17  C   UNL d   1       2.519  -1.522  -0.124  0.00  0.00     0.433 C 
ATOM     18  F   UNL d   1       2.471  -2.823  -0.522  0.00  0.00    -0.165 F 
ATOM     19  F   UNL d   1       3.358  -0.925  -1.024  0.00  0.00    -0.165 F 
ATOM     20  F   UNL d   1       3.189  -1.513   1.063  0.00  0.00    -0.165 F 
ENDBRANCH   2  17
BRANCH   1  21
ATOM     21  C   UNL d   1      -0.221  -2.934  -0.081  0.00  0.00     0.296 C 
ATOM     22  O   UNL d   1      -1.031  -3.467  -0.816  0.00  0.00    -0.259 OA
BRANCH  21  23
ATOM     23  O   UNL d   1       0.541  -3.526   0.865  0.00  0.00    -0.322 OA
ATOM     24  C   UNL d   1       0.447  -4.955   0.865  0.00  0.00     0.213 C 
ENDBRANCH  21  23
ENDBRANCH   1  21
TORSDOF 5
