REMARK  5 active torsions:
REMARK  status: ('A' for Active; 'I' for Inactive)
REMARK       I    between atoms: N_2  and  C_1 
REMARK    1  A    between atoms: C_6  and  C_1 
REMARK    2  A    between atoms: C_4  and  N_2 
REMARK    3  A    between atoms: C_3  and  C_4 
REMARK    4  A    between atoms: C_8  and  C_7 
REMARK    5  A    between atoms: C_21  and  C_18 
ROOT
ATOM      1  C   UNL d   1      -0.050   1.018  -0.092  0.00  0.00     0.032 A 
ATOM      2  C   UNL d   1      -1.375   3.485   0.488  0.00  0.00    -0.026 A 
ATOM      3  C   UNL d   1       0.403   2.236  -0.626  0.00  0.00     0.018 A 
ATOM      4  C   UNL d   1      -1.144   1.038   0.765  0.00  0.00     0.018 A 
ATOM      5  C   UNL d   1      -0.238   3.444  -0.333  0.00  0.00     0.013 A 
ATOM      6  C   UNL d   1      -1.793   2.257   1.046  0.00  0.00     0.013 A 
ENDROOT
BRANCH   1   7
ATOM      7  C   UNL d   1       0.629  -0.219  -0.563  0.00  0.00     0.253 C 
ATOM      8  N   UNL d   1       0.465  -1.443   0.102  0.00  0.00    -0.337 N 
ATOM      9  H   UNL d   1       0.100  -1.434   1.043  0.00  0.00     0.164 HD
ATOM     10  O   UNL d   1       1.360  -0.091  -1.555  0.00  0.00    -0.268 OA
BRANCH   8  11
ATOM     11  C   UNL d   1       1.313  -2.586  -0.317  0.00  0.00     0.096 C 
ATOM     12  C   UNL d   1       0.965  -3.978   0.305  0.00  0.00     0.044 C 
ATOM     13  C   UNL d   1       1.420  -4.276   1.728  0.00  0.00     0.004 C 
ATOM     14  C   UNL d   1       2.826  -3.781   2.029  0.00  0.00     0.000 C 
ATOM     15  C   UNL d   1       3.011  -2.350   1.552  0.00  0.00     0.004 C 
ATOM     16  C   UNL d   1       2.782  -2.256   0.032  0.00  0.00     0.044 C 
BRANCH  11  17
ATOM     17  C   UNL d   1       1.017  -2.816  -1.758  0.00  0.00    -0.086 C 
ATOM     18  C   UNL d   1       0.512  -3.043  -2.834  0.00  0.00     0.015 C 
ENDBRANCH  11  17
ENDBRANCH   8  11
ENDBRANCH   1   7
BRANCH   2  19
ATOM     19  C   UNL d   1      -2.115   4.755   0.718  0.00  0.00    -0.026 A 
ATOM     20  C   UNL d   1      -2.820   5.000   1.909  0.00  0.00     0.013 A 
ATOM     21  C   UNL d   1      -3.533   6.188   2.116  0.00  0.00     0.008 A 
ATOM     22  C   UNL d   1      -3.543   7.191   1.144  0.00  0.00    -0.059 A 
ATOM     23  C   UNL d   1      -2.856   6.968  -0.051  0.00  0.00     0.008 A 
ATOM     24  C   UNL d   1      -2.161   5.770  -0.261  0.00  0.00     0.013 A 
BRANCH  22  25
ATOM     25  C   UNL d   1      -4.277   8.487   1.375  0.00  0.00     0.034 C 
ATOM     26  C   UNL d   1      -5.711   8.448   0.867  0.00  0.00     0.010 C 
ENDBRANCH  22  25
ENDBRANCH   2  19
TORSDOF 5
