REMARK  6 active torsions:
REMARK  status: ('A' for Active; 'I' for Inactive)
REMARK    1  A    between atoms: S_7  and  C_1 
REMARK    2  A    between atoms: C_11  and  N_4 
REMARK    3  A    between atoms: C_13  and  S_7 
REMARK    4  A    between atoms: C_10  and  C_13 
REMARK    5  A    between atoms: O_17  and  C_10 
REMARK    6  A    between atoms: C_20  and  O_17 
ROOT
ATOM      1  C   UNL d   1       2.403   0.117   0.021  0.00  0.00     0.148 A 
ATOM      2  N   UNL d   1       1.739  -1.015   0.055  0.00  0.00    -0.335 N 
ATOM      3  HN  UNL d   1       2.124  -1.960   0.085  1.00  0.00     0.168 HD
ATOM      4  N   UNL d   1       1.566   1.212  -0.048  0.00  0.00    -0.321 N 
ATOM      5  C   UNL d   1       0.414  -0.653   0.043  0.00  0.00     0.062 A 
ATOM      6  C   UNL d   1       0.268   0.729   0.005  0.00  0.00     0.063 A 
ATOM      7  C   UNL d   1      -0.725  -1.477   0.060  0.00  0.00     0.055 A 
ATOM      8  C   UNL d   1      -0.994   1.348   0.001  0.00  0.00     0.034 A 
ATOM      9  C   UNL d   1      -1.985  -0.869   0.041  0.00  0.00     0.036 A 
ATOM     10  C   UNL d   1      -2.120   0.519   0.018  0.00  0.00     0.026 A 
ATOM     11 CL   UNL d   1      -3.398  -1.855   0.041  0.00  0.00    -0.084 Cl
ENDROOT
BRANCH   1  12
ATOM     12  S   UNL d   1       4.137   0.235   0.080  0.00  0.00    -0.084 SA
BRANCH  12  13
ATOM     13  C   UNL d   1       4.642  -1.364  -0.617  0.00  0.00     0.193 C 
BRANCH  13  14
ATOM     14  C   UNL d   1       4.176  -1.533  -2.046  0.00  0.00     0.268 C 
ATOM     15  O   UNL d   1       3.938  -0.635  -2.843  0.00  0.00    -0.264 OA
BRANCH  14  16
ATOM     16  O   UNL d   1       4.069  -2.868  -2.323  0.00  0.00    -0.321 OA
BRANCH  16  17
ATOM     17  C   UNL d   1       3.241  -3.188  -3.449  0.00  0.00     0.174 C 
ATOM     18  C   UNL d   1       1.803  -3.253  -2.966  0.00  0.00     0.034 C 
ENDBRANCH  16  17
ENDBRANCH  14  16
ENDBRANCH  13  14
ENDBRANCH  12  13
ENDBRANCH   1  12
BRANCH   4  19
ATOM     19  C   UNL d   1       1.962   2.604  -0.242  0.00  0.00     0.084 C 
ATOM     20  C   UNL d   1       1.421   3.181  -1.554  0.00  0.00     0.032 C 
ATOM     21  C   UNL d   1       1.619   3.499   0.950  0.00  0.00     0.032 C 
ENDBRANCH   4  19
TORSDOF 6
