REMARK  5 active torsions:
REMARK  status: ('A' for Active; 'I' for Inactive)
REMARK    1  A    between atoms: C_2  and  C_1 
REMARK       I    between atoms: N_3  and  C_1 
REMARK    2  A    between atoms: C_9  and  N_3 
REMARK    3  A    between atoms: O_12  and  C_4 
REMARK    4  A    between atoms: O_14  and  C_5 
REMARK    5  A    between atoms: O_13  and  C_6 
ROOT
ATOM      1  C   UNL d   1       0.379  -1.142  -0.631  0.00  0.00     0.037 A 
ATOM      2  C   UNL d   1      -0.853  -3.472  -1.566  0.00  0.00     0.135 A 
ATOM      3  C   UNL d   1      -1.371  -2.200  -1.907  0.00  0.00     0.105 A 
ATOM      4  C   UNL d   1       0.297  -3.563  -0.752  0.00  0.00     0.105 A 
ATOM      5  C   UNL d   1       0.926  -2.389  -0.319  0.00  0.00     0.057 A 
ATOM      6  C   UNL d   1      -0.768  -1.041  -1.418  0.00  0.00     0.057 A 
ENDROOT
BRANCH   1   7
ATOM      7  C   UNL d   1       0.917   0.070   0.017  0.00  0.00     0.256 C 
ATOM      8  N   UNL d   1       2.279   0.250  -0.099  0.00  0.00    -0.322 N 
ATOM      9  H   UNL d   1       2.747  -0.181  -0.890  0.00  0.00     0.169 HD
ATOM     10  O   UNL d   1       0.130   0.822   0.583  0.00  0.00    -0.267 OA
BRANCH   8  11
ATOM     11  C   UNL d   1       3.029   1.195   0.639  0.00  0.00     0.051 A 
ATOM     12  C   UNL d   1       4.229   1.714   0.127  0.00  0.00     0.033 A 
ATOM     13  I   UNL d   1       4.913   1.228  -1.798  0.00  0.00    -0.042 I 
ATOM     14  C   UNL d   1       4.985   2.625   0.874  0.00  0.00     0.020 A 
ATOM     15  C   UNL d   1       4.567   3.000   2.151  0.00  0.00     0.001 A 
ATOM     16  C   UNL d   1       3.390   2.475   2.677  0.00  0.00     0.002 A 
ATOM     17  C   UNL d   1       2.623   1.585   1.922  0.00  0.00     0.031 A 
ENDBRANCH   8  11
ENDBRANCH   1   7
BRANCH   4  18
ATOM     18  O   UNL d   1       0.773  -4.801  -0.406  0.00  0.00    -0.353 OA
ATOM     19  C   UNL d   1       1.414  -4.901   0.863  0.00  0.00     0.210 C 
ENDBRANCH   4  18
BRANCH   3  20
ATOM     20  O   UNL d   1      -2.507  -2.188  -2.682  0.00  0.00    -0.353 OA
ATOM     21  C   UNL d   1      -2.732  -1.020  -3.463  0.00  0.00     0.210 C 
ENDBRANCH   3  20
BRANCH   2  22
ATOM     22  O   UNL d   1      -1.609  -4.526  -2.023  0.00  0.00    -0.351 OA
ATOM     23  C   UNL d   1      -0.979  -5.783  -2.207  0.00  0.00     0.210 C 
ENDBRANCH   2  22
TORSDOF 5
