REMARK  3 active torsions:
REMARK  status: ('A' for Active; 'I' for Inactive)
REMARK    1  A    between atoms: C_7  and  C_3 
REMARK    2  A    between atoms: O_15  and  C_7 
REMARK    3  A    between atoms: C_18  and  O_15 
ROOT
ATOM      1  C   UNL d   1       0.250  -0.776   0.001  0.00  0.00     0.045 A 
ATOM      2  C   UNL d   1       0.531   0.643  -0.007  0.00  0.00    -0.018 A 
ATOM      3  C   UNL d   1       1.900   0.901  -0.011  0.00  0.00     0.088 A 
ATOM      4  C   UNL d   1       1.398  -1.538   0.070  0.00  0.00     0.100 A 
ATOM      5  S   UNL d   1       2.795  -0.563   0.076  0.00  0.00    -0.071 SA
ATOM      6  C   UNL d   1      -1.114  -1.300  -0.050  0.00  0.00     0.162 C 
ATOM      7  C   UNL d   1       1.486  -2.965   0.115  0.00  0.00     0.108 C 
ATOM      8  N   UNL d   1       1.612  -4.119   0.150  0.00  0.00    -0.191 NA
ATOM      9  C   UNL d   1      -0.589   1.663  -0.045  0.00  0.00     0.050 C 
ATOM     10  C   UNL d   1      -1.970   1.062   0.355  0.00  0.00    -0.037 C 
ATOM     11  C   UNL d   1      -2.201  -0.289  -0.359  0.00  0.00     0.093 C 
ATOM     12  O   UNL d   1      -1.371  -2.492   0.087  0.00  0.00    -0.292 OA
ATOM     13  C   UNL d   1      -3.096   2.026  -0.069  0.00  0.00     0.015 C 
ATOM     14  C   UNL d   1      -2.061   0.878   1.885  0.00  0.00     0.015 C 
ENDROOT
BRANCH   3  15
ATOM     15  C   UNL d   1       2.587   2.190  -0.076  0.00  0.00     0.300 C 
ATOM     16  O   UNL d   1       2.029   3.280  -0.112  0.00  0.00    -0.259 OA
BRANCH  15  17
ATOM     17  O   UNL d   1       3.942   2.024  -0.109  0.00  0.00    -0.317 OA
BRANCH  17  18
ATOM     18  C   UNL d   1       4.747   3.210  -0.172  0.00  0.00     0.174 C 
ATOM     19  C   UNL d   1       4.890   3.678  -1.608  0.00  0.00     0.034 C 
ENDBRANCH  17  18
ENDBRANCH  15  17
ENDBRANCH   3  15
TORSDOF 3
