REMARK  3 active torsions:
REMARK  status: ('A' for Active; 'I' for Inactive)
REMARK    1  A    between atoms: N_2  and  C_1 
REMARK    2  A    between atoms: N_3  and  C_6 
REMARK    3  A    between atoms: N_8  and  C_4 
ROOT
ATOM      1  C   UNL d   1      -1.842   0.040  -0.036  0.00  0.00     0.131 A 
ATOM      2  C   UNL d   1      -1.198  -1.215   0.006  0.00  0.00     0.064 A 
ATOM      3  C   UNL d   1      -1.147   1.260  -0.077  0.00  0.00     0.075 A 
ATOM      4  C   UNL d   1       0.248   1.243  -0.076  0.00  0.00     0.111 A 
ATOM      5  C   UNL d   1       0.215  -1.162  -0.044  0.00  0.00     0.041 A 
ATOM      6  C   UNL d   1       0.960   0.038  -0.065  0.00  0.00    -0.027 A 
ATOM      7  C   UNL d   1       2.459  -0.075  -0.040  0.00  0.00     0.050 C 
ENDROOT
BRANCH   2   8
ATOM      8  N   UNL d   1      -1.831  -2.435   0.167  0.00  0.00    -0.375 N 
ATOM      9  C   UNL d   1      -1.151  -3.570   0.829  0.00  0.00     0.149 C 
ATOM     10  C   UNL d   1      -2.177  -4.354   1.661  0.00  0.00     0.187 C 
ATOM     11  O   UNL d   1      -3.264  -4.816   0.846  0.00  0.00    -0.388 OA
ATOM     12  C   UNL d   1      -3.942  -3.700   0.240  0.00  0.00     0.187 C 
ATOM     13  C   UNL d   1      -2.986  -2.875  -0.644  0.00  0.00     0.149 C 
ENDBRANCH   2   8
BRANCH   1  14
ATOM     14  N   UNL d   1      -3.284   0.158   0.053  0.00  0.00    -0.113 N 
ATOM     15  O   UNL d   1      -3.837  -0.224   1.093  0.00  0.00    -0.532 OA
ATOM     16  O   UNL d   1      -3.857   0.682  -0.917  0.00  0.00    -0.532 OA
ENDBRANCH   1  14
BRANCH   4  17
ATOM     17  N   UNL d   1       0.926   2.529  -0.048  0.00  0.00    -0.115 N 
ATOM     18  O   UNL d   1       0.670   3.274   0.906  0.00  0.00    -0.532 OA
ATOM     19  O   UNL d   1       1.682   2.790  -0.993  0.00  0.00    -0.532 OA
ENDBRANCH   4  17
TORSDOF 3
