REMARK  5 active torsions:
REMARK  status: ('A' for Active; 'I' for Inactive)
REMARK    1  A    between atoms: C_6  and  C_1 
REMARK    2  A    between atoms: O_5  and  C_2 
REMARK    3  A    between atoms: C_3  and  C_4 
REMARK    4  A    between atoms: C_4  and  O_5 
REMARK    5  A    between atoms: O_18  and  C_6 
ROOT
ATOM      1  C   UNL d   1       2.553   2.765  -0.492  0.00  0.00     0.300 C 
ATOM      2  O   UNL d   1       2.404   2.949   0.703  0.00  0.00    -0.259 OA
ENDROOT
BRANCH   1   3
ATOM      3  C   UNL d   1       3.530   3.518  -1.313  0.00  0.00     0.061 A 
ATOM      4  C   UNL d   1       4.403   2.900  -2.219  0.00  0.00     0.051 A 
ATOM      5  C   UNL d   1       5.290   3.673  -2.978  0.00  0.00     0.048 A 
ATOM      6 CL   UNL d   1       4.508   1.185  -2.412  0.00  0.00    -0.083 Cl
ATOM      7  C   UNL d   1       5.324   5.056  -2.813  0.00  0.00     0.035 A 
ATOM      8  C   UNL d   1       4.493   5.676  -1.883  0.00  0.00     0.025 A 
ATOM      9 CL   UNL d   1       6.411   5.998  -3.755  0.00  0.00    -0.084 Cl
ATOM     10  C   UNL d   1       3.598   4.910  -1.129  0.00  0.00     0.021 A 
ENDBRANCH   1   3
BRANCH   1  11
ATOM     11  O   UNL d   1       1.845   1.936  -1.307  0.00  0.00    -0.273 OA
BRANCH  11  12
ATOM     12  C   UNL d   1       1.073   0.998  -0.711  0.00  0.00     0.103 A 
ATOM     13  C   UNL d   1      -0.301   1.106  -0.606  0.00  0.00     0.114 A 
ATOM     14  S   UNL d   1      -0.957  -0.322   0.107  0.00  0.00    -0.093 SA
ATOM     15  C   UNL d   1       0.565  -1.087   0.175  0.00  0.00     0.053 A 
ATOM     16  C   UNL d   1       1.572  -0.263  -0.275  0.00  0.00     0.046 A 
BRANCH  13  17
ATOM     17  C   UNL d   1      -1.156   2.202  -1.028  0.00  0.00     0.302 C 
ATOM     18  O   UNL d   1      -0.768   3.239  -1.557  0.00  0.00    -0.259 OA
BRANCH  17  19
ATOM     19  O   UNL d   1      -2.467   1.900  -0.801  0.00  0.00    -0.322 OA
ATOM     20  C   UNL d   1      -3.463   2.789  -1.308  0.00  0.00     0.213 C 
ENDBRANCH  17  19
ENDBRANCH  13  17
ENDBRANCH  11  12
ENDBRANCH   1  11
TORSDOF 5
