REMARK  7 active torsions:
REMARK  status: ('A' for Active; 'I' for Inactive)
REMARK    1  A    between atoms: C_2  and  N_1 
REMARK    2  A    between atoms: N_3  and  C_7 
REMARK    3  A    between atoms: O_10  and  C_4 
REMARK    4  A    between atoms: C_6  and  O_10 
REMARK    5  A    between atoms: C_12  and  C_25 
REMARK       I    between atoms: N_13  and  C_12 
REMARK    6  A    between atoms: C_14  and  N_13 
REMARK    7  A    between atoms: C_25  and  N_15 
ROOT
ATOM      1  C   UNL d   1      -4.275   2.641   7.837  0.00  0.00     0.250 C 
ATOM      2  N   UNL d   1      -3.741   3.780   8.409  0.00  0.00    -0.322 N 
ATOM      3  O   UNL d   1      -3.597   1.690   7.441  0.00  0.00    -0.271 OA
ATOM      4  H   UNL d   1      -4.383   4.550   8.506  0.00  0.00     0.169 HD
ENDROOT
BRANCH   2   5
ATOM      5  C   UNL d   1      -2.356   4.081   8.344  0.00  0.00     0.086 A 
ATOM      6  C   UNL d   1      -1.316   3.212   8.706  0.00  0.00     0.175 A 
ATOM      7  N   UNL d   1       0.001   3.528   8.574  0.00  0.00    -0.345 N 
ATOM      8  C   UNL d   1       0.306   4.719   8.025  0.00  0.00     0.090 A 
ATOM      9  HN  UNL d   1       0.731   2.886   8.881  1.00  0.00     0.167 HD
ATOM     10  C   UNL d   1      -0.646   5.653   7.657  0.00  0.00     0.019 A 
ATOM     11  C   UNL d   1      -1.992   5.338   7.843  0.00  0.00     0.035 A 
BRANCH   6  12
ATOM     12  O   UNL d   1      -1.639   2.061   9.415  0.00  0.00    -0.291 OA
BRANCH  12  13
ATOM     13  C   UNL d   1      -0.776   0.995   9.322  0.00  0.00     0.084 A 
ATOM     14  C   UNL d   1      -0.504   0.256  10.465  0.00  0.00    -0.017 A 
ATOM     15  C   UNL d   1       0.297  -0.890  10.405  0.00  0.00    -0.043 A 
ATOM     16  C   UNL d   1      -1.015   0.499  11.848  0.00  0.00     0.042 C 
ATOM     17  C   UNL d   1       0.415  -1.543  11.746  0.00  0.00     0.040 C 
ATOM     18  C   UNL d   1       0.837  -1.333   9.198  0.00  0.00    -0.055 A 
ATOM     19  C   UNL d   1      -0.280  -0.554  12.690  0.00  0.00     0.009 C 
ATOM     20  C   UNL d   1       0.563  -0.584   8.045  0.00  0.00     0.010 A 
ATOM     21  C   UNL d   1       1.668  -2.576   9.120  0.00  0.00     0.049 C 
ATOM     22  C   UNL d   1      -0.247   0.558   8.104  0.00  0.00     0.038 A 
ENDBRANCH  12  13
ENDBRANCH   6  12
ENDBRANCH   2   5
BRANCH   1  23
ATOM     23  C   UNL d   1      -5.794   2.633   7.549  0.00  0.00     0.375 C 
BRANCH  23  24
ATOM     24  N   UNL d   1      -6.612   3.697   8.186  0.00  0.00     0.100 N 
ATOM     25  C   UNL d   1      -6.608   5.007   7.484  0.00  0.00     0.293 C 
ATOM     26  C   UNL d   1      -7.387   5.125   6.151  0.00  0.00     0.154 C 
ATOM     27  N   UNL d   1      -8.761   4.618   6.267  0.00  0.00    -0.364 N 
ATOM     28  C   UNL d   1      -8.832   3.295   6.908  0.00  0.00     0.154 C 
ATOM     29  C   UNL d   1      -8.044   3.245   8.247  0.00  0.00     0.293 C 
BRANCH  27  30
ATOM     30  C   UNL d   1      -9.727   5.552   6.661  0.00  0.00     0.103 A 
ATOM     31  C   UNL d   1      -9.945   6.691   5.876  0.00  0.00     0.051 A 
ATOM     32  C   UNL d   1     -10.934   7.617   6.219  0.00  0.00     0.041 A 
ATOM     33  C   UNL d   1     -11.696   7.375   7.349  0.00  0.00     0.118 A 
ATOM     34  C   UNL d   1     -11.451   6.227   8.085  0.00  0.00     0.125 A 
ATOM     35  N   UNL d   1     -10.489   5.322   7.754  0.00  0.00    -0.350 N 
ATOM     36  HN  UNL d   1     -10.347   4.485   8.320  1.00  0.00     0.166 HD
BRANCH  33  37
ATOM     37  N   UNL d   1     -12.749   8.294   7.763  0.00  0.00    -0.114 N 
ATOM     38  O   UNL d   1     -13.382   8.023   8.792  0.00  0.00    -0.532 OA
ATOM     39  O   UNL d   1     -12.944   9.295   7.059  0.00  0.00    -0.532 OA
ENDBRANCH  33  37
ENDBRANCH  27  30
ENDBRANCH  23  24
ENDBRANCH   1  23
TORSDOF 7
