REMARK  2 active torsions:
REMARK  status: ('A' for Active; 'I' for Inactive)
REMARK    1  A    between atoms: C_8  and  C_1 
REMARK    2  A    between atoms: C_7  and  N_3 
ROOT
ATOM      1  C   UNL d   1      -0.697   2.501  -0.055  0.00  0.00     0.056 A 
ATOM      2  C   UNL d   1       0.539   5.682  -1.577  0.00  0.00    -0.078 C 
ATOM      3  C   UNL d   1       1.169   6.439  -2.264  0.00  0.00     0.018 C 
ATOM      4  C   UNL d   1       0.087   3.409  -0.787  0.00  0.00     0.051 A 
ATOM      5  C   UNL d   1      -0.221   4.771  -0.777  0.00  0.00     0.019 A 
ATOM      6  C   UNL d   1      -1.752   2.978   0.733  0.00  0.00     0.031 A 
ATOM      7  C   UNL d   1      -2.038   4.344   0.761  0.00  0.00     0.004 A 
ATOM      8  C   UNL d   1      -1.283   5.238  -0.002  0.00  0.00     0.021 A 
ENDROOT
BRANCH   1   9
ATOM      9  N   UNL d   1      -0.372   1.122  -0.117  0.00  0.00    -0.242 N 
ATOM     10  C   UNL d   1      -1.160  -0.014   0.020  0.00  0.00     0.060 A 
ATOM     11  C   UNL d   1      -0.252  -1.064  -0.028  0.00  0.00     0.115 A 
ATOM     12  C   UNL d   1      -2.643  -0.067   0.058  0.00  0.00     0.072 C 
ATOM     13  N   UNL d   1       1.002  -0.565  -0.240  0.00  0.00    -0.278 N 
ATOM     14  N   UNL d   1       0.910   0.747  -0.359  0.00  0.00    -0.014 NA
ATOM     15  HN  UNL d   1       1.861  -1.112  -0.297  1.00  0.00     0.184 HD
BRANCH  11  16
ATOM     16  C   UNL d   1      -0.525  -2.494   0.061  0.00  0.00     0.175 C 
ATOM     17  O   UNL d   1      -1.671  -2.928   0.198  0.00  0.00    -0.291 OA
ATOM     18  C   UNL d   1       0.632  -3.458  -0.033  0.00  0.00     0.098 C 
ENDBRANCH  11  16
ENDBRANCH   1   9
TORSDOF 2
