REMARK  7 active torsions:
REMARK  status: ('A' for Active; 'I' for Inactive)
REMARK    1  A    between atoms: C_18  and  C_4 
REMARK    2  A    between atoms: S_19  and  C_5 
REMARK    3  A    between atoms: S_20  and  C_6 
REMARK    4  A    between atoms: C_11  and  C_17 
REMARK    5  A    between atoms: C_13  and  C_28 
REMARK    6  A    between atoms: C_28  and  S_19 
REMARK    7  A    between atoms: C_29  and  S_20 
ROOT
ATOM      1  C   UNL d   1       0.882  -5.410  -0.393  0.00  0.00    -0.107 C 
ATOM      2  C   UNL d   1       0.681  -6.596  -0.403  0.00  0.00     0.013 C 
ATOM      3  C   UNL d   1       1.119  -3.956  -0.388  0.00  0.00     0.174 C 
ENDROOT
BRANCH   3   4
ATOM      4  S   UNL d   1       1.645  -3.380   1.252  0.00  0.00    -0.091 SA
BRANCH   4   5
ATOM      5  C   UNL d   1       1.801  -1.660   0.978  0.00  0.00     0.130 A 
ATOM      6  S   UNL d   1       2.770  -0.654   1.975  0.00  0.00    -0.038 SA
ATOM      7  C   UNL d   1       2.266   0.668   1.004  0.00  0.00     0.129 A 
ATOM      8  N   UNL d   1       1.448   0.338   0.028  0.00  0.00    -0.287 N 
ATOM      9  N   UNL d   1       1.177  -1.022   0.011  0.00  0.00    -0.287 N 
ATOM     10  HN  UNL d   1       1.059   1.004  -0.639  1.00  0.00     0.188 HD
ATOM     11  HN  UNL d   1       0.567  -1.473  -0.670  1.00  0.00     0.188 HD
BRANCH   7  12
ATOM     12  S   UNL d   1       2.816   2.306   1.289  0.00  0.00    -0.097 SA
BRANCH  12  13
ATOM     13  C   UNL d   1       1.913   3.206  -0.011  0.00  0.00     0.139 C 
BRANCH  13  14
ATOM     14  C   UNL d   1       2.286   4.661  -0.054  0.00  0.00     0.026 A 
ATOM     15  N   UNL d   1       1.293   5.626   0.108  0.00  0.00    -0.352 N 
ATOM     16  C   UNL d   1       1.796   6.846   0.024  0.00  0.00     0.084 A 
ATOM     17  HN  UNL d   1       0.307   5.419   0.269  1.00  0.00     0.166 HD
ATOM     18  S   UNL d   1       3.490   6.890  -0.309  0.00  0.00    -0.081 SA
ATOM     19  C   UNL d   1       3.542   5.183  -0.303  0.00  0.00     0.077 A 
BRANCH  16  20
ATOM     20  C   UNL d   1       1.013   8.094   0.147  0.00  0.00    -0.002 A 
ATOM     21  C   UNL d   1       1.580   9.303   0.583  0.00  0.00     0.015 A 
ATOM     22  C   UNL d   1       0.813  10.471   0.687  0.00  0.00     0.017 A 
ATOM     23  C   UNL d   1      -0.549  10.463   0.359  0.00  0.00     0.048 A 
ATOM     24  C   UNL d   1      -1.126   9.259  -0.069  0.00  0.00     0.017 A 
ATOM     25  C   UNL d   1      -0.355   8.091  -0.169  0.00  0.00     0.015 A 
BRANCH  23  26
ATOM     26  C   UNL d   1      -1.383  11.717   0.466  0.00  0.00     0.417 C 
ATOM     27  F   UNL d   1      -0.682  12.803   0.898  0.00  0.00    -0.166 F 
ATOM     28  F   UNL d   1      -1.933  12.082  -0.727  0.00  0.00    -0.166 F 
ATOM     29  F   UNL d   1      -2.426  11.580   1.331  0.00  0.00    -0.166 F 
ENDBRANCH  23  26
ENDBRANCH  16  20
ENDBRANCH  13  14
ENDBRANCH  12  13
ENDBRANCH   7  12
ENDBRANCH   4   5
ENDBRANCH   3   4
TORSDOF 7
