REMARK  6 active torsions:
REMARK  status: ('A' for Active; 'I' for Inactive)
REMARK    1  A    between atoms: C_5  and  C_1 
REMARK    2  A    between atoms: C_6  and  C_1 
REMARK    3  A    between atoms: N_2  and  C_3 
REMARK    4  A    between atoms: C_4  and  C_12 
REMARK    5  A    between atoms: C_8  and  C_5 
REMARK    6  A    between atoms: N_9  and  C_6 
ROOT
ATOM      1  C   UNL d   1       0.933   0.058  -0.047  0.00  0.00     0.093 C 
ATOM      2  C   UNL d   1       0.286  -1.122  -0.154  0.00  0.00     0.116 C 
ENDROOT
BRANCH   1   3
ATOM      3  C   UNL d   1       0.167   1.323   0.120  0.00  0.00     0.203 C 
ATOM      4  O   UNL d   1      -0.985   1.429  -0.293  0.00  0.00    -0.286 OA
BRANCH   3   5
ATOM      5  C   UNL d   1       0.802   2.485   0.810  0.00  0.00     0.016 A 
ATOM      6  C   UNL d   1       1.740   2.340   1.845  0.00  0.00     0.031 A 
ATOM      7  C   UNL d   1       2.340   3.467   2.437  0.00  0.00     0.048 A 
ATOM      8  C   UNL d   1       1.942   4.745   2.021  0.00  0.00     0.016 A 
ATOM      9  C   UNL d   1       0.967   4.894   1.033  0.00  0.00     0.002 A 
ATOM     10  C   UNL d   1       0.404   3.771   0.429  0.00  0.00     0.015 A 
BRANCH   7  11
ATOM     11  C   UNL d   1       3.399   3.317   3.505  0.00  0.00     0.417 C 
ATOM     12  F   UNL d   1       3.720   2.020   3.771  0.00  0.00    -0.166 F 
ATOM     13  F   UNL d   1       4.567   3.932   3.172  0.00  0.00    -0.166 F 
ATOM     14  F   UNL d   1       3.016   3.857   4.694  0.00  0.00    -0.166 F 
ENDBRANCH   7  11
ENDBRANCH   3   5
ENDBRANCH   1   3
BRANCH   1  15
ATOM     15  C   UNL d   1       2.453   0.058  -0.047  0.00  0.00    -0.032 C 
BRANCH  15  16
ATOM     16  N   UNL d   1       3.714   0.058  -0.047  0.00  0.00    -0.365 N 
ATOM     17  HN2 UNL d   1       2.694   0.058  -0.047  1.00  0.00     0.165 HD
ATOM     18  HN1 UNL d   1       4.734   0.058  -0.047  1.00  0.00     0.165 HD
ENDBRANCH  15  16
ENDBRANCH   1  15
BRANCH   2  19
ATOM     19  N   UNL d   1       0.784  -2.425  -0.180  0.00  0.00    -0.354 N 
ATOM     20  C   UNL d   1       0.006  -3.611  -0.297  0.00  0.00     0.040 A 
ATOM     21  C   UNL d   1       0.712  -4.759   0.081  0.00  0.00    -0.030 A 
ATOM     22  C   UNL d   1      -1.299  -3.737  -0.746  0.00  0.00     0.030 A 
ATOM     23  C   UNL d   1       0.144  -6.024   0.064  0.00  0.00     0.009 A 
ATOM     24  C   UNL d   1       2.114  -4.412   0.425  0.00  0.00     0.061 C 
ATOM     25  C   UNL d   1      -1.177  -6.141  -0.360  0.00  0.00     0.001 A 
ATOM     26  C   UNL d   1      -1.889  -5.008  -0.772  0.00  0.00     0.002 A 
ATOM     27  C   UNL d   1       2.041  -2.883   0.470  0.00  0.00     0.133 C 
ENDBRANCH   2  19
TORSDOF 6
