REMARK  3 active torsions:
REMARK  status: ('A' for Active; 'I' for Inactive)
REMARK    1  A    between atoms: N_2  and  C_1 
REMARK    2  A    between atoms: C_3  and  C_1 
REMARK    3  A    between atoms: C_4  and  N_2 
ROOT
ATOM      1  C   UNL d   1       1.276   0.161   0.004  0.00  0.00     0.054 C 
ATOM      2  C   UNL d   1       2.605   0.091   0.204  0.00  0.00     0.123 C 
ATOM      3  N   UNL d   1       4.332   1.650  -0.914  0.00  0.00    -0.192 NA
ATOM      4  C   UNL d   1       3.535   0.961  -0.421  0.00  0.00     0.090 C 
ENDROOT
BRANCH   1   5
ATOM      5  N   UNL d   1       0.617   1.040  -0.838  0.00  0.00    -0.353 N 
ATOM      6  H   UNL d   1      -0.254   1.415  -0.458  0.00  0.00     0.166 HD
BRANCH   5   7
ATOM      7  C   UNL d   1       0.532   0.919  -2.252  0.00  0.00     0.071 A 
ATOM      8  C   UNL d   1      -0.300   1.802  -2.968  0.00  0.00     0.145 A 
ATOM      9  C   UNL d   1      -0.416   1.750  -4.356  0.00  0.00     0.086 A 
ATOM     10  F   UNL d   1      -1.025   2.712  -2.299  0.00  0.00    -0.204 F 
ATOM     11  C   UNL d   1       0.332   0.817  -5.053  0.00  0.00     0.119 A 
ATOM     12  C   UNL d   1       1.200  -0.042  -4.389  0.00  0.00     0.044 A 
ATOM     13  F   UNL d   1       0.221   0.739  -6.386  0.00  0.00    -0.206 F 
ATOM     14  C   UNL d   1       1.308   0.018  -2.995  0.00  0.00     0.036 A 
ENDBRANCH   5   7
ENDBRANCH   1   5
BRANCH   1  15
ATOM     15  C   UNL d   1       0.444  -0.738   0.846  0.00  0.00     0.013 A 
ATOM     16  C   UNL d   1      -0.016  -0.375   2.124  0.00  0.00     0.046 A 
ATOM     17 CL   UNL d   1       0.227   1.214   2.761  0.00  0.00    -0.083 Cl
ATOM     18  C   UNL d   1      -0.678  -1.305   2.935  0.00  0.00     0.025 A 
ATOM     19  C   UNL d   1      -0.901  -2.604   2.478  0.00  0.00     0.002 A 
ATOM     20  C   UNL d   1      -0.472  -2.971   1.205  0.00  0.00     0.001 A 
ATOM     21  C   UNL d   1       0.196  -2.047   0.394  0.00  0.00     0.015 A 
ENDBRANCH   1  15
TORSDOF 3
