REMARK  8 active torsions:
REMARK  status: ('A' for Active; 'I' for Inactive)
REMARK    1  A    between atoms: C_3  and  C_1 
REMARK    2  A    between atoms: C_5  and  C_1 
REMARK    3  A    between atoms: C_7  and  C_1 
REMARK    4  A    between atoms: O_18  and  C_1 
REMARK       I    between atoms: C_2  and  N_4 
REMARK       I    between atoms: N_6  and  C_2 
REMARK    5  A    between atoms: N_4  and  C_8 
REMARK    6  A    between atoms: O_20  and  C_5 
REMARK    7  A    between atoms: C_19  and  N_6 
REMARK    8  A    between atoms: C_28  and  O_20 
ROOT
ATOM      1  C   UNL d   1       0.634  -0.782  -1.125  0.00  0.00    -0.005 A 
ATOM      2  C   UNL d   1      -0.081  -2.467  -3.367  0.00  0.00     0.038 A 
ATOM      3  C   UNL d   1       1.020  -2.122  -1.196  0.00  0.00     0.013 A 
ATOM      4  C   UNL d   1      -0.154  -0.311  -2.186  0.00  0.00     0.013 A 
ATOM      5  C   UNL d   1       0.645  -2.951  -2.265  0.00  0.00     0.030 A 
ATOM      6  C   UNL d   1      -0.497  -1.137  -3.273  0.00  0.00     0.030 A 
ENDROOT
BRANCH   2   7
ATOM      7  N   UNL d   1      -0.312  -3.324  -4.530  0.00  0.00    -0.304 N 
ATOM      8  C   UNL d   1      -1.124  -2.905  -5.613  0.00  0.00     0.327 C 
ATOM      9  N   UNL d   1      -1.222  -3.797  -6.670  0.00  0.00    -0.309 N 
ATOM     10  O   UNL d   1      -1.723  -1.834  -5.642  0.00  0.00    -0.246 OA
ATOM     11  H   UNL d   1      -0.975  -4.755  -6.491  0.00  0.00     0.170 HD
ATOM     12  C   UNL d   1       0.369  -4.628  -4.510  0.00  0.00     0.161 C 
BRANCH   9  13
ATOM     13  C   UNL d   1      -1.906  -3.600  -7.894  0.00  0.00     0.036 A 
ATOM     14  C   UNL d   1      -2.464  -2.384  -8.295  0.00  0.00     0.031 A 
ATOM     15  C   UNL d   1      -3.223  -2.301  -9.469  0.00  0.00     0.026 A 
ATOM     16  C   UNL d   1      -3.397  -3.427 -10.263  0.00  0.00     0.034 A 
ATOM     17  C   UNL d   1      -2.788  -4.629  -9.915  0.00  0.00     0.026 A 
ATOM     18 CL   UNL d   1      -4.380  -3.339 -11.671  0.00  0.00    -0.084 Cl
ATOM     19  C   UNL d   1      -2.038  -4.712  -8.736  0.00  0.00     0.031 A 
ENDBRANCH   9  13
ENDBRANCH   2   7
BRANCH   1  20
ATOM     20  C   UNL d   1       1.081   0.168  -0.008  0.00  0.00     0.271 C 
BRANCH  20  21
ATOM     21  C   UNL d   1       2.417   0.880  -0.326  0.00  0.00     0.432 C 
ATOM     22  F   UNL d   1       3.381   0.659   0.598  0.00  0.00    -0.167 F 
ATOM     23  F   UNL d   1       2.942   0.541  -1.526  0.00  0.00    -0.167 F 
ATOM     24  F   UNL d   1       2.234   2.230  -0.352  0.00  0.00    -0.167 F 
ENDBRANCH  20  21
BRANCH  20  25
ATOM     25  C   UNL d   1       1.307  -0.516   1.350  0.00  0.00     0.308 C 
ATOM     26  O   UNL d   1       1.828  -1.609   1.537  0.00  0.00    -0.261 OA
BRANCH  25  27
ATOM     27  O   UNL d   1       0.825   0.265   2.369  0.00  0.00    -0.319 OA
BRANCH  27  28
ATOM     28  C   UNL d   1       0.572  -0.445   3.591  0.00  0.00     0.174 C 
ATOM     29  C   UNL d   1      -0.860  -0.947   3.542  0.00  0.00     0.034 C 
ENDBRANCH  27  28
ENDBRANCH  25  27
ENDBRANCH  20  25
BRANCH  20  30
ATOM     30  O   UNL d   1      -0.012   1.123   0.157  0.00  0.00    -0.368 OA
ATOM     31  H   UNL d   1       0.278   1.765   0.834  0.00  0.00     0.212 HD
ENDBRANCH  20  30
ENDBRANCH   1  20
TORSDOF 8
