REMARK  3 active torsions:
REMARK  status: ('A' for Active; 'I' for Inactive)
REMARK    1  A    between atoms: C_2  and  S_1 
REMARK    2  A    between atoms: N_3  and  S_1 
REMARK    3  A    between atoms: C_6  and  N_3 
ROOT
ATOM      1  N   UNL d   1       0.467   1.157   1.103  0.00  0.00    -0.164 NA
ATOM      2  H   UNL d   1      -0.552   1.082   1.040  0.00  0.00     0.147 HD
ENDROOT
BRANCH   1   3
ATOM      3  S   UNL d   1       1.095  -0.068   0.113  0.00  0.00     0.264 S 
ATOM      4  O   UNL d   1       1.165   0.449  -1.238  0.00  0.00    -0.204 OA
ATOM      5  O   UNL d   1       2.220  -0.735   0.734  0.00  0.00    -0.204 OA
BRANCH   3   6
ATOM      6  C   UNL d   1      -0.126  -1.311  -0.016  0.00  0.00     0.161 A 
ATOM      7  N   UNL d   1      -1.395  -1.179   0.528  0.00  0.00    -0.341 N 
ATOM      8  C   UNL d   1      -2.024  -2.284   0.188  0.00  0.00     0.183 A 
ATOM      9  HN  UNL d   1      -1.760  -0.397   1.072  1.00  0.00     0.167 HD
ATOM     10  N   UNL d   1      -1.234  -3.096  -0.577  0.00  0.00    -0.354 N 
ATOM     11  C   UNL d   1      -0.017  -2.498  -0.713  0.00  0.00     0.134 A 
ATOM     12  C   UNL d   1      -1.643  -4.351  -1.159  0.00  0.00     0.156 C 
ENDBRANCH   3   6
ENDBRANCH   1   3
BRANCH   1  13
ATOM     13  C   UNL d   1       0.806   1.021   2.470  0.00  0.00     0.111 A 
ATOM     14  N   UNL d   1      -0.191   0.453   3.174  0.00  0.00    -0.354 N 
ATOM     15  C   UNL d   1       0.034   0.265   4.493  0.00  0.00     0.096 A 
ATOM     16  HN  UNL d   1      -1.069   0.177   2.734  1.00  0.00     0.166 HD
ATOM     17  C   UNL d   1       1.205   0.634   5.148  0.00  0.00    -0.045 A 
ATOM     18  C   UNL d   1       2.214   1.230   4.386  0.00  0.00     0.030 A 
ATOM     19  C   UNL d   1       1.363   0.394   6.616  0.00  0.00     0.049 C 
ATOM     20  C   UNL d   1       2.018   1.431   3.020  0.00  0.00     0.050 A 
ATOM     21 BR   UNL d   1       3.363   2.312   2.022  0.00  0.00    -0.048 Br
ENDBRANCH   1  13
TORSDOF 3
