REMARK  4 active torsions:
REMARK  status: ('A' for Active; 'I' for Inactive)
REMARK    1  A    between atoms: C_2  and  C_1 
REMARK    2  A    between atoms: C_3  and  C_2 
REMARK    3  A    between atoms: S_8  and  C_5 
REMARK    4  A    between atoms: S_9  and  C_5 
ROOT
ATOM      1  C   UNL d   1      -1.088   1.178  -0.356  0.00  0.00     0.054 A 
ATOM      2  C   UNL d   1      -1.748   0.138   0.301  0.00  0.00     0.152 A 
ATOM      3  C   UNL d   1      -3.122  -0.041   0.133  0.00  0.00     0.073 A 
ATOM      4  F   UNL d   1      -1.070  -0.692   1.110  0.00  0.00    -0.203 F 
ATOM      5 CL   UNL d   1      -3.932  -1.355   0.898  0.00  0.00    -0.081 Cl
ATOM      6  C   UNL d   1      -1.833   2.084  -1.126  0.00  0.00     0.018 A 
ATOM      7  C   UNL d   1      -3.210   1.910  -1.285  0.00  0.00     0.003 A 
ATOM      8  C   UNL d   1      -3.853   0.836  -0.669  0.00  0.00     0.027 A 
ENDROOT
BRANCH   1   9
ATOM      9  C   UNL d   1       0.383   1.365  -0.277  0.00  0.00     0.187 C 
ATOM     10  O   UNL d   1       0.843   2.496  -0.393  0.00  0.00    -0.287 OA
BRANCH   9  11
ATOM     11  C   UNL d   1       1.230   0.143  -0.174  0.00  0.00     0.081 C 
ATOM     12  C   UNL d   1       2.510   0.043   0.230  0.00  0.00     0.040 C 
BRANCH  12  13
ATOM     13  S   UNL d   1       3.208  -1.571   0.249  0.00  0.00    -0.127 SA
ATOM     14  C   UNL d   1       4.632  -1.362  -0.848  0.00  0.00     0.096 C 
ENDBRANCH  12  13
BRANCH  12  15
ATOM     15  S   UNL d   1       3.492   1.356   0.811  0.00  0.00    -0.127 SA
ATOM     16  C   UNL d   1       2.538   1.904   2.247  0.00  0.00     0.096 C 
ENDBRANCH  12  15
ENDBRANCH   9  11
ENDBRANCH   1   9
TORSDOF 4
