REMARK  5 active torsions:
REMARK  status: ('A' for Active; 'I' for Inactive)
REMARK    1  A    between atoms: C_6  and  C_1 
REMARK    2  A    between atoms: N_9  and  C_2 
REMARK    3  A    between atoms: O_13  and  C_16 
REMARK    4  A    between atoms: C_18  and  O_13 
REMARK    5  A    between atoms: C_14  and  C_18 
ROOT
ATOM      1  C   UNL d   1       0.933  -0.053   0.066  0.00  0.00     0.070 C 
ATOM      2  C   UNL d   1       2.098  -0.224   0.727  0.00  0.00     0.108 C 
ATOM      3  C   UNL d   1       0.306  -1.153  -0.607  0.00  0.00     0.101 C 
ATOM      4  N   UNL d   1      -0.232  -2.034  -1.135  0.00  0.00    -0.191 NA
ENDROOT
BRANCH   1   5
ATOM      5  C   UNL d   1       0.218   1.256   0.085  0.00  0.00    -0.014 A 
ATOM      6  C   UNL d   1       0.894   2.489   0.068  0.00  0.00     0.016 A 
ATOM      7  C   UNL d   1       0.189   3.698  -0.010  0.00  0.00     0.037 A 
ATOM      8  C   UNL d   1      -1.202   3.704  -0.102  0.00  0.00     0.069 A 
ATOM      9  C   UNL d   1      -1.890   2.496  -0.036  0.00  0.00     0.037 A 
ATOM     10  C   UNL d   1      -1.187   1.289   0.048  0.00  0.00     0.016 A 
BRANCH   8  11
ATOM     11  O   UNL d   1      -1.785   4.932  -0.257  0.00  0.00    -0.347 OA
BRANCH  11  12
ATOM     12  C   UNL d   1      -3.087   4.918  -0.850  0.00  0.00     0.214 C 
BRANCH  12  13
ATOM     13  C   UNL d   1      -3.389   6.275  -1.439  0.00  0.00    -0.032 A 
ATOM     14  C   UNL d   1      -2.514   6.847  -2.377  0.00  0.00     0.035 A 
ATOM     15  C   UNL d   1      -2.809   8.078  -2.972  0.00  0.00     0.056 A 
ATOM     16 CL   UNL d   1      -1.682   8.706  -4.121  0.00  0.00    -0.083 Cl
ATOM     17  C   UNL d   1      -3.989   8.747  -2.635  0.00  0.00     0.055 A 
ATOM     18  C   UNL d   1      -4.867   8.182  -1.705  0.00  0.00     0.026 A 
ATOM     19 CL   UNL d   1      -4.427  10.265  -3.334  0.00  0.00    -0.083 Cl
ATOM     20  C   UNL d   1      -4.570   6.952  -1.112  0.00  0.00     0.011 A 
ENDBRANCH  12  13
ENDBRANCH  11  12
ENDBRANCH   8  11
ENDBRANCH   1   5
BRANCH   2  21
ATOM     21  N   UNL d   1       2.978  -1.300   0.842  0.00  0.00    -0.397 N 
ATOM     22  C   UNL d   1       3.059  -2.425  -0.095  0.00  0.00     0.148 C 
ATOM     23  C   UNL d   1       3.845  -1.455   2.013  0.00  0.00     0.148 C 
ENDBRANCH   2  21
TORSDOF 5
