REMARK  5 active torsions:
REMARK  status: ('A' for Active; 'I' for Inactive)
REMARK    1  A    between atoms: C_4  and  C_1 
REMARK    2  A    between atoms: C_5  and  C_1 
REMARK    3  A    between atoms: C_6  and  C_2 
REMARK    4  A    between atoms: C_10  and  C_4 
REMARK    5  A    between atoms: C_9  and  C_5 
ROOT
ATOM      1  C   UNL d   1      -0.055   1.018   0.019  0.00  0.00     0.099 A 
ATOM      2  C   UNL d   1       0.804  -0.260   0.052  0.00  0.00     0.044 A 
ATOM      3  C   UNL d   1      -0.667  -0.382  -0.179  0.00  0.00     0.037 A 
ENDROOT
BRANCH   1   4
ATOM      4  C   UNL d   1      -0.488   1.735   1.268  0.00  0.00     0.176 C 
ATOM      5  O   UNL d   1      -1.643   1.575   1.665  0.00  0.00    -0.291 OA
BRANCH   4   6
ATOM      6  C   UNL d   1       0.390   2.706   1.974  0.00  0.00     0.011 A 
ATOM      7  C   UNL d   1       1.779   2.723   1.837  0.00  0.00     0.015 A 
ATOM      8  C   UNL d   1       2.549   3.591   2.624  0.00  0.00     0.001 A 
ATOM      9  C   UNL d   1       1.935   4.472   3.515  0.00  0.00     0.000 A 
ATOM     10  C   UNL d   1       0.548   4.501   3.613  0.00  0.00     0.001 A 
ATOM     11  C   UNL d   1      -0.220   3.619   2.852  0.00  0.00     0.015 A 
ENDBRANCH   4   6
ENDBRANCH   1   4
BRANCH   1  12
ATOM     12  C   UNL d   1       0.054   1.875  -1.217  0.00  0.00     0.176 C 
ATOM     13  O   UNL d   1       1.161   2.112  -1.686  0.00  0.00    -0.291 OA
BRANCH  12  14
ATOM     14  C   UNL d   1      -1.183   2.449  -1.835  0.00  0.00     0.011 A 
ATOM     15  C   UNL d   1      -1.040   3.457  -2.798  0.00  0.00     0.015 A 
ATOM     16  C   UNL d   1      -2.168   4.051  -3.374  0.00  0.00     0.001 A 
ATOM     17  C   UNL d   1      -3.445   3.632  -3.005  0.00  0.00     0.000 A 
ATOM     18  C   UNL d   1      -3.597   2.616  -2.066  0.00  0.00     0.001 A 
ATOM     19  C   UNL d   1      -2.472   2.028  -1.481  0.00  0.00     0.015 A 
ENDBRANCH  12  14
ENDBRANCH   1  12
BRANCH   2  20
ATOM     20  C   UNL d   1       1.477  -0.812   1.292  0.00  0.00    -0.052 A 
ATOM     21  C   UNL d   1       0.819  -1.556   2.285  0.00  0.00     0.007 A 
ATOM     22  C   UNL d   1       1.514  -2.124   3.360  0.00  0.00     0.001 A 
ATOM     23  C   UNL d   1       2.891  -1.957   3.470  0.00  0.00     0.000 A 
ATOM     24  C   UNL d   1       3.571  -1.223   2.507  0.00  0.00     0.001 A 
ATOM     25  C   UNL d   1       2.871  -0.667   1.433  0.00  0.00     0.007 A 
ENDBRANCH   2  20
TORSDOF 5
