REMARK  2 active torsions:
REMARK  status: ('A' for Active; 'I' for Inactive)
REMARK    1  A    between atoms: S_18  and  C_3 
REMARK    2  A    between atoms: C_13  and  C_10 
ROOT
ATOM      1  N   UNL d   1      -1.448   0.662  -0.058  0.00  0.00    -0.232 N 
ATOM      2  C   UNL d   1      -1.383  -0.733   0.049  0.00  0.00     0.130 A 
ATOM      3  C   UNL d   1      -0.278   1.446   0.070  0.00  0.00     0.110 A 
ATOM      4  C   UNL d   1       0.900   0.823   0.299  0.00  0.00     0.068 A 
ATOM      5  N   UNL d   1      -2.739   1.064  -0.258  0.00  0.00    -0.290 N 
ATOM      6  HN  UNL d   1      -3.070   2.011  -0.441  1.00  0.00     0.187 HD
ATOM      7  N   UNL d   1      -0.206  -1.405   0.180  0.00  0.00    -0.343 N 
ATOM      8  HN  UNL d   1      -0.166  -2.424   0.200  1.00  0.00     0.167 HD
ATOM      9  C   UNL d   1      -2.676  -1.191   0.006  0.00  0.00     0.082 A 
ATOM     10  C   UNL d   1      -3.474  -0.046  -0.164  0.00  0.00     0.069 A 
ATOM     11  C   UNL d   1       0.863  -0.673   0.277  0.00  0.00     0.028 A 
ATOM     12  C   UNL d   1       2.211   1.481   0.537  0.00  0.00     0.165 C 
ATOM     13  C   UNL d   1       3.295  -0.672  -0.434  0.00  0.00    -0.036 C 
ATOM     14  C   UNL d   1       2.199  -1.382   0.385  0.00  0.00     0.067 C 
ATOM     15  C   UNL d   1       3.460   0.798   0.009  0.00  0.00     0.093 C 
ATOM     16  O   UNL d   1       2.303   2.516   1.192  0.00  0.00    -0.292 OA
ATOM     17  C   UNL d   1       2.979  -0.744  -1.942  0.00  0.00     0.015 C 
ATOM     18  C   UNL d   1       4.628  -1.413  -0.199  0.00  0.00     0.015 C 
ENDROOT
BRANCH  10  19
ATOM     19  C   UNL d   1      -4.975  -0.013  -0.223  0.00  0.00     0.033 A 
ATOM     20  S   UNL d   1      -5.976  -1.379   0.024  0.00  0.00    -0.100 SA
ATOM     21  C   UNL d   1      -7.399  -0.450  -0.159  0.00  0.00     0.050 A 
ATOM     22  C   UNL d   1      -7.121   0.871  -0.431  0.00  0.00     0.008 A 
ATOM     23  C   UNL d   1      -5.718   1.124  -0.465  0.00  0.00     0.021 A 
ENDBRANCH  10  19
BRANCH   3  24
ATOM     24  S   UNL d   1      -0.398   3.181  -0.144  0.00  0.00    -0.114 SA
ATOM     25  C   UNL d   1      -1.547   3.635   1.177  0.00  0.00     0.097 C 
ENDBRANCH   3  24
TORSDOF 2
