REMARK  3 active torsions:
REMARK  status: ('A' for Active; 'I' for Inactive)
REMARK    1  A    between atoms: N_2  and  C_1 
REMARK       I    between atoms: C_3  and  N_2 
REMARK    2  A    between atoms: C_6  and  N_2 
REMARK       I    between atoms: N_8  and  C_3 
REMARK    3  A    between atoms: C_14  and  N_8 
ROOT
ATOM      1  N   UNL d   1       2.108   1.425  -0.181  0.00  0.00    -0.244 N 
ATOM      2  C   UNL d   1       3.478   0.993  -0.242  0.00  0.00     0.333 C 
ATOM      3  N   UNL d   1       3.635  -0.345  -0.573  0.00  0.00    -0.308 N 
ATOM      4  O   UNL d   1       4.431   1.738  -0.016  0.00  0.00    -0.246 OA
ATOM      5  H   UNL d   1       2.802  -0.911  -0.491  0.00  0.00     0.170 HD
ENDROOT
BRANCH   1   6
ATOM      6  C   UNL d   1       0.991   0.597   0.048  0.00  0.00     0.151 C 
ATOM      7  N   UNL d   1      -0.223   0.902  -0.285  0.00  0.00    -0.369 N 
ATOM      8  C   UNL d   1      -1.157  -0.192   0.031  0.00  0.00     0.137 C 
ATOM      9  HN  UNL d   1      -0.497   1.788  -0.711  1.00  0.00     0.161 HD
ATOM     10  C   UNL d   1      -0.593  -1.059   1.150  0.00  0.00     0.069 C 
ATOM     11  S   UNL d   1       1.182  -0.956   0.844  0.00  0.00    -0.087 SA
ATOM     12  C   UNL d   1      -0.910  -0.522   2.539  0.00  0.00     0.023 C 
ENDBRANCH   1   6
BRANCH   1  13
ATOM     13  C   UNL d   1       1.866   2.865  -0.279  0.00  0.00     0.048 A 
ATOM     14  C   UNL d   1       2.700   3.705  -1.041  0.00  0.00     0.057 A 
ATOM     15  C   UNL d   1       2.454   5.081  -1.131  0.00  0.00     0.074 A 
ATOM     16 CL   UNL d   1       3.498   6.071  -2.078  0.00  0.00    -0.081 Cl
ATOM     17  C   UNL d   1       1.369   5.643  -0.466  0.00  0.00     0.138 A 
ATOM     18  C   UNL d   1       0.531   4.844   0.296  0.00  0.00     0.046 A 
ATOM     19  F   UNL d   1       1.112   6.956  -0.546  0.00  0.00    -0.204 F 
ATOM     20  C   UNL d   1       0.783   3.471   0.394  0.00  0.00     0.033 A 
ENDBRANCH   1  13
BRANCH   3  21
ATOM     21  C   UNL d   1       4.822  -1.078  -0.773  0.00  0.00     0.037 A 
ATOM     22  C   UNL d   1       6.083  -0.510  -0.944  0.00  0.00     0.053 A 
ATOM     23  C   UNL d   1       7.189  -1.335  -1.174  0.00  0.00     0.036 A 
ATOM     24 CL   UNL d   1       8.745  -0.636  -1.412  0.00  0.00    -0.084 Cl
ATOM     25  C   UNL d   1       7.051  -2.722  -1.227  0.00  0.00     0.024 A 
ATOM     26  C   UNL d   1       5.797  -3.295  -1.047  0.00  0.00     0.004 A 
ATOM     27  C   UNL d   1       4.689  -2.475  -0.826  0.00  0.00     0.029 A 
ENDBRANCH   3  21
TORSDOF 3
