REMARK  2 active torsions:
REMARK  status: ('A' for Active; 'I' for Inactive)
REMARK    1  A    between atoms: C_8  and  N_1 
REMARK    2  A    between atoms: S_9  and  C_2 
ROOT
ATOM      1  N   UNL d   1      -0.292   1.099   0.012  0.00  0.00    -0.313 N 
ATOM      2  C   UNL d   1      -0.511   0.055   0.885  0.00  0.00     0.160 A 
ATOM      3  N   UNL d   1       0.138  -1.014   0.476  0.00  0.00    -0.279 N 
ATOM      4  HN  UNL d   1       0.142  -1.923   0.937  1.00  0.00     0.189 HD
ATOM      5  N   UNL d   1       0.804  -0.697  -0.671  0.00  0.00    -0.294 N 
ATOM      6  HN  UNL d   1       1.394  -1.322  -1.219  1.00  0.00     0.187 HD
ATOM      7  C   UNL d   1       0.546   0.559  -0.937  0.00  0.00     0.202 A 
ENDROOT
BRANCH   1   8
ATOM      8  C   UNL d   1      -0.772   2.494   0.021  0.00  0.00     0.029 C 
ATOM      9  C   UNL d   1      -0.230   3.253   1.249  0.00  0.00     0.038 C 
ATOM     10  C   UNL d   1      -0.278   3.288  -1.224  0.00  0.00     0.038 C 
ATOM     11  C   UNL d   1      -2.312   2.564  -0.035  0.00  0.00     0.038 C 
ENDBRANCH   1   8
BRANCH   2  12
ATOM     12  S   UNL d   1      -1.468   0.030   2.327  0.00  0.00    -0.105 SA
ATOM     13  H   UNL d   1      -1.872   1.297   2.413  0.00  0.00     0.110 HD
ENDBRANCH   2  12
TORSDOF 2
