REMARK  5 active torsions:
REMARK  status: ('A' for Active; 'I' for Inactive)
REMARK    1  A    between atoms: C_7  and  C_1 
REMARK    2  A    between atoms: C_5  and  N_8 
REMARK    3  A    between atoms: S_11  and  C_5 
REMARK    4  A    between atoms: N_8  and  C_7 
REMARK    5  A    between atoms: N_12  and  C_9 
ROOT
ATOM      1  N   UNL d   1       0.369   5.282   0.635  0.00  0.00    -0.278 N 
ATOM      2  HN  UNL d   1       0.600   6.114   1.179  1.00  0.00     0.179 HD
ATOM      3  C   UNL d   1      -0.904   4.901   0.522  0.00  0.00     0.183 C 
ATOM      4  C   UNL d   1       1.315   4.608   0.064  0.00  0.00     0.127 C 
ATOM      5  N   UNL d   1      -2.016   4.575   0.443  0.00  0.00    -0.172 NA
ENDROOT
BRANCH   4   6
ATOM      6  N   UNL d   1       2.630   4.998   0.090  0.00  0.00    -0.268 NA
ATOM      7  H   UNL d   1       3.190   4.517  -0.614  0.00  0.00     0.130 HD
BRANCH   6   8
ATOM      8  C   UNL d   1       2.986   6.410   0.164  0.00  0.00     0.138 C 
BRANCH   8   9
ATOM      9  C   UNL d   1       4.477   6.680   0.181  0.00  0.00     0.015 A 
ATOM     10  C   UNL d   1       5.505   5.719   0.234  0.00  0.00     0.016 A 
ATOM     11  C   UNL d   1       6.844   6.135   0.131  0.00  0.00     0.024 A 
ATOM     12  C   UNL d   1       7.186   7.487   0.093  0.00  0.00     0.005 A 
ATOM     13  C   UNL d   1       6.181   8.444   0.105  0.00  0.00     0.043 A 
ATOM     14  C   UNL d   1       4.852   8.036   0.136  0.00  0.00     0.125 A 
ATOM     15  F   UNL d   1       3.899   8.982   0.109  0.00  0.00    -0.205 F 
BRANCH  10  16
ATOM     16  N   UNL d   1       5.239   4.336   0.204  0.00  0.00    -0.302 NA
ATOM     17  H   UNL d   1       4.445   4.110   0.806  0.00  0.00     0.124 HD
ATOM     18  H   UNL d   1       6.044   3.762   0.441  0.00  0.00     0.124 HD
ENDBRANCH  10  16
ENDBRANCH   8   9
ENDBRANCH   6   8
ENDBRANCH   4   6
BRANCH   4  19
ATOM     19  S   UNL d   1       1.118   3.144  -0.890  0.00  0.00    -0.104 SA
ATOM     20  C   UNL d   1       0.599   1.966   0.377  0.00  0.00     0.098 C 
ENDBRANCH   4  19
TORSDOF 5
