REMARK  2 active torsions:
REMARK  status: ('A' for Active; 'I' for Inactive)
REMARK    1  A    between atoms: N_2  and  S_1 
REMARK    2  A    between atoms: C_3  and  S_1 
ROOT
ATOM      1  S   UNL d   1       1.116   0.012  -0.099  0.00  0.00     0.243 S 
ATOM      2  O   UNL d   1       0.388   0.784  -1.084  0.00  0.00    -0.206 OA
ATOM      3  O   UNL d   1       2.561  -0.098  -0.161  0.00  0.00    -0.206 OA
ENDROOT
BRANCH   1   4
ATOM      4  N   UNL d   1       0.488  -1.595  -0.105  0.00  0.00    -0.206 NA
ATOM      5  C   UNL d   1       1.145  -2.511   0.875  0.00  0.00     0.107 C 
ATOM      6  C   UNL d   1       0.450  -3.873   0.875  0.00  0.00     0.015 C 
ATOM      7  C   UNL d   1       0.425  -4.489  -0.520  0.00  0.00     0.002 C 
ATOM      8  C   UNL d   1      -0.201  -3.519  -1.512  0.00  0.00     0.015 C 
ATOM      9  C   UNL d   1       0.511  -2.171  -1.486  0.00  0.00     0.107 C 
ENDBRANCH   1   4
BRANCH   1  10
ATOM     10  C   UNL d   1       0.669   0.658   1.493  0.00  0.00     0.074 A 
ATOM     11  C   UNL d   1       1.666   1.062   2.385  0.00  0.00     0.025 A 
ATOM     12  C   UNL d   1       1.306   1.643   3.602  0.00  0.00     0.008 A 
ATOM     13  C   UNL d   1      -0.044   1.824   3.934  0.00  0.00    -0.062 A 
ATOM     14  C   UNL d   1      -1.034   1.422   3.026  0.00  0.00     0.008 A 
ATOM     15  C   UNL d   1      -0.406   2.456   5.247  0.00  0.00     0.048 C 
ATOM     16  C   UNL d   1      -0.680   0.841   1.804  0.00  0.00     0.025 A 
ENDBRANCH   1  10
TORSDOF 2
