REMARK  3 active torsions:
REMARK  status: ('A' for Active; 'I' for Inactive)
REMARK    1  A    between atoms: C_6  and  C_2 
REMARK    2  A    between atoms: C_7  and  C_3 
REMARK    3  A    between atoms: O_11  and  C_6 
ROOT
ATOM      1  S   UNL d   1      -1.016   0.036  -0.048  0.00  0.00    -0.082 SA
ATOM      2  C   UNL d   1       0.160   1.281  -0.050  0.00  0.00     0.081 A 
ATOM      3  C   UNL d   1       0.165  -1.208   0.017  0.00  0.00     0.032 A 
ATOM      4  C   UNL d   1       1.438   0.755  -0.047  0.00  0.00     0.026 A 
ATOM      5  C   UNL d   1       1.438  -0.669  -0.029  0.00  0.00     0.023 A 
ENDROOT
BRANCH   3   6
ATOM      6  C   UNL d   1      -0.215  -2.624   0.101  0.00  0.00     0.049 A 
ATOM      7  N   UNL d   1       0.673  -3.477  -0.469  0.00  0.00    -0.365 N 
ATOM      8  C   UNL d   1       0.410  -4.799  -0.377  0.00  0.00     0.088 A 
ATOM      9  HN  UNL d   1       1.507  -3.133  -0.946  1.00  0.00     0.165 HD
ATOM     10  C   UNL d   1      -0.693  -5.323   0.275  0.00  0.00     0.017 A 
ATOM     11  C   UNL d   1      -1.589  -4.439   0.860  0.00  0.00     0.004 A 
ATOM     12  C   UNL d   1      -1.353  -3.069   0.770  0.00  0.00     0.031 A 
ENDBRANCH   3   6
BRANCH   2  13
ATOM     13  C   UNL d   1      -0.268   2.668  -0.051  0.00  0.00     0.299 C 
ATOM     14  O   UNL d   1      -1.423   3.076  -0.065  0.00  0.00    -0.259 OA
BRANCH  13  15
ATOM     15  O   UNL d   1       0.828   3.484  -0.019  0.00  0.00    -0.322 OA
ATOM     16  C   UNL d   1       0.519   4.877  -0.000  0.00  0.00     0.213 C 
ENDBRANCH  13  15
ENDBRANCH   2  13
TORSDOF 3
