REMARK  4 active torsions:
REMARK  status: ('A' for Active; 'I' for Inactive)
REMARK       I    between atoms: N_2  and  C_1 
REMARK    1  A    between atoms: C_3  and  C_1 
REMARK       I    between atoms: C_4  and  N_2 
REMARK       I    between atoms: N_9  and  C_4 
REMARK    2  A    between atoms: O_6  and  C_5 
REMARK    3  A    between atoms: C_7  and  O_6 
REMARK    4  A    between atoms: C_13  and  N_9 
ROOT
ATOM      1  C   UNL d   1       0.978   0.121   0.110  0.00  0.00     0.262 C 
ATOM      2  N   UNL d   1       0.318  -0.239   1.279  0.00  0.00    -0.275 N 
ATOM      3  C   UNL d   1      -0.938  -0.809   1.401  0.00  0.00     0.327 C 
ATOM      4  N   UNL d   1      -1.302  -0.983   2.724  0.00  0.00    -0.309 N 
ATOM      5  O   UNL d   1       2.204   0.058   0.080  0.00  0.00    -0.267 OA
ATOM      6  O   UNL d   1      -1.661  -1.055   0.439  0.00  0.00    -0.247 OA
ATOM      7  H   UNL d   1       0.977  -0.457   2.010  0.00  0.00     0.173 HD
ATOM      8  H   UNL d   1      -0.556  -1.046   3.403  0.00  0.00     0.170 HD
ENDROOT
BRANCH   1   9
ATOM      9  C   UNL d   1       0.198   0.602  -1.065  0.00  0.00     0.066 A 
ATOM     10  C   UNL d   1       0.545   0.286  -2.388  0.00  0.00     0.091 A 
ATOM     11  C   UNL d   1      -0.163   0.877  -3.449  0.00  0.00     0.038 A 
ATOM     12  C   UNL d   1      -1.223   1.750  -3.206  0.00  0.00     0.003 A 
ATOM     13  C   UNL d   1      -1.579   2.056  -1.898  0.00  0.00     0.001 A 
ATOM     14  C   UNL d   1      -0.865   1.498  -0.835  0.00  0.00     0.020 A 
BRANCH  10  15
ATOM     15  O   UNL d   1       1.634  -0.445  -2.795  0.00  0.00    -0.308 OA
BRANCH  15  16
ATOM     16  C   UNL d   1       1.867  -1.728  -2.357  0.00  0.00     0.098 A 
ATOM     17  C   UNL d   1       3.163  -2.229  -2.581  0.00  0.00     0.069 A 
ATOM     18  C   UNL d   1       3.519  -3.513  -2.165  0.00  0.00     0.050 A 
ATOM     19 CL   UNL d   1       4.365  -1.285  -3.395  0.00  0.00    -0.081 Cl
ATOM     20  C   UNL d   1       2.576  -4.305  -1.522  0.00  0.00     0.035 A 
ATOM     21  C   UNL d   1       1.278  -3.836  -1.319  0.00  0.00     0.026 A 
ATOM     22 CL   UNL d   1       3.012  -5.880  -0.981  0.00  0.00    -0.084 Cl
ATOM     23  C   UNL d   1       0.915  -2.556  -1.756  0.00  0.00     0.041 A 
ENDBRANCH  15  16
ENDBRANCH  10  15
ENDBRANCH   1   9
BRANCH   4  24
ATOM     24  C   UNL d   1      -2.621  -1.056   3.229  0.00  0.00     0.038 A 
ATOM     25  C   UNL d   1      -3.755  -0.788   2.451  0.00  0.00     0.056 A 
ATOM     26  C   UNL d   1      -5.012  -0.675   3.053  0.00  0.00     0.074 A 
ATOM     27 CL   UNL d   1      -6.375  -0.247   2.090  0.00  0.00    -0.081 Cl
ATOM     28  C   UNL d   1      -5.147  -0.864   4.424  0.00  0.00     0.138 A 
ATOM     29  C   UNL d   1      -4.042  -1.198   5.199  0.00  0.00     0.046 A 
ATOM     30  F   UNL d   1      -6.334  -0.706   5.027  0.00  0.00    -0.204 F 
ATOM     31  C   UNL d   1      -2.780  -1.293   4.602  0.00  0.00     0.032 A 
ENDBRANCH   4  24
TORSDOF 4
