REMARK  2 active torsions:
REMARK  status: ('A' for Active; 'I' for Inactive)
REMARK    1  A    between atoms: C_12  and  C_10 
REMARK    2  A    between atoms: C_18  and  C_15 
ROOT
ATOM      1  C   UNL d   1      -0.360  -0.631   0.005  0.00  0.00     0.139 A 
ATOM      2  C   UNL d   1      -0.506   0.773   0.005  0.00  0.00     0.058 A 
ATOM      3  C   UNL d   1       0.936  -1.282   0.003  0.00  0.00     0.291 A 
ATOM      4  N   UNL d   1      -1.538  -1.253   0.005  0.00  0.00    -0.254 N 
ATOM      5  HN  UNL d   1      -1.707  -2.259   0.005  1.00  0.00     0.195 HD
ATOM      6  N   UNL d   1       1.858   1.022   0.001  0.00  0.00    -0.300 N 
ATOM      7  HN  UNL d   1       2.694   1.606  -0.001  1.00  0.00     0.187 HD
ATOM      8  N   UNL d   1       1.998  -0.361   0.002  0.00  0.00    -0.260 N 
ATOM      9  C   UNL d   1       0.684   1.595   0.002  0.00  0.00     0.037 A 
ATOM     10  C   UNL d   1      -1.881   1.005   0.008  0.00  0.00     0.113 A 
ATOM     11  O   UNL d   1      -2.476  -0.246   0.005  0.00  0.00    -0.236 OA
ATOM     12  O   UNL d   1       1.094  -2.500   0.003  0.00  0.00    -0.264 OA
ATOM     13  C   UNL d   1       3.357  -0.869   0.000  0.00  0.00     0.181 C 
ATOM     14  C   UNL d   1       0.701   3.098   0.001  0.00  0.00     0.070 C 
ENDROOT
BRANCH  10  15
ATOM     15  C   UNL d   1      -2.661   2.200   0.009  0.00  0.00     0.041 C 
ATOM     16  C   UNL d   1      -4.006   2.179  -0.012  0.00  0.00     0.014 C 
BRANCH  16  17
ATOM     17  C   UNL d   1      -4.843   3.396  -0.017  0.00  0.00    -0.034 A 
ATOM     18  C   UNL d   1      -4.423   4.593  -0.617  0.00  0.00     0.037 A 
ATOM     19  C   UNL d   1      -5.239   5.733  -0.606  0.00  0.00     0.056 A 
ATOM     20 CL   UNL d   1      -4.619   7.167  -1.346  0.00  0.00    -0.083 Cl
ATOM     21  C   UNL d   1      -6.500   5.683  -0.009  0.00  0.00     0.055 A 
ATOM     22  C   UNL d   1      -6.942   4.489   0.565  0.00  0.00     0.026 A 
ATOM     23 CL   UNL d   1      -7.555   7.049   0.050  0.00  0.00    -0.083 Cl
ATOM     24  C   UNL d   1      -6.121   3.353   0.556  0.00  0.00     0.013 A 
ENDBRANCH  16  17
ENDBRANCH  10  15
TORSDOF 2
