REMARK  9 active torsions:
REMARK  status: ('A' for Active; 'I' for Inactive)
REMARK       I    between atoms: C2_3  and  N1_1 
REMARK       I    between atoms: N_18  and  C1_2 
REMARK    1  A    between atoms: C3_4  and  C1_2 
REMARK    2  A    between atoms: O1_5  and  C2_3 
REMARK    3  A    between atoms: C8_9  and  O1_5 
REMARK    4  A    between atoms: C10_11  and  C8_9 
REMARK    5  A    between atoms: CA_19  and  N_18 
REMARK    6  A    between atoms: CA_19  and  C_20 
REMARK    7  A    between atoms: CB_22  and  CA_19 
REMARK    8  A    between atoms: OXT_23  and  C_20 
REMARK    9  A    between atoms: CG_24  and  CB_22 
ROOT
ATOM      1  N1  <1> d   1      -1.065   0.582   0.326  0.00  0.00    -0.315 N 
ATOM      2  C2  <1> d   1      -2.237   1.219   0.658  0.00  0.00     0.363 C 
ATOM      3  C3  <1> d   1      -1.015  -0.830  -0.035  0.00  0.00     0.181 C 
ATOM      4  O3  <1> d   1      -2.281   2.265   1.290  0.00  0.00    -0.238 OA
ATOM      5  C7  <1> d   1       0.205   1.062   0.833  0.00  0.00     0.129 C 
ATOM      6  C9  <1> d   1       0.377  -1.294   0.383  0.00  0.00     0.037 C 
ATOM      7  C11 <1> d   1       1.212  -0.023   0.488  0.00  0.00     0.022 C 
ENDROOT
BRANCH   3   8
ATOM      8  C1  <1> d   1      -1.297  -1.109  -1.522  0.00  0.00     0.241 C 
ATOM      9  N   LEU d   1      -0.978  -0.109  -2.411  0.00  0.00    -0.345 N 
ATOM     10  H   LEU d   1      -0.878   0.832  -2.034  0.00  0.00     0.163 HD
ATOM     11  O2  <1> d   1      -1.663  -2.224  -1.889  0.00  0.00    -0.271 OA
BRANCH   9  12
ATOM     12  CA  LEU d   1      -1.278  -0.223  -3.842  0.00  0.00     0.182 C 
BRANCH  12  13
ATOM     13  C   LEU d   1      -1.763   1.149  -4.340  0.00  0.00     0.163 C 
ATOM     14  O   LEU d   1      -1.559   2.202  -3.748  0.00  0.00    -0.648 OA
BRANCH  13  15
ATOM     15  OXT LEU d   1      -2.421   1.107  -5.524  0.00  0.00    -0.775 OA
ATOM     16  HXT LEU d   1      -2.546   0.210  -5.888  0.00  0.00     0.167 HD
ENDBRANCH  13  15
ENDBRANCH  12  13
BRANCH  12  17
ATOM     17  CB  LEU d   1      -0.055  -0.647  -4.676  0.00  0.00     0.040 C 
BRANCH  17  18
ATOM     18  CG  LEU d   1       0.531  -2.037  -4.356  0.00  0.00    -0.020 C 
ATOM     19  CD1 LEU d   1      -0.440  -3.179  -4.664  0.00  0.00     0.009 C 
ATOM     20  CD2 LEU d   1       1.817  -2.258  -5.161  0.00  0.00     0.009 C 
ENDBRANCH  17  18
ENDBRANCH  12  17
ENDBRANCH   9  12
ENDBRANCH   3   8
BRANCH   2  21
ATOM     21  O1  <1> d   1      -3.319   0.531   0.217  0.00  0.00    -0.299 OA
BRANCH  21  22
ATOM     22  C8  <1> d   1      -4.601   1.024   0.629  0.00  0.00     0.219 C 
BRANCH  22  23
ATOM     23  C10 <1> d   1      -5.386   1.602  -0.524  0.00  0.00    -0.034 A 
ATOM     24  C13 <1> d   1      -6.787   1.508  -0.520  0.00  0.00     0.009 A 
ATOM     25  C17 <1> d   1      -7.544   2.117  -1.523  0.00  0.00     0.001 A 
ATOM     26  C19 <1> d   1      -6.911   2.829  -2.538  0.00  0.00     0.000 A 
ATOM     27  C18 <1> d   1      -5.521   2.926  -2.558  0.00  0.00     0.001 A 
ATOM     28  C14 <1> d   1      -4.763   2.320  -1.554  0.00  0.00     0.009 A 
ENDBRANCH  22  23
ENDBRANCH  21  22
ENDBRANCH   2  21
TORSDOF 9
