REMARK  6 active torsions:
REMARK  status: ('A' for Active; 'I' for Inactive)
REMARK    1  A    between atoms: C_5  and  C_1 
REMARK    2  A    between atoms: C_8  and  C_2 
REMARK       I    between atoms: N_12  and  C_8 
REMARK    3  A    between atoms: C_21  and  N_12 
REMARK    4  A    between atoms: N_15  and  C_22 
REMARK    5  A    between atoms: C_16  and  C_21 
REMARK    6  A    between atoms: C_22  and  C_16 
ROOT
ATOM      1  C   UNL d   1      -1.175  -0.852   0.551  0.00  0.00     0.086 A 
ATOM      2  C   UNL d   1       0.015  -1.308  -0.113  0.00  0.00     0.092 A 
ATOM      3  N   UNL d   1      -1.113   0.483   0.701  0.00  0.00    -0.259 N 
ATOM      4  HN  UNL d   1      -1.802   1.073   1.168  1.00  0.00     0.195 HD
ATOM      5  O   UNL d   1       0.047   0.904   0.111  0.00  0.00    -0.241 OA
ATOM      6  C   UNL d   1       0.742  -0.165  -0.347  0.00  0.00     0.090 A 
ATOM      7  C   UNL d   1       2.036   0.173  -0.983  0.00  0.00     0.080 C 
ENDROOT
BRANCH   2   8
ATOM      8  C   UNL d   1       0.371  -2.649  -0.479  0.00  0.00     0.256 C 
ATOM      9  O   UNL d   1      -0.439  -3.422  -0.970  0.00  0.00    -0.267 OA
ATOM     10  N   UNL d   1       1.656  -3.037  -0.138  0.00  0.00    -0.357 N 
ATOM     11  H   UNL d   1       2.250  -2.396   0.356  0.00  0.00     0.162 HD
BRANCH  10  12
ATOM     12  C   UNL d   1       2.090  -4.412  -0.261  0.00  0.00     0.124 C 
BRANCH  12  13
ATOM     13  C   UNL d   1       2.418  -4.795  -1.697  0.00  0.00     0.050 C 
BRANCH  13  14
ATOM     14  C   UNL d   1       3.571  -3.970  -2.285  0.00  0.00     0.273 C 
BRANCH  14  15
ATOM     15  N   UNL d   1       4.834  -4.073  -1.534  0.00  0.00     0.080 N 
ATOM     16  C   UNL d   1       5.371  -5.435  -1.551  0.00  0.00     0.309 C 
ATOM     17  C   UNL d   1       5.821  -3.147  -2.094  0.00  0.00     0.309 C 
ENDBRANCH  14  15
ENDBRANCH  13  14
ENDBRANCH  12  13
ENDBRANCH  10  12
ENDBRANCH   2   8
BRANCH   1  18
ATOM     18  C   UNL d   1      -2.330  -1.600   1.090  0.00  0.00     0.037 A 
ATOM     19  C   UNL d   1      -2.175  -2.796   1.830  0.00  0.00     0.048 A 
ATOM     20 CL   UNL d   1      -0.645  -3.418   2.360  0.00  0.00    -0.083 Cl
ATOM     21  C   UNL d   1      -3.287  -3.514   2.306  0.00  0.00     0.025 A 
ATOM     22  C   UNL d   1      -4.571  -3.011   2.155  0.00  0.00     0.003 A 
ATOM     23  C   UNL d   1      -4.750  -1.803   1.494  0.00  0.00     0.025 A 
ATOM     24  C   UNL d   1      -3.654  -1.119   0.940  0.00  0.00     0.048 A 
ATOM     25 CL   UNL d   1      -4.066   0.323   0.066  0.00  0.00    -0.083 Cl
ENDBRANCH   1  18
TORSDOF 6
