REMARK  6 active torsions:
REMARK  status: ('A' for Active; 'I' for Inactive)
REMARK    1  A    between atoms: C_2  and  C_1 
REMARK    2  A    between atoms: S_14  and  C_7 
REMARK    3  A    between atoms: S_17  and  C_10 
REMARK    4  A    between atoms: C_19  and  S_14 
REMARK    5  A    between atoms: C_15  and  C_19 
REMARK       I    between atoms: N_16  and  C_15 
REMARK    6  A    between atoms: C_22  and  N_16 
ROOT
ATOM      1  C   UNL d   1       0.110   1.095   0.009  0.00  0.00     0.152 A 
ATOM      2  N   UNL d   1       1.044   0.124   0.298  0.00  0.00    -0.314 N 
ATOM      3  N   UNL d   1      -1.088   0.539   0.037  0.00  0.00    -0.281 N 
ATOM      4  HN  UNL d   1      -1.968   1.013  -0.166  1.00  0.00     0.188 HD
ATOM      5  C   UNL d   1       0.329  -1.018   0.553  0.00  0.00     0.163 A 
ATOM      6  N   UNL d   1      -0.951  -0.781   0.384  0.00  0.00    -0.278 N 
ATOM      7  HN  UNL d   1      -1.707  -1.457   0.490  1.00  0.00     0.189 HD
ATOM      8  C   UNL d   1       2.478   0.260   0.350  0.00  0.00     0.160 C 
ENDROOT
BRANCH   5   9
ATOM      9  S   UNL d   1       1.034  -2.521   1.056  0.00  0.00    -0.083 SA
BRANCH   9  10
ATOM     10  C   UNL d   1      -0.452  -3.561   1.113  0.00  0.00     0.185 C 
BRANCH  10  11
ATOM     11  C   UNL d   1      -0.246  -4.972   1.649  0.00  0.00     0.231 C 
ATOM     12  N   UNL d   1       0.963  -5.246   2.260  0.00  0.00    -0.327 N 
ATOM     13  H   UNL d   1       1.601  -4.466   2.356  0.00  0.00     0.169 HD
ATOM     14  O   UNL d   1      -1.188  -5.766   1.566  0.00  0.00    -0.272 OA
BRANCH  12  15
ATOM     15  C   UNL d   1       1.350  -6.466   2.863  0.00  0.00     0.034 A 
ATOM     16  C   UNL d   1       0.632  -7.658   2.731  0.00  0.00     0.029 A 
ATOM     17  C   UNL d   1       1.037  -8.818   3.397  0.00  0.00     0.002 A 
ATOM     18  C   UNL d   1       2.171  -8.802   4.204  0.00  0.00     0.000 A 
ATOM     19  C   UNL d   1       2.914  -7.630   4.320  0.00  0.00     0.002 A 
ATOM     20  C   UNL d   1       2.513  -6.470   3.646  0.00  0.00     0.029 A 
ENDBRANCH  12  15
ENDBRANCH  10  11
ENDBRANCH   9  10
ENDBRANCH   5   9
BRANCH   1  21
ATOM     21  C   UNL d   1       0.334   2.483  -0.266  0.00  0.00     0.097 A 
ATOM     22  N   UNL d   1      -0.523   3.524   0.055  0.00  0.00    -0.328 N 
ATOM     23  C   UNL d   1       0.065   4.688  -0.385  0.00  0.00     0.146 A 
ATOM     24  C   UNL d   1      -1.790   3.445   0.746  0.00  0.00     0.159 C 
ATOM     25  N   UNL d   1       1.224   4.466  -0.956  0.00  0.00    -0.344 N 
ATOM     26  C   UNL d   1       1.386   3.108  -0.913  0.00  0.00     0.123 A 
ATOM     27  HN  UNL d   1       1.865   5.155  -1.349  1.00  0.00     0.167 HD
BRANCH  23  28
ATOM     28  S   UNL d   1      -0.670   6.249  -0.202  0.00  0.00    -0.098 SA
ATOM     29  C   UNL d   1       0.585   7.307  -0.957  0.00  0.00     0.099 C 
ENDBRANCH  23  28
ENDBRANCH   1  21
TORSDOF 6
