REMARK  9 active torsions:
REMARK  status: ('A' for Active; 'I' for Inactive)
REMARK    1  A    between atoms: C_9  and  S_1 
REMARK    2  A    between atoms: C_13  and  S_1 
REMARK       I    between atoms: C_2  and  N_6 
REMARK    3  A    between atoms: C_3  and  C_2 
REMARK    4  A    between atoms: C_4  and  C_7 
REMARK    5  A    between atoms: C_5  and  C_8 
REMARK    6  A    between atoms: N_6  and  C_17 
REMARK    7  A    between atoms: C_16  and  N_6 
REMARK    8  A    between atoms: C_17  and  C_9 
REMARK    9  A    between atoms: C_14  and  C_16 
ROOT
ATOM      1  C   UNL d   1      -0.409  -4.107  -1.517  0.00  0.00     0.254 C 
ATOM      2  N   UNL d   1       0.258  -3.214  -2.375  0.00  0.00    -0.342 N 
ATOM      3  O   UNL d   1      -0.839  -5.193  -1.899  0.00  0.00    -0.267 OA
ENDROOT
BRANCH   2   4
ATOM      4  C   UNL d   1       0.709  -1.859  -2.018  0.00  0.00     0.142 C 
BRANCH   4   5
ATOM      5  C   UNL d   1       0.190  -0.722  -2.878  0.00  0.00     0.165 C 
BRANCH   5   6
ATOM      6  S   UNL d   1       0.823   0.800  -2.201  0.00  0.00     0.177 S 
ATOM      7  O   UNL d   1       2.260   0.819  -2.398  0.00  0.00    -0.223 OA
ATOM      8  O   UNL d   1       0.254   0.981  -0.879  0.00  0.00    -0.223 OA
BRANCH   6   9
ATOM      9  C   UNL d   1       0.127   2.042  -3.254  0.00  0.00     0.059 A 
ATOM     10  C   UNL d   1      -1.082   2.644  -2.900  0.00  0.00     0.025 A 
ATOM     11  C   UNL d   1      -1.615   3.635  -3.723  0.00  0.00     0.025 A 
ATOM     12  C   UNL d   1      -0.933   4.018  -4.880  0.00  0.00     0.034 A 
ATOM     13  C   UNL d   1       0.281   3.420  -5.222  0.00  0.00     0.025 A 
ATOM     14 CL   UNL d   1      -1.594   5.243  -5.889  0.00  0.00    -0.084 Cl
ATOM     15  C   UNL d   1       0.820   2.426  -4.404  0.00  0.00     0.025 A 
ENDBRANCH   6   9
ENDBRANCH   5   6
ENDBRANCH   4   5
ENDBRANCH   2   4
BRANCH   2  16
ATOM     16  C   UNL d   1       0.665  -3.730  -3.691  0.00  0.00     0.172 C 
BRANCH  16  17
ATOM     17  C   UNL d   1      -0.280  -3.295  -4.776  0.00  0.00     0.000 A 
ATOM     18  S   UNL d   1       0.351  -2.761  -6.284  0.00  0.00    -0.105 SA
ATOM     19  C   UNL d   1      -1.211  -2.461  -6.910  0.00  0.00     0.050 A 
ATOM     20  C   UNL d   1      -2.198  -2.787  -6.008  0.00  0.00     0.008 A 
ATOM     21  C   UNL d   1      -1.662  -3.287  -4.785  0.00  0.00     0.017 A 
ENDBRANCH  16  17
ENDBRANCH   2  16
BRANCH   1  22
ATOM     22  C   UNL d   1      -0.655  -3.759  -0.086  0.00  0.00     0.033 C 
ATOM     23  C   UNL d   1      -1.907  -4.050   0.476  0.00  0.00     0.033 C 
ATOM     24  C   UNL d   1      -2.209  -3.661   1.792  0.00  0.00     0.049 C 
ATOM     25  C   UNL d   1      -1.245  -2.947   2.528  0.00  0.00     0.032 C 
ATOM     26  C   UNL d   1       0.031  -2.700   2.000  0.00  0.00     0.049 C 
ATOM     27  C   UNL d   1       0.333  -3.178   0.716  0.00  0.00     0.033 C 
BRANCH  24  28
ATOM     28  C   UNL d   1      -3.544  -3.979   2.424  0.00  0.00     0.417 C 
ATOM     29  F   UNL d   1      -4.367  -4.714   1.629  0.00  0.00    -0.166 F 
ATOM     30  F   UNL d   1      -3.410  -4.686   3.581  0.00  0.00    -0.166 F 
ATOM     31  F   UNL d   1      -4.240  -2.856   2.752  0.00  0.00    -0.166 F 
ENDBRANCH  24  28
BRANCH  26  32
ATOM     32  C   UNL d   1       1.050  -1.910   2.788  0.00  0.00     0.417 C 
ATOM     33  F   UNL d   1       2.195  -1.668   2.092  0.00  0.00    -0.166 F 
ATOM     34  F   UNL d   1       0.579  -0.693   3.171  0.00  0.00    -0.166 F 
ATOM     35  F   UNL d   1       1.428  -2.546   3.929  0.00  0.00    -0.166 F 
ENDBRANCH  26  32
ENDBRANCH   1  22
TORSDOF 9
