REMARK  10 active torsions:
REMARK  status: ('A' for Active; 'I' for Inactive)
REMARK    1  A    between atoms: C_8  and  C_2 
REMARK    2  A    between atoms: S_10  and  C_3 
REMARK    3  A    between atoms: C_15  and  C_8 
REMARK       I    between atoms: N_9  and  C_13 
REMARK    4  A    between atoms: C_11  and  N_9 
REMARK    5  A    between atoms: C_18  and  S_10 
REMARK    6  A    between atoms: C_13  and  C_18 
REMARK    7  A    between atoms: O_24  and  C_15 
REMARK    8  A    between atoms: O_25  and  C_15 
REMARK    9  A    between atoms: C_26  and  O_24 
REMARK   10  A    between atoms: C_27  and  O_25 
ROOT
ATOM      1  N   UNL d   1       0.972   0.029   0.912  0.00  0.00    -0.319 N 
ATOM      2  C   UNL d   1       0.234   1.027   0.310  0.00  0.00     0.104 A 
ATOM      3  C   UNL d   1       0.232  -1.114   0.761  0.00  0.00     0.162 A 
ATOM      4  N   UNL d   1      -0.879   0.501  -0.163  0.00  0.00    -0.287 N 
ATOM      5  HN  UNL d   1      -1.618   1.008  -0.651  1.00  0.00     0.188 HD
ATOM      6  N   UNL d   1      -0.875  -0.842   0.111  0.00  0.00    -0.278 N 
ATOM      7  HN  UNL d   1      -1.602  -1.511  -0.144  1.00  0.00     0.189 HD
ATOM      8  C   UNL d   1       2.286   0.127   1.489  0.00  0.00     0.159 C 
ENDROOT
BRANCH   3   9
ATOM      9  S   UNL d   1       0.724  -2.670   1.326  0.00  0.00    -0.083 SA
BRANCH   9  10
ATOM     10  C   UNL d   1      -0.692  -3.700   0.836  0.00  0.00     0.185 C 
BRANCH  10  11
ATOM     11  C   UNL d   1      -1.838  -3.549   1.823  0.00  0.00     0.231 C 
ATOM     12  N   UNL d   1      -2.613  -2.422   1.618  0.00  0.00    -0.325 N 
ATOM     13  H   UNL d   1      -2.413  -1.857   0.789  0.00  0.00     0.169 HD
ATOM     14  O   UNL d   1      -2.030  -4.398   2.692  0.00  0.00    -0.272 OA
BRANCH  12  15
ATOM     15  C   UNL d   1      -3.631  -1.914   2.455  0.00  0.00     0.056 A 
ATOM     16  C   UNL d   1      -4.455  -0.877   1.976  0.00  0.00     0.062 A 
ATOM     17  C   UNL d   1      -5.453  -0.320   2.780  0.00  0.00     0.050 A 
ATOM     18 CL   UNL d   1      -4.304  -0.280   0.359  0.00  0.00    -0.082 Cl
ATOM     19  C   UNL d   1      -5.624  -0.786   4.079  0.00  0.00     0.035 A 
ATOM     20  C   UNL d   1      -4.813  -1.803   4.575  0.00  0.00     0.026 A 
ATOM     21 CL   UNL d   1      -6.843  -0.101   5.079  0.00  0.00    -0.084 Cl
ATOM     22  C   UNL d   1      -3.823  -2.367   3.764  0.00  0.00     0.033 A 
ENDBRANCH  12  15
ENDBRANCH  10  11
ENDBRANCH   9  10
ENDBRANCH   3   9
BRANCH   2  23
ATOM     23  C   UNL d   1       0.681   2.432   0.098  0.00  0.00     0.138 C 
BRANCH  23  24
ATOM     24  C   UNL d   1      -0.324   3.476   0.610  0.00  0.00     0.266 C 
BRANCH  24  25
ATOM     25  O   UNL d   1      -0.204   3.541   2.043  0.00  0.00    -0.361 OA
BRANCH  25  26
ATOM     26  C   UNL d   1      -1.102   4.497   2.609  0.00  0.00     0.166 C 
ATOM     27  C   UNL d   1      -0.971   4.468   4.120  0.00  0.00     0.033 C 
ENDBRANCH  25  26
ENDBRANCH  24  25
BRANCH  24  28
ATOM     28  O   UNL d   1       0.009   4.757   0.059  0.00  0.00    -0.361 OA
BRANCH  28  29
ATOM     29  C   UNL d   1      -0.489   4.955  -1.261  0.00  0.00     0.166 C 
ATOM     30  C   UNL d   1      -0.137   6.367  -1.687  0.00  0.00     0.033 C 
ENDBRANCH  28  29
ENDBRANCH  24  28
ENDBRANCH  23  24
ENDBRANCH   2  23
TORSDOF 10
