REMARK  2 active torsions:
REMARK  status: ('A' for Active; 'I' for Inactive)
REMARK    1  A    between atoms: C_7  and  C_2 
REMARK    2  A    between atoms: N_9  and  C_8 
ROOT
ATOM      1  C   UNL d   1      -0.024  -0.784  -0.216  0.00  0.00     0.024 C 
ATOM      2  C   UNL d   1      -1.342  -1.545   0.024  0.00  0.00     0.105 C 
ATOM      3  C   UNL d   1      -2.571  -0.639  -0.220  0.00  0.00     0.057 C 
ATOM      4  C   UNL d   1      -0.002   0.554  -0.412  0.00  0.00     0.020 C 
ATOM      5  N   UNL d   1      -1.180   1.275  -0.438  0.00  0.00    -0.362 N 
ATOM      6  C   UNL d   1      -2.433   0.697  -0.394  0.00  0.00     0.023 C 
ATOM      7  C   UNL d   1      -3.878  -1.204  -0.250  0.00  0.00     0.098 C 
ATOM      8  C   UNL d   1       1.259  -1.549  -0.275  0.00  0.00     0.158 C 
ATOM      9  N   UNL d   1      -4.964  -1.602  -0.317  0.00  0.00    -0.192 NA
ATOM     10  O   UNL d   1       1.274  -2.775  -0.194  0.00  0.00    -0.293 OA
ATOM     11  C   UNL d   1       1.266   1.356  -0.574  0.00  0.00     0.058 C 
ATOM     12  C   UNL d   1      -3.621   1.623  -0.518  0.00  0.00     0.069 C 
ATOM     13  C   UNL d   1       2.542  -0.786  -0.548  0.00  0.00     0.084 C 
ATOM     14  C   UNL d   1       2.475   0.628  -0.007  0.00  0.00     0.014 C 
ATOM     15  H   UNL d   1      -1.124   2.265  -0.662  0.00  0.00     0.165 HD
ENDROOT
BRANCH   2  16
ATOM     16  C   UNL d   1      -1.397  -2.125   1.453  0.00  0.00    -0.023 A 
ATOM     17  C   UNL d   1      -1.553  -3.510   1.728  0.00  0.00     0.018 A 
ATOM     18  C   UNL d   1      -1.527  -3.917   3.077  0.00  0.00     0.024 A 
ATOM     19  C   UNL d   1      -1.381  -3.003   4.125  0.00  0.00     0.002 A 
ATOM     20  C   UNL d   1      -1.262  -1.650   3.852  0.00  0.00     0.001 A 
ATOM     21  C   UNL d   1      -1.267  -1.216   2.532  0.00  0.00     0.010 A 
BRANCH  17  22
ATOM     22  N   UNL d   1      -1.753  -4.437   0.689  0.00  0.00    -0.279 NA
ATOM     23  C   UNL d   1      -1.135  -5.779   0.846  0.00  0.00     0.122 C 
ATOM     24  C   UNL d   1      -1.277  -6.551  -0.481  0.00  0.00     0.182 C 
ATOM     25  O   UNL d   1      -2.656  -6.673  -0.883  0.00  0.00    -0.389 OA
ATOM     26  C   UNL d   1      -3.260  -5.373  -1.000  0.00  0.00     0.182 C 
ATOM     27  C   UNL d   1      -3.179  -4.609   0.330  0.00  0.00     0.122 C 
ENDBRANCH  17  22
ENDBRANCH   2  16
TORSDOF 2
