REMARK  3 active torsions:
REMARK  status: ('A' for Active; 'I' for Inactive)
REMARK    1  A    between atoms: C_9  and  C_6 
REMARK    2  A    between atoms: O_15  and  C_7 
REMARK       I    between atoms: N_13  and  C_9 
REMARK    3  A    between atoms: C_16  and  N_13 
ROOT
ATOM      1  C   UNL d   1       0.226  -0.624  -0.328  0.00  0.00     0.067 C 
ATOM      2  C   UNL d   1       0.008   0.721  -0.571  0.00  0.00     0.137 C 
ATOM      3  N   UNL d   1       2.259   0.417  -0.456  0.00  0.00    -0.301 N 
ATOM      4  HN  UNL d   1       3.262   0.604  -0.471  1.00  0.00     0.187 HD
ATOM      5  N   UNL d   1       1.243   1.305  -0.539  0.00  0.00    -0.280 N 
ATOM      6  C   UNL d   1      -2.171  -0.893  -0.379  0.00  0.00     0.082 C 
ATOM      7  C   UNL d   1      -0.906  -1.440  -0.126  0.00  0.00     0.101 C 
ATOM      8  C   UNL d   1       1.640  -0.768  -0.350  0.00  0.00     0.039 C 
ATOM      9  N   UNL d   1      -1.182   1.332  -0.746  0.00  0.00    -0.349 N 
ATOM     10  HN  UNL d   1      -1.284   2.334  -0.907  1.00  0.00     0.167 HD
ATOM     11  C   UNL d   1      -2.232   0.470  -0.684  0.00  0.00     0.109 C 
ATOM     12  C   UNL d   1       1.529   2.715  -0.482  0.00  0.00     0.179 C 
ATOM     13  C   UNL d   1       2.431  -2.024  -0.309  0.00  0.00     0.071 C 
ENDROOT
BRANCH   6  14
ATOM     14  C   UNL d   1      -3.462  -1.638  -0.298  0.00  0.00     0.260 C 
ATOM     15  N   UNL d   1      -3.379  -3.009  -0.140  0.00  0.00    -0.323 N 
ATOM     16  H   UNL d   1      -2.443  -3.401  -0.104  0.00  0.00     0.169 HD
ATOM     17  O   UNL d   1      -4.500  -0.988  -0.375  0.00  0.00    -0.267 OA
BRANCH  15  18
ATOM     18  C   UNL d   1      -4.439  -3.914   0.075  0.00  0.00     0.035 A 
ATOM     19  C   UNL d   1      -5.790  -3.561   0.040  0.00  0.00     0.031 A 
ATOM     20  C   UNL d   1      -6.782  -4.506   0.327  0.00  0.00     0.026 A 
ATOM     21  C   UNL d   1      -6.425  -5.812   0.649  0.00  0.00     0.034 A 
ATOM     22  C   UNL d   1      -5.085  -6.187   0.665  0.00  0.00     0.026 A 
ATOM     23 CL   UNL d   1      -7.642  -6.963   1.039  0.00  0.00    -0.084 Cl
ATOM     24  C   UNL d   1      -4.096  -5.241   0.372  0.00  0.00     0.031 A 
ENDBRANCH  15  18
ENDBRANCH   6  14
BRANCH   7  25
ATOM     25  O   UNL d   1      -0.761  -2.724   0.357  0.00  0.00    -0.354 OA
ATOM     26  C   UNL d   1      -0.538  -2.652   1.776  0.00  0.00     0.210 C 
ENDBRANCH   7  25
TORSDOF 3
