REMARK  4 active torsions:
REMARK  status: ('A' for Active; 'I' for Inactive)
REMARK    1  A    between atoms: C_6  and  C_1 
REMARK    2  A    between atoms: C_10  and  N_2 
REMARK       I    between atoms: N_8  and  C_6 
REMARK    3  A    between atoms: C_9  and  C_14 
REMARK    4  A    between atoms: O_19  and  C_15 
ROOT
ATOM      1  C   UNL d   1      -1.069   2.480  -0.318  0.00  0.00     0.257 C 
ATOM      2  N   UNL d   1      -0.376   3.712  -0.310  0.00  0.00    -0.348 N 
ATOM      3  O   UNL d   1      -2.001   2.303   0.468  0.00  0.00    -0.267 OA
ATOM      4  C   UNL d   1      -0.544   4.488   0.924  0.00  0.00     0.127 C 
ATOM      5  C   UNL d   1       0.853   3.958  -1.042  0.00  0.00     0.127 C 
ATOM      6  C   UNL d   1       1.149   6.251   0.006  0.00  0.00     0.024 C 
ATOM      7  C   UNL d   1      -0.063   5.940   0.897  0.00  0.00     0.029 C 
ATOM      8  C   UNL d   1       1.062   5.445  -1.293  0.00  0.00     0.029 C 
ENDROOT
BRANCH   1   9
ATOM      9  C   UNL d   1      -0.628   1.341  -1.123  0.00  0.00     0.073 C 
ATOM     10  C   UNL d   1      -0.256   1.159  -2.456  0.00  0.00     0.048 C 
ATOM     11  N   UNL d   1       0.065  -0.197  -2.593  0.00  0.00    -0.260 N 
ATOM     12  C   UNL d   1      -0.325   2.086  -3.620  0.00  0.00     0.071 C 
ATOM     13  N   UNL d   1      -0.343  -0.904  -1.513  0.00  0.00    -0.304 N 
ATOM     14  C   UNL d   1      -0.713   0.014  -0.630  0.00  0.00     0.126 C 
ATOM     15  HN  UNL d   1      -0.361  -1.918  -1.403  1.00  0.00     0.186 HD
BRANCH  11  16
ATOM     16  C   UNL d   1       0.711  -0.894  -3.660  0.00  0.00     0.056 A 
ATOM     17  C   UNL d   1       1.579  -0.250  -4.548  0.00  0.00     0.031 A 
ATOM     18  C   UNL d   1       2.216  -0.978  -5.559  0.00  0.00     0.002 A 
ATOM     19  C   UNL d   1       1.990  -2.347  -5.692  0.00  0.00     0.000 A 
ATOM     20  C   UNL d   1       1.141  -3.000  -4.802  0.00  0.00     0.002 A 
ATOM     21  C   UNL d   1       0.513  -2.282  -3.784  0.00  0.00     0.031 A 
ENDBRANCH  11  16
ENDBRANCH   1   9
BRANCH   6  22
ATOM     22  C   UNL d   1       2.532   6.139   0.638  0.00  0.00    -0.021 A 
ATOM     23  C   UNL d   1       3.533   7.101   0.386  0.00  0.00     0.074 A 
ATOM     24  C   UNL d   1       4.804   6.989   0.961  0.00  0.00     0.037 A 
ATOM     25  C   UNL d   1       5.115   5.901   1.774  0.00  0.00     0.003 A 
ATOM     26  C   UNL d   1       4.147   4.939   2.029  0.00  0.00     0.001 A 
ATOM     27  C   UNL d   1       2.871   5.059   1.471  0.00  0.00     0.010 A 
BRANCH  23  28
ATOM     28  O   UNL d   1       3.299   8.263  -0.305  0.00  0.00    -0.355 OA
ATOM     29  C   UNL d   1       3.191   8.076  -1.714  0.00  0.00     0.210 C 
ENDBRANCH  23  28
ENDBRANCH   6  22
TORSDOF 4
