REMARK  2 active torsions:
REMARK  status: ('A' for Active; 'I' for Inactive)
REMARK    1  A    between atoms: S_8  and  C_3 
REMARK    2  A    between atoms: C_9  and  S_8 
ROOT
ATOM      1  S   UNL d   1      -1.208  -0.104   0.906  0.00  0.00     0.152 S 
ATOM      2  C   UNL d   1       0.468   0.408   1.248  0.00  0.00     0.186 C 
ATOM      3  C   UNL d   1       0.977   0.821  -0.100  0.00  0.00    -0.006 C 
ATOM      4  C   UNL d   1       0.204   0.540  -1.159  0.00  0.00     0.003 C 
ATOM      5  O   UNL d   1      -1.395  -1.461   1.385  0.00  0.00    -0.227 OA
ATOM      6  O   UNL d   1      -2.110   0.964   1.302  0.00  0.00    -0.227 OA
ATOM      7  C   UNL d   1      -1.103  -0.128  -0.878  0.00  0.00     0.169 C 
ENDROOT
BRANCH   3   8
ATOM      8  S   UNL d   1       2.536   1.550  -0.256  0.00  0.00    -0.094 SA
BRANCH   8   9
ATOM      9  C   UNL d   1       2.065   3.269  -0.158  0.00  0.00     0.005 A 
ATOM     10  C   UNL d   1       2.039   3.927   1.076  0.00  0.00     0.019 A 
ATOM     11  C   UNL d   1       1.721   5.284   1.144  0.00  0.00     0.001 A 
ATOM     12  C   UNL d   1       1.431   5.994  -0.021  0.00  0.00     0.000 A 
ATOM     13  C   UNL d   1       1.458   5.346  -1.254  0.00  0.00     0.001 A 
ATOM     14  C   UNL d   1       1.777   3.987  -1.323  0.00  0.00     0.019 A 
ENDBRANCH   8   9
ENDBRANCH   3   8
TORSDOF 2
