REMARK  4 active torsions:
REMARK  status: ('A' for Active; 'I' for Inactive)
REMARK    1  A    between atoms: N_11  and  C_1 
REMARK    2  A    between atoms: C_2  and  C_10 
REMARK    3  A    between atoms: C_14  and  C_5 
REMARK    4  A    between atoms: C_15  and  C_7 
REMARK       I    between atoms: C_10  and  N_11 
ROOT
ATOM      1  C   UNL d   1       1.453  -0.752   0.075  0.00  0.00     0.085 A 
ATOM      2  N   UNL d   1       0.379   1.225  -0.108  0.00  0.00    -0.300 N 
ATOM      3  HN  UNL d   1       0.169   2.221  -0.178  1.00  0.00     0.187 HD
ATOM      4  C   UNL d   1       1.589   0.661  -0.056  0.00  0.00     0.062 A 
ATOM      5  N   UNL d   1      -0.502   0.221  -0.051  0.00  0.00    -0.297 N 
ATOM      6  C   UNL d   1       0.077  -1.024   0.138  0.00  0.00     0.064 A 
ATOM      7  C   UNL d   1      -1.871   0.653  -0.188  0.00  0.00     0.177 C 
ENDROOT
BRANCH   1   8
ATOM      8  N   UNL d   1       2.465  -1.695   0.193  0.00  0.00    -0.319 N 
ATOM      9  C   UNL d   1       3.326  -2.022  -0.845  0.00  0.00     0.265 C 
ATOM     10  O   UNL d   1       3.243  -1.515  -1.964  0.00  0.00    -0.267 OA
ATOM     11  H   UNL d   1       2.357  -2.402   0.902  0.00  0.00     0.169 HD
BRANCH   9  12
ATOM     12  C   UNL d   1       4.348  -3.024  -0.515  0.00  0.00     0.096 C 
ATOM     13  S   UNL d   1       4.726  -3.377   1.120  0.00  0.00    -0.082 SA
ATOM     14  C   UNL d   1       6.155  -4.231   0.700  0.00  0.00     0.017 A 
ATOM     15  C   UNL d   1       7.139  -4.714   1.586  0.00  0.00     0.020 A 
ATOM     16  C   UNL d   1       6.262  -4.396  -0.682  0.00  0.00     0.004 A 
ATOM     17  C   UNL d   1       8.273  -5.340   1.065  0.00  0.00     0.001 A 
ATOM     18  C   UNL d   1       8.401  -5.537  -0.301  0.00  0.00     0.001 A 
ATOM     19  C   UNL d   1       7.398  -5.096  -1.173  0.00  0.00     0.014 A 
ATOM     20  C   UNL d   1       5.166  -3.748  -1.365  0.00  0.00     0.068 C 
ATOM     21 CL   UNL d   1       5.017  -3.817  -3.078  0.00  0.00    -0.082 Cl
ENDBRANCH   9  12
ENDBRANCH   1   8
BRANCH   4  22
ATOM     22  C   UNL d   1       2.799   1.597  -0.083  0.00  0.00    -0.005 C 
ATOM     23  C   UNL d   1       2.443   2.964   0.570  0.00  0.00     0.021 C 
ATOM     24  C   UNL d   1       3.999   1.050   0.707  0.00  0.00     0.021 C 
ATOM     25  C   UNL d   1       3.219   1.875  -1.537  0.00  0.00     0.021 C 
ENDBRANCH   4  22
BRANCH   6  26
ATOM     26  C   UNL d   1      -0.649  -2.385   0.173  0.00  0.00    -0.005 C 
ATOM     27  C   UNL d   1      -0.461  -3.053  -1.206  0.00  0.00     0.021 C 
ATOM     28  C   UNL d   1      -0.073  -3.301   1.278  0.00  0.00     0.021 C 
ATOM     29  C   UNL d   1      -2.162  -2.336   0.465  0.00  0.00     0.021 C 
ENDBRANCH   6  26
TORSDOF 4
