REMARK  7 active torsions:
REMARK  status: ('A' for Active; 'I' for Inactive)
REMARK    1  A    between atoms: N_7  and  C_1 
REMARK    2  A    between atoms: C_11  and  C_2 
REMARK    3  A    between atoms: N_9  and  C_8 
REMARK    4  A    between atoms: O_18  and  C_11 
REMARK    5  A    between atoms: C_12  and  C_13 
REMARK    6  A    between atoms: N_24  and  C_13 
REMARK    7  A    between atoms: N_14  and  O_18 
ROOT
ATOM      1  C   UNL d   1       4.502   1.464  -0.354  0.00  0.00     0.133 C 
ATOM      2  N   UNL d   1       3.203   1.373  -0.338  0.00  0.00    -0.244 N 
ATOM      3  HN  UNL d   1       2.567   2.167  -0.413  1.00  0.00     0.196 HD
ENDROOT
BRANCH   2   4
ATOM      4  O   UNL d   1       2.791   0.030  -0.205  0.00  0.00    -0.192 OA
BRANCH   4   5
ATOM      5  C   UNL d   1       1.435  -0.045  -0.012  0.00  0.00     0.336 C 
ATOM      6  O   UNL d   1       0.674   0.912   0.078  0.00  0.00    -0.255 OA
BRANCH   5   7
ATOM      7  C   UNL d   1       0.991  -1.420  -0.012  0.00  0.00     0.163 A 
ATOM      8  C   UNL d   1       1.574  -2.621   0.393  0.00  0.00     0.160 A 
ATOM      9  C   UNL d   1       0.588  -3.621   0.162  0.00  0.00     0.057 A 
ATOM     10  N   UNL d   1      -0.523  -3.096  -0.359  0.00  0.00    -0.300 N 
ATOM     11  C   UNL d   1       0.632  -5.085   0.428  0.00  0.00     0.072 C 
ATOM     12  N   UNL d   1      -0.261  -1.782  -0.462  0.00  0.00    -0.289 N 
ATOM     13  HN  UNL d   1      -1.380  -3.583  -0.621  1.00  0.00     0.187 HD
ATOM     14  C   UNL d   1      -1.281  -0.941  -1.058  0.00  0.00     0.178 C 
BRANCH   8  15
ATOM     15  N   UNL d   1       2.875  -2.843   0.973  0.00  0.00    -0.111 N 
ATOM     16  O   UNL d   1       3.540  -1.857   1.314  0.00  0.00    -0.532 OA
ATOM     17  O   UNL d   1       3.242  -4.018   1.099  0.00  0.00    -0.532 OA
ENDBRANCH   8  15
ENDBRANCH   5   7
ENDBRANCH   4   5
ENDBRANCH   2   4
BRANCH   1  18
ATOM     18  C   UNL d   1       5.041   2.797  -0.576  0.00  0.00     0.117 A 
ATOM     19  O   UNL d   1       6.402   2.942  -0.693  0.00  0.00    -0.285 OA
ATOM     20  C   UNL d   1       6.624   4.259  -0.956  0.00  0.00     0.215 A 
ATOM     21  C   UNL d   1       5.454   4.979  -0.983  0.00  0.00     0.066 A 
ATOM     22  C   UNL d   1       4.429   4.033  -0.727  0.00  0.00     0.045 A 
BRANCH  20  23
ATOM     23  N   UNL d   1       7.982   4.649  -1.169  0.00  0.00    -0.090 N 
ATOM     24  O   UNL d   1       8.171   5.831  -1.488  0.00  0.00    -0.530 OA
ATOM     25  O   UNL d   1       8.859   3.789  -1.017  0.00  0.00    -0.530 OA
ENDBRANCH  20  23
ENDBRANCH   1  18
BRANCH   1  26
ATOM     26  N   UNL d   1       5.330   0.380  -0.175  0.00  0.00    -0.285 NA
ATOM     27  H   UNL d   1       6.271   0.604   0.133  0.00  0.00     0.125 HD
ATOM     28  H   UNL d   1       4.901  -0.374   0.357  0.00  0.00     0.125 HD
ENDBRANCH   1  26
TORSDOF 7
