REMARK  9 active torsions:
REMARK  status: ('A' for Active; 'I' for Inactive)
REMARK    1  A    between atoms: C_2  and  S_1 
REMARK    2  A    between atoms: C_4  and  S_1 
REMARK    3  A    between atoms: S_3  and  C_6 
REMARK    4  A    between atoms: C_10  and  S_3 
REMARK    5  A    between atoms: N_15  and  C_5 
REMARK    6  A    between atoms: C_6  and  C_24 
REMARK    7  A    between atoms: C_14  and  C_25 
REMARK    8  A    between atoms: C_24  and  N_15 
REMARK    9  A    between atoms: C_25  and  N_15 
ROOT
ATOM      1  C   UNL d   1       0.796   0.376   2.324  0.00  0.00     0.159 C 
ATOM      2  C   UNL d   1      -0.437   0.816   2.020  0.00  0.00     0.121 C 
ATOM      3  C   UNL d   1       1.980   1.121   2.131  0.00  0.00     0.113 C 
ATOM      4  N   UNL d   1       2.935   1.759   1.972  0.00  0.00    -0.191 NA
ENDROOT
BRANCH   1   5
ATOM      5  S   UNL d   1       0.981  -1.202   3.015  0.00  0.00     0.224 S 
ATOM      6  O   UNL d   1       1.977  -1.940   2.258  0.00  0.00    -0.216 OA
ATOM      7  O   UNL d   1      -0.302  -1.813   3.314  0.00  0.00    -0.216 OA
BRANCH   5   8
ATOM      8  C   UNL d   1       1.742  -0.978   4.617  0.00  0.00     0.105 A 
ATOM      9  S   UNL d   1       0.878  -0.039   5.759  0.00  0.00    -0.090 SA
ATOM     10  C   UNL d   1       2.038  -0.344   6.982  0.00  0.00     0.051 A 
ATOM     11  C   UNL d   1       3.082  -1.117   6.524  0.00  0.00     0.009 A 
ATOM     12  C   UNL d   1       2.915  -1.476   5.155  0.00  0.00     0.032 A 
ENDBRANCH   5   8
ENDBRANCH   1   5
BRANCH   2  13
ATOM     13  N   UNL d   1      -0.904   2.008   1.453  0.00  0.00    -0.382 N 
BRANCH  13  14
ATOM     14  C   UNL d   1      -0.289   2.706   0.307  0.00  0.00     0.138 C 
BRANCH  14  15
ATOM     15  C   UNL d   1      -0.232   1.870  -0.962  0.00  0.00     0.165 C 
BRANCH  15  16
ATOM     16  S   UNL d   1      -1.816   1.735  -1.763  0.00  0.00     0.177 S 
ATOM     17  O   UNL d   1      -2.554   0.624  -1.196  0.00  0.00    -0.223 OA
ATOM     18  O   UNL d   1      -2.406   3.058  -1.855  0.00  0.00    -0.223 OA
BRANCH  16  19
ATOM     19  C   UNL d   1      -1.365   1.257  -3.425  0.00  0.00     0.059 A 
ATOM     20  C   UNL d   1      -1.034  -0.075  -3.691  0.00  0.00     0.025 A 
ATOM     21  C   UNL d   1      -0.646  -0.442  -4.982  0.00  0.00     0.025 A 
ATOM     22  C   UNL d   1      -0.605   0.518  -5.996  0.00  0.00     0.034 A 
ATOM     23  C   UNL d   1      -0.962   1.841  -5.734  0.00  0.00     0.025 A 
ATOM     24 CL   UNL d   1      -0.107   0.067  -7.580  0.00  0.00    -0.084 Cl
ATOM     25  C   UNL d   1      -1.349   2.215  -4.445  0.00  0.00     0.025 A 
ENDBRANCH  16  19
ENDBRANCH  15  16
ENDBRANCH  14  15
ENDBRANCH  13  14
BRANCH  13  26
ATOM     26  C   UNL d   1      -1.830   2.848   2.266  0.00  0.00     0.168 C 
BRANCH  26  27
ATOM     27  C   UNL d   1      -1.154   3.591   3.396  0.00  0.00     0.000 A 
ATOM     28  S   UNL d   1      -2.013   3.892   4.851  0.00  0.00    -0.105 SA
ATOM     29  C   UNL d   1      -0.669   4.671   5.566  0.00  0.00     0.050 A 
ATOM     30  C   UNL d   1       0.414   4.714   4.718  0.00  0.00     0.008 A 
ATOM     31  C   UNL d   1       0.129   4.106   3.464  0.00  0.00     0.017 A 
ENDBRANCH  26  27
ENDBRANCH  13  26
ENDBRANCH   2  13
TORSDOF 9
