REMARK  4 active torsions:
REMARK  status: ('A' for Active; 'I' for Inactive)
REMARK    1  A    between atoms: C_7  and  C_1 
REMARK    2  A    between atoms: C_12  and  C_6 
REMARK       I    between atoms: N_10  and  C_7 
REMARK    3  A    between atoms: C_8  and  C_9 
REMARK       I    between atoms: C_9  and  N_11 
REMARK    4  A    between atoms: N_11  and  N_10 
ROOT
ATOM      1  C   UNL d   1      -0.233  -2.653   0.065  0.00  0.00     0.288 C 
ATOM      2  N   UNL d   1       0.768  -3.599   0.184  0.00  0.00    -0.262 N 
ATOM      3  O   UNL d   1      -1.410  -3.006  -0.018  0.00  0.00    -0.264 OA
ATOM      4  H   UNL d   1       1.751  -3.384   0.321  0.00  0.00     0.190 HD
ENDROOT
BRANCH   1   5
ATOM      5  C   UNL d   1       0.208  -1.274   0.044  0.00  0.00     0.121 A 
ATOM      6  N   UNL d   1      -0.609  -0.166  -0.001  0.00  0.00    -0.291 N 
ATOM      7  N   UNL d   1       0.064   1.004  -0.026  0.00  0.00    -0.302 N 
ATOM      8  C   UNL d   1      -2.051  -0.079  -0.035  0.00  0.00     0.178 C 
ATOM      9  C   UNL d   1       1.355   0.662  -0.004  0.00  0.00     0.036 A 
ATOM     10  HN  UNL d   1      -0.328   1.945  -0.057  1.00  0.00     0.186 HD
ATOM     11  C   UNL d   1       1.492  -0.747   0.047  0.00  0.00     0.064 A 
BRANCH   9  12
ATOM     12  C   UNL d   1       2.460   1.707  -0.046  0.00  0.00    -0.007 C 
ATOM     13  C   UNL d   1       3.305   1.518  -1.323  0.00  0.00     0.021 C 
ATOM     14  C   UNL d   1       1.906   3.149  -0.055  0.00  0.00     0.021 C 
ATOM     15  C   UNL d   1       3.373   1.559   1.187  0.00  0.00     0.021 C 
ENDBRANCH   9  12
ENDBRANCH   1   5
BRANCH   2  16
ATOM     16  N   UNL d   1       0.412  -4.951   0.250  0.00  0.00    -0.263 N 
ATOM     17  C   UNL d   1       1.400  -5.892   0.436  0.00  0.00     0.271 C 
ATOM     18  O   UNL d   1       2.584  -5.568   0.532  0.00  0.00    -0.266 OA
ATOM     19  H   UNL d   1      -0.579  -5.169   0.142  0.00  0.00     0.190 HD
BRANCH  17  20
ATOM     20  C   UNL d   1       0.991  -7.322   0.588  0.00  0.00     0.055 A 
ATOM     21  C   UNL d   1      -0.226  -7.881   0.169  0.00  0.00     0.049 A 
ATOM     22 CL   UNL d   1      -1.443  -7.016  -0.704  0.00  0.00    -0.083 Cl
ATOM     23  C   UNL d   1      -0.504  -9.233   0.425  0.00  0.00     0.025 A 
ATOM     24  C   UNL d   1       0.424 -10.040   1.081  0.00  0.00     0.002 A 
ATOM     25  C   UNL d   1       1.645  -9.506   1.475  0.00  0.00     0.001 A 
ATOM     26  C   UNL d   1       1.926  -8.159   1.228  0.00  0.00     0.019 A 
ENDBRANCH  17  20
ENDBRANCH   2  16
TORSDOF 4
