REMARK  3 active torsions:
REMARK  status: ('A' for Active; 'I' for Inactive)
REMARK    1  A    between atoms: C_2  and  N_1 
REMARK    2  A    between atoms: O_4  and  C_3 
REMARK    3  A    between atoms: C_5  and  O_4 
ROOT
ATOM      1  C   UNL d   1      -0.732  -2.611   0.768  0.00  0.00     0.154 A 
ATOM      2  C   UNL d   1      -0.556  -1.410   0.091  0.00  0.00     0.181 A 
ATOM      3  N   UNL d   1       0.088  -0.348   0.654  0.00  0.00    -0.345 N 
ATOM      4  HN  UNL d   1       0.148   0.547   0.170  1.00  0.00     0.167 HD
ATOM      5  C   UNL d   1      -0.157  -2.755   2.041  0.00  0.00     0.042 A 
ATOM      6  C   UNL d   1       0.645  -0.519   1.872  0.00  0.00     0.090 A 
ATOM      7  C   UNL d   1       0.558  -1.694   2.593  0.00  0.00     0.020 A 
ENDROOT
BRANCH   2   8
ATOM      8  O   UNL d   1      -1.060  -1.241  -1.189  0.00  0.00    -0.288 OA
BRANCH   8   9
ATOM      9  C   UNL d   1      -0.462  -0.303  -1.997  0.00  0.00     0.116 A 
ATOM     10  C   UNL d   1       0.925  -0.184  -2.154  0.00  0.00     0.153 A 
ATOM     11  C   UNL d   1       1.466   0.800  -2.974  0.00  0.00     0.087 A 
ATOM     12  F   UNL d   1       1.761  -1.029  -1.533  0.00  0.00    -0.203 F 
ATOM     13  C   UNL d   1       0.609   1.637  -3.675  0.00  0.00     0.119 A 
ATOM     14  C   UNL d   1      -0.773   1.495  -3.582  0.00  0.00     0.045 A 
ATOM     15  F   UNL d   1       1.120   2.589  -4.466  0.00  0.00    -0.206 F 
ATOM     16  C   UNL d   1      -1.313   0.518  -2.742  0.00  0.00     0.043 A 
ENDBRANCH   8   9
ENDBRANCH   2   8
BRANCH   1  17
ATOM     17  N   UNL d   1      -1.494  -3.723   0.207  0.00  0.00    -0.111 N 
ATOM     18  O   UNL d   1      -2.066  -3.578  -0.882  0.00  0.00    -0.532 OA
ATOM     19  O   UNL d   1      -1.546  -4.766   0.875  0.00  0.00    -0.532 OA
ENDBRANCH   1  17
TORSDOF 3
