REMARK  5 active torsions:
REMARK  status: ('A' for Active; 'I' for Inactive)
REMARK    1  A    between atoms: C_3  and  C_1 
REMARK    2  A    between atoms: N_4  and  C_2 
REMARK    3  A    between atoms: O_17  and  C_3 
REMARK       I    between atoms: C_5  and  N_4 
REMARK    4  A    between atoms: C_7  and  C_5 
REMARK    5  A    between atoms: C_9  and  C_7 
ROOT
ATOM      1  N   UNL d   1       2.560   1.405  -0.312  0.00  0.00    -0.325 N 
ATOM      2  C   UNL d   1       2.706   2.608   0.361  0.00  0.00     0.226 C 
ATOM      3  O   UNL d   1       1.778   3.274   0.820  0.00  0.00    -0.273 OA
ATOM      4  H   UNL d   1       3.330   0.741  -0.303  0.00  0.00     0.169 HD
ENDROOT
BRANCH   1   5
ATOM      5  C   UNL d   1       1.366   0.997  -0.914  0.00  0.00     0.058 A 
ATOM      6  C   UNL d   1       1.090  -0.308  -1.313  0.00  0.00     0.106 A 
ATOM      7  S   UNL d   1      -0.461  -0.421  -2.058  0.00  0.00    -0.094 SA
ATOM      8  C   UNL d   1      -0.754   1.244  -1.889  0.00  0.00     0.053 A 
ATOM      9  C   UNL d   1       0.285   1.879  -1.254  0.00  0.00     0.038 A 
BRANCH   6  10
ATOM     10  C   UNL d   1       1.843  -1.542  -1.184  0.00  0.00     0.302 C 
ATOM     11  O   UNL d   1       1.419  -2.675  -1.378  0.00  0.00    -0.259 OA
BRANCH  10  12
ATOM     12  O   UNL d   1       3.135  -1.277  -0.811  0.00  0.00    -0.322 OA
ATOM     13  C   UNL d   1       3.941  -2.449  -0.677  0.00  0.00     0.213 C 
ENDBRANCH  10  12
ENDBRANCH   6  10
ENDBRANCH   1   5
BRANCH   2  14
ATOM     14  C   UNL d   1       4.124   3.136   0.410  0.00  0.00     0.149 C 
BRANCH  14  15
ATOM     15  C   UNL d   1       4.995   2.413   1.387  0.00  0.00    -0.009 A 
ATOM     16  S   UNL d   1       6.199   1.333   0.824  0.00  0.00    -0.106 SA
ATOM     17  C   UNL d   1       6.849   1.139   2.393  0.00  0.00     0.050 A 
ATOM     18  C   UNL d   1       6.130   1.835   3.339  0.00  0.00     0.008 A 
ATOM     19  C   UNL d   1       5.047   2.560   2.760  0.00  0.00     0.015 A 
ENDBRANCH  14  15
ENDBRANCH   2  14
TORSDOF 5
