REMARK  5 active torsions:
REMARK  status: ('A' for Active; 'I' for Inactive)
REMARK    1  A    between atoms: S_13  and  C_3 
REMARK    2  A    between atoms: C_10  and  C_5 
REMARK    3  A    between atoms: O_14  and  C_10 
REMARK    4  A    between atoms: O_15  and  C_10 
REMARK    5  A    between atoms: C_16  and  S_13 
ROOT
ATOM      1  N   UNL d   1      -1.434  -1.109  -0.145  0.00  0.00    -0.349 N 
ATOM      2  HN  UNL d   1      -1.912  -2.010  -0.161  1.00  0.00     0.166 HD
ATOM      3  C   UNL d   1      -0.083  -1.056  -0.160  0.00  0.00     0.092 A 
ATOM      4  C   UNL d   1       0.608   0.150  -0.116  0.00  0.00     0.078 A 
ATOM      5  C   UNL d   1      -2.152   0.047  -0.108  0.00  0.00     0.065 A 
ATOM      6  C   UNL d   1       2.033   0.217  -0.079  0.00  0.00     0.102 C 
ATOM      7  N   UNL d   1       3.189   0.312  -0.029  0.00  0.00    -0.191 NA
ATOM      8  C   UNL d   1      -0.134   1.337  -0.097  0.00  0.00     0.027 A 
ATOM      9  C   UNL d   1      -1.527   1.289  -0.102  0.00  0.00     0.032 A 
ENDROOT
BRANCH   3  10
ATOM     10  S   UNL d   1       0.728  -2.648  -0.165  0.00  0.00    -0.097 SA
BRANCH  10  11
ATOM     11  C   UNL d   1      -0.566  -3.657  -0.977  0.00  0.00     0.204 C 
ATOM     12  C   UNL d   1      -0.760  -3.310  -2.391  0.00  0.00     0.069 C 
ATOM     13  N   UNL d   1      -0.893  -3.056  -3.518  0.00  0.00    -0.197 NA
ENDBRANCH  10  11
ENDBRANCH   3  10
BRANCH   5  14
ATOM     14  C   UNL d   1      -3.679  -0.051  -0.050  0.00  0.00     0.309 C 
BRANCH  14  15
ATOM     15  O   UNL d   1      -4.154  -0.005  -1.398  0.00  0.00    -0.360 OA
ATOM     16  C   UNL d   1      -5.572   0.029  -1.470  0.00  0.00     0.205 C 
ENDBRANCH  14  15
BRANCH  14  17
ATOM     17  O   UNL d   1      -4.118  -1.255   0.594  0.00  0.00    -0.360 OA
ATOM     18  C   UNL d   1      -3.815  -1.291   1.981  0.00  0.00     0.205 C 
ENDBRANCH  14  17
ENDBRANCH   5  14
TORSDOF 5
