REMARK  3 active torsions:
REMARK  status: ('A' for Active; 'I' for Inactive)
REMARK    1  A    between atoms: C_11  and  C_3 
REMARK       I    between atoms: C_4  and  N_9 
REMARK    2  A    between atoms: C_5  and  C_4 
REMARK    3  A    between atoms: N_9  and  C_18 
ROOT
ATOM      1  C   UNL d   1       1.986  -2.364   0.136  0.00  0.00    -0.009 A 
ATOM      2  C   UNL d   1       1.692  -3.391  -0.771  0.00  0.00     0.016 A 
ATOM      3  C   UNL d   1       3.107  -2.519   0.959  0.00  0.00     0.016 A 
ATOM      4  C   UNL d   1       3.663  -4.641  -0.091  0.00  0.00     0.035 A 
ATOM      5  C   UNL d   1       3.935  -3.645   0.845  0.00  0.00     0.030 A 
ATOM      6  C   UNL d   1       2.518  -4.516  -0.885  0.00  0.00     0.030 A 
ENDROOT
BRANCH   4   7
ATOM      7  N   UNL d   1       4.499  -5.750  -0.331  0.00  0.00    -0.323 N 
ATOM      8  C   UNL d   1       5.712  -6.046   0.268  0.00  0.00     0.263 C 
ATOM      9  O   UNL d   1       6.174  -5.442   1.233  0.00  0.00    -0.267 OA
ATOM     10  H   UNL d   1       4.225  -6.366  -1.087  0.00  0.00     0.169 HD
BRANCH   8  11
ATOM     11  C   UNL d   1       6.455  -7.145  -0.351  0.00  0.00     0.072 A 
ATOM     12  S   UNL d   1       5.860  -8.033  -1.693  0.00  0.00    -0.097 SA
ATOM     13  C   UNL d   1       7.290  -8.965  -1.800  0.00  0.00     0.050 A 
ATOM     14  C   UNL d   1       8.198  -8.631  -0.822  0.00  0.00     0.009 A 
ATOM     15  C   UNL d   1       7.711  -7.592   0.020  0.00  0.00     0.025 A 
ENDBRANCH   8  11
ENDBRANCH   4   7
BRANCH   1  16
ATOM     16  C   UNL d   1       1.144  -1.166   0.164  0.00  0.00     0.049 A 
ATOM     17  N   UNL d   1       0.028  -1.065  -0.657  0.00  0.00    -0.353 N 
ATOM     18  C   UNL d   1      -0.547   0.107  -0.508  0.00  0.00     0.047 A 
ATOM     19  HN  UNL d   1      -0.299  -1.798  -1.287  1.00  0.00     0.166 HD
ATOM     20  S   UNL d   1       0.193   1.153   0.633  0.00  0.00    -0.087 SA
ATOM     21  C   UNL d   1      -1.751   0.552  -1.260  0.00  0.00     0.076 C 
ATOM     22  C   UNL d   1       1.381  -0.046   0.939  0.00  0.00     0.081 A 
ENDBRANCH   1  16
TORSDOF 3
