REMARK  4 active torsions:
REMARK  status: ('A' for Active; 'I' for Inactive)
REMARK    1  A    between atoms: C_3  and  C_1 
REMARK    2  A    between atoms: C_8  and  C_2 
REMARK       I    between atoms: N_14  and  C_8 
REMARK    3  A    between atoms: C_16  and  C_9 
REMARK    4  A    between atoms: C_17  and  N_14 
ROOT
ATOM      1  C   UNL d   1      -0.025  -1.291   0.076  0.00  0.00     0.057 A 
ATOM      2  C   UNL d   1      -1.345  -0.772   0.151  0.00  0.00     0.137 A 
ATOM      3  N   UNL d   1      -1.326   0.574   0.118  0.00  0.00    -0.255 N 
ATOM      4  HN  UNL d   1      -2.132   1.200   0.101  1.00  0.00     0.195 HD
ATOM      5  O   UNL d   1       0.010   0.935   0.112  0.00  0.00    -0.241 OA
ATOM      6  C   UNL d   1       0.787  -0.181   0.087  0.00  0.00     0.087 A 
ATOM      7  C   UNL d   1       2.246   0.038   0.042  0.00  0.00     0.080 C 
ENDROOT
BRANCH   1   8
ATOM      8  C   UNL d   1       0.359  -2.694  -0.029  0.00  0.00     0.055 A 
ATOM      9  N   UNL d   1      -0.448  -3.546  -0.761  0.00  0.00    -0.349 N 
ATOM     10  C   UNL d   1       0.057  -4.766  -0.770  0.00  0.00     0.084 A 
ATOM     11  HN  UNL d   1      -1.311  -3.270  -1.229  1.00  0.00     0.166 HD
ATOM     12  S   UNL d   1       1.550  -4.928   0.086  0.00  0.00    -0.081 SA
ATOM     13  C   UNL d   1       1.502  -3.267   0.484  0.00  0.00     0.082 A 
BRANCH  10  14
ATOM     14  C   UNL d   1      -0.576  -5.938  -1.401  0.00  0.00    -0.002 A 
ATOM     15  C   UNL d   1       0.171  -6.997  -1.946  0.00  0.00     0.014 A 
ATOM     16  C   UNL d   1      -0.460  -8.106  -2.515  0.00  0.00     0.001 A 
ATOM     17  C   UNL d   1      -1.850  -8.173  -2.554  0.00  0.00     0.000 A 
ATOM     18  C   UNL d   1      -2.609  -7.126  -2.034  0.00  0.00     0.001 A 
ATOM     19  C   UNL d   1      -1.977  -6.014  -1.467  0.00  0.00     0.014 A 
ENDBRANCH  10  14
ENDBRANCH   1   8
BRANCH   2  20
ATOM     20  C   UNL d   1      -2.607  -1.504   0.293  0.00  0.00     0.275 C 
ATOM     21  N   UNL d   1      -3.679  -0.880  -0.333  0.00  0.00    -0.322 N 
ATOM     22  H   UNL d   1      -3.450  -0.031  -0.840  0.00  0.00     0.169 HD
ATOM     23  O   UNL d   1      -2.665  -2.559   0.914  0.00  0.00    -0.266 OA
BRANCH  21  24
ATOM     24  C   UNL d   1      -4.993  -1.380  -0.444  0.00  0.00     0.035 A 
ATOM     25  C   UNL d   1      -5.469  -2.464   0.299  0.00  0.00     0.031 A 
ATOM     26  C   UNL d   1      -6.759  -2.962   0.093  0.00  0.00     0.026 A 
ATOM     27  C   UNL d   1      -7.583  -2.375  -0.860  0.00  0.00     0.034 A 
ATOM     28  C   UNL d   1      -7.138  -1.272  -1.584  0.00  0.00     0.026 A 
ATOM     29 CL   UNL d   1      -9.152  -3.020  -1.147  0.00  0.00    -0.084 Cl
ATOM     30  C   UNL d   1      -5.850  -0.768  -1.368  0.00  0.00     0.031 A 
ENDBRANCH  21  24
ENDBRANCH   2  20
TORSDOF 4
