REMARK  4 active torsions:
REMARK  status: ('A' for Active; 'I' for Inactive)
REMARK    1  A    between atoms: N_14  and  C_3 
REMARK    2  A    between atoms: C_13  and  C_6 
REMARK    3  A    between atoms: S_16  and  C_9 
REMARK    4  A    between atoms: O_17  and  C_13 
ROOT
ATOM      1  N   UNL d   1       0.287  -0.688   0.071  0.00  0.00    -0.072 N 
ATOM      2  C   UNL d   1       0.302   0.708  -0.011  0.00  0.00     0.706 A 
ATOM      3  C   UNL d   1      -0.920  -1.430   0.102  0.00  0.00     0.137 A 
ATOM      4  N   UNL d   1       1.549   1.123  -0.032  0.00  0.00    -0.167 N 
ATOM      5  HN  UNL d   1       1.894   2.082  -0.076  1.00  0.00     0.186 HD
ATOM      6  C   UNL d   1      -2.085  -0.747   0.014  0.00  0.00     0.094 A 
ATOM      7  N   UNL d   1       1.559  -1.156   0.075  0.00  0.00    -0.257 N 
ATOM      8  HN  UNL d   1       1.887  -2.121   0.111  1.00  0.00     0.190 HD
ATOM      9  C   UNL d   1       2.271  -0.031   0.020  0.00  0.00     0.174 A 
ATOM     10  N   UNL d   1      -0.853   1.430  -0.077  0.00  0.00    -0.199 N 
ATOM     11  HN  UNL d   1      -0.855   2.449  -0.121  1.00  0.00     0.183 HD
ATOM     12  C   UNL d   1      -1.949   0.736  -0.081  0.00  0.00     0.128 A 
ENDROOT
BRANCH   6  13
ATOM     13  C   UNL d   1      -3.378  -1.460  -0.040  0.00  0.00     0.180 C 
ATOM     14  O   UNL d   1      -3.492  -2.606  -0.445  0.00  0.00    -0.646 OA
BRANCH  13  15
ATOM     15  O   UNL d   1      -4.447  -0.740   0.359  0.00  0.00    -0.773 OA
ATOM     16  H   UNL d   1      -4.294   0.086   0.852  0.00  0.00     0.167 HD
ENDBRANCH  13  15
ENDBRANCH   6  13
BRANCH   3  17
ATOM     17  N   UNL d   1      -0.796  -2.815   0.212  0.00  0.00    -0.286 NA
ATOM     18  H   UNL d   1       0.110  -3.163  -0.115  0.00  0.00     0.125 HD
ATOM     19  H   UNL d   1      -1.595  -3.341  -0.157  0.00  0.00     0.125 HD
ENDBRANCH   3  17
BRANCH   9  20
ATOM     20  S   UNL d   1       4.012  -0.097  -0.004  0.00  0.00    -0.097 SA
ATOM     21  C   UNL d   1       4.424   1.657  -0.010  0.00  0.00     0.099 C 
ENDBRANCH   9  20
TORSDOF 4
