REMARK  8 active torsions:
REMARK  status: ('A' for Active; 'I' for Inactive)
REMARK    1  A    between atoms: C_9  and  S_1 
REMARK    2  A    between atoms: N_10  and  S_1 
REMARK    3  A    between atoms: S_2  and  C_9 
REMARK    4  A    between atoms: N_11  and  S_2 
REMARK    5  A    between atoms: C_3  and  N_10 
REMARK    6  A    between atoms: C_4  and  N_11 
REMARK    7  A    between atoms: O_24  and  C_22 
REMARK    8  A    between atoms: O_25  and  C_23 
ROOT
ATOM      1  C   UNL d   1       0.515  -0.214   1.634  0.00  0.00     0.315 C 
ENDROOT
BRANCH   1   2
ATOM      2  S   UNL d   1       0.990  -1.859   2.092  0.00  0.00     0.230 S 
ATOM      3  O   UNL d   1       0.261  -2.826   1.297  0.00  0.00    -0.210 OA
ATOM      4  O   UNL d   1       2.430  -1.964   2.215  0.00  0.00    -0.210 OA
BRANCH   2   5
ATOM      5  N   UNL d   1       0.374  -2.068   3.658  0.00  0.00    -0.164 NA
ATOM      6  H   UNL d   1       0.636  -3.020   3.915  0.00  0.00     0.148 HD
BRANCH   5   7
ATOM      7  C   UNL d   1       0.943  -1.153   4.579  0.00  0.00     0.138 A 
ATOM      8  N   UNL d   1       0.354  -0.012   4.815  0.00  0.00    -0.337 N 
ATOM      9  C   UNL d   1       1.042   0.667   5.824  0.00  0.00     0.085 A 
ATOM     10  HN  UNL d   1      -0.479   0.330   4.338  1.00  0.00     0.167 HD
ATOM     11  C   UNL d   1       0.679   1.906   6.422  0.00  0.00     0.096 A 
ATOM     12  C   UNL d   1       2.206   0.025   6.261  0.00  0.00     0.037 A 
ATOM     13  C   UNL d   1       1.546   2.470   7.374  0.00  0.00     0.039 A 
ATOM     14  C   UNL d   1       2.732   1.837   7.739  0.00  0.00     0.004 A 
ATOM     15  C   UNL d   1       3.076   0.601   7.198  0.00  0.00     0.021 A 
ATOM     16  S   UNL d   1       2.319  -1.519   5.506  0.00  0.00    -0.057 SA
BRANCH  11  17
ATOM     17  O   UNL d   1      -0.512   2.470   6.036  0.00  0.00    -0.354 OA
ATOM     18  C   UNL d   1      -0.903   3.671   6.688  0.00  0.00     0.210 C 
ENDBRANCH  11  17
ENDBRANCH   5   7
ENDBRANCH   2   5
ENDBRANCH   1   2
BRANCH   1  19
ATOM     19  S   UNL d   1       1.035   0.035  -0.045  0.00  0.00     0.230 S 
ATOM     20  O   UNL d   1       0.211  -0.726  -0.957  0.00  0.00    -0.210 OA
ATOM     21  O   UNL d   1       2.477  -0.036  -0.136  0.00  0.00    -0.210 OA
BRANCH  19  22
ATOM     22  N   UNL d   1       0.694   1.668  -0.354  0.00  0.00    -0.164 NA
ATOM     23  H   UNL d   1       1.060   1.848  -1.288  0.00  0.00     0.148 HD
BRANCH  22  24
ATOM     24  C   UNL d   1      -0.693   1.940  -0.306  0.00  0.00     0.138 A 
ATOM     25  N   UNL d   1      -1.244   2.310   0.818  0.00  0.00    -0.337 N 
ATOM     26  C   UNL d   1      -2.579   2.649   0.592  0.00  0.00     0.085 A 
ATOM     27  HN  UNL d   1      -0.772   2.345   1.722  1.00  0.00     0.167 HD
ATOM     28  C   UNL d   1      -3.490   3.186   1.542  0.00  0.00     0.096 A 
ATOM     29  C   UNL d   1      -3.020   2.428  -0.717  0.00  0.00     0.037 A 
ATOM     30  C   UNL d   1      -4.818   3.412   1.144  0.00  0.00     0.039 A 
ATOM     31  C   UNL d   1      -5.244   3.121  -0.151  0.00  0.00     0.004 A 
ATOM     32  C   UNL d   1      -4.353   2.631  -1.104  0.00  0.00     0.021 A 
ATOM     33  S   UNL d   1      -1.682   1.943  -1.689  0.00  0.00    -0.057 SA
BRANCH  28  34
ATOM     34  O   UNL d   1      -2.998   3.464   2.792  0.00  0.00    -0.354 OA
ATOM     35  C   UNL d   1      -3.882   4.076   3.719  0.00  0.00     0.210 C 
ENDBRANCH  28  34
ENDBRANCH  22  24
ENDBRANCH  19  22
ENDBRANCH   1  19
TORSDOF 8
