REMARK  4 active torsions:
REMARK  status: ('A' for Active; 'I' for Inactive)
REMARK    1  A    between atoms: C_14  and  N_7 
REMARK    2  A    between atoms: N_11  and  C_8 
REMARK    3  A    between atoms: C_18  and  N_11 
REMARK    4  A    between atoms: C_19  and  C_18 
ROOT
ATOM      1  C   UNL d   1      -0.004   0.727   0.006  0.00  0.00     0.138 A 
ATOM      2  C   UNL d   1      -0.049  -0.634   0.003  0.00  0.00     0.098 A 
ATOM      3  N   UNL d   1       1.260   1.353   0.103  0.00  0.00    -0.288 N 
ATOM      4  N   UNL d   1       2.405  -0.698  -0.083  0.00  0.00    -0.270 N 
ATOM      5  C   UNL d   1       2.472   0.672  -0.039  0.00  0.00     0.332 C 
ATOM      6  C   UNL d   1       1.234  -1.409   0.053  0.00  0.00     0.267 C 
ATOM      7  N   UNL d   1      -1.237   1.448  -0.021  0.00  0.00    -0.263 N 
ATOM      8  C   UNL d   1      -1.329  -1.364  -0.010  0.00  0.00     0.033 A 
ATOM      9  C   UNL d   1      -2.483   0.791   0.017  0.00  0.00     0.255 A 
ATOM     10  C   UNL d   1      -2.469  -0.671   0.013  0.00  0.00     0.099 A 
ATOM     11  O   UNL d   1       3.550   1.264  -0.084  0.00  0.00    -0.246 OA
ATOM     12  O   UNL d   1       1.239  -2.628   0.218  0.00  0.00    -0.267 OA
ATOM     13  O   UNL d   1      -3.595   1.323   0.011  0.00  0.00    -0.268 OA
ATOM     14  C   UNL d   1       1.447   2.764   0.428  0.00  0.00     0.163 C 
ATOM     15  C   UNL d   1       3.646  -1.457  -0.079  0.00  0.00     0.164 C 
ENDROOT
BRANCH   8  16
ATOM     16  N   UNL d   1      -1.430  -2.750   0.061  0.00  0.00    -0.288 NA
ATOM     17  H   UNL d   1      -0.745  -3.123   0.733  0.00  0.00     0.128 HD
BRANCH  16  18
ATOM     18  C   UNL d   1      -1.367  -3.602  -1.130  0.00  0.00     0.131 C 
BRANCH  18  19
ATOM     19  C   UNL d   1      -2.541  -4.548  -1.113  0.00  0.00    -0.045 A 
ATOM     20  C   UNL d   1      -3.737  -4.204  -1.761  0.00  0.00     0.008 A 
ATOM     21  C   UNL d   1      -4.848  -5.045  -1.690  0.00  0.00     0.001 A 
ATOM     22  C   UNL d   1      -4.779  -6.235  -0.969  0.00  0.00     0.000 A 
ATOM     23  C   UNL d   1      -3.596  -6.590  -0.323  0.00  0.00     0.001 A 
ATOM     24  C   UNL d   1      -2.482  -5.751  -0.394  0.00  0.00     0.008 A 
ENDBRANCH  18  19
ENDBRANCH  16  18
ENDBRANCH   8  16
BRANCH   7  25
ATOM     25  C   UNL d   1      -1.385   2.862  -0.230  0.00  0.00     0.044 A 
ATOM     26  C   UNL d   1      -2.103   3.630   0.705  0.00  0.00     0.030 A 
ATOM     27  C   UNL d   1      -2.353   4.981   0.475  0.00  0.00     0.002 A 
ATOM     28  C   UNL d   1      -1.896   5.578  -0.695  0.00  0.00     0.000 A 
ATOM     29  C   UNL d   1      -1.184   4.826  -1.633  0.00  0.00     0.002 A 
ATOM     30  C   UNL d   1      -0.931   3.469  -1.405  0.00  0.00     0.030 A 
ENDBRANCH   7  25
TORSDOF 4
