REMARK  1 active torsions:
REMARK  status: ('A' for Active; 'I' for Inactive)
REMARK    1  A    between atoms: N_6  and  C_2 
ROOT
ATOM      1  C   UNL d   1       0.164  -0.781  -0.007  0.00  0.00     0.070 A 
ATOM      2  C   UNL d   1       1.419  -1.419  -0.012  0.00  0.00     0.103 A 
ATOM      3  S   UNL d   1      -1.416  -1.469   0.088  0.00  0.00    -0.096 SA
ATOM      4  C   UNL d   1       0.095   0.608  -0.047  0.00  0.00     0.060 A 
ATOM      5  C   UNL d   1      -1.259   1.095  -0.033  0.00  0.00    -0.027 A 
ATOM      6  C   UNL d   1      -2.166   0.057   0.033  0.00  0.00     0.059 A 
ATOM      7  N   UNL d   1       2.516  -0.631  -0.012  0.00  0.00    -0.342 N 
ATOM      8  HN  UNL d   1       3.450  -1.039   0.020  1.00  0.00     0.167 HD
ATOM      9  N   UNL d   1       1.204   1.388  -0.087  0.00  0.00    -0.351 N 
ATOM     10  HN  UNL d   1       1.166   2.406  -0.137  1.00  0.00     0.166 HD
ATOM     11  C   UNL d   1       2.353   0.701  -0.056  0.00  0.00     0.182 A 
ATOM     12  C   UNL d   1      -1.654   2.532  -0.075  0.00  0.00     0.051 C 
ENDROOT
BRANCH   2  13
ATOM     13  N   UNL d   1       1.532  -2.804   0.069  0.00  0.00    -0.264 NA
ATOM     14  C   UNL d   1       2.772  -3.327   0.663  0.00  0.00     0.123 C 
ATOM     15  C   UNL d   1       2.549  -4.824   0.957  0.00  0.00     0.182 C 
ATOM     16  O   UNL d   1       2.191  -5.555  -0.233  0.00  0.00    -0.389 OA
ATOM     17  C   UNL d   1       1.006  -4.999  -0.835  0.00  0.00     0.182 C 
ATOM     18  C   UNL d   1       1.203  -3.514  -1.181  0.00  0.00     0.123 C 
ENDBRANCH   2  13
TORSDOF 1
