REMARK  4 active torsions:
REMARK  status: ('A' for Active; 'I' for Inactive)
REMARK    1  A    between atoms: N_2  and  C_1 
REMARK    2  A    between atoms: N_3  and  C_7 
REMARK    3  A    between atoms: S_8  and  C_5 
REMARK    4  A    between atoms: C_6  and  S_8 
ROOT
ATOM      1  C   UNL d   1       1.375  -0.278   0.235  0.00  0.00     0.122 A 
ATOM      2  C   UNL d   1       0.462  -1.347   0.268  0.00  0.00     0.073 A 
ATOM      3  C   UNL d   1       0.977   1.054   0.035  0.00  0.00     0.038 A 
ATOM      4  C   UNL d   1      -0.896  -1.071   0.109  0.00  0.00     0.105 A 
ATOM      5  C   UNL d   1      -0.399   1.292  -0.115  0.00  0.00     0.024 A 
ATOM      6  C   UNL d   1      -1.334   0.247  -0.065  0.00  0.00     0.037 A 
ENDROOT
BRANCH   3   7
ATOM      7  S   UNL d   1       2.097   2.422  -0.256  0.00  0.00    -0.086 SA
BRANCH   7   8
ATOM      8  C   UNL d   1       2.283   3.159   1.365  0.00  0.00     0.029 A 
ATOM      9  C   UNL d   1       3.434   2.822   2.095  0.00  0.00     0.046 A 
ATOM     10  C   UNL d   1       3.679   3.373   3.357  0.00  0.00     0.057 A 
ATOM     11 CL   UNL d   1       5.114   2.884   4.184  0.00  0.00    -0.083 Cl
ATOM     12  C   UNL d   1       2.780   4.293   3.899  0.00  0.00     0.057 A 
ATOM     13  C   UNL d   1       1.651   4.669   3.169  0.00  0.00     0.051 A 
ATOM     14 CL   UNL d   1       3.011   5.014   5.451  0.00  0.00    -0.082 Cl
ATOM     15  C   UNL d   1       1.408   4.115   1.906  0.00  0.00     0.052 A 
ATOM     16 CL   UNL d   1       0.022   4.703   1.055  0.00  0.00    -0.083 Cl
ENDBRANCH   7   8
ENDBRANCH   3   7
BRANCH   1  17
ATOM     17  N   UNL d   1       2.770  -0.621   0.407  0.00  0.00    -0.114 N 
ATOM     18  O   UNL d   1       3.293  -1.299  -0.486  0.00  0.00    -0.532 OA
ATOM     19  O   UNL d   1       3.307  -0.272   1.464  0.00  0.00    -0.532 OA
ENDBRANCH   1  17
BRANCH   4  20
ATOM     20  N   UNL d   1      -1.870  -2.172   0.095  0.00  0.00    -0.116 N 
ATOM     21  O   UNL d   1      -1.428  -3.325   0.196  0.00  0.00    -0.532 OA
ATOM     22  O   UNL d   1      -3.067  -1.880  -0.019  0.00  0.00    -0.532 OA
ENDBRANCH   4  20
TORSDOF 4
