REMARK  5 active torsions:
REMARK  status: ('A' for Active; 'I' for Inactive)
REMARK    1  A    between atoms: C_2  and  C_1 
REMARK       I    between atoms: N_6  and  C_1 
REMARK    2  A    between atoms: O_16  and  C_3 
REMARK    3  A    between atoms: O_19  and  C_4 
REMARK    4  A    between atoms: O_18  and  C_5 
REMARK    5  A    between atoms: C_11  and  N_6 
ROOT
ATOM      1  C   UNL d   1       0.197   1.318  -0.062  0.00  0.00     0.037 A 
ATOM      2  C   UNL d   1      -1.214   3.701  -0.647  0.00  0.00     0.135 A 
ATOM      3  C   UNL d   1      -0.074   3.351  -1.402  0.00  0.00     0.105 A 
ATOM      4  C   UNL d   1      -1.646   2.823   0.377  0.00  0.00     0.105 A 
ATOM      5  C   UNL d   1       0.611   2.168  -1.097  0.00  0.00     0.057 A 
ATOM      6  C   UNL d   1      -0.933   1.652   0.678  0.00  0.00     0.057 A 
ENDROOT
BRANCH   1   7
ATOM      7  C   UNL d   1       0.966   0.055   0.118  0.00  0.00     0.256 C 
ATOM      8  N   UNL d   1       0.906  -0.568   1.351  0.00  0.00    -0.323 N 
ATOM      9  H   UNL d   1       0.326  -0.156   2.069  0.00  0.00     0.169 HD
ATOM     10  O   UNL d   1       1.589  -0.357  -0.859  0.00  0.00    -0.267 OA
BRANCH   8  11
ATOM     11  C   UNL d   1       1.508  -1.810   1.670  0.00  0.00     0.036 A 
ATOM     12  C   UNL d   1       2.473  -2.430   0.868  0.00  0.00     0.055 A 
ATOM     13  C   UNL d   1       2.963  -3.703   1.183  0.00  0.00     0.058 A 
ATOM     14 CL   UNL d   1       4.138  -4.398   0.123  0.00  0.00    -0.082 Cl
ATOM     15  C   UNL d   1       2.494  -4.367   2.317  0.00  0.00     0.055 A 
ATOM     16  C   UNL d   1       1.568  -3.735   3.151  0.00  0.00     0.028 A 
ATOM     17 CL   UNL d   1       3.006  -5.961   2.739  0.00  0.00    -0.083 Cl
ATOM     18  C   UNL d   1       1.088  -2.458   2.837  0.00  0.00     0.031 A 
ENDBRANCH   8  11
ENDBRANCH   1   7
BRANCH   3  19
ATOM     19  O   UNL d   1       0.326   4.179  -2.419  0.00  0.00    -0.353 OA
ATOM     20  C   UNL d   1       1.488   3.834  -3.166  0.00  0.00     0.210 C 
ENDBRANCH   3  19
BRANCH   4  21
ATOM     21  O   UNL d   1      -2.735   3.009   1.198  0.00  0.00    -0.353 OA
ATOM     22  C   UNL d   1      -3.902   3.539   0.573  0.00  0.00     0.210 C 
ENDBRANCH   4  21
BRANCH   2  23
ATOM     23  O   UNL d   1      -1.954   4.847  -0.777  0.00  0.00    -0.351 OA
ATOM     24  C   UNL d   1      -1.659   5.781  -1.804  0.00  0.00     0.210 C 
ENDBRANCH   2  23
TORSDOF 5
