REMARK  3 active torsions:
REMARK  status: ('A' for Active; 'I' for Inactive)
REMARK    1  A    between atoms: N_2  and  S_1 
REMARK    2  A    between atoms: C_4  and  S_1 
REMARK    3  A    between atoms: N_13  and  C_7 
ROOT
ATOM      1  C   UNL d   1       0.454   1.697   0.158  0.00  0.00     0.086 A 
ATOM      2  C   UNL d   1      -0.936   1.947   0.184  0.00  0.00     0.034 A 
ATOM      3  C   UNL d   1       1.358   2.776   0.167  0.00  0.00    -0.037 A 
ATOM      4  C   UNL d   1      -0.556   4.319   0.237  0.00  0.00     0.040 A 
ATOM      5  C   UNL d   1      -1.454   3.251   0.207  0.00  0.00    -0.039 A 
ATOM      6  C   UNL d   1       0.822   4.082   0.227  0.00  0.00     0.032 A 
ATOM      7 CL   UNL d   1      -1.095   5.960   0.266  0.00  0.00    -0.084 Cl
ATOM      8  C   UNL d   1       2.858   2.701   0.130  0.00  0.00     0.050 C 
ATOM      9  C   UNL d   1      -2.941   3.463   0.143  0.00  0.00     0.050 C 
ENDROOT
BRANCH   1  10
ATOM     10  S   UNL d   1       0.932  -0.036  -0.001  0.00  0.00     0.264 S 
ATOM     11  O   UNL d   1      -0.216  -0.725  -0.572  0.00  0.00    -0.200 OA
ATOM     12  O   UNL d   1       2.196  -0.110  -0.701  0.00  0.00    -0.200 OA
BRANCH  10  13
ATOM     13  N   UNL d   1       1.118  -0.543   1.534  0.00  0.00    -0.277 N 
ATOM     14  C   UNL d   1       1.417  -1.792   1.663  0.00  0.00     0.188 C 
ATOM     15  HN  UNL d   1       1.007   0.079   2.334  1.00  0.00     0.179 HD
BRANCH  14  16
ATOM     16  N   UNL d   1       1.598  -2.491   2.837  0.00  0.00    -0.385 N 
ATOM     17  C   UNL d   1       1.412  -1.882   4.144  0.00  0.00     0.149 C 
ATOM     18  C   UNL d   1       2.000  -3.890   2.845  0.00  0.00     0.149 C 
ENDBRANCH  14  16
ENDBRANCH  10  13
ENDBRANCH   1  10
TORSDOF 3
