REMARK  4 active torsions:
REMARK  status: ('A' for Active; 'I' for Inactive)
REMARK    1  A    between atoms: C_2  and  C_1 
REMARK    2  A    between atoms: C_3  and  O_14 
REMARK    3  A    between atoms: O_14  and  C_18 
REMARK    4  A    between atoms: C_18  and  C_15 
ROOT
ATOM      1  C   UNL d   1       0.743  -1.457  -0.008  0.00  0.00     0.047 A 
ATOM      2  C   UNL d   1       0.409  -2.165   1.155  0.00  0.00     0.017 A 
ATOM      3  C   UNL d   1       0.566  -2.080  -1.252  0.00  0.00     0.017 A 
ATOM      4  C   UNL d   1      -0.284  -4.082  -0.169  0.00  0.00    -0.034 A 
ATOM      5  C   UNL d   1       0.063  -3.381  -1.332  0.00  0.00     0.010 A 
ATOM      6  C   UNL d   1      -0.094  -3.467   1.075  0.00  0.00     0.010 A 
ENDROOT
BRANCH   4   7
ATOM      7  C   UNL d   1      -0.825  -5.488  -0.257  0.00  0.00     0.214 C 
BRANCH   7   8
ATOM      8  O   UNL d   1       0.273  -6.398  -0.216  0.00  0.00    -0.347 OA
BRANCH   8   9
ATOM      9  C   UNL d   1      -0.013  -7.730  -0.345  0.00  0.00     0.072 A 
ATOM     10  C   UNL d   1      -1.286  -8.288  -0.464  0.00  0.00     0.060 A 
ATOM     11  C   UNL d   1      -1.429  -9.672  -0.595  0.00  0.00     0.038 A 
ATOM     12 CL   UNL d   1      -3.004 -10.351  -0.747  0.00  0.00    -0.084 Cl
ATOM     13  C   UNL d   1      -0.317 -10.509  -0.607  0.00  0.00     0.048 A 
ATOM     14  C   UNL d   1       0.950  -9.948  -0.484  0.00  0.00     0.038 A 
ATOM     15  C   UNL d   1       1.105  -8.568  -0.352  0.00  0.00     0.060 A 
ATOM     16 CL   UNL d   1       2.337 -10.967  -0.496  0.00  0.00    -0.084 Cl
ENDBRANCH   8   9
ENDBRANCH   7   8
ENDBRANCH   4   7
BRANCH   1  17
ATOM     17  C   UNL d   1       1.287  -0.052   0.059  0.00  0.00     0.417 C 
ATOM     18  F   UNL d   1       1.413   0.426   1.329  0.00  0.00    -0.166 F 
ATOM     19  F   UNL d   1       0.499   0.844  -0.598  0.00  0.00    -0.166 F 
ATOM     20  F   UNL d   1       2.523   0.057  -0.503  0.00  0.00    -0.166 F 
ENDBRANCH   1  17
TORSDOF 4
