REMARK  2 active torsions:
REMARK  status: ('A' for Active; 'I' for Inactive)
REMARK    1  A    between atoms: C_8  and  N_1 
REMARK    2  A    between atoms: C_2  and  C_7 
ROOT
ATOM      1  C   UNL d   1       0.027  -3.454  -1.124  0.00  0.00    -0.004 A 
ATOM      2  C   UNL d   1       0.309  -1.094  -0.622  0.00  0.00     0.103 A 
ATOM      3  C   UNL d   1       0.749  -2.422  -0.512  0.00  0.00     0.050 A 
ATOM      4  C   UNL d   1      -1.109  -3.119  -1.882  0.00  0.00     0.014 A 
ATOM      5  C   UNL d   1      -0.831  -0.773  -1.367  0.00  0.00     0.036 A 
ATOM      6  C   UNL d   1      -1.535  -1.792  -2.006  0.00  0.00     0.003 A 
ENDROOT
BRANCH   1   7
ATOM      7  C   UNL d   1       0.450  -4.857  -1.022  0.00  0.00     0.077 A 
ATOM      8  C   UNL d   1       1.072  -5.566   0.043  0.00  0.00     0.056 A 
ATOM      9  C   UNL d   1       1.267  -6.847  -0.403  0.00  0.00     0.128 A 
ATOM     10 BR   UNL d   1       1.514  -4.957   1.759  0.00  0.00    -0.047 Br
ATOM     11  N   UNL d   1       0.748  -6.872  -1.659  0.00  0.00    -0.310 N 
ATOM     12  N   UNL d   1       0.243  -5.694  -2.058  0.00  0.00    -0.299 N 
ATOM     13  H   UNL d   1       0.697  -7.657  -2.300  0.00  0.00     0.186 HD
ATOM     14  HN  UNL d   1      -0.200  -5.480  -2.951  1.00  0.00     0.187 HD
ENDBRANCH   1   7
BRANCH   2  15
ATOM     15  N   UNL d   1       1.058  -0.028   0.056  0.00  0.00    -0.116 N 
ATOM     16  O   UNL d   1       2.048  -0.353   0.726  0.00  0.00    -0.532 OA
ATOM     17  O   UNL d   1       0.652   1.137  -0.077  0.00  0.00    -0.532 OA
ENDBRANCH   2  15
TORSDOF 2
