REMARK  4 active torsions:
REMARK  status: ('A' for Active; 'I' for Inactive)
REMARK    1  A    between atoms: C_6  and  C_1 
REMARK    2  A    between atoms: S_8  and  C_3 
REMARK    3  A    between atoms: C_7  and  C_5 
REMARK    4  A    between atoms: O_11  and  C_6 
ROOT
ATOM      1  C   UNL d   1      -0.710   1.247  -0.098  0.00  0.00     0.086 A 
ATOM      2  S   UNL d   1      -1.215  -0.385  -0.080  0.00  0.00    -0.075 SA
ATOM      3  C   UNL d   1       0.380  -0.995   0.041  0.00  0.00     0.052 A 
ATOM      4  C   UNL d   1       0.680   1.340  -0.066  0.00  0.00    -0.026 A 
ATOM      5  C   UNL d   1       1.322   0.021  -0.021  0.00  0.00    -0.006 A 
ATOM      6  C   UNL d   1       1.450   2.636  -0.044  0.00  0.00     0.050 C 
ENDROOT
BRANCH   1   7
ATOM      7  C   UNL d   1      -1.702   2.321  -0.139  0.00  0.00     0.183 C 
ATOM      8  O   UNL d   1      -1.469   3.521  -0.216  0.00  0.00    -0.646 OA
BRANCH   7   9
ATOM      9  O   UNL d   1      -2.985   1.874  -0.072  0.00  0.00    -0.772 OA
ATOM     10  H   UNL d   1      -3.022   0.901  -0.001  0.00  0.00     0.167 HD
ENDBRANCH   7   9
ENDBRANCH   1   7
BRANCH   3  11
ATOM     11  S   UNL d   1       0.550  -2.734   0.299  0.00  0.00    -0.126 SA
ATOM     12  C   UNL d   1       0.937  -3.319  -1.364  0.00  0.00     0.096 C 
ENDBRANCH   3  11
BRANCH   5  13
ATOM     13  C   UNL d   1       2.765  -0.094  -0.010  0.00  0.00     0.003 C 
ATOM     14  C   UNL d   1       3.558  -1.166   0.093  0.00  0.00     0.012 C 
ENDBRANCH   5  13
TORSDOF 4
