REMARK  5 active torsions:
REMARK  status: ('A' for Active; 'I' for Inactive)
REMARK    1  A    between atoms: C_8  and  N_1 
REMARK    2  A    between atoms: C_12  and  C_6 
REMARK    3  A    between atoms: C_13  and  C_7 
REMARK    4  A    between atoms: C_10  and  C_8 
REMARK    5  A    between atoms: O_14  and  C_10 
ROOT
ATOM      1  N   UNL d   1      -1.297   1.512   0.113  0.00  0.00    -0.327 N 
ATOM      2  C   UNL d   1      -2.361   0.781  -0.434  0.00  0.00     0.111 C 
ATOM      3  C   UNL d   1      -0.105  -0.636   0.064  0.00  0.00     0.103 A 
ATOM      4  O   UNL d   1      -1.296  -1.330  -0.071  0.00  0.00    -0.336 OA
ATOM      5  C   UNL d   1      -0.069   0.780   0.195  0.00  0.00     0.070 A 
ATOM      6  C   UNL d   1      -2.464  -0.564   0.291  0.00  0.00     0.194 C 
ATOM      7  C   UNL d   1       1.089  -1.388   0.021  0.00  0.00    -0.019 A 
ATOM      8  S   UNL d   1      -3.219   1.268  -1.793  0.00  0.00    -0.062 SA
ATOM      9  C   UNL d   1       1.170   1.423   0.284  0.00  0.00     0.033 A 
ATOM     10  C   UNL d   1       2.312  -0.697   0.083  0.00  0.00     0.010 A 
ATOM     11  C   UNL d   1       2.352   0.689   0.213  0.00  0.00     0.003 A 
ENDROOT
BRANCH   1  12
ATOM     12  C   UNL d   1      -1.390   2.961   0.291  0.00  0.00     0.240 C 
BRANCH  12  13
ATOM     13  C   UNL d   1      -2.545   3.313   1.244  0.00  0.00     0.158 C 
ATOM     14  O   UNL d   1      -3.304   2.515   1.771  0.00  0.00    -0.649 OA
BRANCH  13  15
ATOM     15  O   UNL d   1      -2.643   4.649   1.481  0.00  0.00    -0.775 OA
ATOM     16  H   UNL d   1      -1.989   5.197   1.011  0.00  0.00     0.167 HD
ENDBRANCH  13  15
ENDBRANCH  12  13
ENDBRANCH   1  12
BRANCH   6  17
ATOM     17  C   UNL d   1      -3.752  -1.397   0.096  0.00  0.00     0.014 C 
ATOM     18  C   UNL d   1      -3.675  -2.711   0.887  0.00  0.00     0.012 C 
ATOM     19  C   UNL d   1      -5.007  -0.645   0.566  0.00  0.00     0.012 C 
ENDBRANCH   6  17
BRANCH   7  20
ATOM     20  C   UNL d   1       1.147  -2.908  -0.059  0.00  0.00     0.013 C 
ATOM     21  C   UNL d   1       0.527  -3.573   1.172  0.00  0.00     0.015 C 
ATOM     22  C   UNL d   1       0.574  -3.472  -1.359  0.00  0.00     0.015 C 
ENDBRANCH   7  20
TORSDOF 5
