REMARK  7 active torsions:
REMARK  status: ('A' for Active; 'I' for Inactive)
REMARK    1  A    between atoms: N_13  and  C_3 
REMARK    2  A    between atoms: C_7  and  C_4 
REMARK    3  A    between atoms: C_5  and  C_8 
REMARK    4  A    between atoms: C_11  and  C_6 
REMARK       I    between atoms: C_8  and  N_16 
REMARK    5  A    between atoms: O_25  and  C_11 
REMARK    6  A    between atoms: N_16  and  N_13 
REMARK    7  A    between atoms: C_26  and  O_25 
ROOT
ATOM      1  N   UNL d   1       1.317   0.367   0.018  0.00  0.00    -0.327 N 
ATOM      2  HN  UNL d   1       2.235   0.806   0.099  1.00  0.00     0.168 HD
ATOM      3  C   UNL d   1       1.206  -0.985  -0.054  0.00  0.00     0.117 A 
ATOM      4  C   UNL d   1       0.196   1.128  -0.018  0.00  0.00     0.191 A 
ATOM      5  C   UNL d   1      -0.038  -1.601  -0.116  0.00  0.00     0.094 A 
ATOM      6  N   UNL d   1      -1.044   0.597  -0.089  0.00  0.00    -0.347 N 
ATOM      7  HN  UNL d   1      -1.877   1.185  -0.114  1.00  0.00     0.166 HD
ATOM      8  C   UNL d   1      -1.128  -0.749  -0.126  0.00  0.00     0.110 A 
ENDROOT
BRANCH   3   9
ATOM      9  N   UNL d   1       2.405  -1.741  -0.002  0.00  0.00    -0.186 NA
ATOM     10  H   UNL d   1       2.506  -2.322  -0.845  0.00  0.00     0.154 HD
BRANCH   9  11
ATOM     11  N   UNL d   1       3.548  -0.972   0.257  0.00  0.00    -0.280 N 
ATOM     12  C   UNL d   1       4.673  -1.109  -0.538  0.00  0.00     0.292 C 
ATOM     13  O   UNL d   1       4.660  -1.768  -1.575  0.00  0.00    -0.264 OA
ATOM     14  H   UNL d   1       3.561  -0.450   1.129  0.00  0.00     0.184 HD
BRANCH  12  15
ATOM     15  C   UNL d   1       5.840  -0.438  -0.018  0.00  0.00     0.168 A 
ATOM     16  O   UNL d   1       5.753   0.209   1.183  0.00  0.00    -0.233 OA
ATOM     17  N   UNL d   1       6.984   0.742   1.518  0.00  0.00    -0.272 N 
ATOM     18  C   UNL d   1       7.796   0.414   0.511  0.00  0.00     0.117 A 
ATOM     19  HN  UNL d   1       7.221   1.273   2.356  1.00  0.00     0.194 HD
ATOM     20  C   UNL d   1       7.131  -0.326  -0.481  0.00  0.00     0.064 A 
ENDBRANCH  12  15
ENDBRANCH   9  11
ENDBRANCH   3   9
BRANCH   5  21
ATOM     21  C   UNL d   1      -0.335  -3.046  -0.048  0.00  0.00     0.298 C 
ATOM     22  O   UNL d   1      -1.481  -3.472  -0.032  0.00  0.00    -0.259 OA
BRANCH  21  23
ATOM     23  O   UNL d   1       0.780  -3.796   0.087  0.00  0.00    -0.318 OA
BRANCH  23  24
ATOM     24  C   UNL d   1       0.580  -5.133   0.574  0.00  0.00     0.174 C 
ATOM     25  C   UNL d   1       0.678  -5.110   2.089  0.00  0.00     0.034 C 
ENDBRANCH  23  24
ENDBRANCH  21  23
ENDBRANCH   5  21
BRANCH   4  26
ATOM     26  C   UNL d   1       0.331   2.656   0.039  0.00  0.00     0.449 C 
ATOM     27  F   UNL d   1       1.626   3.095   0.017  0.00  0.00    -0.163 F 
ATOM     28  F   UNL d   1      -0.281   3.286  -1.008  0.00  0.00    -0.163 F 
ATOM     29  F   UNL d   1      -0.215   3.197   1.169  0.00  0.00    -0.163 F 
ENDBRANCH   4  26
TORSDOF 7
