REMARK  2 active torsions:
REMARK  status: ('A' for Active; 'I' for Inactive)
REMARK    1  A    between atoms: S_6  and  C_2 
REMARK    2  A    between atoms: C_9  and  C_3 
ROOT
ATOM      1  C   UNL d   1      -0.745   0.028  -0.006  0.00  0.00     0.082 A 
ATOM      2  C   UNL d   1       0.169   1.068  -0.007  0.00  0.00     0.093 A 
ATOM      3  C   UNL d   1      -0.092  -1.270   0.013  0.00  0.00     0.003 A 
ATOM      4  S   UNL d   1       1.780   0.510  -0.045  0.00  0.00    -0.090 SA
ATOM      5  C   UNL d   1       1.285  -1.120   0.004  0.00  0.00     0.065 A 
ATOM      6  C   UNL d   1      -2.172   0.198  -0.046  0.00  0.00     0.102 C 
ATOM      7  N   UNL d   1      -3.334   0.239  -0.060  0.00  0.00    -0.191 NA
ENDROOT
BRANCH   2   8
ATOM      8  S   UNL d   1      -0.193   2.781  -0.070  0.00  0.00     0.054 S 
ATOM      9  O   UNL d   1      -1.659   2.955   0.171  0.00  0.00    -0.253 OA
ATOM     10  C   UNL d   1       0.700   3.347   1.394  0.00  0.00     0.133 C 
ENDBRANCH   2   8
BRANCH   3  11
ATOM     11  C   UNL d   1      -0.698  -2.614   0.035  0.00  0.00    -0.024 A 
ATOM     12  C   UNL d   1      -0.113  -3.683  -0.665  0.00  0.00     0.014 A 
ATOM     13  C   UNL d   1      -0.681  -4.963  -0.633  0.00  0.00     0.024 A 
ATOM     14  C   UNL d   1      -1.853  -5.183   0.084  0.00  0.00     0.034 A 
ATOM     15  C   UNL d   1      -2.454  -4.138   0.775  0.00  0.00     0.024 A 
ATOM     16 CL   UNL d   1      -2.555  -6.753   0.122  0.00  0.00    -0.084 Cl
ATOM     17  C   UNL d   1      -1.871  -2.865   0.762  0.00  0.00     0.014 A 
ENDBRANCH   3  11
TORSDOF 2
