REMARK  4 active torsions:
REMARK  status: ('A' for Active; 'I' for Inactive)
REMARK    1  A    between atoms: N_3  and  C_1 
REMARK    2  A    between atoms: O_11  and  C_8 
REMARK    3  A    between atoms: C_20  and  O_11 
REMARK    4  A    between atoms: C_16  and  C_17 
ROOT
ATOM      1  C   UNL d   1      -1.774  -1.881  -1.153  0.00  0.00     0.137 A 
ATOM      2  N   UNL d   1      -2.754  -3.702  -5.227  0.00  0.00    -0.289 N 
ATOM      3  C   UNL d   1      -3.823  -3.480  -4.422  0.00  0.00     0.259 A 
ATOM      4  C   UNL d   1      -1.581  -3.334  -4.644  0.00  0.00     0.259 A 
ATOM      5  C   UNL d   1      -1.915  -2.821  -3.316  0.00  0.00     0.050 A 
ATOM      6  C   UNL d   1      -3.289  -2.921  -3.180  0.00  0.00     0.051 A 
ATOM      7  C   UNL d   1      -3.185  -1.919  -1.025  0.00  0.00     0.110 A 
ATOM      8  C   UNL d   1      -1.114  -2.322  -2.314  0.00  0.00     0.057 A 
ATOM      9  C   UNL d   1      -3.951  -2.503  -2.044  0.00  0.00     0.058 A 
ATOM     10  O   UNL d   1      -0.462  -3.392  -5.105  0.00  0.00    -0.267 OA
ATOM     11  O   UNL d   1      -4.998  -3.672  -4.652  0.00  0.00    -0.267 OA
ATOM     12  H   UNL d   1      -2.825  -4.076  -6.161  0.00  0.00     0.172 HD
ENDROOT
BRANCH   7  13
ATOM     13  O   UNL d   1      -3.776  -1.389   0.106  0.00  0.00    -0.308 OA
BRANCH  13  14
ATOM     14  C   UNL d   1      -4.994  -0.747  -0.026  0.00  0.00     0.076 A 
ATOM     15  C   UNL d   1      -5.915  -0.921   1.004  0.00  0.00     0.038 A 
ATOM     16  C   UNL d   1      -7.166  -0.288   0.943  0.00  0.00     0.011 A 
ATOM     17  C   UNL d   1      -7.525   0.538  -0.140  0.00  0.00    -0.050 A 
ATOM     18  C   UNL d   1      -6.576   0.693  -1.166  0.00  0.00     0.011 A 
ATOM     19  C   UNL d   1      -5.317   0.084  -1.096  0.00  0.00     0.038 A 
BRANCH  17  20
ATOM     20  C   UNL d   1      -8.871   1.289  -0.148  0.00  0.00    -0.024 C 
ATOM     21  C   UNL d   1      -9.087   2.162  -1.407  0.00  0.00     0.019 C 
ATOM     22  C   UNL d   1     -10.053   0.299  -0.075  0.00  0.00     0.019 C 
ATOM     23  C   UNL d   1      -8.930   2.233   1.072  0.00  0.00     0.019 C 
ENDBRANCH  17  20
ENDBRANCH  13  14
ENDBRANCH   7  13
BRANCH   1  24
ATOM     24  N   UNL d   1      -0.956  -1.401  -0.056  0.00  0.00    -0.113 N 
ATOM     25  O   UNL d   1      -1.065  -1.982   1.030  0.00  0.00    -0.532 OA
ATOM     26  O   UNL d   1      -0.158  -0.488  -0.312  0.00  0.00    -0.532 OA
ENDBRANCH   1  24
TORSDOF 4
