REMARK  5 active torsions:
REMARK  status: ('A' for Active; 'I' for Inactive)
REMARK    1  A    between atoms: C_7  and  C_3 
REMARK    2  A    between atoms: C_16  and  N_4 
REMARK       I    between atoms: N_10  and  C_7 
REMARK    3  A    between atoms: C_8  and  N_10 
REMARK    4  A    between atoms: C_9  and  C_13 
REMARK    5  A    between atoms: N_12  and  C_11 
ROOT
ATOM      1  C   UNL d   1      -0.463  -4.630  -0.583  0.00  0.00     0.274 C 
ATOM      2  N   UNL d   1       0.157  -3.423  -0.323  0.00  0.00    -0.320 N 
ATOM      3  O   UNL d   1       0.112  -5.719  -0.631  0.00  0.00    -0.266 OA
ATOM      4  H   UNL d   1      -0.452  -2.653  -0.058  0.00  0.00     0.169 HD
ENDROOT
BRANCH   2   5
ATOM      5  C   UNL d   1       1.525  -3.288   0.009  0.00  0.00     0.062 A 
ATOM      6  C   UNL d   1       1.902  -2.313   0.969  0.00  0.00     0.057 A 
ATOM      7  C   UNL d   1       3.277  -2.123   1.181  0.00  0.00     0.032 A 
ATOM      8  C   UNL d   1       4.238  -2.881   0.495  0.00  0.00     0.018 A 
ATOM      9  C   UNL d   1       3.852  -3.862  -0.425  0.00  0.00     0.050 A 
ATOM     10  C   UNL d   1       2.488  -4.058  -0.658  0.00  0.00     0.048 A 
BRANCH   6  11
ATOM     11  N   UNL d   1       0.927  -1.590   1.663  0.00  0.00    -0.375 N 
ATOM     12  C   UNL d   1       1.258  -0.301   2.304  0.00  0.00     0.149 C 
ATOM     13  C   UNL d   1      -0.057   0.475   2.514  0.00  0.00     0.187 C 
ATOM     14  O   UNL d   1      -1.007  -0.274   3.298  0.00  0.00    -0.388 OA
ATOM     15  C   UNL d   1      -1.281  -1.549   2.687  0.00  0.00     0.187 C 
ATOM     16  C   UNL d   1       0.010  -2.370   2.532  0.00  0.00     0.149 C 
ENDBRANCH   6  11
BRANCH   9  17
ATOM     17  C   UNL d   1       4.885  -4.670  -1.170  0.00  0.00     0.417 C 
ATOM     18  F   UNL d   1       4.357  -5.617  -1.994  0.00  0.00    -0.166 F 
ATOM     19  F   UNL d   1       5.679  -3.893  -1.960  0.00  0.00    -0.166 F 
ATOM     20  F   UNL d   1       5.730  -5.333  -0.334  0.00  0.00    -0.166 F 
ENDBRANCH   9  17
ENDBRANCH   2   5
BRANCH   1  21
ATOM     21  C   UNL d   1      -1.927  -4.552  -0.675  0.00  0.00     0.118 A 
ATOM     22  N   UNL d   1      -2.616  -3.419  -0.902  0.00  0.00    -0.288 N 
ATOM     23  N   UNL d   1      -3.934  -3.788  -0.882  0.00  0.00    -0.261 N 
ATOM     24  HN  UNL d   1      -2.237  -2.485  -1.056  1.00  0.00     0.188 HD
ATOM     25  C   UNL d   1      -4.078  -5.152  -0.666  0.00  0.00     0.033 A 
ATOM     26  C   UNL d   1      -5.341  -5.929  -0.702  0.00  0.00     0.070 C 
ATOM     27  C   UNL d   1      -2.802  -5.649  -0.522  0.00  0.00     0.063 A 
BRANCH  23  28
ATOM     28  C   UNL d   1      -4.943  -2.801  -1.063  0.00  0.00     0.056 A 
ATOM     29  C   UNL d   1      -4.690  -1.700  -1.894  0.00  0.00     0.031 A 
ATOM     30  C   UNL d   1      -5.689  -0.747  -2.116  0.00  0.00     0.002 A 
ATOM     31  C   UNL d   1      -6.926  -0.867  -1.484  0.00  0.00     0.000 A 
ATOM     32  C   UNL d   1      -7.168  -1.938  -0.627  0.00  0.00     0.002 A 
ATOM     33  C   UNL d   1      -6.183  -2.906  -0.417  0.00  0.00     0.031 A 
ENDBRANCH  23  28
ENDBRANCH   1  21
TORSDOF 5
