REMARK  5 active torsions:
REMARK  status: ('A' for Active; 'I' for Inactive)
REMARK    1  A    between atoms: O_15  and  C_10 
REMARK    2  A    between atoms: C_11  and  C_16 
REMARK    3  A    between atoms: N_17  and  C_11 
REMARK    4  A    between atoms: O_18  and  N_13 
REMARK    5  A    between atoms: C_16  and  O_15 
ROOT
ATOM      1  C   UNL d   1     -11.870  -2.428  -0.044  0.00  0.00     0.087 A 
ATOM      2  C   UNL d   1     -12.309  -1.041  -0.047  0.00  0.00     0.085 A 
ATOM      3  C   UNL d   1     -10.511  -2.786  -0.029  0.00  0.00     0.070 A 
ATOM      4  O   UNL d   1     -14.040  -2.352  -0.064  0.00  0.00    -0.156 OA
ATOM      5  N   UNL d   1     -12.954  -3.212  -0.058  0.00  0.00    -0.239 N 
ATOM      6  HN  UNL d   1     -12.977  -4.232  -0.063  1.00  0.00     0.197 HD
ATOM      7  N   UNL d   1     -13.648  -1.023  -0.059  0.00  0.00    -0.240 N 
ATOM      8  HN  UNL d   1     -14.253  -0.202  -0.063  1.00  0.00     0.197 HD
ATOM      9  C   UNL d   1     -11.402   0.033  -0.041  0.00  0.00     0.036 A 
ATOM     10  C   UNL d   1      -9.612  -1.702   0.003  0.00  0.00     0.071 A 
ATOM     11  C   UNL d   1     -10.042  -0.345  -0.025  0.00  0.00     0.039 A 
ENDROOT
BRANCH  10  12
ATOM     12  O   UNL d   1      -8.292  -2.081   0.028  0.00  0.00    -0.344 OA
BRANCH  12  13
ATOM     13  C   UNL d   1      -7.392  -1.170   0.656  0.00  0.00     0.247 C 
BRANCH  13  14
ATOM     14  C   UNL d   1      -6.195  -1.931   1.240  0.00  0.00     0.099 C 
ATOM     15  N   UNL d   1      -5.216  -1.226   1.724  0.00  0.00    -0.260 N 
ATOM     16  HN  UNL d   1      -5.186  -0.207   1.738  1.00  0.00     0.195 HD
BRANCH  15  17
ATOM     17  O   UNL d   1      -4.204  -2.062   2.226  0.00  0.00    -0.289 OA
ATOM     18  H   UNL d   1      -3.606  -1.424   2.658  0.00  0.00     0.244 HD
ENDBRANCH  15  17
BRANCH  14  19
ATOM     19  N   UNL d   1      -6.219  -3.307   1.234  0.00  0.00    -0.289 NA
ATOM     20  H   UNL d   1      -6.782  -3.732   0.506  0.00  0.00     0.125 HD
ATOM     21  H   UNL d   1      -5.297  -3.709   1.366  0.00  0.00     0.125 HD
ENDBRANCH  14  19
ENDBRANCH  13  14
ENDBRANCH  12  13
ENDBRANCH  10  12
TORSDOF 5
