REMARK  3 active torsions:
REMARK  status: ('A' for Active; 'I' for Inactive)
REMARK    1  A    between atoms: C_2  and  N_1 
REMARK    2  A    between atoms: S_4  and  C_3 
REMARK    3  A    between atoms: C_16  and  S_4 
ROOT
ATOM      1  N   UNL d   1       1.898  -0.055   0.148  0.00  0.00    -0.242 N 
ATOM      2  C   UNL d   1       1.104  -1.173   0.227  0.00  0.00     0.266 C 
ATOM      3  C   UNL d   1       1.180   1.102   0.318  0.00  0.00     0.266 C 
ATOM      4  C   UNL d   1      -0.227   0.699   0.305  0.00  0.00     0.048 A 
ATOM      5  C   UNL d   1      -0.272  -0.684   0.259  0.00  0.00     0.048 A 
ATOM      6  O   UNL d   1       1.546   2.257   0.432  0.00  0.00    -0.267 OA
ATOM      7  O   UNL d   1       1.409  -2.347   0.331  0.00  0.00    -0.267 OA
ATOM      8  C   UNL d   1      -1.373   1.466   0.254  0.00  0.00     0.018 A 
ATOM      9  C   UNL d   1      -1.462  -1.379   0.184  0.00  0.00     0.018 A 
ATOM     10  C   UNL d   1      -2.591   0.787   0.146  0.00  0.00     0.001 A 
ATOM     11  C   UNL d   1      -2.636  -0.623   0.117  0.00  0.00     0.001 A 
ENDROOT
BRANCH   1  12
ATOM     12  C   UNL d   1       3.269  -0.098  -0.071  0.00  0.00     0.074 A 
ATOM     13  C   UNL d   1       3.959  -0.744  -1.157  0.00  0.00     0.093 A 
ATOM     14  C   UNL d   1       5.331  -0.603  -1.058  0.00  0.00     0.075 A 
ATOM     15  S   UNL d   1       5.792   0.317   0.303  0.00  0.00    -0.110 SA
ATOM     16  C   UNL d   1       4.162   0.580   0.740  0.00  0.00     0.081 A 
BRANCH  13  17
ATOM     17  S   UNL d   1       3.241  -1.418  -2.600  0.00  0.00     0.181 S 
ATOM     18  O   UNL d   1       1.807  -1.348  -2.432  0.00  0.00    -0.222 OA
ATOM     19  O   UNL d   1       3.899  -0.668  -3.655  0.00  0.00    -0.222 OA
BRANCH  17  20
ATOM     20  C   UNL d   1       3.796  -3.120  -2.697  0.00  0.00     0.105 C 
ATOM     21  C   UNL d   1       3.326  -3.969  -1.527  0.00  0.00     0.026 C 
ATOM     22  C   UNL d   1       3.335  -3.737  -4.017  0.00  0.00     0.026 C 
ENDBRANCH  17  20
ENDBRANCH  13  17
ENDBRANCH   1  12
TORSDOF 3
