REMARK  4 active torsions:
REMARK  status: ('A' for Active; 'I' for Inactive)
REMARK    1  A    between atoms: C_6  and  C_1 
REMARK    2  A    between atoms: S_13  and  C_3 
REMARK       I    between atoms: N_8  and  C_6 
REMARK       I    between atoms: C_7  and  N_9 
REMARK       I    between atoms: N_10  and  C_7 
REMARK    3  A    between atoms: N_9  and  N_8 
REMARK    4  A    between atoms: C_17  and  N_10 
ROOT
ATOM      1  C   UNL d   1      -2.518  -2.059   0.303  0.00  0.00     0.277 C 
ATOM      2  N   UNL d   1      -2.039  -3.265   0.791  0.00  0.00    -0.261 N 
ATOM      3  O   UNL d   1      -3.720  -1.922   0.065  0.00  0.00    -0.265 OA
ATOM      4  H   UNL d   1      -1.041  -3.465   0.835  0.00  0.00     0.190 HD
ENDROOT
BRANCH   2   5
ATOM      5  N   UNL d   1      -2.905  -4.377   0.863  0.00  0.00    -0.248 N 
ATOM      6  C   UNL d   1      -2.318  -5.624   0.662  0.00  0.00     0.339 C 
ATOM      7  N   UNL d   1      -3.262  -6.628   0.604  0.00  0.00    -0.308 N 
ATOM      8  O   UNL d   1      -1.101  -5.741   0.571  0.00  0.00    -0.245 OA
ATOM      9  H   UNL d   1      -4.217  -6.347   0.766  0.00  0.00     0.170 HD
ATOM     10  H   UNL d   1      -3.834  -4.202   0.489  0.00  0.00     0.192 HD
BRANCH   7  11
ATOM     11  C   UNL d   1      -3.045  -7.998   0.347  0.00  0.00     0.036 A 
ATOM     12  C   UNL d   1      -1.782  -8.570   0.178  0.00  0.00     0.029 A 
ATOM     13  C   UNL d   1      -1.651  -9.930  -0.122  0.00  0.00     0.002 A 
ATOM     14  C   UNL d   1      -2.782 -10.732  -0.256  0.00  0.00     0.000 A 
ATOM     15  C   UNL d   1      -4.046 -10.177  -0.070  0.00  0.00     0.002 A 
ATOM     16  C   UNL d   1      -4.175  -8.820   0.237  0.00  0.00     0.029 A 
ENDBRANCH   7  11
ENDBRANCH   2   5
BRANCH   1  17
ATOM     17  C   UNL d   1      -1.523  -1.005   0.104  0.00  0.00     0.082 A 
ATOM     18  S   UNL d   1       0.155  -1.333   0.259  0.00  0.00    -0.076 SA
ATOM     19  C   UNL d   1       0.603   0.284  -0.071  0.00  0.00     0.052 A 
ATOM     20  C   UNL d   1      -0.508   1.064  -0.312  0.00  0.00    -0.005 A 
ATOM     21  C   UNL d   1      -1.740   0.331  -0.212  0.00  0.00    -0.023 A 
ATOM     22  C   UNL d   1      -0.514   2.462  -0.608  0.00  0.00     0.010 A 
ATOM     23  C   UNL d   1      -3.080   0.995  -0.398  0.00  0.00     0.045 A 
ATOM     24  C   UNL d   1      -3.018   2.494  -0.762  0.00  0.00     0.032 A 
ATOM     25  C   UNL d   1      -1.656   3.132  -0.824  0.00  0.00    -0.025 A 
BRANCH  19  26
ATOM     26  S   UNL d   1       2.299   0.758  -0.014  0.00  0.00    -0.126 SA
ATOM     27  C   UNL d   1       2.628   1.058  -1.764  0.00  0.00     0.096 C 
ENDBRANCH  19  26
ENDBRANCH   1  17
TORSDOF 4
