REMARK  2 active torsions:
REMARK  status: ('A' for Active; 'I' for Inactive)
REMARK    1  A    between atoms: C_8  and  C_1 
REMARK       I    between atoms: N_5  and  C_6 
REMARK       I    between atoms: C_7  and  N_5 
REMARK    2  A    between atoms: C_6  and  C_8 
REMARK       I    between atoms: N_13  and  C_7 
ROOT
ATOM      1  C   UNL d   1      -1.908  -0.892   0.147  0.00  0.00     0.060 A 
ATOM      2  N   UNL d   1      -0.930  -1.761  -0.013  0.00  0.00    -0.352 N 
ATOM      3  HN  UNL d   1      -1.053  -2.763  -0.158  1.00  0.00     0.166 HD
ATOM      4  S   UNL d   1      -1.412   0.723   0.487  0.00  0.00    -0.074 SA
ATOM      5  C   UNL d   1       0.299  -1.104   0.046  0.00  0.00     0.050 A 
ATOM      6  C   UNL d   1       0.233   0.266   0.306  0.00  0.00     0.033 A 
ATOM      7  C   UNL d   1       1.569  -1.687  -0.149  0.00  0.00     0.031 A 
ATOM      8  C   UNL d   1       1.382   1.072   0.380  0.00  0.00     0.021 A 
ATOM      9  C   UNL d   1       2.625   0.472   0.167  0.00  0.00     0.002 A 
ATOM     10  C   UNL d   1       2.720  -0.891  -0.094  0.00  0.00     0.002 A 
ENDROOT
BRANCH   1  11
ATOM     11  C   UNL d   1      -3.374  -1.155   0.002  0.00  0.00     0.168 C 
BRANCH  11  12
ATOM     12  C   UNL d   1      -3.831  -2.599   0.053  0.00  0.00     0.231 C 
ATOM     13  N   UNL d   1      -2.911  -3.563   0.382  0.00  0.00    -0.284 N 
ATOM     14  C   UNL d   1      -3.241  -4.804   0.855  0.00  0.00     0.298 C 
ATOM     15  H   UNL d   1      -1.937  -3.291   0.464  0.00  0.00     0.173 HD
ATOM     16  O   UNL d   1      -4.337  -5.198   1.220  0.00  0.00    -0.254 OA
ATOM     17  N   UNL d   1      -2.159  -5.629   0.955  0.00  0.00    -0.254 NA
ATOM     18  H   UNL d   1      -1.471  -5.578   0.216  0.00  0.00     0.128 HD
ATOM     19  H   UNL d   1      -2.425  -6.574   1.209  0.00  0.00     0.128 HD
ATOM     20  O   UNL d   1      -5.001  -2.848  -0.250  0.00  0.00    -0.273 OA
ENDBRANCH  11  12
ENDBRANCH   1  11
TORSDOF 2
