REMARK  2 active torsions:
REMARK  status: ('A' for Active; 'I' for Inactive)
REMARK    1  A    between atoms: C_11  and  N_2 
REMARK    2  A    between atoms: C_8  and  C_7 
ROOT
ATOM      1  C   UNL d   1       0.037  -0.780   0.021  0.00  0.00     0.058 A 
ATOM      2  N   UNL d   1      -1.176   1.120  -0.070  0.00  0.00    -0.220 N 
ATOM      3  C   UNL d   1      -1.354  -0.263   0.065  0.00  0.00     0.279 A 
ATOM      4  N   UNL d   1       0.156   1.512  -0.194  0.00  0.00    -0.294 N 
ATOM      5  HN  UNL d   1       0.503   2.464  -0.314  1.00  0.00     0.187 HD
ATOM      6  C   UNL d   1       0.872   0.422  -0.127  0.00  0.00     0.038 A 
ATOM      7  C   UNL d   1       0.300  -2.089   0.127  0.00  0.00     0.032 C 
ATOM      8  O   UNL d   1      -2.352  -0.953   0.188  0.00  0.00    -0.265 OA
ATOM      9  C   UNL d   1       2.363   0.437  -0.175  0.00  0.00     0.071 C 
ENDROOT
BRANCH   7  10
ATOM     10  C   UNL d   1       1.633  -2.692   0.151  0.00  0.00    -0.013 A 
ATOM     11  C   UNL d   1       2.331  -2.918   1.351  0.00  0.00     0.045 A 
ATOM     12  C   UNL d   1       3.617  -3.458   1.333  0.00  0.00     0.048 A 
ATOM     13 CL   UNL d   1       1.639  -2.529   2.888  0.00  0.00    -0.083 Cl
ATOM     14  C   UNL d   1       4.208  -3.784   0.116  0.00  0.00     0.035 A 
ATOM     15  C   UNL d   1       3.522  -3.589  -1.082  0.00  0.00     0.024 A 
ATOM     16 CL   UNL d   1       5.804  -4.426   0.088  0.00  0.00    -0.084 Cl
ATOM     17  C   UNL d   1       2.234  -3.047  -1.065  0.00  0.00     0.015 A 
ENDBRANCH   7  10
BRANCH   2  18
ATOM     18  C   UNL d   1      -2.168   2.129  -0.012  0.00  0.00     0.060 A 
ATOM     19  C   UNL d   1      -3.497   1.840   0.326  0.00  0.00     0.031 A 
ATOM     20  C   UNL d   1      -4.452   2.858   0.420  0.00  0.00     0.002 A 
ATOM     21  C   UNL d   1      -4.097   4.178   0.162  0.00  0.00     0.000 A 
ATOM     22  C   UNL d   1      -2.787   4.484  -0.191  0.00  0.00     0.002 A 
ATOM     23  C   UNL d   1      -1.830   3.467  -0.273  0.00  0.00     0.031 A 
ENDBRANCH   2  18
TORSDOF 2
