REMARK  3 active torsions:
REMARK  status: ('A' for Active; 'I' for Inactive)
REMARK    1  A    between atoms: S_11  and  C_2 
REMARK    2  A    between atoms: S_10  and  C_3 
REMARK    3  A    between atoms: C_12  and  S_10 
ROOT
ATOM      1  N   UNL d   1      -1.115  -6.274  -1.040  0.00  0.00    -0.197 NA
ATOM      2  C   UNL d   1      -1.136  -5.116  -0.953  0.00  0.00     0.069 C 
ATOM      3  C   UNL d   1      -1.177  -3.650  -0.851  0.00  0.00     0.205 C 
ENDROOT
BRANCH   3   4
ATOM      4  S   UNL d   1       0.345  -2.984  -0.109  0.00  0.00    -0.089 SA
BRANCH   4   5
ATOM      5  C   UNL d   1      -0.021  -1.277  -0.115  0.00  0.00     0.130 A 
ATOM      6  S   UNL d   1       1.185  -0.073   0.053  0.00  0.00    -0.038 SA
ATOM      7  C   UNL d   1      -0.070   1.089  -0.059  0.00  0.00     0.128 A 
ATOM      8  N   UNL d   1      -1.273   0.574  -0.206  0.00  0.00    -0.287 N 
ATOM      9  N   UNL d   1      -1.245  -0.809  -0.242  0.00  0.00    -0.287 N 
ATOM     10  HN  UNL d   1      -2.125   1.129  -0.285  1.00  0.00     0.188 HD
ATOM     11  HN  UNL d   1      -2.072  -1.395  -0.354  1.00  0.00     0.188 HD
BRANCH   7  12
ATOM     12  S   UNL d   1       0.241   2.808   0.007  0.00  0.00    -0.108 SA
ATOM     13  C   UNL d   1      -1.438   3.470  -0.016  0.00  0.00     0.097 C 
ENDBRANCH   7  12
ENDBRANCH   4   5
ENDBRANCH   3   4
TORSDOF 3
