REMARK  9 active torsions:
REMARK  status: ('A' for Active; 'I' for Inactive)
REMARK    1  A    between atoms: C_7  and  C_1 
REMARK    2  A    between atoms: C_14  and  C_3 
REMARK    3  A    between atoms: S_15  and  C_5 
REMARK    4  A    between atoms: S_6  and  C_11 
REMARK    5  A    between atoms: C_10  and  S_6 
REMARK    6  A    between atoms: O_20  and  C_7 
REMARK    7  A    between atoms: C_11  and  C_19 
REMARK    8  A    between atoms: C_19  and  S_15 
REMARK    9  A    between atoms: C_27  and  O_20 
ROOT
ATOM      1  C   UNL d   1       1.295  -1.224  -0.038  0.00  0.00     0.094 A 
ATOM      2  C   UNL d   1      -0.711  -0.025  -0.128  0.00  0.00     0.081 A 
ATOM      3  C   UNL d   1      -0.094  -1.339  -0.097  0.00  0.00     0.020 A 
ATOM      4  S   UNL d   1       1.803   0.414  -0.157  0.00  0.00    -0.075 SA
ATOM      5  C   UNL d   1       0.204   1.012  -0.157  0.00  0.00     0.063 A 
ATOM      6  C   UNL d   1      -2.121   0.212  -0.086  0.00  0.00     0.102 C 
ATOM      7  N   UNL d   1      -3.263   0.421  -0.031  0.00  0.00    -0.191 NA
ENDROOT
BRANCH   3   8
ATOM      8  C   UNL d   1      -0.779  -2.649  -0.063  0.00  0.00    -0.023 A 
ATOM      9  C   UNL d   1      -0.294  -3.743  -0.797  0.00  0.00     0.012 A 
ATOM     10  C   UNL d   1      -0.913  -4.995  -0.724  0.00  0.00     0.001 A 
ATOM     11  C   UNL d   1      -2.066  -5.160   0.035  0.00  0.00     0.000 A 
ATOM     12  C   UNL d   1      -2.590  -4.076   0.733  0.00  0.00     0.001 A 
ATOM     13  C   UNL d   1      -1.940  -2.838   0.702  0.00  0.00     0.012 A 
ENDBRANCH   3   8
BRANCH   5  14
ATOM     14  S   UNL d   1      -0.084   2.760  -0.081  0.00  0.00    -0.120 SA
BRANCH  14  15
ATOM     15  C   UNL d   1      -1.067   3.079  -1.584  0.00  0.00     0.095 C 
BRANCH  15  16
ATOM     16  C   UNL d   1      -1.432   4.556  -1.684  0.00  0.00     0.156 C 
BRANCH  16  17
ATOM     17  S   UNL d   1      -2.384   4.835  -3.168  0.00  0.00     0.176 S 
ATOM     18  O   UNL d   1      -1.537   4.533  -4.307  0.00  0.00    -0.223 OA
ATOM     19  O   UNL d   1      -3.672   4.190  -3.012  0.00  0.00    -0.223 OA
BRANCH  17  20
ATOM     20  C   UNL d   1      -2.675   6.594  -3.186  0.00  0.00     0.059 A 
ATOM     21  C   UNL d   1      -1.764   7.437  -3.832  0.00  0.00     0.025 A 
ATOM     22  C   UNL d   1      -2.007   8.813  -3.874  0.00  0.00     0.025 A 
ATOM     23  C   UNL d   1      -3.161   9.333  -3.288  0.00  0.00     0.034 A 
ATOM     24  C   UNL d   1      -4.086   8.489  -2.673  0.00  0.00     0.025 A 
ATOM     25 CL   UNL d   1      -3.447  11.030  -3.329  0.00  0.00    -0.084 Cl
ATOM     26  C   UNL d   1      -3.849   7.112  -2.626  0.00  0.00     0.025 A 
ENDBRANCH  17  20
ENDBRANCH  16  17
ENDBRANCH  15  16
ENDBRANCH  14  15
ENDBRANCH   5  14
BRANCH   1  27
ATOM     27  C   UNL d   1       2.293  -2.258   0.211  0.00  0.00     0.301 C 
ATOM     28  O   UNL d   1       2.116  -3.257   0.898  0.00  0.00    -0.259 OA
BRANCH  27  29
ATOM     29  O   UNL d   1       3.478  -1.964  -0.403  0.00  0.00    -0.317 OA
BRANCH  29  30
ATOM     30  C   UNL d   1       4.579  -2.799  -0.012  0.00  0.00     0.174 C 
ATOM     31  C   UNL d   1       5.159  -2.262   1.284  0.00  0.00     0.034 C 
ENDBRANCH  29  30
ENDBRANCH  27  29
ENDBRANCH   1  27
TORSDOF 9
