REMARK  6 active torsions:
REMARK  status: ('A' for Active; 'I' for Inactive)
REMARK    1  A    between atoms: O_13  and  C_5 
REMARK    2  A    between atoms: C_12  and  C_7 
REMARK    3  A    between atoms: O_17  and  C_12 
REMARK    4  A    between atoms: C_15  and  O_13 
REMARK    5  A    between atoms: C_25  and  O_17 
REMARK    6  A    between atoms: O_24  and  C_18 
ROOT
ATOM      1  C   UNL d   1       0.150  -0.752  -0.019  0.00  0.00     0.068 A 
ATOM      2  C   UNL d   1       0.143   0.636  -0.051  0.00  0.00     0.137 A 
ATOM      3  N   UNL d   1       2.321  -0.018  -0.164  0.00  0.00    -0.301 N 
ATOM      4  HN  UNL d   1       3.338   0.013  -0.232  1.00  0.00     0.187 HD
ATOM      5  C   UNL d   1      -1.082  -1.432   0.090  0.00  0.00     0.109 C 
ATOM      6  N   UNL d   1       1.455   1.017  -0.124  0.00  0.00    -0.280 N 
ATOM      7  C   UNL d   1      -2.216  -0.619   0.274  0.00  0.00     0.089 C 
ATOM      8  C   UNL d   1       1.528  -1.099  -0.092  0.00  0.00     0.039 A 
ATOM      9  N   UNL d   1      -0.931   1.447   0.003  0.00  0.00    -0.349 N 
ATOM     10  HN  UNL d   1      -0.877   2.462  -0.077  1.00  0.00     0.167 HD
ATOM     11  C   UNL d   1      -2.088   0.767   0.175  0.00  0.00     0.110 C 
ATOM     12  C   UNL d   1       1.964   2.365  -0.097  0.00  0.00     0.179 C 
ATOM     13  C   UNL d   1       2.127  -2.457  -0.062  0.00  0.00     0.071 C 
ENDROOT
BRANCH   5  14
ATOM     14  O   UNL d   1      -1.035  -2.806   0.094  0.00  0.00    -0.309 OA
BRANCH  14  15
ATOM     15  C   UNL d   1      -2.052  -3.547  -0.459  0.00  0.00     0.076 A 
ATOM     16  C   UNL d   1      -2.807  -3.161  -1.567  0.00  0.00     0.040 A 
ATOM     17  C   UNL d   1      -3.926  -3.914  -1.941  0.00  0.00     0.039 A 
ATOM     18  C   UNL d   1      -4.253  -5.079  -1.245  0.00  0.00     0.068 A 
ATOM     19  C   UNL d   1      -3.415  -5.532  -0.226  0.00  0.00     0.039 A 
ATOM     20  C   UNL d   1      -2.319  -4.765   0.171  0.00  0.00     0.040 A 
BRANCH  18  21
ATOM     21  O   UNL d   1      -5.341  -5.862  -1.516  0.00  0.00    -0.356 OA
ATOM     22  C   UNL d   1      -6.521  -5.133  -1.845  0.00  0.00     0.210 C 
ENDBRANCH  18  21
ENDBRANCH  14  15
ENDBRANCH   5  14
BRANCH   7  23
ATOM     23  C   UNL d   1      -3.570  -1.094   0.596  0.00  0.00     0.297 C 
ATOM     24  O   UNL d   1      -4.577  -0.639   0.082  0.00  0.00    -0.259 OA
BRANCH  23  25
ATOM     25  O   UNL d   1      -3.502  -2.010   1.591  0.00  0.00    -0.318 OA
BRANCH  25  26
ATOM     26  C   UNL d   1      -4.753  -2.595   1.976  0.00  0.00     0.174 C 
ATOM     27  C   UNL d   1      -5.346  -1.804   3.123  0.00  0.00     0.034 C 
ENDBRANCH  25  26
ENDBRANCH  23  25
ENDBRANCH   7  23
TORSDOF 6
