REMARK  7 active torsions:
REMARK  status: ('A' for Active; 'I' for Inactive)
REMARK    1  A    between atoms: C_7  and  C_1 
REMARK    2  A    between atoms: C_8  and  C_6 
REMARK    3  A    between atoms: C_16  and  C_10 
REMARK    4  A    between atoms: S_20  and  C_13 
REMARK    5  A    between atoms: C_19  and  C_22 
REMARK    6  A    between atoms: C_21  and  C_19 
REMARK    7  A    between atoms: C_22  and  S_20 
ROOT
ATOM      1  N   UNL d   1       5.545   4.427   1.942  0.00  0.00    -0.336 N 
ATOM      2  HN  UNL d   1       5.322   3.624   2.531  1.00  0.00     0.168 HD
ATOM      3  C   UNL d   1       6.298   5.444   2.392  0.00  0.00     0.144 A 
ATOM      4  C   UNL d   1       5.098   4.520   0.671  0.00  0.00     0.052 A 
ATOM      5  N   UNL d   1       6.620   6.533   1.675  0.00  0.00    -0.347 N 
ATOM      6  HN  UNL d   1       7.198   7.278   2.063  1.00  0.00     0.167 HD
ATOM      7  C   UNL d   1       5.364   5.609  -0.135  0.00  0.00     0.048 A 
ATOM      8  C   UNL d   1       6.142   6.592   0.422  0.00  0.00     0.092 A 
ENDROOT
BRANCH   4   9
ATOM      9  C   UNL d   1       4.287   3.373   0.231  0.00  0.00     0.032 A 
ATOM     10  S   UNL d   1       4.152   2.970  -1.435  0.00  0.00    -0.086 SA
ATOM     11  C   UNL d   1       3.100   1.665  -1.129  0.00  0.00     0.034 A 
ATOM     12  C   UNL d   1       2.882   1.495   0.221  0.00  0.00     0.023 A 
ATOM     13  C   UNL d   1       3.574   2.470   1.003  0.00  0.00     0.023 A 
BRANCH  11  14
ATOM     14  C   UNL d   1       2.483   0.816  -2.199  0.00  0.00     0.067 A 
ATOM     15  C   UNL d   1       2.731   0.897  -3.583  0.00  0.00     0.068 A 
ATOM     16  C   UNL d   1       1.926  -0.065  -4.169  0.00  0.00     0.136 A 
ATOM     17  N   UNL d   1       1.224  -0.624  -3.136  0.00  0.00    -0.292 N 
ATOM     18  N   UNL d   1       1.584  -0.134  -1.929  0.00  0.00    -0.297 N 
ATOM     19  C   UNL d   1       0.145  -1.585  -3.142  0.00  0.00     0.178 C 
ATOM     20  HN  UNL d   1       1.243  -0.426  -1.013  1.00  0.00     0.187 HD
BRANCH  16  21
ATOM     21  C   UNL d   1       1.813  -0.418  -5.598  0.00  0.00     0.434 C 
ATOM     22  F   UNL d   1       1.015  -1.480  -5.854  0.00  0.00    -0.165 F 
ATOM     23  F   UNL d   1       1.322   0.620  -6.321  0.00  0.00    -0.165 F 
ATOM     24  F   UNL d   1       3.029  -0.717  -6.124  0.00  0.00    -0.165 F 
ENDBRANCH  16  21
ENDBRANCH  11  14
ENDBRANCH   4   9
BRANCH   3  25
ATOM     25  S   UNL d   1       6.925   5.396   4.050  0.00  0.00    -0.086 SA
BRANCH  25  26
ATOM     26  C   UNL d   1       6.141   3.872   4.645  0.00  0.00     0.166 C 
BRANCH  26  27
ATOM     27  C   UNL d   1       6.424   3.614   6.117  0.00  0.00     0.169 C 
ATOM     28  O   UNL d   1       7.030   4.392   6.854  0.00  0.00    -0.291 OA
BRANCH  27  29
ATOM     29  C   UNL d   1       5.940   2.322   6.702  0.00  0.00     0.011 A 
ATOM     30  C   UNL d   1       5.139   1.424   5.981  0.00  0.00     0.017 A 
ATOM     31  C   UNL d   1       4.761   0.204   6.553  0.00  0.00     0.025 A 
ATOM     32  C   UNL d   1       5.175  -0.120   7.844  0.00  0.00     0.034 A 
ATOM     33  C   UNL d   1       5.944   0.776   8.581  0.00  0.00     0.025 A 
ATOM     34 CL   UNL d   1       4.744  -1.641   8.522  0.00  0.00    -0.084 Cl
ATOM     35  C   UNL d   1       6.322   1.996   8.013  0.00  0.00     0.017 A 
ENDBRANCH  27  29
ENDBRANCH  26  27
ENDBRANCH  25  26
ENDBRANCH   3  25
TORSDOF 7
