REMARK  3 active torsions:
REMARK  status: ('A' for Active; 'I' for Inactive)
REMARK    1  A    between atoms: C_3  and  C_1 
REMARK    2  A    between atoms: N_14  and  C_2 
REMARK    3  A    between atoms: C_10  and  C_8 
ROOT
ATOM      1  C   UNL d   1       0.828   3.782  -0.331  0.00  0.00     0.155 A 
ATOM      2  C   UNL d   1       0.526   1.512  -0.349  0.00  0.00     0.120 A 
ATOM      3  N   UNL d   1       1.265   2.582   0.038  0.00  0.00    -0.329 N 
ATOM      4  HN  UNL d   1       2.117   2.470   0.587  1.00  0.00     0.168 HD
ATOM      5  N   UNL d   1      -0.292   4.005  -1.018  0.00  0.00    -0.336 N 
ATOM      6  HN  UNL d   1      -0.584   4.956  -1.246  1.00  0.00     0.168 HD
ATOM      7  C   UNL d   1      -1.032   2.944  -1.407  0.00  0.00     0.021 A 
ATOM      8  C   UNL d   1      -0.644   1.657  -1.079  0.00  0.00     0.060 A 
ENDROOT
BRANCH   2   9
ATOM      9  C   UNL d   1       1.005   0.116   0.007  0.00  0.00     0.432 C 
ATOM     10  F   UNL d   1       2.147   0.081   0.748  0.00  0.00    -0.165 F 
ATOM     11  F   UNL d   1       1.254  -0.646  -1.099  0.00  0.00    -0.165 F 
ATOM     12  F   UNL d   1       0.076  -0.583   0.725  0.00  0.00    -0.165 F 
ENDBRANCH   2   9
BRANCH   1  13
ATOM     13  N   UNL d   1       1.567   4.878   0.054  0.00  0.00    -0.274 NA
ATOM     14  H   UNL d   1       2.117   4.659   0.872  0.00  0.00     0.127 HD
ATOM     15  H   UNL d   1       0.975   5.695   0.092  0.00  0.00     0.127 HD
ENDBRANCH   1  13
BRANCH   7  16
ATOM     16  C   UNL d   1      -2.282   3.221  -2.249  0.00  0.00    -0.009 C 
ATOM     17  C   UNL d   1      -2.486   4.739  -2.467  0.00  0.00     0.021 C 
ATOM     18  C   UNL d   1      -2.135   2.562  -3.635  0.00  0.00     0.021 C 
ATOM     19  C   UNL d   1      -3.543   2.675  -1.552  0.00  0.00     0.021 C 
ENDBRANCH   7  16
TORSDOF 3
