REMARK  6 active torsions:
REMARK  status: ('A' for Active; 'I' for Inactive)
REMARK    1  A    between atoms: C_3  and  S_1 
REMARK    2  A    between atoms: N_6  and  S_1 
REMARK    3  A    between atoms: C_2  and  N_6 
REMARK    4  A    between atoms: C_16  and  C_4 
REMARK    5  A    between atoms: O_23  and  C_16 
REMARK    6  A    between atoms: C_26  and  O_23 
ROOT
ATOM      1  S   UNL d   1      -0.069  -0.464  -0.227  0.00  0.00     0.248 S 
ATOM      2  O   UNL d   1       0.796   0.579  -0.739  0.00  0.00    -0.205 OA
ATOM      3  O   UNL d   1      -0.161  -1.746  -0.896  0.00  0.00    -0.205 OA
ENDROOT
BRANCH   1   4
ATOM      4  C   UNL d   1      -1.707   0.188  -0.204  0.00  0.00     0.104 A 
ATOM      5  C   UNL d   1      -2.066   1.323   0.558  0.00  0.00     0.090 A 
ATOM      6  N   UNL d   1      -1.282   2.042   1.377  0.00  0.00    -0.309 N 
ATOM      7  C   UNL d   1      -3.488   1.833   0.527  0.00  0.00     0.068 A 
ATOM      8  S   UNL d   1      -2.214   3.276   1.980  0.00  0.00     0.068 SA
ATOM      9  HN  UNL d   1      -0.300   1.865   1.588  1.00  0.00     0.176 HD
ATOM     10  N   UNL d   1      -3.679   2.923   1.285  0.00  0.00    -0.310 N 
ATOM     11  HN  UNL d   1      -4.553   3.434   1.410  1.00  0.00     0.176 HD
ATOM     12  C   UNL d   1      -4.484   1.183  -0.243  0.00  0.00     0.032 A 
ATOM     13  C   UNL d   1      -4.070   0.050  -0.964  0.00  0.00     0.004 A 
ATOM     14  C   UNL d   1      -2.739  -0.428  -0.948  0.00  0.00     0.027 A 
ENDBRANCH   1   4
BRANCH   1  15
ATOM     15  N   UNL d   1       0.267  -0.718   1.432  0.00  0.00    -0.174 NA
ATOM     16  H   UNL d   1      -0.546  -0.421   1.984  0.00  0.00     0.146 HD
BRANCH  15  17
ATOM     17  C   UNL d   1       0.656  -2.070   1.728  0.00  0.00     0.081 A 
ATOM     18  C   UNL d   1      -0.192  -3.038   2.238  0.00  0.00     0.075 A 
ATOM     19  C   UNL d   1       0.544  -4.276   2.487  0.00  0.00    -0.031 A 
ATOM     20  C   UNL d   1      -0.002  -5.557   3.046  0.00  0.00     0.050 C 
ATOM     21  C   UNL d   1       1.887  -4.141   2.157  0.00  0.00    -0.013 A 
ATOM     22  S   UNL d   1       2.255  -2.601   1.528  0.00  0.00    -0.081 SA
ATOM     23  C   UNL d   1       2.967  -5.168   2.304  0.00  0.00     0.057 C 
BRANCH  18  24
ATOM     24  C   UNL d   1      -1.616  -2.771   2.472  0.00  0.00     0.296 C 
ATOM     25  O   UNL d   1      -2.071  -1.631   2.546  0.00  0.00    -0.259 OA
BRANCH  24  26
ATOM     26  O   UNL d   1      -2.357  -3.898   2.595  0.00  0.00    -0.318 OA
BRANCH  26  27
ATOM     27  C   UNL d   1      -3.633  -3.778   3.231  0.00  0.00     0.174 C 
ATOM     28  C   UNL d   1      -4.752  -3.951   2.228  0.00  0.00     0.034 C 
ENDBRANCH  26  27
ENDBRANCH  24  26
ENDBRANCH  18  24
ENDBRANCH  15  17
ENDBRANCH   1  15
TORSDOF 6
