REMARK  7 active torsions:
REMARK  status: ('A' for Active; 'I' for Inactive)
REMARK    1  A    between atoms: C_10  and  C_7 
REMARK    2  A    between atoms: C_25  and  C_10 
REMARK    3  A    between atoms: C_19  and  C_14 
REMARK    4  A    between atoms: C_17  and  C_20 
REMARK    5  A    between atoms: C_20  and  C_19 
REMARK    6  A    between atoms: C_26  and  C_25 
REMARK    7  A    between atoms: C_27  and  C_26 
ROOT
ATOM      1  C   UNL d   1       1.234   0.873  -0.004  0.00  0.00    -0.042 A 
ATOM      2  C   UNL d   1      -1.109   0.883  -0.013  0.00  0.00    -0.042 A 
ATOM      3  C   UNL d   1       0.775  -0.463  -0.016  0.00  0.00    -0.019 A 
ATOM      4  C   UNL d   1      -0.670  -0.455  -0.023  0.00  0.00    -0.019 A 
ATOM      5  C   UNL d   1       0.068   1.834  -0.014  0.00  0.00     0.078 A 
ATOM      6  C   UNL d   1       2.582   1.180   0.024  0.00  0.00     0.023 A 
ATOM      7  C   UNL d   1       3.491   0.117   0.037  0.00  0.00     0.010 A 
ATOM      8  C   UNL d   1       1.671  -1.516  -0.006  0.00  0.00     0.014 A 
ATOM      9  C   UNL d   1      -1.585  -1.490  -0.022  0.00  0.00     0.013 A 
ATOM     10  C   UNL d   1      -2.452   1.208  -0.001  0.00  0.00     0.015 A 
ATOM     11  C   UNL d   1       3.038  -1.220   0.023  0.00  0.00     0.016 A 
ATOM     12  C   UNL d   1      -3.397   0.172  -0.024  0.00  0.00    -0.057 A 
ATOM     13  C   UNL d   1      -2.948  -1.170  -0.018  0.00  0.00     0.008 A 
ENDROOT
BRANCH  12  14
ATOM     14  C   UNL d   1      -4.888   0.447   0.006  0.00  0.00     0.043 C 
BRANCH  14  15
ATOM     15  C   UNL d   1      -5.307   1.748  -0.692  0.00  0.00     0.043 C 
BRANCH  15  16
ATOM     16  C   UNL d   1      -6.793   2.003  -0.640  0.00  0.00    -0.058 A 
ATOM     17  C   UNL d   1      -7.334   2.721   0.436  0.00  0.00     0.008 A 
ATOM     18  C   UNL d   1      -8.702   2.987   0.496  0.00  0.00     0.019 A 
ATOM     19  C   UNL d   1      -9.537   2.530  -0.519  0.00  0.00     0.011 A 
ATOM     20  C   UNL d   1      -9.015   1.816  -1.597  0.00  0.00     0.019 A 
ATOM     21 BR   UNL d   1     -11.393   2.879  -0.432  0.00  0.00    -0.051 Br
ATOM     22  C   UNL d   1      -7.644   1.551  -1.657  0.00  0.00     0.008 A 
ENDBRANCH  15  16
ENDBRANCH  14  15
ENDBRANCH  12  14
BRANCH   7  23
ATOM     23  C   UNL d   1       4.942   0.452   0.048  0.00  0.00     0.159 C 
ATOM     24  O   UNL d   1       5.318   1.501   0.561  0.00  0.00    -0.292 OA
BRANCH  23  25
ATOM     25  C   UNL d   1       5.914  -0.508  -0.605  0.00  0.00     0.084 C 
BRANCH  25  26
ATOM     26  C   UNL d   1       5.622  -0.664  -2.096  0.00  0.00     0.007 C 
BRANCH  26  27
ATOM     27  C   UNL d   1       6.602  -1.625  -2.759  0.00  0.00    -0.004 C 
ATOM     28  C   UNL d   1       6.287  -1.784  -4.237  0.00  0.00     0.005 C 
ENDBRANCH  26  27
ENDBRANCH  25  26
ENDBRANCH  23  25
ENDBRANCH   7  23
TORSDOF 7
