REMARK  7 active torsions:
REMARK  status: ('A' for Active; 'I' for Inactive)
REMARK    1  A    between atoms: C_9  and  N_1 
REMARK    2  A    between atoms: C_2  and  C_8 
REMARK    3  A    between atoms: C_8  and  N_5 
REMARK    4  A    between atoms: N_7  and  C_14 
REMARK    5  A    between atoms: C_13  and  C_9 
REMARK    6  A    between atoms: C_14  and  C_13 
REMARK    7  A    between atoms: O_21  and  C_13 
ROOT
ATOM      1  N   UNL d   1       1.004   0.479   0.532  0.00  0.00     0.096 N 
ATOM      2  N   UNL d   1       0.611  -2.432   1.160  0.00  0.00     0.094 N 
ATOM      3  C   UNL d   1       0.819  -0.467  -0.576  0.00  0.00     0.303 C 
ATOM      4  C   UNL d   1       0.157   0.052   1.651  0.00  0.00     0.303 C 
ATOM      5  C   UNL d   1       0.709  -1.982  -0.240  0.00  0.00     0.302 C 
ATOM      6  C   UNL d   1       0.428  -1.375   2.163  0.00  0.00     0.302 C 
ENDROOT
BRANCH   2   7
ATOM      7  C   UNL d   1      -0.319  -3.573   1.346  0.00  0.00     0.305 C 
BRANCH   7   8
ATOM      8  C   UNL d   1       0.256  -4.870   0.728  0.00  0.00     0.164 C 
BRANCH   8   9
ATOM      9  C   UNL d   1      -0.567  -6.122   1.068  0.00  0.00     0.162 C 
BRANCH   9  10
ATOM     10  N   UNL d   1      -1.872  -6.173   0.433  0.00  0.00    -0.354 N 
ATOM     11  C   UNL d   1      -2.057  -6.187  -0.928  0.00  0.00     0.092 A 
ATOM     12  C   UNL d   1      -3.409  -6.189  -1.175  0.00  0.00     0.031 A 
ATOM     13  C   UNL d   1      -4.076  -6.240   0.077  0.00  0.00    -0.008 A 
ATOM     14  C   UNL d   1      -3.094  -6.267   1.074  0.00  0.00     0.044 A 
ATOM     15  C   UNL d   1      -5.435  -6.286   0.447  0.00  0.00     0.014 A 
ATOM     16  C   UNL d   1      -3.433  -6.379   2.433  0.00  0.00     0.030 A 
ATOM     17  C   UNL d   1      -4.789  -6.442   2.775  0.00  0.00     0.002 A 
ATOM     18  C   UNL d   1      -5.779  -6.385   1.798  0.00  0.00     0.001 A 
ENDBRANCH   9  10
ENDBRANCH   8   9
BRANCH   8  19
ATOM     19  O   UNL d   1       1.588  -5.054   1.240  0.00  0.00    -0.392 OA
ATOM     20  H   UNL d   1       1.954  -4.146   1.301  0.00  0.00     0.210 HD
ENDBRANCH   8  19
ENDBRANCH   7   8
ENDBRANCH   2   7
BRANCH   1  21
ATOM     21  C   UNL d   1       2.410   0.645   0.920  0.00  0.00     0.316 C 
BRANCH  21  22
ATOM     22  C   UNL d   1       3.152   1.595  -0.000  0.00  0.00     0.030 A 
ATOM     23  C   UNL d   1       4.021   1.078  -0.969  0.00  0.00     0.126 A 
ATOM     24  F   UNL d   1       4.202  -0.250  -1.058  0.00  0.00    -0.205 F 
ATOM     25  C   UNL d   1       4.713   1.897  -1.859  0.00  0.00     0.043 A 
ATOM     26  C   UNL d   1       4.551   3.277  -1.798  0.00  0.00     0.005 A 
ATOM     27  C   UNL d   1       3.696   3.824  -0.840  0.00  0.00     0.024 A 
ATOM     28  C   UNL d   1       3.002   2.991   0.052  0.00  0.00     0.045 A 
ATOM     29 CL   UNL d   1       1.982   3.764   1.214  0.00  0.00    -0.084 Cl
ENDBRANCH  21  22
ENDBRANCH   1  21
TORSDOF 7
