REMARK  3 active torsions:
REMARK  status: ('A' for Active; 'I' for Inactive)
REMARK    1  A    between atoms: C_2  and  C_1 
REMARK    2  A    between atoms: C_4  and  C_2 
REMARK    3  A    between atoms: N_7  and  C_3 
ROOT
ATOM      1  C   UNL d   1      -1.026   1.042  -1.180  0.00  0.00     0.015 A 
ATOM      2  C   UNL d   1      -1.444  -0.173  -1.737  0.00  0.00     0.034 A 
ATOM      3  C   UNL d   1      -2.699  -0.259  -2.340  0.00  0.00     0.011 A 
ATOM      4 BR   UNL d   1      -3.256  -1.895  -3.108  0.00  0.00    -0.051 Br
ATOM      5  C   UNL d   1      -1.867   2.161  -1.246  0.00  0.00     0.015 A 
ATOM      6  C   UNL d   1      -3.124   2.064  -1.848  0.00  0.00     0.002 A 
ATOM      7  C   UNL d   1      -3.540   0.852  -2.398  0.00  0.00     0.019 A 
ENDROOT
BRANCH   1   8
ATOM      8  C   UNL d   1       0.323   1.205  -0.571  0.00  0.00     0.183 C 
ATOM      9  O   UNL d   1       0.882   2.296  -0.593  0.00  0.00    -0.288 OA
BRANCH   8  10
ATOM     10  C   UNL d   1       0.929   0.010   0.075  0.00  0.00     0.072 C 
ATOM     11  C   UNL d   1       2.253  -0.056   0.271  0.00  0.00     0.088 C 
BRANCH  11  12
ATOM     12  N   UNL d   1       3.013  -1.080   0.819  0.00  0.00    -0.398 N 
ATOM     13  C   UNL d   1       2.467  -2.314   1.380  0.00  0.00     0.148 C 
ATOM     14  C   UNL d   1       4.467  -0.960   0.957  0.00  0.00     0.148 C 
ENDBRANCH  11  12
ENDBRANCH   8  10
ENDBRANCH   1   8
TORSDOF 3
