REMARK  8 active torsions:
REMARK  status: ('A' for Active; 'I' for Inactive)
REMARK    1  A    between atoms: C_2  and  C_1 
REMARK    2  A    between atoms: C_3  and  C_1 
REMARK    3  A    between atoms: C_6  and  C_1 
REMARK    4  A    between atoms: O_14  and  C_1 
REMARK    5  A    between atoms: O_18  and  C_3 
REMARK    6  A    between atoms: N_4  and  C_17 
REMARK    7  A    between atoms: C_8  and  C_7 
REMARK    8  A    between atoms: O_21  and  C_10 
ROOT
ATOM      1  C   UNL d   1       0.692   0.358   1.451  0.00  0.00    -0.005 A 
ATOM      2  C   UNL d   1       0.440  -0.651   2.397  0.00  0.00     0.013 A 
ATOM      3  C   UNL d   1       0.581   1.690   1.887  0.00  0.00     0.013 A 
ATOM      4  C   UNL d   1      -0.089   0.985   4.119  0.00  0.00     0.031 A 
ATOM      5  C   UNL d   1       0.194   1.993   3.199  0.00  0.00     0.030 A 
ATOM      6  C   UNL d   1       0.075  -0.341   3.713  0.00  0.00     0.030 A 
ENDROOT
BRANCH   1   7
ATOM      7  C   UNL d   1       1.060   0.008  -0.001  0.00  0.00     0.271 C 
BRANCH   7   8
ATOM      8  C   UNL d   1      -0.024  -0.834  -0.725  0.00  0.00     0.432 C 
ATOM      9  F   UNL d   1       0.416  -2.051  -1.126  0.00  0.00    -0.167 F 
ATOM     10  F   UNL d   1      -1.137  -1.051   0.015  0.00  0.00    -0.167 F 
ATOM     11  F   UNL d   1      -0.435  -0.198  -1.857  0.00  0.00    -0.167 F 
ENDBRANCH   7   8
BRANCH   7  12
ATOM     12  C   UNL d   1       2.334  -0.844  -0.087  0.00  0.00     0.307 C 
ATOM     13  O   UNL d   1       2.731  -1.643   0.756  0.00  0.00    -0.261 OA
BRANCH  12  14
ATOM     14  O   UNL d   1       2.973  -0.627  -1.282  0.00  0.00    -0.324 OA
ATOM     15  C   UNL d   1       4.165  -1.400  -1.456  0.00  0.00     0.213 C 
ENDBRANCH  12  14
ENDBRANCH   7  12
BRANCH   7  16
ATOM     16  O   UNL d   1       1.307   1.258  -0.709  0.00  0.00    -0.368 OA
ATOM     17  H   UNL d   1       1.467   1.019  -1.643  0.00  0.00     0.212 HD
ENDBRANCH   7  16
ENDBRANCH   1   7
BRANCH   4  18
ATOM     18  N   UNL d   1      -0.514   1.369   5.406  0.00  0.00    -0.365 N 
ATOM     19  C   UNL d   1      -1.430   0.659   5.989  0.00  0.00     0.102 C 
ATOM     20  HN  UNL d   1      -0.112   2.185   5.868  1.00  0.00     0.165 HD
BRANCH  19  21
ATOM     21  C   UNL d   1      -2.001   1.043   7.296  0.00  0.00     0.012 A 
ATOM     22  C   UNL d   1      -1.688   2.257   7.915  0.00  0.00     0.077 A 
ATOM     23  C   UNL d   1      -2.311   2.614   9.108  0.00  0.00     0.037 A 
ATOM     24  C   UNL d   1      -3.244   1.754   9.692  0.00  0.00     0.003 A 
ATOM     25  C   UNL d   1      -3.546   0.534   9.086  0.00  0.00     0.001 A 
ATOM     26  C   UNL d   1      -2.927   0.176   7.887  0.00  0.00     0.015 A 
BRANCH  22  27
ATOM     27  O   UNL d   1      -0.792   3.148   7.393  0.00  0.00    -0.360 OA
ATOM     28  H   UNL d   1      -0.433   2.745   6.569  0.00  0.00     0.217 HD
ENDBRANCH  22  27
ENDBRANCH  19  21
ENDBRANCH   4  18
TORSDOF 8
