REMARK  9 active torsions:
REMARK  status: ('A' for Active; 'I' for Inactive)
REMARK    1  A    between atoms: N_2  and  C_1 
REMARK    2  A    between atoms: C_3  and  C_1 
REMARK    3  A    between atoms: N_5  and  C_1 
REMARK    4  A    between atoms: C_6  and  C_1 
REMARK       I    between atoms: C_4  and  N_2 
REMARK    5  A    between atoms: C_7  and  C_4 
REMARK    6  A    between atoms: C_19  and  N_5 
REMARK    7  A    between atoms: O_23  and  C_6 
REMARK    8  A    between atoms: C_8  and  C_19 
REMARK    9  A    between atoms: C_24  and  O_23 
ROOT
ATOM      1  C   UNL d   1       1.060   0.159   0.041  0.00  0.00     0.416 C 
ENDROOT
BRANCH   1   2
ATOM      2  N   UNL d   1       0.627   1.566  -0.076  0.00  0.00    -0.304 N 
ATOM      3  C   UNL d   1       1.097   2.608   0.681  0.00  0.00     0.278 C 
ATOM      4  O   UNL d   1       2.000   2.485   1.504  0.00  0.00    -0.265 OA
ATOM      5  H   UNL d   1      -0.146   1.767  -0.702  0.00  0.00     0.166 HD
BRANCH   3   6
ATOM      6  C   UNL d   1       0.450   3.877   0.437  0.00  0.00     0.142 A 
ATOM      7  O   UNL d   1      -0.300   4.054  -0.695  0.00  0.00    -0.317 OA
ATOM      8  C   UNL d   1      -0.731   5.343  -0.686  0.00  0.00     0.143 A 
ATOM      9  C   UNL d   1      -0.307   5.988   0.450  0.00  0.00     0.027 A 
ATOM     10  C   UNL d   1       0.456   5.046   1.176  0.00  0.00     0.045 A 
ENDBRANCH   3   6
ENDBRANCH   1   2
BRANCH   1  11
ATOM     11  C   UNL d   1       0.632  -0.637  -1.267  0.00  0.00     0.453 C 
ATOM     12  F   UNL d   1      -0.118   0.158  -2.083  0.00  0.00    -0.166 F 
ATOM     13  F   UNL d   1       1.660  -1.091  -2.020  0.00  0.00    -0.166 F 
ATOM     14  F   UNL d   1      -0.142  -1.715  -0.976  0.00  0.00    -0.166 F 
ENDBRANCH   1  11
BRANCH   1  15
ATOM     15  N   UNL d   1       0.418  -0.428   1.266  0.00  0.00     0.138 N 
ATOM     16  H   UNL d   1       0.592  -1.440   1.242  0.00  0.00     0.320 HD
BRANCH  15  17
ATOM     17  C   UNL d   1       0.948   0.044   2.545  0.00  0.00     0.338 C 
BRANCH  17  18
ATOM     18  C   UNL d   1       0.344  -0.693   3.690  0.00  0.00     0.080 A 
ATOM     19  O   UNL d   1       0.612  -2.025   3.800  0.00  0.00    -0.325 OA
ATOM     20  C   UNL d   1      -0.001  -2.453   4.936  0.00  0.00     0.142 A 
ATOM     21  C   UNL d   1      -0.659  -1.415   5.555  0.00  0.00     0.027 A 
ATOM     22  C   UNL d   1      -0.439  -0.278   4.750  0.00  0.00     0.036 A 
ENDBRANCH  17  18
ENDBRANCH  15  17
ENDBRANCH   1  15
BRANCH   1  23
ATOM     23  C   UNL d   1       2.596  -0.023   0.004  0.00  0.00     0.329 C 
ATOM     24  O   UNL d   1       3.196  -0.980   0.489  0.00  0.00    -0.260 OA
BRANCH  23  25
ATOM     25  O   UNL d   1       3.188   0.987  -0.703  0.00  0.00    -0.318 OA
BRANCH  25  26
ATOM     26  C   UNL d   1       4.611   1.110  -0.580  0.00  0.00     0.174 C 
ATOM     27  C   UNL d   1       4.913   2.035   0.584  0.00  0.00     0.034 C 
ENDBRANCH  25  26
ENDBRANCH  23  25
ENDBRANCH   1  23
TORSDOF 9
