REMARK  3 active torsions:
REMARK  status: ('A' for Active; 'I' for Inactive)
REMARK    1  A    between atoms: N_3  and  C_1 
REMARK       I    between atoms: C_2  and  N_3 
REMARK       I    between atoms: N_7  and  C_2 
REMARK    2  A    between atoms: C_8  and  N_3 
REMARK    3  A    between atoms: C_14  and  N_7 
ROOT
ATOM      1  C   UNL d   1       3.461   1.020  -0.305  0.00  0.00     0.333 C 
ATOM      2  N   UNL d   1       2.088   1.448  -0.203  0.00  0.00    -0.244 N 
ATOM      3  N   UNL d   1       3.616  -0.329  -0.587  0.00  0.00    -0.308 N 
ATOM      4  O   UNL d   1       4.420   1.777  -0.154  0.00  0.00    -0.246 OA
ATOM      5  H   UNL d   1       2.789  -0.897  -0.462  0.00  0.00     0.170 HD
ENDROOT
BRANCH   2   6
ATOM      6  C   UNL d   1       0.968   0.619   0.033  0.00  0.00     0.151 C 
ATOM      7  N   UNL d   1      -0.251   0.939  -0.260  0.00  0.00    -0.369 N 
ATOM      8  C   UNL d   1      -1.188  -0.151   0.073  0.00  0.00     0.137 C 
ATOM      9  HN  UNL d   1      -0.529   1.831  -0.669  1.00  0.00     0.161 HD
ATOM     10  C   UNL d   1      -0.598  -1.034   1.164  0.00  0.00     0.069 C 
ATOM     11  S   UNL d   1       1.165  -0.951   0.795  0.00  0.00    -0.087 SA
ATOM     12  C   UNL d   1      -0.852  -0.504   2.568  0.00  0.00     0.023 C 
ENDBRANCH   2   6
BRANCH   2  13
ATOM     13  C   UNL d   1       1.842   2.892  -0.271  0.00  0.00     0.046 A 
ATOM     14  C   UNL d   1       2.652   3.751  -1.038  0.00  0.00     0.033 A 
ATOM     15  C   UNL d   1       2.422   5.133  -1.077  0.00  0.00     0.044 A 
ATOM     16  C   UNL d   1       1.369   5.678  -0.356  0.00  0.00     0.116 A 
ATOM     17  C   UNL d   1       0.544   4.867   0.404  0.00  0.00     0.044 A 
ATOM     18  F   UNL d   1       1.151   6.997  -0.391  0.00  0.00    -0.206 F 
ATOM     19  C   UNL d   1       0.784   3.487   0.450  0.00  0.00     0.033 A 
ENDBRANCH   2  13
BRANCH   3  20
ATOM     20  C   UNL d   1       4.790  -1.063  -0.843  0.00  0.00     0.036 A 
ATOM     21  C   UNL d   1       6.045  -0.497  -1.058  0.00  0.00     0.029 A 
ATOM     22  C   UNL d   1       7.138  -1.311  -1.380  0.00  0.00     0.002 A 
ATOM     23  C   UNL d   1       6.986  -2.693  -1.479  0.00  0.00     0.000 A 
ATOM     24  C   UNL d   1       5.744  -3.270  -1.239  0.00  0.00     0.002 A 
ATOM     25  C   UNL d   1       4.653  -2.458  -0.921  0.00  0.00     0.029 A 
ENDBRANCH   3  20
TORSDOF 3
