REMARK  6 active torsions:
REMARK  status: ('A' for Active; 'I' for Inactive)
REMARK    1  A    between atoms: C_3  and  N_1 
REMARK    2  A    between atoms: C_7  and  C_2 
REMARK    3  A    between atoms: N_4  and  C_6 
REMARK    4  A    between atoms: C_5  and  N_11 
REMARK    5  A    between atoms: O_23  and  C_7 
REMARK    6  A    between atoms: C_24  and  O_23 
ROOT
ATOM      1  C   UNL d   1      -2.364  -7.334  -3.219  0.00  0.00     0.134 C 
ATOM      2  C   UNL d   1      -2.559  -8.423  -3.997  0.00  0.00     0.114 C 
ATOM      3  C   UNL d   1      -2.193  -6.040  -3.776  0.00  0.00     0.107 C 
ATOM      4  N   UNL d   1      -2.043  -4.996  -4.271  0.00  0.00    -0.191 NA
ENDROOT
BRANCH   1   5
ATOM      5  C   UNL d   1      -2.297  -7.390  -1.734  0.00  0.00     0.305 C 
ATOM      6  O   UNL d   1      -2.107  -6.399  -1.040  0.00  0.00    -0.258 OA
BRANCH   5   7
ATOM      7  O   UNL d   1      -2.351  -8.662  -1.260  0.00  0.00    -0.317 OA
BRANCH   7   8
ATOM      8  C   UNL d   1      -1.883  -8.832   0.090  0.00  0.00     0.174 C 
ATOM      9  C   UNL d   1      -0.398  -9.145   0.034  0.00  0.00     0.034 C 
ENDBRANCH   7   8
ENDBRANCH   5   7
ENDBRANCH   1   5
BRANCH   2  10
ATOM     10  N   UNL d   1      -2.525  -8.588  -5.385  0.00  0.00    -0.385 N 
ATOM     11  C   UNL d   1      -1.734  -7.763  -6.329  0.00  0.00     0.142 C 
ATOM     12  C   UNL d   1      -0.778  -8.620  -7.196  0.00  0.00     0.144 C 
ATOM     13  N   UNL d   1      -1.423  -9.802  -7.795  0.00  0.00    -0.364 N 
ATOM     14  C   UNL d   1      -2.317 -10.558  -6.901  0.00  0.00     0.144 C 
ATOM     15  C   UNL d   1      -3.272  -9.655  -6.097  0.00  0.00     0.142 C 
BRANCH  13  16
ATOM     16  C   UNL d   1      -1.716  -9.758  -9.149  0.00  0.00     0.103 A 
ATOM     17  C   UNL d   1      -0.682  -9.521 -10.065  0.00  0.00     0.051 A 
ATOM     18  C   UNL d   1      -0.928  -9.536 -11.438  0.00  0.00     0.041 A 
ATOM     19  C   UNL d   1      -2.226  -9.782 -11.870  0.00  0.00     0.118 A 
ATOM     20  C   UNL d   1      -3.208 -10.011 -10.922  0.00  0.00     0.125 A 
ATOM     21  N   UNL d   1      -2.971 -10.012  -9.580  0.00  0.00    -0.350 N 
ATOM     22  HN  UNL d   1      -3.723 -10.200  -8.917  1.00  0.00     0.166 HD
BRANCH  19  23
ATOM     23  N   UNL d   1      -2.549  -9.815 -13.289  0.00  0.00    -0.114 N 
ATOM     24  O   UNL d   1      -3.728 -10.020 -13.607  0.00  0.00    -0.532 OA
ATOM     25  O   UNL d   1      -1.623  -9.635 -14.094  0.00  0.00    -0.532 OA
ENDBRANCH  19  23
ENDBRANCH  13  16
ENDBRANCH   2  10
TORSDOF 6
