REMARK  4 active torsions:
REMARK  status: ('A' for Active; 'I' for Inactive)
REMARK    1  A    between atoms: C_11  and  C_3 
REMARK    2  A    between atoms: S_18  and  C_14 
REMARK    3  A    between atoms: C_22  and  S_18 
REMARK    4  A    between atoms: C_24  and  C_22 
ROOT
ATOM      1  C   UNL d   1       3.489  -1.443   0.057  0.00  0.00     0.049 A 
ATOM      2  N   UNL d   1       4.298  -1.344   1.133  0.00  0.00    -0.336 N 
ATOM      3  HN  UNL d   1       4.001  -0.880   1.992  1.00  0.00     0.168 HD
ATOM      4  C   UNL d   1       5.518  -1.894   1.006  0.00  0.00     0.144 A 
ATOM      5  N   UNL d   1       5.962  -2.522  -0.097  0.00  0.00    -0.347 N 
ATOM      6  HN  UNL d   1       6.899  -2.922  -0.141  1.00  0.00     0.167 HD
ATOM      7  C   UNL d   1       3.854  -2.070  -1.117  0.00  0.00     0.047 A 
ATOM      8  C   UNL d   1       5.118  -2.600  -1.138  0.00  0.00     0.092 A 
ENDROOT
BRANCH   1   9
ATOM      9  C   UNL d   1       2.175  -0.802   0.143  0.00  0.00     0.030 A 
ATOM     10  C   UNL d   1       1.044  -1.381   0.607  0.00  0.00     0.046 A 
ATOM     11  N   UNL d   1      -0.166  -0.665   0.525  0.00  0.00    -0.243 N 
ATOM     12  C   UNL d   1       0.965  -2.764   1.191  0.00  0.00     0.071 C 
ATOM     13  C   UNL d   1      -0.212   0.617  -0.036  0.00  0.00     0.129 A 
ATOM     14  N   UNL d   1      -1.405  -1.075   0.911  0.00  0.00    -0.297 N 
ATOM     15  N   UNL d   1       0.901   1.252  -0.507  0.00  0.00    -0.350 N 
ATOM     16  C   UNL d   1      -1.528   1.010   0.006  0.00  0.00     0.076 A 
ATOM     17  C   UNL d   1       2.009   0.582  -0.407  0.00  0.00     0.105 A 
ATOM     18  HN  UNL d   1       0.865   2.189  -0.909  1.00  0.00     0.166 HD
ATOM     19  C   UNL d   1      -2.220  -0.062   0.600  0.00  0.00     0.026 A 
ATOM     20  C   UNL d   1      -3.674  -0.145   0.883  0.00  0.00     0.070 C 
ATOM     21  HN  UNL d   1      -1.657  -1.963   1.344  1.00  0.00     0.187 HD
ENDBRANCH   1   9
BRANCH   4  22
ATOM     22  S   UNL d   1       6.707  -1.714   2.309  0.00  0.00    -0.089 SA
BRANCH  22  23
ATOM     23  C   UNL d   1       5.621  -1.805   3.760  0.00  0.00     0.121 C 
BRANCH  23  24
ATOM     24  C   UNL d   1       6.427  -1.793   5.042  0.00  0.00    -0.048 A 
ATOM     25  C   UNL d   1       6.813  -0.576   5.628  0.00  0.00     0.009 A 
ATOM     26  C   UNL d   1       7.565  -0.562   6.807  0.00  0.00     0.024 A 
ATOM     27  C   UNL d   1       7.941  -1.761   7.405  0.00  0.00     0.034 A 
ATOM     28  C   UNL d   1       7.579  -2.978   6.830  0.00  0.00     0.024 A 
ATOM     29 CL   UNL d   1       8.858  -1.742   8.861  0.00  0.00    -0.084 Cl
ATOM     30  C   UNL d   1       6.828  -2.993   5.650  0.00  0.00     0.009 A 
ENDBRANCH  23  24
ENDBRANCH  22  23
ENDBRANCH   4  22
TORSDOF 4
