REMARK  6 active torsions:
REMARK  status: ('A' for Active; 'I' for Inactive)
REMARK    1  A    between atoms: C_4  and  C_1 
REMARK    2  A    between atoms: C_3  and  C_2 
REMARK    3  A    between atoms: N_10  and  C_2 
REMARK    4  A    between atoms: C_7  and  C_3 
REMARK    5  A    between atoms: O_11  and  C_4 
REMARK    6  A    between atoms: O_12  and  C_7 
ROOT
ATOM      1  C   UNL d   1       0.098   0.618   0.019  0.00  0.00     0.137 C 
ATOM      2  C   UNL d   1       1.117  -0.279  -0.074  0.00  0.00     0.019 C 
ATOM      3  C   UNL d   1      -1.259   0.200   0.121  0.00  0.00     0.107 C 
ATOM      4  N   UNL d   1      -2.352  -0.189   0.197  0.00  0.00    -0.191 NA
ENDROOT
BRANCH   1   5
ATOM      5  C   UNL d   1       0.367   2.084   0.009  0.00  0.00     0.305 C 
ATOM      6  O   UNL d   1       1.454   2.594   0.248  0.00  0.00    -0.258 OA
BRANCH   5   7
ATOM      7  O   UNL d   1      -0.762   2.767  -0.319  0.00  0.00    -0.322 OA
ATOM      8  C   UNL d   1      -0.615   4.188  -0.365  0.00  0.00     0.213 C 
ENDBRANCH   5   7
ENDBRANCH   1   5
BRANCH   2   9
ATOM      9  C   UNL d   1       0.846  -1.788  -0.097  0.00  0.00     0.163 C 
BRANCH   9  10
ATOM     10  C   UNL d   1       0.787  -2.397   1.295  0.00  0.00     0.263 C 
ATOM     11  O   UNL d   1       0.971  -1.798   2.346  0.00  0.00    -0.265 OA
BRANCH  10  12
ATOM     12  O   UNL d   1       0.509  -3.729   1.191  0.00  0.00    -0.326 OA
ATOM     13  C   UNL d   1       0.424  -4.415   2.442  0.00  0.00     0.213 C 
ENDBRANCH  10  12
ENDBRANCH   9  10
ENDBRANCH   2   9
BRANCH   2  14
ATOM     14  N   UNL d   1       2.462   0.066  -0.224  0.00  0.00    -0.304 NA
ATOM     15  H   UNL d   1       2.667   1.036   0.051  0.00  0.00     0.124 HD
ATOM     16  H   UNL d   1       3.114  -0.581   0.219  0.00  0.00     0.124 HD
ENDBRANCH   2  14
TORSDOF 6
