REMARK  2 active torsions:
REMARK  status: ('A' for Active; 'I' for Inactive)
REMARK    1  A    between atoms: N_14  and  C_10 
REMARK    2  A    between atoms: C_13  and  N_14 
ROOT
ATOM      1  S   UNL d   1      -0.987  -1.423   0.032  0.00  0.00     0.270 S 
ATOM      2  C   UNL d   1      -1.704  -0.202   2.273  0.00  0.00     0.101 A 
ATOM      3  N   UNL d   1      -1.394  -1.470   1.670  0.00  0.00    -0.269 N 
ATOM      4  C   UNL d   1      -2.007   0.956   1.555  0.00  0.00     0.057 A 
ATOM      5  C   UNL d   1      -2.105  -0.284  -0.561  0.00  0.00     0.146 C 
ATOM      6  C   UNL d   1      -2.051   1.019   0.090  0.00  0.00     0.210 C 
ATOM      7  S   UNL d   1      -1.789   0.046   3.955  0.00  0.00    -0.075 SA
ATOM      8  C   UNL d   1      -2.344   2.053   2.449  0.00  0.00    -0.032 A 
ATOM      9  C   UNL d   1      -2.229   1.680   3.779  0.00  0.00    -0.012 A 
ATOM     10  C   UNL d   1      -3.123  -0.611  -1.365  0.00  0.00     0.135 C 
ATOM     11  O   UNL d   1      -1.265  -2.737  -0.523  0.00  0.00    -0.200 OA
ATOM     12  O   UNL d   1       0.352  -0.880  -0.062  0.00  0.00    -0.200 OA
ATOM     13  O   UNL d   1      -2.163   2.053  -0.564  0.00  0.00    -0.286 OA
ATOM     14  C   UNL d   1      -1.173  -2.732   2.373  0.00  0.00     0.170 C 
ATOM     15  C   UNL d   1      -2.799   3.425   2.040  0.00  0.00     0.050 C 
ATOM     16  C   UNL d   1      -2.472   2.532   4.984  0.00  0.00     0.057 C 
ENDROOT
BRANCH  10  17
ATOM     17  N   UNL d   1      -4.111   0.226  -1.823  0.00  0.00    -0.200 N 
ATOM     18  H   UNL d   1      -3.914   1.221  -1.868  0.00  0.00     0.183 HD
BRANCH  17  19
ATOM     19  C   UNL d   1      -5.184  -0.127  -2.631  0.00  0.00     0.681 A 
ATOM     20  N   UNL d   1      -5.663  -1.382  -2.608  0.00  0.00    -0.202 N 
ATOM     21  C   UNL d   1      -6.693  -1.656  -3.428  0.00  0.00     0.107 A 
ATOM     22  HN  UNL d   1      -5.263  -2.095  -1.997  1.00  0.00     0.183 HD
ATOM     23  C   UNL d   1      -7.237  -0.737  -4.290  0.00  0.00     0.035 A 
ATOM     24  C   UNL d   1      -6.681   0.516  -4.237  0.00  0.00     0.107 A 
ATOM     25  N   UNL d   1      -5.680   0.850  -3.404  0.00  0.00    -0.202 N 
ATOM     26  HN  UNL d   1      -5.315   1.801  -3.363  1.00  0.00     0.183 HD
ENDBRANCH  17  19
ENDBRANCH  10  17
TORSDOF 2
