REMARK  11 active torsions:
REMARK  status: ('A' for Active; 'I' for Inactive)
REMARK    1  A    between atoms: C_6  and  C_1 
REMARK    2  A    between atoms: C_8  and  C_2 
REMARK    3  A    between atoms: C_7  and  C_3 
REMARK    4  A    between atoms: O_10  and  C_6 
REMARK    5  A    between atoms: O_14  and  C_7 
REMARK    6  A    between atoms: C_9  and  C_8 
REMARK    7  A    between atoms: O_17  and  C_9 
REMARK    8  A    between atoms: C_16  and  O_10 
REMARK    9  A    between atoms: C_19  and  O_14 
REMARK   10  A    between atoms: C_18  and  C_16 
REMARK   11  A    between atoms: C_20  and  O_17 
ROOT
ATOM      1  C   UNL d   1      -1.332  -0.608   0.118  0.00  0.00     0.070 A 
ATOM      2  C   UNL d   1       0.019  -1.153   0.072  0.00  0.00     0.002 A 
ATOM      3  C   UNL d   1       0.897  -0.065   0.093  0.00  0.00     0.116 A 
ATOM      4  N   UNL d   1       0.124   1.071   0.122  0.00  0.00    -0.354 N 
ATOM      5  C   UNL d   1      -1.202   0.774   0.086  0.00  0.00     0.022 A 
ATOM      6  C   UNL d   1      -2.210   1.868   0.061  0.00  0.00     0.069 C 
ATOM      7  H   UNL d   1       0.521   2.004   0.135  0.00  0.00     0.166 HD
ENDROOT
BRANCH   1   8
ATOM      8  C   UNL d   1      -2.631  -1.293   0.186  0.00  0.00     0.296 C 
ATOM      9  O   UNL d   1      -3.681  -0.778  -0.182  0.00  0.00    -0.259 OA
BRANCH   8  10
ATOM     10  O   UNL d   1      -2.541  -2.525   0.761  0.00  0.00    -0.313 OA
BRANCH  10  11
ATOM     11  C   UNL d   1      -3.794  -3.109   1.153  0.00  0.00     0.217 C 
BRANCH  11  12
ATOM     12  C   UNL d   1      -4.176  -2.721   2.566  0.00  0.00    -0.034 A 
ATOM     13  C   UNL d   1      -5.528  -2.640   2.934  0.00  0.00     0.009 A 
ATOM     14  C   UNL d   1      -5.891  -2.312   4.244  0.00  0.00     0.001 A 
ATOM     15  C   UNL d   1      -4.909  -2.068   5.201  0.00  0.00     0.000 A 
ATOM     16  C   UNL d   1      -3.564  -2.159   4.854  0.00  0.00     0.001 A 
ATOM     17  C   UNL d   1      -3.200  -2.490   3.546  0.00  0.00     0.009 A 
ENDBRANCH  11  12
ENDBRANCH  10  11
ENDBRANCH   8  10
ENDBRANCH   1   8
BRANCH   2  18
ATOM     18  C   UNL d   1       0.370  -2.613  -0.037  0.00  0.00     0.153 C 
BRANCH  18  19
ATOM     19  C   UNL d   1       0.480  -3.329   1.293  0.00  0.00     0.263 C 
ATOM     20  O   UNL d   1       0.332  -2.826   2.401  0.00  0.00    -0.265 OA
BRANCH  19  21
ATOM     21  O   UNL d   1       0.767  -4.651   1.075  0.00  0.00    -0.322 OA
BRANCH  21  22
ATOM     22  C   UNL d   1       0.833  -5.480   2.243  0.00  0.00     0.174 C 
ATOM     23  C   UNL d   1       2.191  -5.372   2.911  0.00  0.00     0.034 C 
ENDBRANCH  21  22
ENDBRANCH  19  21
ENDBRANCH  18  19
ENDBRANCH   2  18
BRANCH   3  24
ATOM     24  C   UNL d   1       2.330   0.122   0.057  0.00  0.00     0.310 C 
ATOM     25  O   UNL d   1       2.853   1.231   0.085  0.00  0.00    -0.258 OA
BRANCH  24  26
ATOM     26  O   UNL d   1       3.002  -1.046  -0.107  0.00  0.00    -0.317 OA
BRANCH  26  27
ATOM     27  C   UNL d   1       4.377  -0.873  -0.485  0.00  0.00     0.175 C 
ATOM     28  C   UNL d   1       4.452  -0.799  -2.000  0.00  0.00     0.034 C 
ENDBRANCH  26  27
ENDBRANCH  24  26
ENDBRANCH   3  24
TORSDOF 11
