REMARK  5 active torsions:
REMARK  status: ('A' for Active; 'I' for Inactive)
REMARK    1  A    between atoms: C_9  and  C_1 
REMARK       I    between atoms: C_7  and  N_10 
REMARK       I    between atoms: N_11  and  C_7 
REMARK    2  A    between atoms: C_8  and  O_13 
REMARK    3  A    between atoms: N_10  and  C_15 
REMARK    4  A    between atoms: C_20  and  N_11 
REMARK    5  A    between atoms: O_13  and  C_21 
ROOT
ATOM      1  C   UNL d   1       2.630  -3.953  -3.210  0.00  0.00     0.325 C 
ATOM      2  N   UNL d   1       3.597  -4.038  -2.219  0.00  0.00    -0.309 N 
ATOM      3  N   UNL d   1       2.958  -4.742  -4.300  0.00  0.00    -0.309 N 
ATOM      4  O   UNL d   1       1.600  -3.298  -3.115  0.00  0.00    -0.247 OA
ATOM      5  H   UNL d   1       4.239  -4.813  -2.277  0.00  0.00     0.170 HD
ATOM      6  H   UNL d   1       3.921  -5.025  -4.388  0.00  0.00     0.170 HD
ENDROOT
BRANCH   2   7
ATOM      7  C   UNL d   1       3.662  -3.243  -1.051  0.00  0.00     0.037 C 
ATOM      8  C   UNL d   1       2.922  -2.070  -0.905  0.00  0.00     0.043 C 
ATOM      9  C   UNL d   1       3.199  -1.151   0.112  0.00  0.00    -0.004 C 
ATOM     10  C   UNL d   1       4.064  -1.540   1.141  0.00  0.00     0.014 C 
ATOM     11  C   UNL d   1       4.736  -2.763   1.066  0.00  0.00     0.003 C 
ATOM     12  C   UNL d   1       4.576  -3.586  -0.053  0.00  0.00     0.029 C 
BRANCH   9  13
ATOM     13  C   UNL d   1       2.719   0.233  -0.002  0.00  0.00     0.077 A 
ATOM     14  C   UNL d   1       2.499   1.009  -1.183  0.00  0.00     0.057 A 
ATOM     15  C   UNL d   1       2.164   2.265  -0.765  0.00  0.00     0.131 A 
ATOM     16 BR   UNL d   1       2.730   0.548  -2.990  0.00  0.00    -0.047 Br
ATOM     17  N   UNL d   1       2.217   2.221   0.589  0.00  0.00    -0.306 N 
ATOM     18  N   UNL d   1       2.545   1.012   1.087  0.00  0.00    -0.297 N 
ATOM     19  C   UNL d   1       2.044   3.357   1.461  0.00  0.00     0.177 C 
ATOM     20  HN  UNL d   1       2.639   0.745   2.067  1.00  0.00     0.187 HD
ENDBRANCH   9  13
ENDBRANCH   2   7
BRANCH   3  21
ATOM     21  C   UNL d   1       2.067  -5.172  -5.313  0.00  0.00     0.036 A 
ATOM     22  C   UNL d   1       0.715  -4.832  -5.338  0.00  0.00     0.032 A 
ATOM     23  C   UNL d   1      -0.162  -5.419  -6.255  0.00  0.00     0.039 A 
ATOM     24  C   UNL d   1       0.298  -6.376  -7.152  0.00  0.00     0.078 A 
ATOM     25  C   UNL d   1       1.665  -6.653  -7.200  0.00  0.00     0.039 A 
ATOM     26  C   UNL d   1       2.547  -6.053  -6.285  0.00  0.00     0.032 A 
BRANCH  24  27
ATOM     27  O   UNL d   1      -0.506  -6.991  -8.067  0.00  0.00    -0.255 OA
BRANCH  27  28
ATOM     28  C   UNL d   1      -1.677  -7.602  -7.526  0.00  0.00     0.530 C 
ATOM     29  F   UNL d   1      -2.480  -6.720  -6.895  0.00  0.00    -0.144 F 
ATOM     30  F   UNL d   1      -2.387  -8.137  -8.546  0.00  0.00    -0.144 F 
ATOM     31  F   UNL d   1      -1.351  -8.600  -6.677  0.00  0.00    -0.144 F 
ENDBRANCH  27  28
ENDBRANCH  24  27
ENDBRANCH   3  21
TORSDOF 5
