REMARK  4 active torsions:
REMARK  status: ('A' for Active; 'I' for Inactive)
REMARK    1  A    between atoms: C_5  and  S_1 
REMARK    2  A    between atoms: C_7  and  S_1 
REMARK    3  A    between atoms: C_9  and  C_4 
REMARK    4  A    between atoms: C_6  and  C_7 
ROOT
ATOM      1  N   UNL d   1       0.207  -3.769   0.760  0.00  0.00    -0.352 N 
ATOM      2  HN  UNL d   1      -0.665  -3.791   1.288  1.00  0.00     0.166 HD
ATOM      3  C   UNL d   1       0.858  -4.890   0.271  0.00  0.00     0.051 A 
ATOM      4  C   UNL d   1       0.866  -2.673   0.451  0.00  0.00     0.065 A 
ATOM      5  S   UNL d   1       2.275  -2.918  -0.503  0.00  0.00    -0.085 SA
ATOM      6  C   UNL d   1       1.988  -4.607  -0.475  0.00  0.00     0.082 A 
ENDROOT
BRANCH   4   7
ATOM      7  C   UNL d   1       0.515  -1.326   0.962  0.00  0.00     0.211 C 
BRANCH   7   8
ATOM      8  S   UNL d   1      -0.556  -0.506  -0.181  0.00  0.00     0.187 S 
ATOM      9  O   UNL d   1      -0.996   0.742   0.415  0.00  0.00    -0.222 OA
ATOM     10  O   UNL d   1       0.035  -0.510  -1.506  0.00  0.00    -0.222 OA
BRANCH   8  11
ATOM     11  C   UNL d   1      -2.032  -1.486  -0.337  0.00  0.00     0.100 A 
ATOM     12  S   UNL d   1      -2.909  -1.796   1.099  0.00  0.00    -0.090 SA
ATOM     13  C   UNL d   1      -4.126  -2.646   0.248  0.00  0.00     0.051 A 
ATOM     14  C   UNL d   1      -3.873  -2.695  -1.105  0.00  0.00     0.009 A 
ATOM     15  C   UNL d   1      -2.660  -2.030  -1.442  0.00  0.00     0.031 A 
ENDBRANCH   8  11
ENDBRANCH   7   8
ENDBRANCH   4   7
BRANCH   3  16
ATOM     16  C   UNL d   1       0.382  -6.247   0.546  0.00  0.00     0.013 A 
ATOM     17  C   UNL d   1      -0.221  -6.613   1.765  0.00  0.00     0.046 A 
ATOM     18 CL   UNL d   1      -0.446  -5.521   3.092  0.00  0.00    -0.083 Cl
ATOM     19  C   UNL d   1      -0.639  -7.934   1.983  0.00  0.00     0.025 A 
ATOM     20  C   UNL d   1      -0.459  -8.907   1.002  0.00  0.00     0.002 A 
ATOM     21  C   UNL d   1       0.131  -8.563  -0.208  0.00  0.00     0.001 A 
ATOM     22  C   UNL d   1       0.542  -7.246  -0.436  0.00  0.00     0.015 A 
ENDBRANCH   3  16
TORSDOF 4
