REMARK  6 active torsions:
REMARK  status: ('A' for Active; 'I' for Inactive)
REMARK    1  A    between atoms: N_4  and  C_1 
REMARK    2  A    between atoms: S_10  and  C_2 
REMARK    3  A    between atoms: C_7  and  C_5 
REMARK    4  A    between atoms: C_14  and  S_10 
REMARK    5  A    between atoms: O_12  and  C_15 
REMARK    6  A    between atoms: C_15  and  C_14 
ROOT
ATOM      1  C   UNL d   1       1.588   0.708  -0.039  0.00  0.00     0.128 A 
ATOM      2  C   UNL d   1       0.337   1.306  -0.019  0.00  0.00     0.075 A 
ATOM      3  C   UNL d   1       1.477  -0.730  -0.068  0.00  0.00     0.060 A 
ATOM      4  C   UNL d   1       0.174  -1.186  -0.006  0.00  0.00     0.054 A 
ATOM      5  S   UNL d   1      -0.915   0.118  -0.002  0.00  0.00    -0.077 SA
ENDROOT
BRANCH   2   6
ATOM      6  S   UNL d   1      -0.170   2.995   0.055  0.00  0.00    -0.118 SA
BRANCH   6   7
ATOM      7  C   UNL d   1       0.439   3.711  -1.508  0.00  0.00     0.106 C 
BRANCH   7   8
ATOM      8  C   UNL d   1      -0.072   3.025  -2.773  0.00  0.00     0.174 C 
BRANCH   8   9
ATOM      9  O   UNL d   1       0.567   1.767  -2.967  0.00  0.00    -0.400 OA
ATOM     10  H   UNL d   1       0.215   1.397  -3.796  0.00  0.00     0.209 HD
ENDBRANCH   8   9
ENDBRANCH   7   8
ENDBRANCH   6   7
ENDBRANCH   2   6
BRANCH   1  11
ATOM     11  N   UNL d   1       2.872   1.375  -0.009  0.00  0.00    -0.114 N 
ATOM     12  O   UNL d   1       2.906   2.590   0.221  0.00  0.00    -0.532 OA
ATOM     13  O   UNL d   1       3.868   0.661  -0.176  0.00  0.00    -0.532 OA
ENDBRANCH   1  11
BRANCH   4  14
ATOM     14  C   UNL d   1      -0.241  -2.585   0.033  0.00  0.00     0.162 C 
ATOM     15  O   UNL d   1       0.552  -3.494  -0.222  0.00  0.00    -0.292 OA
ATOM     16  C   UNL d   1      -1.656  -2.956   0.414  0.00  0.00     0.097 C 
ENDBRANCH   4  14
TORSDOF 6
