REMARK  6 active torsions:
REMARK  status: ('A' for Active; 'I' for Inactive)
REMARK    1  A    between atoms: C_14  and  N_1 
REMARK    2  A    between atoms: C_7  and  C_14 
REMARK    3  A    between atoms: S_17  and  C_9 
REMARK    4  A    between atoms: C_15  and  C_16 
REMARK    5  A    between atoms: C_25  and  S_17 
REMARK    6  A    between atoms: C_24  and  C_25 
ROOT
ATOM      1  C   UNL d   1       0.966  -3.401   0.065  0.00  0.00     0.161 A 
ATOM      2  O   UNL d   1       1.842  -3.202   1.105  0.00  0.00    -0.270 OA
ATOM      3  C   UNL d   1       2.896  -4.008   0.752  0.00  0.00     0.203 A 
ATOM      4  N   UNL d   1       1.434  -4.239  -0.837  0.00  0.00    -0.279 N 
ATOM      5  HN  UNL d   1       0.968  -4.541  -1.692  1.00  0.00     0.189 HD
ATOM      6  N   UNL d   1       2.681  -4.626  -0.393  0.00  0.00    -0.272 N 
ATOM      7  HN  UNL d   1       3.318  -5.269  -0.863  1.00  0.00     0.189 HD
ENDROOT
BRANCH   3   8
ATOM      8  S   UNL d   1       4.375  -4.150   1.651  0.00  0.00    -0.080 SA
BRANCH   8   9
ATOM      9  C   UNL d   1       3.789  -3.928   3.350  0.00  0.00     0.121 C 
BRANCH   9  10
ATOM     10  C   UNL d   1       4.923  -4.033   4.349  0.00  0.00    -0.048 A 
ATOM     11  C   UNL d   1       5.629  -2.889   4.756  0.00  0.00     0.024 A 
ATOM     12  C   UNL d   1       6.695  -2.978   5.673  0.00  0.00     0.048 A 
ATOM     13  C   UNL d   1       7.048  -4.236   6.185  0.00  0.00     0.016 A 
ATOM     14  C   UNL d   1       6.359  -5.378   5.783  0.00  0.00     0.001 A 
ATOM     15  C   UNL d   1       5.306  -5.279   4.867  0.00  0.00     0.008 A 
BRANCH  12  16
ATOM     16  C   UNL d   1       7.460  -1.751   6.106  0.00  0.00     0.417 C 
ATOM     17  F   UNL d   1       7.027  -0.601   5.519  0.00  0.00    -0.166 F 
ATOM     18  F   UNL d   1       7.382  -1.535   7.449  0.00  0.00    -0.166 F 
ATOM     19  F   UNL d   1       8.790  -1.837   5.820  0.00  0.00    -0.166 F 
ENDBRANCH  12  16
ENDBRANCH   9  10
ENDBRANCH   8   9
ENDBRANCH   3   8
BRANCH   1  20
ATOM     20  C   UNL d   1      -0.289  -2.620   0.029  0.00  0.00     0.234 C 
BRANCH  20  21
ATOM     21  N   UNL d   1      -1.160  -2.969   1.142  0.00  0.00    -0.288 N 
ATOM     22  N   UNL d   1      -1.068  -2.232   2.274  0.00  0.00    -0.301 N 
ATOM     23  C   UNL d   1      -1.988  -2.755   3.093  0.00  0.00     0.041 A 
ATOM     24  HN  UNL d   1      -0.437  -1.453   2.461  1.00  0.00     0.187 HD
ATOM     25  C   UNL d   1      -2.165  -2.210   4.461  0.00  0.00     0.071 C 
ATOM     26  C   UNL d   1      -2.678  -3.806   2.465  0.00  0.00     0.058 A 
ATOM     27  C   UNL d   1      -2.148  -3.927   1.199  0.00  0.00     0.044 A 
ATOM     28 BR   UNL d   1      -4.050  -4.822   3.234  0.00  0.00    -0.047 Br
ATOM     29  C   UNL d   1      -2.508  -4.863   0.104  0.00  0.00     0.071 C 
ENDBRANCH  20  21
ENDBRANCH   1  20
TORSDOF 6
