REMARK  4 active torsions:
REMARK  status: ('A' for Active; 'I' for Inactive)
REMARK    1  A    between atoms: N_6  and  C_1 
REMARK    2  A    between atoms: C_8  and  N_2 
REMARK       I    between atoms: C_11  and  N_6 
REMARK    3  A    between atoms: C_10  and  C_8 
REMARK    4  A    between atoms: C_19  and  C_11 
ROOT
ATOM      1  C   UNL d   1      -0.030  -1.341  -0.040  0.00  0.00     0.132 A 
ATOM      2  N   UNL d   1       1.167  -0.654   0.021  0.00  0.00    -0.331 N 
ATOM      3  C   UNL d   1      -1.050  -0.406   0.020  0.00  0.00     0.096 A 
ATOM      4  C   UNL d   1       0.919   0.709   0.085  0.00  0.00     0.017 A 
ATOM      5  C   UNL d   1      -0.458   0.890   0.061  0.00  0.00    -0.015 A 
ATOM      6  C   UNL d   1      -2.447  -0.699  -0.074  0.00  0.00     0.104 C 
ATOM      7  N   UNL d   1      -3.582  -0.927  -0.209  0.00  0.00    -0.191 NA
ATOM      8  C   UNL d   1       1.981   1.761   0.119  0.00  0.00     0.069 C 
ATOM      9  C   UNL d   1      -1.155   2.207   0.043  0.00  0.00     0.052 C 
ENDROOT
BRANCH   1  10
ATOM     10  N   UNL d   1      -0.095  -2.723  -0.187  0.00  0.00    -0.312 N 
ATOM     11  C   UNL d   1      -0.866  -3.468   0.686  0.00  0.00     0.222 C 
ATOM     12  O   UNL d   1      -1.268  -3.042   1.769  0.00  0.00    -0.273 OA
ATOM     13  H   UNL d   1       0.117  -3.090  -1.108  0.00  0.00     0.170 HD
BRANCH  11  14
ATOM     14  C   UNL d   1      -1.231  -4.878   0.244  0.00  0.00     0.099 C 
ATOM     15  C   UNL d   1      -0.317  -5.561  -0.757  0.00  0.00     0.014 C 
ENDBRANCH  11  14
ENDBRANCH   1  10
BRANCH   2  16
ATOM     16  C   UNL d   1       2.495  -1.271   0.079  0.00  0.00     0.176 C 
BRANCH  16  17
ATOM     17  C   UNL d   1       3.257  -1.055  -1.197  0.00  0.00     0.001 A 
ATOM     18  S   UNL d   1       4.963  -1.226  -1.192  0.00  0.00    -0.105 SA
ATOM     19  C   UNL d   1       5.082  -0.739  -2.826  0.00  0.00     0.050 A 
ATOM     20  C   UNL d   1       3.850  -0.485  -3.381  0.00  0.00     0.008 A 
ATOM     21  C   UNL d   1       2.795  -0.692  -2.450  0.00  0.00     0.017 A 
ENDBRANCH  16  17
ENDBRANCH   2  16
TORSDOF 4
