REMARK  7 active torsions:
REMARK  status: ('A' for Active; 'I' for Inactive)
REMARK    1  A    between atoms: N_4  and  C_1 
REMARK    2  A    between atoms: N_5  and  C_2 
REMARK    3  A    between atoms: N_14  and  C_3 
REMARK    4  A    between atoms: C_6  and  C_7 
REMARK    5  A    between atoms: C_19  and  N_14 
REMARK    6  A    between atoms: S_18  and  C_20 
REMARK    7  A    between atoms: C_20  and  C_19 
ROOT
ATOM      1  C   UNL d   1       1.310  -0.141  -0.007  0.00  0.00     0.132 A 
ATOM      2  C   UNL d   1      -0.894  -1.056   0.031  0.00  0.00     0.132 A 
ATOM      3  C   UNL d   1       0.491  -1.299  -0.141  0.00  0.00     0.095 A 
ATOM      4  C   UNL d   1      -0.607   1.361   0.245  0.00  0.00     0.052 A 
ATOM      5  C   UNL d   1      -1.435   0.239   0.206  0.00  0.00     0.054 A 
ATOM      6  C   UNL d   1       0.774   1.157   0.175  0.00  0.00     0.054 A 
ENDROOT
BRANCH   3   7
ATOM      7  N   UNL d   1       1.051  -2.490  -0.577  0.00  0.00    -0.385 N 
ATOM      8  H   UNL d   1       2.033  -2.666  -0.327  0.00  0.00     0.159 HD
BRANCH   7   9
ATOM      9  C   UNL d   1       0.401  -3.622  -1.229  0.00  0.00     0.130 C 
BRANCH   9  10
ATOM     10  C   UNL d   1       1.290  -4.205  -2.335  0.00  0.00     0.093 C 
BRANCH  10  11
ATOM     11  S   UNL d   1       2.800  -4.985  -1.672  0.00  0.00    -0.172 SA
ATOM     12  C   UNL d   1       3.481  -5.594  -3.233  0.00  0.00     0.089 C 
ENDBRANCH  10  11
ENDBRANCH   9  10
ENDBRANCH   7   9
ENDBRANCH   3   7
BRANCH   2  13
ATOM     13  N   UNL d   1      -1.872  -2.138   0.142  0.00  0.00    -0.113 N 
ATOM     14  O   UNL d   1      -1.606  -3.086   0.895  0.00  0.00    -0.532 OA
ATOM     15  O   UNL d   1      -2.932  -2.003  -0.483  0.00  0.00    -0.532 OA
ENDBRANCH   2  13
BRANCH   1  16
ATOM     16  N   UNL d   1       2.788  -0.229  -0.072  0.00  0.00    -0.113 N 
ATOM     17  O   UNL d   1       3.323  -1.334   0.100  0.00  0.00    -0.532 OA
ATOM     18  O   UNL d   1       3.414   0.823  -0.265  0.00  0.00    -0.532 OA
ENDBRANCH   1  16
BRANCH   4  19
ATOM     19  C   UNL d   1      -1.175   2.757   0.366  0.00  0.00     0.417 C 
ATOM     20  F   UNL d   1      -2.533   2.781   0.412  0.00  0.00    -0.166 F 
ATOM     21  F   UNL d   1      -0.744   3.391   1.488  0.00  0.00    -0.166 F 
ATOM     22  F   UNL d   1      -0.817   3.546  -0.682  0.00  0.00    -0.166 F 
ENDBRANCH   4  19
TORSDOF 7
