REMARK  4 active torsions:
REMARK  status: ('A' for Active; 'I' for Inactive)
REMARK    1  A    between atoms: C_6  and  C_1 
REMARK    2  A    between atoms: C_8  and  C_2 
REMARK    3  A    between atoms: C_9  and  N_3 
REMARK       I    between atoms: N_11  and  C_8 
REMARK    4  A    between atoms: N_15  and  N_11 
ROOT
ATOM      1  C   UNL d   1       0.986  -0.869  -0.050  0.00  0.00     0.157 C 
ATOM      2  C   UNL d   1      -0.348  -1.265  -0.068  0.00  0.00     0.083 C 
ATOM      3  N   UNL d   1       0.994   0.509   0.069  0.00  0.00    -0.251 N 
ATOM      4  N   UNL d   1      -0.264   0.972   0.327  0.00  0.00    -0.303 N 
ATOM      5  HN  UNL d   1      -0.534   1.919   0.593  1.00  0.00     0.186 HD
ATOM      6  C   UNL d   1      -1.060  -0.076   0.159  0.00  0.00     0.127 C 
ENDROOT
BRANCH   2   7
ATOM      7  C   UNL d   1      -0.853  -2.614  -0.243  0.00  0.00     0.269 C 
ATOM      8  O   UNL d   1      -0.266  -3.455  -0.917  0.00  0.00    -0.266 OA
ATOM      9  N   UNL d   1      -2.050  -2.877   0.421  0.00  0.00    -0.290 N 
ATOM     10  H   UNL d   1      -2.396  -2.224   1.121  0.00  0.00     0.183 HD
BRANCH   9  11
ATOM     11  N   UNL d   1      -2.573  -4.193   0.430  0.00  0.00    -0.247 NA
ATOM     12  H   UNL d   1      -1.810  -4.826   0.148  0.00  0.00     0.143 HD
ATOM     13  H   UNL d   1      -3.248  -4.270  -0.336  0.00  0.00     0.143 HD
ENDBRANCH   9  11
ENDBRANCH   2   7
BRANCH   1  14
ATOM     14  C   UNL d   1       2.211  -1.684  -0.002  0.00  0.00     0.435 C 
ATOM     15  F   UNL d   1       1.976  -2.957   0.402  0.00  0.00    -0.165 F 
ATOM     16  F   UNL d   1       2.833  -1.760  -1.203  0.00  0.00    -0.165 F 
ATOM     17  F   UNL d   1       3.111  -1.188   0.886  0.00  0.00    -0.165 F 
ENDBRANCH   1  14
BRANCH   3  18
ATOM     18  C   UNL d   1       2.061   1.449  -0.018  0.00  0.00     0.057 A 
ATOM     19  C   UNL d   1       3.193   1.217  -0.808  0.00  0.00     0.031 A 
ATOM     20  C   UNL d   1       4.234   2.150  -0.831  0.00  0.00     0.002 A 
ATOM     21  C   UNL d   1       4.145   3.324  -0.089  0.00  0.00     0.000 A 
ATOM     22  C   UNL d   1       2.999   3.583   0.663  0.00  0.00     0.002 A 
ATOM     23  C   UNL d   1       1.953   2.658   0.684  0.00  0.00     0.031 A 
ENDBRANCH   3  18
TORSDOF 4
