REMARK  8 active torsions:
REMARK  status: ('A' for Active; 'I' for Inactive)
REMARK    1  A    between atoms: C_2  and  C_1 
REMARK    2  A    between atoms: O_6  and  C_1 
REMARK    3  A    between atoms: N_8  and  C_7 
REMARK    4  A    between atoms: C_11  and  N_8 
REMARK    5  A    between atoms: C_12  and  C_11 
REMARK    6  A    between atoms: C_15  and  C_12 
REMARK    7  A    between atoms: C_13  and  C_14 
REMARK    8  A    between atoms: C_14  and  C_15 
ROOT
ATOM      1  C   UNL d   1      -1.068   1.785  -0.731  0.00  0.00     0.037 A 
ATOM      2  C   UNL d   1      -2.270   1.414  -0.124  0.00  0.00     0.020 A 
ATOM      3  C   UNL d   1      -0.312   2.816  -0.175  0.00  0.00     0.020 A 
ATOM      4  C   UNL d   1      -1.886   3.033   1.674  0.00  0.00     0.028 A 
ATOM      5  C   UNL d   1      -0.712   3.393   1.038  0.00  0.00     0.030 A 
ATOM      6  C   UNL d   1      -2.667   2.033   1.073  0.00  0.00     0.030 A 
ENDROOT
BRANCH   4   7
ATOM      7  N   UNL d   1      -2.361   3.680   2.812  0.00  0.00    -0.390 N 
ATOM      8  H   UNL d   1      -2.660   3.082   3.576  0.00  0.00     0.159 HD
BRANCH   7   9
ATOM      9  C   UNL d   1      -1.890   5.015   3.155  0.00  0.00     0.119 C 
BRANCH   9  10
ATOM     10  C   UNL d   1      -2.921   5.726   4.028  0.00  0.00     0.020 C 
BRANCH  10  11
ATOM     11  C   UNL d   1      -2.464   7.150   4.344  0.00  0.00     0.002 C 
BRANCH  11  12
ATOM     12  C   UNL d   1      -3.488   7.872   5.211  0.00  0.00    -0.000 C 
BRANCH  12  13
ATOM     13  C   UNL d   1      -3.030   9.292   5.527  0.00  0.00    -0.005 C 
ATOM     14  C   UNL d   1      -4.055  10.003   6.391  0.00  0.00     0.005 C 
ENDBRANCH  12  13
ENDBRANCH  11  12
ENDBRANCH  10  11
ENDBRANCH   9  10
ENDBRANCH   7   9
ENDBRANCH   4   7
BRANCH   1  15
ATOM     15  C   UNL d   1      -0.498   1.079  -1.914  0.00  0.00     0.176 C 
ATOM     16  O   UNL d   1       0.203   1.627  -2.737  0.00  0.00    -0.646 OA
BRANCH  15  17
ATOM     17  O   UNL d   1      -0.780  -0.254  -1.939  0.00  0.00    -0.773 OA
ATOM     18  H   UNL d   1      -1.317  -0.610  -1.212  0.00  0.00     0.167 HD
ENDBRANCH  15  17
ENDBRANCH   1  15
TORSDOF 8
