REMARK  2 active torsions:
REMARK  status: ('A' for Active; 'I' for Inactive)
REMARK    1  A    between atoms: C_7  and  C_3 
REMARK    2  A    between atoms: O_15  and  C_11 
ROOT
ATOM      1  N   UNL d   1       2.188  -0.228   0.183  0.00  0.00    -0.336 N 
ATOM      2  C   UNL d   1       1.320   0.817   0.029  0.00  0.00     0.255 C 
ATOM      3  C   UNL d   1       1.836  -1.567  -0.182  0.00  0.00     0.196 C 
ATOM      4  N   UNL d   1       0.492  -1.861   0.272  0.00  0.00    -0.267 NA
ATOM      5  C   UNL d   1      -0.116   0.474  -0.040  0.00  0.00     0.053 A 
ATOM      6  C   UNL d   1      -0.471  -0.877   0.050  0.00  0.00     0.026 A 
ATOM      7  O   UNL d   1       1.717   1.977  -0.023  0.00  0.00    -0.268 OA
ATOM      8  C   UNL d   1      -1.087   1.476  -0.137  0.00  0.00     0.019 A 
ATOM      9  C   UNL d   1      -1.830  -1.207   0.088  0.00  0.00     0.024 A 
ATOM     10  C   UNL d   1      -2.436   1.127  -0.125  0.00  0.00     0.001 A 
ATOM     11  C   UNL d   1      -2.807  -0.212  -0.013  0.00  0.00     0.002 A 
ATOM     12  H   UNL d   1       3.163   0.032   0.141  0.00  0.00     0.164 HD
ATOM     13  H   UNL d   1       0.193  -2.803   0.041  0.00  0.00     0.130 HD
ENDROOT
BRANCH   3  14
ATOM     14  C   UNL d   1       2.767  -2.571   0.465  0.00  0.00    -0.021 A 
ATOM     15  C   UNL d   1       2.851  -2.644   1.868  0.00  0.00     0.013 A 
ATOM     16  C   UNL d   1       3.635  -3.613   2.494  0.00  0.00     0.037 A 
ATOM     17  C   UNL d   1       4.360  -4.521   1.726  0.00  0.00     0.068 A 
ATOM     18  C   UNL d   1       4.284  -4.460   0.333  0.00  0.00     0.037 A 
ATOM     19  C   UNL d   1       3.501  -3.487  -0.298  0.00  0.00     0.013 A 
BRANCH  17  20
ATOM     20  O   UNL d   1       5.136  -5.530   2.228  0.00  0.00    -0.356 OA
ATOM     21  C   UNL d   1       5.656  -5.308   3.534  0.00  0.00     0.210 C 
ENDBRANCH  17  20
ENDBRANCH   3  14
TORSDOF 2
