REMARK  9 active torsions:
REMARK  status: ('A' for Active; 'I' for Inactive)
REMARK    1  A    between atoms: O_3  and  C_1 
REMARK    2  A    between atoms: C_10  and  C_1 
REMARK       I    between atoms: C_2  and  N_5 
REMARK    3  A    between atoms: C_11  and  C_2 
REMARK    4  A    between atoms: C_4  and  O_3 
REMARK    5  A    between atoms: N_5  and  C_16 
REMARK    6  A    between atoms: O_15  and  C_6 
REMARK    7  A    between atoms: C_17  and  C_13 
REMARK    8  A    between atoms: C_16  and  C_18 
REMARK    9  A    between atoms: C_18  and  C_17 
ROOT
ATOM      1  C   UNL d   1       0.729  -2.292  -0.580  0.00  0.00     0.112 C 
ATOM      2  C   UNL d   1       1.622  -3.077   0.174  0.00  0.00     0.102 C 
ATOM      3  C   UNL d   1       2.202  -4.215  -0.425  0.00  0.00     0.046 C 
ATOM      4  C   UNL d   1       0.345  -2.722  -1.856  0.00  0.00     0.041 C 
ATOM      5  C   UNL d   1       1.913  -4.564  -1.756  0.00  0.00    -0.055 C 
ATOM      6  C   UNL d   1       0.909  -3.869  -2.427  0.00  0.00     0.010 C 
ENDROOT
BRANCH   5   7
ATOM      7  C   UNL d   1       2.799  -5.548  -2.495  0.00  0.00     0.041 C 
BRANCH   7   8
ATOM      8  C   UNL d   1       3.554  -4.945  -3.705  0.00  0.00     0.029 C 
BRANCH   8   9
ATOM      9  C   UNL d   1       4.590  -3.833  -3.407  0.00  0.00     0.080 C 
ATOM     10  C   UNL d   1       4.022  -2.550  -2.813  0.00  0.00     0.032 C 
BRANCH   9  11
ATOM     11  N   UNL d   1       5.296  -3.453  -4.637  0.00  0.00    -0.356 N 
ATOM     12  C   UNL d   1       6.467  -4.065  -5.031  0.00  0.00     0.222 C 
ATOM     13  O   UNL d   1       6.949  -5.000  -4.409  0.00  0.00    -0.273 OA
ATOM     14  H   UNL d   1       4.942  -2.668  -5.168  0.00  0.00     0.162 HD
BRANCH  12  15
ATOM     15  C   UNL d   1       7.132  -3.430  -6.259  0.00  0.00     0.078 C 
ATOM     16  C   UNL d   1       6.265  -3.492  -7.524  0.00  0.00     0.014 C 
ATOM     17  C   UNL d   1       6.186  -4.897  -8.120  0.00  0.00     0.001 C 
ATOM     18  C   UNL d   1       7.566  -5.503  -8.352  0.00  0.00     0.000 C 
ATOM     19  C   UNL d   1       8.423  -5.466  -7.093  0.00  0.00     0.001 C 
ATOM     20  C   UNL d   1       8.513  -4.053  -6.516  0.00  0.00     0.014 C 
ENDBRANCH  12  15
ENDBRANCH   9  11
ENDBRANCH   8   9
ENDBRANCH   7   8
ENDBRANCH   5   7
BRANCH   2  21
ATOM     21  O   UNL d   1       1.984  -2.635   1.423  0.00  0.00    -0.353 OA
ATOM     22  C   UNL d   1       2.395  -3.652   2.340  0.00  0.00     0.210 C 
ENDBRANCH   2  21
BRANCH   1  23
ATOM     23  O   UNL d   1       0.339  -0.996  -0.076  0.00  0.00    -0.276 OA
BRANCH  23  24
ATOM     24  C   UNL d   1      -0.825  -0.353  -0.494  0.00  0.00     0.268 C 
ATOM     25  O   UNL d   1      -1.714  -0.907  -1.157  0.00  0.00    -0.264 OA
BRANCH  24  26
ATOM     26  C   UNL d   1      -1.006   1.090  -0.001  0.00  0.00     0.086 C 
ATOM     27  C   UNL d   1      -1.873   1.896  -0.997  0.00  0.00     0.014 C 
ATOM     28  C   UNL d   1      -1.110   2.281  -2.267  0.00  0.00     0.001 C 
ATOM     29  C   UNL d   1       0.180   3.034  -1.957  0.00  0.00     0.000 C 
ATOM     30  C   UNL d   1       1.039   2.300  -0.930  0.00  0.00     0.001 C 
ATOM     31  C   UNL d   1       0.244   1.916   0.316  0.00  0.00     0.014 C 
ENDBRANCH  24  26
ENDBRANCH  23  24
ENDBRANCH   1  23
TORSDOF 9
