REMARK  5 active torsions:
REMARK  status: ('A' for Active; 'I' for Inactive)
REMARK    1  A    between atoms: C_2  and  C_1 
REMARK    2  A    between atoms: C_3  and  C_1 
REMARK       I    between atoms: N_4  and  C_2 
REMARK    3  A    between atoms: N_5  and  C_3 
REMARK    4  A    between atoms: C_10  and  N_5 
REMARK    5  A    between atoms: O_15  and  C_12 
ROOT
ATOM      1  C   UNL d   1       1.155   0.021   0.008  0.00  0.00     0.245 C 
ATOM      2  C   UNL d   1       2.623   0.051   0.037  0.00  0.00     0.080 C 
ATOM      3  N   UNL d   1       3.785   0.043   0.068  0.00  0.00    -0.196 NA
ENDROOT
BRANCH   1   4
ATOM      4  C   UNL d   1       0.642   0.835   1.183  0.00  0.00     0.244 C 
ATOM      5  N   UNL d   1       0.361   0.166   2.361  0.00  0.00    -0.351 N 
ATOM      6  C   UNL d   1       0.458  -1.261   2.635  0.00  0.00     0.126 C 
ATOM      7  C   UNL d   1      -0.032   0.894   3.559  0.00  0.00     0.126 C 
ATOM      8  C   UNL d   1      -0.416  -1.459   3.860  0.00  0.00     0.021 C 
ATOM      9  C   UNL d   1      -0.218  -0.168   4.639  0.00  0.00     0.021 C 
ATOM     10  O   UNL d   1       0.520   2.060   1.091  0.00  0.00    -0.271 OA
ENDBRANCH   1   4
BRANCH   1  11
ATOM     11  C   UNL d   1       0.609   0.480  -1.344  0.00  0.00     0.105 C 
ATOM     12  S   UNL d   1      -0.801  -0.237  -1.941  0.00  0.00    -0.063 SA
BRANCH  11  13
ATOM     13  N   UNL d   1       1.281   1.510  -1.978  0.00  0.00    -0.349 N 
ATOM     14  H   UNL d   1       1.625   2.272  -1.394  0.00  0.00     0.166 HD
BRANCH  13  15
ATOM     15  C   UNL d   1       1.712   1.547  -3.329  0.00  0.00     0.035 A 
ATOM     16  C   UNL d   1       1.742   0.410  -4.150  0.00  0.00     0.066 A 
ATOM     17  C   UNL d   1       2.276   0.473  -5.440  0.00  0.00     0.070 A 
ATOM     18  C   UNL d   1       2.759   1.690  -5.922  0.00  0.00     0.037 A 
ATOM     19  C   UNL d   1       2.736   2.827  -5.115  0.00  0.00     0.005 A 
ATOM     20  C   UNL d   1       2.227   2.751  -3.817  0.00  0.00     0.029 A 
BRANCH  17  21
ATOM     21  O   UNL d   1       2.400  -0.577  -6.310  0.00  0.00    -0.356 OA
ATOM     22  C   UNL d   1       2.071  -1.869  -5.812  0.00  0.00     0.210 C 
ENDBRANCH  17  21
ENDBRANCH  13  15
ENDBRANCH  11  13
ENDBRANCH   1  11
TORSDOF 5
