REMARK  5 active torsions:
REMARK  status: ('A' for Active; 'I' for Inactive)
REMARK    1  A    between atoms: O_4  and  S_1 
REMARK    2  A    between atoms: C_5  and  S_1 
REMARK    3  A    between atoms: C_6  and  C_2 
REMARK    4  A    between atoms: C_3  and  O_4 
REMARK    5  A    between atoms: O_18  and  C_6 
ROOT
ATOM      1  S   UNL d   1       0.763  -0.263  -0.111  0.00  0.00     0.303 S 
ATOM      2  O   UNL d   1      -0.604  -0.628  -0.437  0.00  0.00    -0.193 OA
ATOM      3  O   UNL d   1       1.867  -1.173  -0.340  0.00  0.00    -0.193 OA
ENDROOT
BRANCH   1   4
ATOM      4  O   UNL d   1       0.793   0.263   1.434  0.00  0.00    -0.228 OA
BRANCH   4   5
ATOM      5  C   UNL d   1       1.011  -0.556   2.488  0.00  0.00     0.113 A 
ATOM      6  C   UNL d   1       1.481  -0.063   3.695  0.00  0.00     0.114 A 
ATOM      7  S   UNL d   1       1.734  -1.347   4.816  0.00  0.00    -0.093 SA
ATOM      8  C   UNL d   1       1.168  -2.522   3.719  0.00  0.00     0.053 A 
ATOM      9  C   UNL d   1       0.790  -1.966   2.519  0.00  0.00     0.047 A 
BRANCH   6  10
ATOM     10  C   UNL d   1       1.797   1.289   4.129  0.00  0.00     0.302 C 
ATOM     11  O   UNL d   1       2.216   1.613   5.235  0.00  0.00    -0.259 OA
BRANCH  10  12
ATOM     12  O   UNL d   1       1.554   2.186   3.126  0.00  0.00    -0.322 OA
ATOM     13  C   UNL d   1       1.797   3.550   3.480  0.00  0.00     0.213 C 
ENDBRANCH  10  12
ENDBRANCH   6  10
ENDBRANCH   4   5
ENDBRANCH   1   4
BRANCH   1  14
ATOM     14  C   UNL d   1       1.148   1.188  -1.060  0.00  0.00     0.090 A 
ATOM     15  C   UNL d   1       1.917   2.205  -0.490  0.00  0.00     0.049 A 
ATOM     16  C   UNL d   1       2.206   3.337  -1.247  0.00  0.00     0.037 A 
ATOM     17 CL   UNL d   1       3.146   4.600  -0.553  0.00  0.00    -0.084 Cl
ATOM     18  C   UNL d   1       1.744   3.455  -2.557  0.00  0.00     0.047 A 
ATOM     19  C   UNL d   1       0.981   2.428  -3.111  0.00  0.00     0.037 A 
ATOM     20  C   UNL d   1       0.671   1.291  -2.370  0.00  0.00     0.049 A 
ATOM     21 CL   UNL d   1       0.419   2.566  -4.731  0.00  0.00    -0.084 Cl
ENDBRANCH   1  14
TORSDOF 5
