REMARK  5 active torsions:
REMARK  status: ('A' for Active; 'I' for Inactive)
REMARK    1  A    between atoms: C_5  and  C_1 
REMARK       I    between atoms: C_2  and  N_6 
REMARK       I    between atoms: N_4  and  C_2 
REMARK    2  A    between atoms: C_3  and  N_4 
REMARK    3  A    between atoms: N_6  and  C_11 
REMARK    4  A    between atoms: O_18  and  C_8 
REMARK    5  A    between atoms: O_19  and  C_16 
ROOT
ATOM      1  C   UNL d   1      -0.129  -3.776  -3.028  0.00  0.00     0.325 C 
ATOM      2  N   UNL d   1       0.410  -3.922  -1.755  0.00  0.00    -0.306 N 
ATOM      3  N   UNL d   1      -0.019  -4.939  -3.760  0.00  0.00    -0.309 N 
ATOM      4  O   UNL d   1      -0.621  -2.738  -3.442  0.00  0.00    -0.247 OA
ATOM      5  H   UNL d   1       0.945  -4.750  -1.557  0.00  0.00     0.171 HD
ATOM      6  H   UNL d   1       0.554  -5.670  -3.374  0.00  0.00     0.170 HD
ENDROOT
BRANCH   3   7
ATOM      7  C   UNL d   1      -0.620  -5.202  -5.011  0.00  0.00     0.037 A 
ATOM      8  C   UNL d   1      -1.530  -4.337  -5.626  0.00  0.00     0.045 A 
ATOM      9  C   UNL d   1      -2.188  -4.701  -6.811  0.00  0.00     0.050 A 
ATOM     10  C   UNL d   1      -1.894  -5.936  -7.400  0.00  0.00     0.016 A 
ATOM     11  C   UNL d   1      -0.959  -6.788  -6.815  0.00  0.00     0.003 A 
ATOM     12  C   UNL d   1      -0.328  -6.425  -5.623  0.00  0.00     0.029 A 
BRANCH   9  13
ATOM     13  C   UNL d   1      -3.241  -3.800  -7.411  0.00  0.00     0.417 C 
ATOM     14  F   UNL d   1      -3.381  -2.606  -6.771  0.00  0.00    -0.166 F 
ATOM     15  F   UNL d   1      -4.477  -4.375  -7.391  0.00  0.00    -0.166 F 
ATOM     16  F   UNL d   1      -2.993  -3.499  -8.715  0.00  0.00    -0.166 F 
ENDBRANCH   9  13
ENDBRANCH   3   7
BRANCH   2  17
ATOM     17  C   UNL d   1       0.461  -2.906  -0.768  0.00  0.00     0.072 A 
ATOM     18  C   UNL d   1      -0.467  -1.859  -0.758  0.00  0.00     0.069 A 
ATOM     19  C   UNL d   1      -0.411  -0.848   0.206  0.00  0.00     0.070 A 
ATOM     20  C   UNL d   1       0.540  -0.936   1.223  0.00  0.00     0.039 A 
ATOM     21  C   UNL d   1       1.450  -1.996   1.250  0.00  0.00     0.042 A 
ATOM     22  C   UNL d   1       1.426  -2.969   0.252  0.00  0.00     0.095 A 
BRANCH  19  23
ATOM     23  O   UNL d   1      -1.251   0.230   0.251  0.00  0.00    -0.356 OA
ATOM     24  C   UNL d   1      -1.755   0.640  -1.019  0.00  0.00     0.210 C 
ENDBRANCH  19  23
BRANCH  22  25
ATOM     25  O   UNL d   1       2.346  -3.985   0.362  0.00  0.00    -0.354 OA
ATOM     26  C   UNL d   1       3.242  -4.079  -0.745  0.00  0.00     0.210 C 
ENDBRANCH  22  25
ENDBRANCH   2  17
TORSDOF 5
