REMARK  2 active torsions:
REMARK  status: ('A' for Active; 'I' for Inactive)
REMARK    1  A    between atoms: S_12  and  C_4 
REMARK    2  A    between atoms: C_7  and  C_8 
ROOT
ATOM      1  N   UNL d   1      -1.649  -1.150  -0.003  0.00  0.00    -0.334 N 
ATOM      2  HN  UNL d   1      -1.976  -2.116  -0.006  1.00  0.00     0.168 HD
ATOM      3  C   UNL d   1      -0.342  -0.704  -0.001  0.00  0.00     0.083 A 
ATOM      4  C   UNL d   1      -2.375  -0.063  -0.002  0.00  0.00     0.142 A 
ATOM      5  C   UNL d   1      -0.303   0.692   0.001  0.00  0.00     0.063 A 
ATOM      6  N   UNL d   1      -1.622   1.071  -0.000  0.00  0.00    -0.335 N 
ATOM      7  C   UNL d   1       2.102   0.717   0.008  0.00  0.00     0.051 A 
ATOM      8  C   UNL d   1       0.885  -1.388  -0.000  0.00  0.00     0.063 A 
ATOM      9  C   UNL d   1       0.886   1.431   0.005  0.00  0.00     0.048 A 
ATOM     10  C   UNL d   1       2.094  -0.689   0.005  0.00  0.00     0.042 A 
ATOM     11 CL   UNL d   1       0.816  -3.093  -0.002  0.00  0.00    -0.082 Cl
ATOM     12  H   UNL d   1      -1.986   2.012   0.001  0.00  0.00     0.168 HD
ENDROOT
BRANCH   7  13
ATOM     13  C   UNL d   1       3.423   1.454   0.018  0.00  0.00     0.417 C 
ATOM     14  F   UNL d   1       3.286   2.809   0.013  0.00  0.00    -0.166 F 
ATOM     15  F   UNL d   1       4.174   1.158   1.113  0.00  0.00    -0.166 F 
ATOM     16  F   UNL d   1       4.194   1.152  -1.062  0.00  0.00    -0.166 F 
ENDBRANCH   7  13
BRANCH   4  17
ATOM     17  S   UNL d   1      -4.091   0.027  -0.000  0.00  0.00    -0.107 SA
ATOM     18  H   UNL d   1      -4.312  -1.296   0.002  0.00  0.00     0.110 HD
ENDBRANCH   4  17
TORSDOF 2
