REMARK  4 active torsions:
REMARK  status: ('A' for Active; 'I' for Inactive)
REMARK    1  A    between atoms: S_2  and  N_1 
REMARK    2  A    between atoms: C_13  and  S_2 
REMARK    3  A    between atoms: C_19  and  C_11 
REMARK    4  A    between atoms: C_12  and  C_17 
ROOT
ATOM      1  N   UNL d   1       0.980  -0.691  -0.102  0.00  0.00    -0.175 N 
ATOM      2  C   UNL d   1      -0.302  -1.146   0.155  0.00  0.00     0.106 A 
ATOM      3  C   UNL d   1      -0.727  -2.465   0.511  0.00  0.00     0.130 A 
ATOM      4  C   UNL d   1      -0.161  -3.411   1.339  0.00  0.00     0.074 A 
ATOM      5  N   UNL d   1      -2.126  -4.232   0.581  0.00  0.00    -0.260 N 
ATOM      6  HN  UNL d   1      -2.931  -4.835   0.413  1.00  0.00     0.195 HD
ATOM      7  O   UNL d   1      -1.921  -2.970   0.074  0.00  0.00    -0.235 OA
ATOM      8  N   UNL d   1       1.020   0.662  -0.313  0.00  0.00    -0.295 N 
ATOM      9  HN  UNL d   1       1.840   1.252  -0.453  1.00  0.00     0.187 HD
ATOM     10  C   UNL d   1      -1.056  -4.512   1.338  0.00  0.00     0.068 A 
ATOM     11  C   UNL d   1      -1.123  -0.049  -0.041  0.00  0.00     0.054 A 
ATOM     12  C   UNL d   1      -0.261   1.028  -0.294  0.00  0.00     0.111 A 
ENDROOT
BRANCH   1  13
ATOM     13  S   UNL d   1       2.392  -1.683  -0.040  0.00  0.00     0.282 S 
ATOM     14  O   UNL d   1       2.845  -1.625   1.339  0.00  0.00    -0.198 OA
ATOM     15  O   UNL d   1       2.040  -2.942  -0.673  0.00  0.00    -0.198 OA
BRANCH  13  16
ATOM     16  C   UNL d   1       3.571  -0.871  -1.083  0.00  0.00     0.081 A 
ATOM     17  C   UNL d   1       4.422   0.102  -0.554  0.00  0.00     0.026 A 
ATOM     18  C   UNL d   1       5.381   0.696  -1.379  0.00  0.00     0.018 A 
ATOM     19  C   UNL d   1       5.504   0.315  -2.727  0.00  0.00     0.048 A 
ATOM     20  C   UNL d   1       4.646  -0.672  -3.237  0.00  0.00     0.018 A 
ATOM     21  C   UNL d   1       3.684  -1.266  -2.420  0.00  0.00     0.026 A 
BRANCH  19  22
ATOM     22  C   UNL d   1       6.555   0.958  -3.602  0.00  0.00     0.417 C 
ATOM     23  F   UNL d   1       6.571   0.476  -4.876  0.00  0.00    -0.166 F 
ATOM     24  F   UNL d   1       6.386   2.304  -3.715  0.00  0.00    -0.166 F 
ATOM     25  F   UNL d   1       7.815   0.777  -3.119  0.00  0.00    -0.166 F 
ENDBRANCH  19  22
ENDBRANCH  13  16
ENDBRANCH   1  13
BRANCH  10  26
ATOM     26  C   UNL d   1      -0.922  -5.784   2.041  0.00  0.00    -0.007 A 
ATOM     27  C   UNL d   1      -2.059  -6.453   2.516  0.00  0.00     0.014 A 
ATOM     28  C   UNL d   1      -1.940  -7.675   3.180  0.00  0.00     0.001 A 
ATOM     29  C   UNL d   1      -0.682  -8.244   3.371  0.00  0.00     0.000 A 
ATOM     30  C   UNL d   1       0.457  -7.589   2.905  0.00  0.00     0.001 A 
ATOM     31  C   UNL d   1       0.339  -6.362   2.246  0.00  0.00     0.014 A 
ENDBRANCH  10  26
TORSDOF 4
