REMARK  1 active torsions:
REMARK  status: ('A' for Active; 'I' for Inactive)
REMARK    1  A    between atoms: C_13  and  C_6 
ROOT
ATOM      1  C   UNL d   1       1.662   1.432   0.102  0.00  0.00     0.027 C 
ATOM      2  N   UNL d   1       0.872   1.446  -0.943  0.00  0.00    -0.357 N 
ATOM      3  HN  UNL d   1       1.084   2.023  -1.756  1.00  0.00     0.166 HD
ATOM      4  C   UNL d   1       1.523   0.339   1.135  0.00  0.00     0.065 C 
ATOM      5  S   UNL d   1       1.010  -1.965  -0.281  0.00  0.00    -0.117 SA
ATOM      6  C   UNL d   1       2.266  -0.821   0.414  0.00  0.00     0.096 C 
ATOM      7  C   UNL d   1       2.885   2.290   0.240  0.00  0.00     0.004 A 
ATOM      8  S   UNL d   1       2.590   2.170   3.053  0.00  0.00    -0.128 SA
ATOM      9  C   UNL d   1      -0.306   0.619  -0.908  0.00  0.00     0.049 A 
ATOM     10  C   UNL d   1       1.648   0.720   2.582  0.00  0.00     0.091 C 
ATOM     11  C   UNL d   1      -0.389  -0.798  -0.681  0.00  0.00     0.028 A 
ATOM     12  C   UNL d   1       3.361   2.601   1.516  0.00  0.00     0.012 A 
ATOM     13  C   UNL d   1       3.629   2.681  -0.882  0.00  0.00     0.015 A 
ATOM     14  C   UNL d   1      -1.507   1.357  -0.926  0.00  0.00     0.031 A 
ATOM     15  C   UNL d   1      -1.662  -1.378  -0.462  0.00  0.00     0.021 A 
ATOM     16  C   UNL d   1       4.551   3.326   1.673  0.00  0.00     0.019 A 
ATOM     17  C   UNL d   1       4.849   3.372  -0.705  0.00  0.00     0.001 A 
ATOM     18  C   UNL d   1      -2.749   0.765  -0.682  0.00  0.00     0.002 A 
ATOM     19  C   UNL d   1      -2.827  -0.601  -0.451  0.00  0.00     0.002 A 
ATOM     20  C   UNL d   1       5.303   3.696   0.565  0.00  0.00     0.001 A 
ENDROOT
BRANCH   6  21
ATOM     21  C   UNL d   1       3.491  -1.366   1.130  0.00  0.00    -0.043 A 
ATOM     22  C   UNL d   1       4.769  -1.027   0.636  0.00  0.00     0.009 A 
ATOM     23  C   UNL d   1       5.929  -1.233   1.393  0.00  0.00     0.007 A 
ATOM     24  C   UNL d   1       5.850  -1.787   2.666  0.00  0.00    -0.062 A 
ATOM     25  C   UNL d   1       4.596  -2.213   3.132  0.00  0.00     0.007 A 
ATOM     26  C   UNL d   1       7.071  -1.845   3.539  0.00  0.00     0.048 C 
ATOM     27  C   UNL d   1       3.434  -2.028   2.361  0.00  0.00     0.009 A 
ENDBRANCH   6  21
TORSDOF 1
