REMARK  6 active torsions:
REMARK  status: ('A' for Active; 'I' for Inactive)
REMARK    1  A    between atoms: C_6  and  C_1 
REMARK    2  A    between atoms: C_3  and  C_2 
REMARK       I    between atoms: N_9  and  C_3 
REMARK    3  A    between atoms: C_12  and  C_7 
REMARK    4  A    between atoms: C_13  and  N_9 
REMARK    5  A    between atoms: C_10  and  C_14 
REMARK       I    between atoms: N_15  and  C_12 
REMARK    6  A    between atoms: C_14  and  N_15 
ROOT
ATOM      1  C   UNL d   1      -2.128  -2.889  -1.530  0.00  0.00     0.058 A 
ATOM      2  C   UNL d   1      -1.555  -3.793  -0.606  0.00  0.00     0.050 A 
ATOM      3  C   UNL d   1      -3.500  -3.005  -1.826  0.00  0.00     0.019 A 
ATOM      4  C   UNL d   1      -2.343  -4.793  -0.027  0.00  0.00     0.030 A 
ATOM      5  C   UNL d   1      -4.287  -3.970  -1.194  0.00  0.00     0.001 A 
ATOM      6  C   UNL d   1      -3.709  -4.861  -0.297  0.00  0.00     0.002 A 
ENDROOT
BRANCH   2   7
ATOM      7  N   UNL d   1      -0.210  -3.701  -0.128  0.00  0.00    -0.322 N 
ATOM      8  C   UNL d   1       0.130  -2.584   0.628  0.00  0.00     0.261 C 
ATOM      9  O   UNL d   1      -0.673  -1.663   0.782  0.00  0.00    -0.267 OA
ATOM     10  H   UNL d   1       0.219  -4.560   0.177  0.00  0.00     0.169 HD
BRANCH   8  11
ATOM     11  C   UNL d   1       1.416  -2.572   1.331  0.00  0.00     0.093 A 
ATOM     12  C   UNL d   1       2.517  -3.492   1.517  0.00  0.00     0.086 A 
ATOM     13  N   UNL d   1       3.438  -2.950   2.336  0.00  0.00    -0.259 N 
ATOM     14  O   UNL d   1       3.023  -1.690   2.634  0.00  0.00    -0.241 OA
ATOM     15  HN  UNL d   1       4.289  -3.401   2.671  1.00  0.00     0.195 HD
ATOM     16  C   UNL d   1       1.824  -1.456   2.059  0.00  0.00     0.090 A 
ATOM     17  C   UNL d   1       1.277  -0.112   2.345  0.00  0.00     0.080 C 
BRANCH  12  18
ATOM     18  C   UNL d   1       2.806  -4.866   1.079  0.00  0.00     0.037 A 
ATOM     19  C   UNL d   1       4.030  -5.166   0.433  0.00  0.00     0.048 A 
ATOM     20 CL   UNL d   1       5.127  -3.946  -0.129  0.00  0.00    -0.083 Cl
ATOM     21  C   UNL d   1       4.437  -6.494   0.223  0.00  0.00     0.025 A 
ATOM     22  C   UNL d   1       3.622  -7.549   0.612  0.00  0.00     0.003 A 
ATOM     23  C   UNL d   1       2.402  -7.278   1.223  0.00  0.00     0.025 A 
ATOM     24  C   UNL d   1       2.010  -5.953   1.480  0.00  0.00     0.048 A 
ATOM     25 CL   UNL d   1       0.539  -5.753   2.369  0.00  0.00    -0.083 Cl
ENDBRANCH  12  18
ENDBRANCH   8  11
ENDBRANCH   2   7
BRANCH   1  26
ATOM     26  C   UNL d   1      -1.306  -1.912  -2.318  0.00  0.00     0.254 C 
ATOM     27  N   UNL d   1      -1.965  -0.806  -2.842  0.00  0.00    -0.352 N 
ATOM     28  H   UNL d   1      -2.846  -0.529  -2.439  0.00  0.00     0.163 HD
ATOM     29  O   UNL d   1      -0.114  -2.127  -2.530  0.00  0.00    -0.268 OA
BRANCH  27  30
ATOM     30  C   UNL d   1      -1.260   0.140  -3.676  0.00  0.00     0.166 C 
BRANCH  30  31
ATOM     31  C   UNL d   1      -2.133   0.921  -4.636  0.00  0.00     0.020 A 
ATOM     32  C   UNL d   1      -1.901   2.300  -4.772  0.00  0.00     0.126 A 
ATOM     33  F   UNL d   1      -0.976   2.899  -4.007  0.00  0.00    -0.205 F 
ATOM     34  C   UNL d   1      -2.580   3.087  -5.704  0.00  0.00     0.043 A 
ATOM     35  C   UNL d   1      -3.524   2.505  -6.540  0.00  0.00     0.005 A 
ATOM     36  C   UNL d   1      -3.771   1.137  -6.439  0.00  0.00     0.024 A 
ATOM     37  C   UNL d   1      -3.073   0.350  -5.505  0.00  0.00     0.044 A 
ATOM     38 CL   UNL d   1      -3.411  -1.345  -5.530  0.00  0.00    -0.084 Cl
ENDBRANCH  30  31
ENDBRANCH  27  30
ENDBRANCH   1  26
TORSDOF 6
