REMARK  5 active torsions:
REMARK  status: ('A' for Active; 'I' for Inactive)
REMARK    1  A    between atoms: O_11  and  C_1 
REMARK    2  A    between atoms: C_2  and  C_4 
REMARK    3  A    between atoms: C_16  and  N_3 
REMARK    4  A    between atoms: C_4  and  O_11 
REMARK    5  A    between atoms: C_17  and  C_7 
ROOT
ATOM      1  C   UNL d   1      -2.141  -2.661   0.222  0.00  0.00     0.304 C 
ATOM      2  O   UNL d   1      -2.339  -3.842   0.476  0.00  0.00    -0.259 OA
ENDROOT
BRANCH   1   3
ATOM      3  C   UNL d   1      -3.186  -1.700  -0.091  0.00  0.00     0.100 A 
ATOM      4  C   UNL d   1      -4.470  -1.851  -0.714  0.00  0.00     0.084 A 
ATOM      5  N   UNL d   1      -5.080  -0.655  -0.804  0.00  0.00    -0.259 N 
ATOM      6  O   UNL d   1      -4.261   0.260  -0.202  0.00  0.00    -0.241 OA
ATOM      7  HN  UNL d   1      -5.984  -0.466  -1.239  1.00  0.00     0.195 HD
ATOM      8  C   UNL d   1      -3.137  -0.355   0.232  0.00  0.00     0.091 A 
ATOM      9  C   UNL d   1      -2.188   0.510   0.967  0.00  0.00     0.080 C 
BRANCH   4  10
ATOM     10  C   UNL d   1      -5.170  -3.031  -1.226  0.00  0.00    -0.006 A 
ATOM     11  C   UNL d   1      -5.970  -2.933  -2.378  0.00  0.00     0.014 A 
ATOM     12  C   UNL d   1      -6.728  -4.021  -2.820  0.00  0.00     0.001 A 
ATOM     13  C   UNL d   1      -6.693  -5.223  -2.117  0.00  0.00     0.000 A 
ATOM     14  C   UNL d   1      -5.897  -5.338  -0.981  0.00  0.00     0.001 A 
ATOM     15  C   UNL d   1      -5.149  -4.246  -0.534  0.00  0.00     0.014 A 
ENDBRANCH   4  10
ENDBRANCH   1   3
BRANCH   1  16
ATOM     16  O   UNL d   1      -0.914  -2.087   0.201  0.00  0.00    -0.255 OA
BRANCH  16  17
ATOM     17  C   UNL d   1      -0.032  -2.360   1.154  0.00  0.00     0.175 C 
ATOM     18  N   UNL d   1       1.290  -1.920   1.070  0.00  0.00    -0.234 N 
ATOM     19  N   UNL d   1       1.882  -1.940   2.296  0.00  0.00    -0.296 N 
ATOM     20  C   UNL d   1       0.991  -2.500   3.111  0.00  0.00     0.026 C 
ATOM     21  HN  UNL d   1       2.812  -1.597   2.538  1.00  0.00     0.187 HD
ATOM     22  C   UNL d   1      -0.164  -2.908   2.417  0.00  0.00     0.084 C 
ATOM     23  C   UNL d   1       1.254  -2.531   4.571  0.00  0.00     0.070 C 
BRANCH  18  24
ATOM     24  C   UNL d   1       2.021  -1.423  -0.054  0.00  0.00     0.059 A 
ATOM     25  C   UNL d   1       1.480  -1.388  -1.343  0.00  0.00     0.031 A 
ATOM     26  C   UNL d   1       2.239  -0.884  -2.409  0.00  0.00     0.002 A 
ATOM     27  C   UNL d   1       3.540  -0.437  -2.194  0.00  0.00     0.000 A 
ATOM     28  C   UNL d   1       4.094  -0.487  -0.924  0.00  0.00     0.002 A 
ATOM     29  C   UNL d   1       3.340  -0.977   0.147  0.00  0.00     0.031 A 
ENDBRANCH  18  24
ENDBRANCH  16  17
ENDBRANCH   1  16
TORSDOF 5
