REMARK  6 active torsions:
REMARK  status: ('A' for Active; 'I' for Inactive)
REMARK    1  A    between atoms: C_8  and  N_1 
REMARK    2  A    between atoms: C_9  and  C_2 
REMARK    3  A    between atoms: S_10  and  C_5 
REMARK    4  A    between atoms: C_11  and  C_8 
REMARK    5  A    between atoms: O_18  and  C_11 
REMARK    6  A    between atoms: O_19  and  C_11 
ROOT
ATOM      1  N   UNL d   1      -0.092  -1.127  -0.118  0.00  0.00    -0.306 N 
ATOM      2  C   UNL d   1       1.108  -0.465  -0.341  0.00  0.00     0.134 A 
ATOM      3  N   UNL d   1       0.872   0.836  -0.236  0.00  0.00    -0.283 N 
ATOM      4  HN  UNL d   1       1.575   1.570  -0.313  1.00  0.00     0.188 HD
ATOM      5  C   UNL d   1      -1.034  -0.135   0.045  0.00  0.00     0.160 A 
ATOM      6  N   UNL d   1      -0.456   1.038  -0.008  0.00  0.00    -0.278 N 
ATOM      7  HN  UNL d   1      -0.917   1.942   0.102  1.00  0.00     0.189 HD
ENDROOT
BRANCH   2   8
ATOM      8  C   UNL d   1       2.457  -0.974  -0.647  0.00  0.00     0.010 A 
ATOM      9  C   UNL d   1       2.724  -2.187  -1.297  0.00  0.00     0.017 A 
ATOM     10  C   UNL d   1       4.037  -2.559  -1.621  0.00  0.00     0.025 A 
ATOM     11  C   UNL d   1       5.098  -1.706  -1.338  0.00  0.00     0.034 A 
ATOM     12  C   UNL d   1       4.864  -0.492  -0.706  0.00  0.00     0.025 A 
ATOM     13 CL   UNL d   1       6.695  -2.140  -1.804  0.00  0.00    -0.084 Cl
ATOM     14  C   UNL d   1       3.556  -0.139  -0.360  0.00  0.00     0.017 A 
ENDBRANCH   2   8
BRANCH   1  15
ATOM     15  C   UNL d   1      -0.346  -2.553  -0.146  0.00  0.00     0.193 C 
BRANCH  15  16
ATOM     16  C   UNL d   1       0.351  -3.404   0.929  0.00  0.00     0.276 C 
BRANCH  16  17
ATOM     17  O   UNL d   1      -0.082  -2.938   2.211  0.00  0.00    -0.364 OA
ATOM     18  C   UNL d   1       0.577  -3.609   3.279  0.00  0.00     0.204 C 
ENDBRANCH  16  17
BRANCH  16  19
ATOM     19  O   UNL d   1      -0.028  -4.780   0.797  0.00  0.00    -0.364 OA
ATOM     20  C   UNL d   1       0.376  -5.404  -0.411  0.00  0.00     0.204 C 
ENDBRANCH  16  19
ENDBRANCH  15  16
ENDBRANCH   1  15
BRANCH   5  21
ATOM     21  S   UNL d   1      -2.740  -0.323   0.273  0.00  0.00    -0.105 SA
ATOM     22  H   UNL d   1      -2.946  -1.561  -0.185  0.00  0.00     0.110 HD
ENDBRANCH   5  21
TORSDOF 6
