REMARK  3 active torsions:
REMARK  status: ('A' for Active; 'I' for Inactive)
REMARK    1  A    between atoms: C_8  and  C_1 
REMARK    2  A    between atoms: C_16  and  C_8 
REMARK    3  A    between atoms: C_17  and  C_16 
ROOT
ATOM      1  C   UNL d   1       2.393  -0.708   0.015  0.00  0.00     0.086 A 
ATOM      2  C   UNL d   1       2.405   0.778  -0.036  0.00  0.00     0.302 A 
ATOM      3  O   UNL d   1       1.162   1.411   0.029  0.00  0.00    -0.273 OA
ATOM      4  C   UNL d   1       1.228  -1.377   0.085  0.00  0.00     0.035 A 
ATOM      5  C   UNL d   1      -0.047  -0.679   0.060  0.00  0.00     0.002 A 
ATOM      6  C   UNL d   1      -0.059   0.711   0.042  0.00  0.00     0.107 A 
ATOM      7  C   UNL d   1      -1.262   1.419   0.020  0.00  0.00     0.047 A 
ATOM      8  C   UNL d   1      -2.473   0.725   0.008  0.00  0.00     0.041 A 
ATOM      9  C   UNL d   1      -1.258  -1.376   0.046  0.00  0.00     0.033 A 
ATOM     10  O   UNL d   1       3.426   1.441  -0.157  0.00  0.00    -0.259 OA
ATOM     11  C   UNL d   1      -2.462  -0.670   0.019  0.00  0.00     0.013 A 
ATOM     12 BR   UNL d   1      -1.300   3.312  -0.004  0.00  0.00    -0.048 Br
ATOM     13 BR   UNL d   1      -4.096  -1.621  -0.007  0.00  0.00    -0.051 Br
ENDROOT
BRANCH   1  14
ATOM     14  C   UNL d   1       3.676  -1.484   0.015  0.00  0.00     0.165 C 
ATOM     15  O   UNL d   1       4.707  -0.988   0.467  0.00  0.00    -0.292 OA
BRANCH  14  16
ATOM     16  C   UNL d   1       3.696  -2.927  -0.477  0.00  0.00     0.084 C 
BRANCH  16  17
ATOM     17  C   UNL d   1       3.241  -3.089  -1.925  0.00  0.00     0.003 C 
ATOM     18  C   UNL d   1       3.198  -4.554  -2.328  0.00  0.00     0.005 C 
ENDBRANCH  16  17
ENDBRANCH  14  16
ENDBRANCH   1  14
TORSDOF 3
