REMARK  7 active torsions:
REMARK  status: ('A' for Active; 'I' for Inactive)
REMARK    1  A    between atoms: N_3  and  S_1 
REMARK    2  A    between atoms: C_9  and  S_1 
REMARK    3  A    between atoms: C_2  and  C_4 
REMARK    4  A    between atoms: N_5  and  N_3 
REMARK    5  A    between atoms: C_6  and  N_5 
REMARK    6  A    between atoms: N_8  and  C_6 
REMARK    7  A    between atoms: C_7  and  N_8 
ROOT
ATOM      1  N   UNL d   1       1.040   1.971   1.570  0.00  0.00    -0.284 N 
ATOM      2  H   UNL d   1       1.262   1.918   0.578  0.00  0.00     0.184 HD
ENDROOT
BRANCH   1   3
ATOM      3  N   UNL d   1       1.507   0.894   2.441  0.00  0.00    -0.123 NA
ATOM      4  H   UNL d   1       1.316   1.047   3.439  0.00  0.00     0.166 HD
BRANCH   3   5
ATOM      5  S   UNL d   1       3.107   0.317   2.286  0.00  0.00     0.258 S 
ATOM      6  O   UNL d   1       3.189  -0.907   3.050  0.00  0.00    -0.204 OA
ATOM      7  O   UNL d   1       4.000   1.428   2.546  0.00  0.00    -0.204 OA
BRANCH   5   8
ATOM      8  C   UNL d   1       3.253  -0.098   0.566  0.00  0.00     0.076 A 
ATOM      9  C   UNL d   1       3.817   0.835  -0.314  0.00  0.00     0.026 A 
ATOM     10  C   UNL d   1       4.027   0.487  -1.649  0.00  0.00     0.025 A 
ATOM     11  C   UNL d   1       3.688  -0.791  -2.091  0.00  0.00     0.034 A 
ATOM     12  C   UNL d   1       3.140  -1.727  -1.210  0.00  0.00     0.025 A 
ATOM     13 CL   UNL d   1       3.963  -1.224  -3.733  0.00  0.00    -0.084 Cl
ATOM     14  C   UNL d   1       2.924  -1.384   0.127  0.00  0.00     0.026 A 
ENDBRANCH   5   8
ENDBRANCH   3   5
ENDBRANCH   1   3
BRANCH   1  15
ATOM     15  C   UNL d   1       0.731   3.217   2.080  0.00  0.00     0.187 C 
ATOM     16  S   UNL d   1       1.088   3.746   3.623  0.00  0.00    -0.040 SA
BRANCH  15  17
ATOM     17  N   UNL d   1       0.138   4.071   1.181  0.00  0.00    -0.332 N 
ATOM     18  H   UNL d   1       0.290   5.061   1.371  0.00  0.00     0.168 HD
BRANCH  17  19
ATOM     19  C   UNL d   1      -0.993   3.769   0.374  0.00  0.00     0.049 A 
ATOM     20  C   UNL d   1      -1.425   4.665  -0.620  0.00  0.00     0.074 A 
ATOM     21  C   UNL d   1      -2.608   4.374  -1.334  0.00  0.00     0.018 A 
ATOM     22  C   UNL d   1      -3.358   3.232  -1.060  0.00  0.00     0.001 A 
ATOM     23  C   UNL d   1      -2.932   2.354  -0.074  0.00  0.00     0.002 A 
ATOM     24  C   UNL d   1      -1.759   2.619   0.634  0.00  0.00     0.030 A 
BRANCH  20  25
ATOM     25  C   UNL d   1      -0.665   5.904  -1.021  0.00  0.00     0.419 C 
ATOM     26  F   UNL d   1       0.377   6.219  -0.201  0.00  0.00    -0.166 F 
ATOM     27  F   UNL d   1      -0.135   5.797  -2.273  0.00  0.00    -0.166 F 
ATOM     28  F   UNL d   1      -1.455   7.014  -1.047  0.00  0.00    -0.166 F 
ENDBRANCH  20  25
ENDBRANCH  17  19
ENDBRANCH  15  17
ENDBRANCH   1  15
TORSDOF 7
