REMARK  3 active torsions:
REMARK  status: ('A' for Active; 'I' for Inactive)
REMARK    1  A    between atoms: C_2  and  N_1 
REMARK    2  A    between atoms: O_6  and  C_3 
REMARK    3  A    between atoms: C_5  and  O_6 
ROOT
ATOM      1  O   UNL d   1      -1.179  -1.472  -0.866  0.00  0.00    -0.291 OA
ENDROOT
BRANCH   1   2
ATOM      2  C   UNL d   1      -0.417  -0.847  -1.825  0.00  0.00     0.084 A 
ATOM      3  C   UNL d   1      -0.891   0.327  -2.392  0.00  0.00    -0.017 A 
ATOM      4  C   UNL d   1      -0.104   1.051  -3.299  0.00  0.00    -0.043 A 
ATOM      5  C   UNL d   1      -2.179   1.033  -2.107  0.00  0.00     0.042 C 
ATOM      6  C   UNL d   1      -0.777   2.331  -3.688  0.00  0.00     0.040 C 
ATOM      7  C   UNL d   1       1.162   0.606  -3.675  0.00  0.00    -0.055 A 
ATOM      8  C   UNL d   1      -2.212   2.120  -3.189  0.00  0.00     0.009 C 
ATOM      9  C   UNL d   1       1.590  -0.632  -3.184  0.00  0.00     0.010 A 
ATOM     10  C   UNL d   1       2.049   1.423  -4.564  0.00  0.00     0.049 C 
ATOM     11  C   UNL d   1       0.802  -1.359  -2.282  0.00  0.00     0.038 A 
ENDBRANCH   1   2
BRANCH   1  12
ATOM     12  C   UNL d   1      -0.524  -1.954   0.262  0.00  0.00     0.181 A 
ATOM     13  C   UNL d   1      -1.122  -2.932   1.037  0.00  0.00     0.154 A 
ATOM     14  C   UNL d   1      -0.466  -3.425   2.171  0.00  0.00     0.042 A 
ATOM     15  C   UNL d   1       0.782  -2.908   2.498  0.00  0.00     0.020 A 
ATOM     16  C   UNL d   1       1.305  -1.906   1.698  0.00  0.00     0.090 A 
ATOM     17  N   UNL d   1       0.677  -1.415   0.608  0.00  0.00    -0.345 N 
ATOM     18  HN  UNL d   1       1.091  -0.662   0.059  1.00  0.00     0.167 HD
BRANCH  13  19
ATOM     19  N   UNL d   1      -2.422  -3.448   0.697  0.00  0.00    -0.111 N 
ATOM     20  O   UNL d   1      -2.577  -3.914  -0.439  0.00  0.00    -0.532 OA
ATOM     21  O   UNL d   1      -3.277  -3.442   1.593  0.00  0.00    -0.532 OA
ENDBRANCH  13  19
ENDBRANCH   1  12
TORSDOF 3
