REMARK  3 active torsions:
REMARK  status: ('A' for Active; 'I' for Inactive)
REMARK    1  A    between atoms: S_7  and  C_2 
REMARK    2  A    between atoms: C_9  and  C_5 
REMARK    3  A    between atoms: C_14  and  S_7 
ROOT
ATOM      1  C   UNL d   1       0.047  -0.760   0.186  0.00  0.00     0.041 A 
ATOM      2  C   UNL d   1       1.132  -1.609   0.082  0.00  0.00     0.056 A 
ATOM      3  C   UNL d   1       0.420   0.641   0.053  0.00  0.00    -0.021 A 
ATOM      4  S   UNL d   1       2.586  -0.709  -0.040  0.00  0.00    -0.078 SA
ATOM      5  C   UNL d   1       1.798   0.807  -0.047  0.00  0.00     0.059 A 
ATOM      6  C   UNL d   1      -1.347  -1.116   0.391  0.00  0.00     0.162 C 
ATOM      7  C   UNL d   1      -0.631   1.746   0.034  0.00  0.00     0.050 C 
ATOM      8  C   UNL d   1      -2.061   1.258   0.424  0.00  0.00    -0.037 C 
ATOM      9  C   UNL d   1      -2.332  -0.128  -0.193  0.00  0.00     0.093 C 
ATOM     10  O   UNL d   1      -1.726  -2.064   1.065  0.00  0.00    -0.292 OA
ATOM     11  C   UNL d   1      -3.127   2.232  -0.106  0.00  0.00     0.015 C 
ATOM     12  C   UNL d   1      -2.202   1.190   1.961  0.00  0.00     0.015 C 
ENDROOT
BRANCH   2  13
ATOM     13  S   UNL d   1       1.251  -3.370   0.069  0.00  0.00    -0.117 SA
BRANCH  13  14
ATOM     14  C   UNL d   1      -0.234  -3.976  -0.804  0.00  0.00     0.045 C 
ATOM     15  C   UNL d   1      -0.359  -3.428  -2.221  0.00  0.00     0.021 C 
ATOM     16  C   UNL d   1      -0.201  -5.504  -0.822  0.00  0.00     0.021 C 
ENDBRANCH  13  14
ENDBRANCH   2  13
BRANCH   5  17
ATOM     17  C   UNL d   1       2.544   2.068  -0.154  0.00  0.00     0.163 C 
ATOM     18  O   UNL d   1       1.966   3.159  -0.204  0.00  0.00    -0.292 OA
ATOM     19  C   UNL d   1       4.059   2.084  -0.192  0.00  0.00     0.097 C 
ENDBRANCH   5  17
TORSDOF 3
