REMARK  3 active torsions:
REMARK  status: ('A' for Active; 'I' for Inactive)
REMARK    1  A    between atoms: C_5  and  C_1 
REMARK    2  A    between atoms: C_12  and  C_5 
REMARK    3  A    between atoms: O_17  and  N_10 
ROOT
ATOM      1  C   UNL d   1       2.603  -0.515   0.517  0.00  0.00     0.066 C 
ATOM      2  C   UNL d   1       3.561   0.441   0.996  0.00  0.00     0.101 C 
ATOM      3  N   UNL d   1       4.351   1.183   1.407  0.00  0.00    -0.191 NA
ENDROOT
BRANCH   1   4
ATOM      4  C   UNL d   1       1.367  -0.168   0.055  0.00  0.00     0.009 C 
ATOM      5  C   UNL d   1       0.870   1.216  -0.075  0.00  0.00     0.048 C 
ATOM      6  C   UNL d   1      -0.445   1.474  -0.003  0.00  0.00     0.057 C 
ATOM      7 CL   UNL d   1       1.911   2.541  -0.473  0.00  0.00    -0.083 Cl
ATOM      8  C   UNL d   1      -1.446   0.366   0.106  0.00  0.00     0.073 C 
ATOM      9  C   UNL d   1      -0.922  -0.999  -0.263  0.00  0.00     0.040 C 
ATOM     10  N   UNL d   1      -2.697   0.530   0.425  0.00  0.00    -0.268 N 
ATOM     11  C   UNL d   1       0.403  -1.214  -0.316  0.00  0.00     0.036 C 
ATOM     12 BR   UNL d   1      -2.145  -2.352  -0.666  0.00  0.00    -0.049 Br
ATOM     13  HN  UNL d   1      -3.376  -0.230   0.464  1.00  0.00     0.194 HD
BRANCH  10  14
ATOM     14  O   UNL d   1      -3.008   1.866   0.708  0.00  0.00    -0.289 OA
ATOM     15  H   UNL d   1      -3.968   1.823   0.883  0.00  0.00     0.244 HD
ENDBRANCH  10  14
ENDBRANCH   1   4
BRANCH   1  16
ATOM     16  C   UNL d   1       3.037  -1.926   0.698  0.00  0.00    -0.015 A 
ATOM     17  C   UNL d   1       3.804  -2.573  -0.280  0.00  0.00     0.013 A 
ATOM     18  C   UNL d   1       4.300  -3.862  -0.051  0.00  0.00     0.007 A 
ATOM     19  C   UNL d   1       4.034  -4.526   1.153  0.00  0.00    -0.062 A 
ATOM     20  C   UNL d   1       3.254  -3.886   2.122  0.00  0.00     0.007 A 
ATOM     21  C   UNL d   1       4.623  -5.885   1.409  0.00  0.00     0.048 C 
ATOM     22  C   UNL d   1       2.757  -2.598   1.897  0.00  0.00     0.013 A 
ENDBRANCH   1  16
TORSDOF 3
