REMARK  2 active torsions:
REMARK  status: ('A' for Active; 'I' for Inactive)
REMARK    1  A    between atoms: C_2  and  C_1 
REMARK       I    between atoms: N_3  and  C_2 
REMARK    2  A    between atoms: S_6  and  N_3 
ROOT
ATOM      1  C   UNL d   1      -0.269  -2.496  -0.476  0.00  0.00     0.272 C 
ATOM      2  N   UNL d   1       0.947  -3.073  -0.068  0.00  0.00    -0.283 N 
ATOM      3  HN  UNL d   1       1.418  -3.726  -0.695  1.00  0.00     0.178 HD
ATOM      4  O   UNL d   1      -0.553  -1.345  -0.159  0.00  0.00    -0.266 OA
ENDROOT
BRANCH   1   5
ATOM      5  C   UNL d   1      -1.098  -3.246  -1.399  0.00  0.00     0.111 A 
ATOM      6  C   UNL d   1      -2.090  -2.843  -2.284  0.00  0.00     0.043 A 
ATOM      7  N   UNL d   1      -2.647  -3.877  -3.034  0.00  0.00    -0.296 N 
ATOM      8  C   UNL d   1      -2.601  -1.476  -2.558  0.00  0.00     0.071 C 
ATOM      9  N   UNL d   1      -2.126  -5.051  -2.730  0.00  0.00    -0.061 NA
ATOM     10  HN  UNL d   1      -3.374  -3.743  -3.737  1.00  0.00     0.183 HD
ATOM     11  S   UNL d   1      -0.957  -4.950  -1.545  0.00  0.00     0.007 SA
ENDBRANCH   1   5
BRANCH   2  12
ATOM     12  S   UNL d   1       1.591  -2.752   1.287  0.00  0.00     0.020 S 
ATOM     13  O   UNL d   1       0.908  -2.868   2.563  0.00  0.00    -0.250 OA
ATOM     14  C   UNL d   1       2.306  -1.124   1.212  0.00  0.00     0.136 C 
ATOM     15  C   UNL d   1       3.041  -3.781   1.391  0.00  0.00     0.136 C 
ENDBRANCH   2  12
TORSDOF 2
