REMARK  9 active torsions:
REMARK  status: ('A' for Active; 'I' for Inactive)
REMARK    1  A    between atoms: C_6  and  C_1 
REMARK    2  A    between atoms: C_7  and  C_2 
REMARK    3  A    between atoms: S_9  and  C_4 
REMARK    4  A    between atoms: O_19  and  C_7 
REMARK    5  A    between atoms: C_18  and  S_9 
REMARK    6  A    between atoms: C_12  and  C_18 
REMARK    7  A    between atoms: O_20  and  C_12 
REMARK    8  A    between atoms: C_21  and  O_19 
REMARK    9  A    between atoms: C_22  and  O_20 
ROOT
ATOM      1  C   UNL d   1      -0.103  -1.353  -0.059  0.00  0.00     0.027 A 
ATOM      2  C   UNL d   1       1.284  -1.263  -0.031  0.00  0.00     0.094 A 
ATOM      3  C   UNL d   1      -0.708  -0.040  -0.063  0.00  0.00     0.081 A 
ATOM      4  C   UNL d   1       0.223   0.977  -0.032  0.00  0.00     0.064 A 
ATOM      5  S   UNL d   1       1.816   0.369   0.013  0.00  0.00    -0.075 SA
ATOM      6  C   UNL d   1      -2.119   0.225  -0.028  0.00  0.00     0.102 C 
ATOM      7  N   UNL d   1      -3.261   0.418   0.014  0.00  0.00    -0.191 NA
ENDROOT
BRANCH   1   8
ATOM      8  C   UNL d   1      -0.872  -2.665  -0.045  0.00  0.00     0.018 A 
ATOM      9  S   UNL d   1      -0.342  -4.096   0.742  0.00  0.00    -0.101 SA
ATOM     10  C   UNL d   1      -1.719  -4.977   0.252  0.00  0.00     0.050 A 
ATOM     11  C   UNL d   1      -2.595  -4.195  -0.462  0.00  0.00     0.008 A 
ATOM     12  C   UNL d   1      -2.111  -2.861  -0.625  0.00  0.00     0.020 A 
ENDBRANCH   1   8
BRANCH   4  13
ATOM     13  S   UNL d   1      -0.122   2.713   0.040  0.00  0.00    -0.111 SA
BRANCH  13  14
ATOM     14  C   UNL d   1       0.688   3.351  -1.453  0.00  0.00     0.191 C 
BRANCH  14  15
ATOM     15  C   UNL d   1       0.220   2.697  -2.735  0.00  0.00     0.268 C 
ATOM     16  O   UNL d   1      -0.599   1.796  -2.842  0.00  0.00    -0.264 OA
BRANCH  15  17
ATOM     17  O   UNL d   1       0.945   3.220  -3.769  0.00  0.00    -0.321 OA
BRANCH  17  18
ATOM     18  C   UNL d   1       0.943   2.443  -4.977  0.00  0.00     0.174 C 
ATOM     19  C   UNL d   1       2.074   1.434  -4.882  0.00  0.00     0.034 C 
ENDBRANCH  17  18
ENDBRANCH  15  17
ENDBRANCH  14  15
ENDBRANCH  13  14
ENDBRANCH   4  13
BRANCH   2  20
ATOM     20  C   UNL d   1       2.276  -2.318  -0.115  0.00  0.00     0.301 C 
ATOM     21  O   UNL d   1       2.226  -3.281  -0.870  0.00  0.00    -0.259 OA
BRANCH  20  22
ATOM     22  O   UNL d   1       3.238  -2.129   0.835  0.00  0.00    -0.317 OA
BRANCH  22  23
ATOM     23  C   UNL d   1       4.012  -3.288   1.180  0.00  0.00     0.174 C 
ATOM     24  C   UNL d   1       3.454  -3.830   2.483  0.00  0.00     0.034 C 
ENDBRANCH  22  23
ENDBRANCH  20  22
ENDBRANCH   2  20
TORSDOF 9
