REMARK  7 active torsions:
REMARK  status: ('A' for Active; 'I' for Inactive)
REMARK    1  A    between atoms: N_2  and  C_1 
REMARK    2  A    between atoms: C_3  and  C_1 
REMARK    3  A    between atoms: C_4  and  C_1 
REMARK    4  A    between atoms: N_7  and  C_1 
REMARK       I    between atoms: C_5  and  N_2 
REMARK    5  A    between atoms: C_6  and  C_5 
REMARK    6  A    between atoms: C_16  and  N_7 
REMARK    7  A    between atoms: O_22  and  C_9 
ROOT
ATOM      1  C   UNL d   1       0.726   0.405  -0.163  0.00  0.00     0.306 C 
ENDROOT
BRANCH   1   2
ATOM      2  N   UNL d   1       0.282  -0.264   1.084  0.00  0.00    -0.315 N 
ATOM      3  C   UNL d   1       0.475  -1.593   1.354  0.00  0.00     0.256 C 
ATOM      4  O   UNL d   1       1.031  -2.341   0.560  0.00  0.00    -0.267 OA
ATOM      5  H   UNL d   1      -0.005   0.350   1.835  0.00  0.00     0.165 HD
BRANCH   3   6
ATOM      6  C   UNL d   1      -0.046  -2.087   2.660  0.00  0.00     0.065 A 
ATOM      7  C   UNL d   1       0.549  -3.168   3.329  0.00  0.00     0.084 A 
ATOM      8  C   UNL d   1      -0.068  -3.717   4.458  0.00  0.00     0.038 A 
ATOM      9  C   UNL d   1      -1.240  -3.160   4.967  0.00  0.00     0.003 A 
ATOM     10  C   UNL d   1      -1.809  -2.054   4.343  0.00  0.00     0.001 A 
ATOM     11  C   UNL d   1      -1.225  -1.525   3.189  0.00  0.00     0.020 A 
BRANCH   7  12
ATOM     12  O   UNL d   1       1.697  -3.802   2.936  0.00  0.00    -0.355 OA
ATOM     13  C   UNL d   1       2.843  -2.949   2.931  0.00  0.00     0.210 C 
ENDBRANCH   7  12
ENDBRANCH   3   6
ENDBRANCH   1   2
BRANCH   1  14
ATOM     14  C   UNL d   1      -0.076   1.724  -0.384  0.00  0.00     0.441 C 
ATOM     15  F   UNL d   1      -0.421   2.271   0.819  0.00  0.00    -0.166 F 
ATOM     16  F   UNL d   1       0.616   2.670  -1.055  0.00  0.00    -0.166 F 
ATOM     17  F   UNL d   1      -1.248   1.535  -1.035  0.00  0.00    -0.166 F 
ENDBRANCH   1  14
BRANCH   1  18
ATOM     18  C   UNL d   1       0.423  -0.372  -1.495  0.00  0.00     0.441 C 
ATOM     19  F   UNL d   1      -0.793  -0.966  -1.474  0.00  0.00    -0.166 F 
ATOM     20  F   UNL d   1       0.454   0.442  -2.582  0.00  0.00    -0.166 F 
ATOM     21  F   UNL d   1       1.348  -1.335  -1.744  0.00  0.00    -0.166 F 
ENDBRANCH   1  18
BRANCH   1  22
ATOM     22  N   UNL d   1       2.207   0.584  -0.024  0.00  0.00    -0.349 N 
ATOM     23  H   UNL d   1       2.688  -0.247  -0.382  0.00  0.00     0.162 HD
BRANCH  22  24
ATOM     24  C   UNL d   1       2.951   1.250   0.925  0.00  0.00     0.030 A 
ATOM     25  C   UNL d   1       2.431   2.007   1.974  0.00  0.00     0.032 A 
ATOM     26  C   UNL d   1       3.275   2.671   2.877  0.00  0.00     0.044 A 
ATOM     27  C   UNL d   1       4.651   2.616   2.706  0.00  0.00     0.116 A 
ATOM     28  C   UNL d   1       5.198   1.921   1.643  0.00  0.00     0.044 A 
ATOM     29  F   UNL d   1       5.452   3.248   3.572  0.00  0.00    -0.206 F 
ATOM     30  C   UNL d   1       4.350   1.252   0.758  0.00  0.00     0.032 A 
ENDBRANCH  22  24
ENDBRANCH   1  22
TORSDOF 7
