REMARK  4 active torsions:
REMARK  status: ('A' for Active; 'I' for Inactive)
REMARK    1  A    between atoms: S_13  and  C_3 
REMARK    2  A    between atoms: C_7  and  C_4 
REMARK    3  A    between atoms: O_11  and  C_7 
REMARK    4  A    between atoms: C_15  and  O_11 
ROOT
ATOM      1  C   UNL d   1       0.087  -0.936  -0.057  0.00  0.00     0.041 A 
ATOM      2  C   UNL d   1       0.405   0.479  -0.154  0.00  0.00    -0.018 A 
ATOM      3  C   UNL d   1       1.223  -1.719  -0.020  0.00  0.00     0.056 A 
ATOM      4  C   UNL d   1       1.781   0.705  -0.169  0.00  0.00     0.088 A 
ATOM      5  S   UNL d   1       2.640  -0.776  -0.060  0.00  0.00    -0.076 SA
ATOM      6  C   UNL d   1      -1.298  -1.411  -0.009  0.00  0.00     0.162 C 
ATOM      7  C   UNL d   1      -0.691   1.523  -0.252  0.00  0.00     0.050 C 
ATOM      8  C   UNL d   1      -2.077   0.996   0.225  0.00  0.00    -0.037 C 
ATOM      9  C   UNL d   1      -2.358  -0.394  -0.387  0.00  0.00     0.093 C 
ATOM     10  O   UNL d   1      -1.619  -2.557   0.300  0.00  0.00    -0.292 OA
ATOM     11  C   UNL d   1      -3.192   1.956  -0.236  0.00  0.00     0.015 C 
ATOM     12  C   UNL d   1      -2.129   0.924   1.766  0.00  0.00     0.015 C 
ENDROOT
BRANCH   4  13
ATOM     13  C   UNL d   1       2.510   1.968  -0.276  0.00  0.00     0.301 C 
ATOM     14  O   UNL d   1       1.990   3.073  -0.401  0.00  0.00    -0.259 OA
BRANCH  13  15
ATOM     15  O   UNL d   1       3.862   1.763  -0.222  0.00  0.00    -0.312 OA
BRANCH  15  16
ATOM     16  C   UNL d   1       4.728   2.905  -0.344  0.00  0.00     0.124 C 
ATOM     17  C   UNL d   1       4.919   3.549   1.024  0.00  0.00     0.040 C 
ATOM     18  C   UNL d   1       6.066   2.398  -0.877  0.00  0.00     0.040 C 
ENDBRANCH  15  16
ENDBRANCH  13  15
ENDBRANCH   4  13
BRANCH   3  19
ATOM     19  S   UNL d   1       1.353  -3.474   0.002  0.00  0.00    -0.126 SA
ATOM     20  C   UNL d   1       1.413  -3.758   1.785  0.00  0.00     0.096 C 
ENDBRANCH   3  19
TORSDOF 4
