REMARK  3 active torsions:
REMARK  status: ('A' for Active; 'I' for Inactive)
REMARK    1  A    between atoms: C_8  and  C_1 
REMARK    2  A    between atoms: C_10  and  C_4 
REMARK    3  A    between atoms: O_12  and  C_8 
ROOT
ATOM      1  C   UNL d   1      -0.326  -1.294   0.009  0.00  0.00     0.075 A 
ATOM      2  N   UNL d   1      -0.422   1.097   0.054  0.00  0.00    -0.345 N 
ATOM      3  HN  UNL d   1      -0.964   1.961   0.102  1.00  0.00     0.167 HD
ATOM      4  C   UNL d   1       0.929   1.132   0.016  0.00  0.00     0.115 A 
ATOM      5  C   UNL d   1      -1.044  -0.111   0.025  0.00  0.00     0.025 A 
ATOM      6  N   UNL d   1       1.696   0.028   0.002  0.00  0.00    -0.350 N 
ATOM      7  HN  UNL d   1       2.715   0.083   0.000  1.00  0.00     0.166 HD
ATOM      8  C   UNL d   1       1.048  -1.157  -0.010  0.00  0.00     0.110 A 
ATOM      9  C   UNL d   1      -2.539  -0.032  -0.035  0.00  0.00     0.069 C 
ENDROOT
BRANCH   4  10
ATOM     10  C   UNL d   1       1.581   2.450  -0.094  0.00  0.00     0.008 A 
ATOM     11  C   UNL d   1       2.978   2.574  -0.224  0.00  0.00     0.015 A 
ATOM     12  C   UNL d   1       3.589   3.823  -0.377  0.00  0.00     0.001 A 
ATOM     13  C   UNL d   1       2.818   4.980  -0.401  0.00  0.00     0.000 A 
ATOM     14  C   UNL d   1       1.437   4.890  -0.264  0.00  0.00     0.001 A 
ATOM     15  C   UNL d   1       0.828   3.640  -0.112  0.00  0.00     0.015 A 
ENDBRANCH   4  10
BRANCH   1  16
ATOM     16  C   UNL d   1      -0.875  -2.655  -0.101  0.00  0.00     0.179 C 
ATOM     17  O   UNL d   1      -0.313  -3.518  -0.757  0.00  0.00    -0.646 OA
BRANCH  16  18
ATOM     18  O   UNL d   1      -1.995  -2.897   0.604  0.00  0.00    -0.773 OA
ATOM     19  H   UNL d   1      -2.235  -2.241   1.283  0.00  0.00     0.167 HD
ENDBRANCH  16  18
ENDBRANCH   1  16
TORSDOF 3
