REMARK  4 active torsions:
REMARK  status: ('A' for Active; 'I' for Inactive)
REMARK    1  A    between atoms: C_3  and  C_1 
REMARK    2  A    between atoms: C_2  and  C_7 
REMARK    3  A    between atoms: C_8  and  C_3 
REMARK    4  A    between atoms: C_13  and  C_4 
ROOT
ATOM      1  C   UNL d   1       0.995   0.050   0.080  0.00  0.00     0.091 C 
ATOM      2  C   UNL d   1       0.298   0.783  -0.814  0.00  0.00     0.038 C 
ATOM      3  C   UNL d   1       0.335  -0.740   1.060  0.00  0.00     0.103 C 
ATOM      4  N   UNL d   1      -0.221  -1.385   1.848  0.00  0.00    -0.191 NA
ENDROOT
BRANCH   1   5
ATOM      5  C   UNL d   1       2.498   0.138   0.019  0.00  0.00     0.177 C 
ATOM      6  O   UNL d   1       3.000   1.137  -0.506  0.00  0.00    -0.291 OA
BRANCH   5   7
ATOM      7  C   UNL d   1       3.406  -1.000   0.566  0.00  0.00     0.015 C 
ATOM      8  C   UNL d   1       3.063  -2.336  -0.108  0.00  0.00     0.023 C 
ATOM      9  C   UNL d   1       4.878  -0.670   0.220  0.00  0.00     0.023 C 
ATOM     10  C   UNL d   1       3.331  -1.119   2.094  0.00  0.00     0.023 C 
ENDBRANCH   5   7
ENDBRANCH   1   5
BRANCH   2  11
ATOM     11  C   UNL d   1      -1.167   0.874  -0.827  0.00  0.00    -0.035 A 
ATOM     12  C   UNL d   1      -1.796   1.901  -0.117  0.00  0.00     0.012 A 
ATOM     13  C   UNL d   1      -3.191   1.968  -0.059  0.00  0.00     0.017 A 
ATOM     14  C   UNL d   1      -3.979   1.010  -0.714  0.00  0.00     0.048 A 
ATOM     15  C   UNL d   1      -3.341  -0.015  -1.429  0.00  0.00     0.017 A 
ATOM     16  C   UNL d   1      -1.945  -0.083  -1.487  0.00  0.00     0.012 A 
BRANCH  14  17
ATOM     17  C   UNL d   1      -5.485   1.096  -0.634  0.00  0.00     0.417 C 
ATOM     18  F   UNL d   1      -6.126   0.113  -1.327  0.00  0.00    -0.166 F 
ATOM     19  F   UNL d   1      -5.946   1.014   0.644  0.00  0.00    -0.166 F 
ATOM     20  F   UNL d   1      -5.963   2.271  -1.129  0.00  0.00    -0.166 F 
ENDBRANCH  14  17
ENDBRANCH   2  11
TORSDOF 4
