REMARK  6 active torsions:
REMARK  status: ('A' for Active; 'I' for Inactive)
REMARK    1  A    between atoms: N_2  and  C_1 
REMARK    2  A    between atoms: C_3  and  C_1 
REMARK    3  A    between atoms: C_4  and  C_1 
REMARK    4  A    between atoms: N_6  and  C_1 
REMARK       I    between atoms: C_5  and  N_2 
REMARK    5  A    between atoms: C_12  and  C_5 
REMARK    6  A    between atoms: C_9  and  N_6 
ROOT
ATOM      1  C   UNL d   1       0.907  -0.068   0.091  0.00  0.00     0.306 C 
ENDROOT
BRANCH   1   2
ATOM      2  N   UNL d   1       0.317  -0.961   1.116  0.00  0.00    -0.315 N 
ATOM      3  C   UNL d   1       0.313  -0.673   2.455  0.00  0.00     0.254 C 
ATOM      4  O   UNL d   1       0.699   0.386   2.918  0.00  0.00    -0.268 OA
ATOM      5  H   UNL d   1      -0.046  -1.851   0.799  0.00  0.00     0.165 HD
BRANCH   3   6
ATOM      6  C   UNL d   1      -0.234  -1.727   3.344  0.00  0.00     0.032 A 
ATOM      7  C   UNL d   1       0.119  -3.072   3.179  0.00  0.00     0.017 A 
ATOM      8  C   UNL d   1      -0.396  -4.030   4.055  0.00  0.00     0.001 A 
ATOM      9  C   UNL d   1      -1.257  -3.646   5.085  0.00  0.00     0.000 A 
ATOM     10  C   UNL d   1      -1.602  -2.304   5.248  0.00  0.00     0.001 A 
ATOM     11  C   UNL d   1      -1.085  -1.341   4.383  0.00  0.00     0.017 A 
ENDBRANCH   3   6
ENDBRANCH   1   2
BRANCH   1  12
ATOM     12  C   UNL d   1       0.534   1.453   0.216  0.00  0.00     0.441 C 
ATOM     13  F   UNL d   1      -0.763   1.630   0.565  0.00  0.00    -0.166 F 
ATOM     14  F   UNL d   1       1.299   2.091   1.138  0.00  0.00    -0.166 F 
ATOM     15  F   UNL d   1       0.732   2.129  -0.944  0.00  0.00    -0.166 F 
ENDBRANCH   1  12
BRANCH   1  16
ATOM     16  C   UNL d   1       0.349  -0.398  -1.330  0.00  0.00     0.441 C 
ATOM     17  F   UNL d   1       0.078  -1.729  -1.442  0.00  0.00    -0.166 F 
ATOM     18  F   UNL d   1      -0.823   0.223  -1.600  0.00  0.00    -0.166 F 
ATOM     19  F   UNL d   1       1.213  -0.093  -2.324  0.00  0.00    -0.166 F 
ENDBRANCH   1  16
BRANCH   1  20
ATOM     20  N   UNL d   1       2.389  -0.240   0.246  0.00  0.00    -0.349 N 
ATOM     21  H   UNL d   1       2.733   0.383   0.983  0.00  0.00     0.162 HD
BRANCH  20  22
ATOM     22  C   UNL d   1       3.180  -1.359   0.075  0.00  0.00     0.032 A 
ATOM     23  C   UNL d   1       4.570  -1.202   0.234  0.00  0.00     0.056 A 
ATOM     24  C   UNL d   1       5.458  -2.258   0.005  0.00  0.00     0.074 A 
ATOM     25 CL   UNL d   1       7.149  -2.009   0.210  0.00  0.00    -0.081 Cl
ATOM     26  C   UNL d   1       4.967  -3.491  -0.398  0.00  0.00     0.138 A 
ATOM     27  C   UNL d   1       3.604  -3.671  -0.578  0.00  0.00     0.046 A 
ATOM     28  F   UNL d   1       5.792  -4.524  -0.625  0.00  0.00    -0.204 F 
ATOM     29  C   UNL d   1       2.723  -2.607  -0.353  0.00  0.00     0.032 A 
ENDBRANCH  20  22
ENDBRANCH   1  20
TORSDOF 6
