REMARK  17 active torsions:
REMARK  status: ('A' for Active; 'I' for Inactive)
REMARK    1  A    between atoms: O_5  and  C_1 
REMARK    2  A    between atoms: C_6  and  C_1 
REMARK    3  A    between atoms: C_4  and  C_8 
REMARK    4  A    between atoms: C_7  and  C_4 
REMARK    5  A    between atoms: C_10  and  C_6 
REMARK    6  A    between atoms: C_12  and  C_7 
REMARK    7  A    between atoms: C_8  and  C_11 
REMARK    8  A    between atoms: C_20  and  C_10 
REMARK    9  A    between atoms: C_11  and  C_21 
REMARK   10  A    between atoms: C_15  and  C_12 
REMARK   11  A    between atoms: C_13  and  C_14 
REMARK   12  A    between atoms: C_14  and  C_19 
REMARK   13  A    between atoms: C_17  and  C_15 
REMARK   14  A    between atoms: C_16  and  C_18 
REMARK   15  A    between atoms: C_21  and  C_16 
REMARK   16  A    between atoms: C_19  and  C_17 
REMARK   17  A    between atoms: C_18  and  C_20 
ROOT
ATOM      1  C   UNL d   1       9.215  -3.461  -4.583  0.00  0.00     0.078 C 
ENDROOT
BRANCH   1   2
ATOM      2  C   UNL d   1      10.727  -3.439  -4.548  0.00  0.00     0.127 C 
ATOM      3  O   UNL d   1      11.353  -2.776  -3.720  0.00  0.00    -0.298 OA
BRANCH   2   4
ATOM      4  C   UNL d   1      11.435  -4.239  -5.616  0.00  0.00     0.078 C 
BRANCH   4   5
ATOM      5  C   UNL d   1      12.771  -4.734  -5.083  0.00  0.00     0.007 C 
BRANCH   5   6
ATOM      6  C   UNL d   1      13.524  -5.541  -6.128  0.00  0.00     0.000 C 
BRANCH   6   7
ATOM      7  C   UNL d   1      14.853  -6.019  -5.556  0.00  0.00     0.000 C 
BRANCH   7   8
ATOM      8  C   UNL d   1      15.628  -6.823  -6.591  0.00  0.00     0.000 C 
BRANCH   8   9
ATOM      9  C   UNL d   1      16.957  -7.301  -6.017  0.00  0.00    -0.000 C 
BRANCH   9  10
ATOM     10  C   UNL d   1      17.736  -8.106  -7.050  0.00  0.00    -0.005 C 
ATOM     11  C   UNL d   1      19.061  -8.583  -6.482  0.00  0.00     0.005 C 
ENDBRANCH   9  10
ENDBRANCH   8   9
ENDBRANCH   7   8
ENDBRANCH   6   7
ENDBRANCH   5   6
ENDBRANCH   4   5
ENDBRANCH   2   4
ENDBRANCH   1   2
BRANCH   1  12
ATOM     12  C   UNL d   1       8.650  -2.626  -3.443  0.00  0.00     0.007 C 
BRANCH  12  13
ATOM     13  C   UNL d   1       7.130  -2.624  -3.438  0.00  0.00     0.000 C 
BRANCH  13  14
ATOM     14  C   UNL d   1       6.619  -1.770  -2.282  0.00  0.00     0.000 C 
BRANCH  14  15
ATOM     15  C   UNL d   1       5.098  -1.750  -2.255  0.00  0.00     0.000 C 
BRANCH  15  16
ATOM     16  C   UNL d   1       4.580  -0.895  -1.101  0.00  0.00     0.000 C 
BRANCH  16  17
ATOM     17  C   UNL d   1       3.056  -0.894  -1.099  0.00  0.00     0.010 C 
BRANCH  17  18
ATOM     18  C   UNL d   1       2.477  -0.055   0.035  0.00  0.00     0.111 C 
BRANCH  18  19
ATOM     19  C   UNL d   1       0.968  -0.089  -0.009  0.00  0.00     0.258 C 
ATOM     20  O   UNL d   1       0.299  -0.700  -0.834  0.00  0.00    -0.265 OA
BRANCH  19  21
ATOM     21  O   UNL d   1       0.453   0.661   1.004  0.00  0.00    -0.326 OA
ATOM     22  C   UNL d   1      -0.975   0.672   1.021  0.00  0.00     0.213 C 
ENDBRANCH  19  21
ENDBRANCH  18  19
ENDBRANCH  17  18
ENDBRANCH  16  17
ENDBRANCH  15  16
ENDBRANCH  14  15
ENDBRANCH  13  14
ENDBRANCH  12  13
ENDBRANCH   1  12
TORSDOF 17
