REMARK  6 active torsions:
REMARK  status: ('A' for Active; 'I' for Inactive)
REMARK    1  A    between atoms: N_2  and  C_1 
REMARK    2  A    between atoms: O_7  and  C_3 
REMARK    3  A    between atoms: C_4  and  C_6 
REMARK    4  A    between atoms: S_9  and  C_4 
REMARK    5  A    between atoms: C_8  and  O_7 
REMARK    6  A    between atoms: C_18  and  S_9 
ROOT
ATOM      1  C   UNL d   1       1.141  -0.241  -0.653  0.00  0.00     0.137 A 
ATOM      2  C   UNL d   1       0.401  -1.327  -0.180  0.00  0.00     0.109 A 
ATOM      3  C   UNL d   1       0.683   1.078  -0.518  0.00  0.00     0.055 A 
ATOM      4  C   UNL d   1      -0.543   1.326   0.116  0.00  0.00     0.024 A 
ATOM      5  C   UNL d   1      -0.803  -1.066   0.488  0.00  0.00     0.041 A 
ATOM      6  C   UNL d   1      -1.281   0.244   0.617  0.00  0.00     0.019 A 
ENDROOT
BRANCH   4   7
ATOM      7  C   UNL d   1      -1.006   2.740   0.195  0.00  0.00     0.224 C 
ATOM      8  O   UNL d   1      -0.530   3.581  -0.560  0.00  0.00    -0.279 OA
BRANCH   7   9
ATOM      9  S   UNL d   1      -2.251   3.157   1.362  0.00  0.00    -0.048 SA
BRANCH   9  10
ATOM     10  C   UNL d   1      -1.358   4.139   2.555  0.00  0.00     0.008 A 
ATOM     11  C   UNL d   1      -0.411   5.103   2.188  0.00  0.00     0.021 A 
ATOM     12  C   UNL d   1       0.235   5.874   3.160  0.00  0.00     0.025 A 
ATOM     13  C   UNL d   1      -0.075   5.696   4.505  0.00  0.00     0.034 A 
ATOM     14  C   UNL d   1      -1.024   4.752   4.887  0.00  0.00     0.025 A 
ATOM     15 CL   UNL d   1       0.707   6.657   5.698  0.00  0.00    -0.084 Cl
ATOM     16  C   UNL d   1      -1.663   3.976   3.913  0.00  0.00     0.021 A 
ENDBRANCH   9  10
ENDBRANCH   7   9
ENDBRANCH   4   7
BRANCH   1  17
ATOM     17  N   UNL d   1       2.419  -0.452  -1.308  0.00  0.00    -0.113 N 
ATOM     18  O   UNL d   1       2.445  -1.228  -2.272  0.00  0.00    -0.532 OA
ATOM     19  O   UNL d   1       3.379   0.200  -0.880  0.00  0.00    -0.532 OA
ENDBRANCH   1  17
BRANCH   2  20
ATOM     20  O   UNL d   1       0.908  -2.601  -0.321  0.00  0.00    -0.307 OA
BRANCH  20  21
ATOM     21  C   UNL d   1       0.021  -3.645  -0.475  0.00  0.00     0.098 A 
ATOM     22  C   UNL d   1       0.191  -4.795   0.306  0.00  0.00     0.069 A 
ATOM     23  C   UNL d   1      -0.707  -5.858   0.196  0.00  0.00     0.050 A 
ATOM     24 CL   UNL d   1       1.484  -4.923   1.443  0.00  0.00    -0.081 Cl
ATOM     25  C   UNL d   1      -1.766  -5.772  -0.705  0.00  0.00     0.035 A 
ATOM     26  C   UNL d   1      -1.918  -4.649  -1.519  0.00  0.00     0.026 A 
ATOM     27 CL   UNL d   1      -2.901  -7.060  -0.814  0.00  0.00    -0.084 Cl
ATOM     28  C   UNL d   1      -1.012  -3.593  -1.420  0.00  0.00     0.041 A 
ENDBRANCH  20  21
ENDBRANCH   2  20
TORSDOF 6
