REMARK  7 active torsions:
REMARK  status: ('A' for Active; 'I' for Inactive)
REMARK    1  A    between atoms: C_14  and  C_1 
REMARK    2  A    between atoms: C_5  and  S_15 
REMARK    3  A    between atoms: S_17  and  C_6 
REMARK    4  A    between atoms: C_18  and  C_12 
REMARK    5  A    between atoms: O_19  and  C_14 
REMARK    6  A    between atoms: S_15  and  C_18 
REMARK    7  A    between atoms: C_21  and  O_19 
ROOT
ATOM      1  C   UNL d   1      -0.224  -1.181  -0.090  0.00  0.00     0.132 A 
ATOM      2  N   UNL d   1       0.845  -0.364  -0.111  0.00  0.00    -0.255 N 
ATOM      3  HN  UNL d   1       1.826  -0.640  -0.133  1.00  0.00     0.195 HD
ATOM      4  C   UNL d   1      -1.421  -0.424  -0.119  0.00  0.00     0.073 A 
ATOM      5  C   UNL d   1      -1.017   0.890  -0.071  0.00  0.00     0.088 A 
ATOM      6  O   UNL d   1       0.343   0.928  -0.096  0.00  0.00    -0.241 OA
ENDROOT
BRANCH   5   7
ATOM      7  C   UNL d   1      -1.726   2.197   0.025  0.00  0.00     0.148 C 
BRANCH   7   8
ATOM      8  S   UNL d   1      -3.247   1.989   0.998  0.00  0.00    -0.097 SA
BRANCH   8   9
ATOM      9  C   UNL d   1      -4.007   3.550   0.902  0.00  0.00     0.129 A 
ATOM     10  S   UNL d   1      -5.543   3.819   1.609  0.00  0.00    -0.038 SA
ATOM     11  C   UNL d   1      -5.421   5.440   1.076  0.00  0.00     0.128 A 
ATOM     12  N   UNL d   1      -4.315   5.713   0.415  0.00  0.00    -0.287 N 
ATOM     13  N   UNL d   1      -3.484   4.601   0.311  0.00  0.00    -0.287 N 
ATOM     14  HN  UNL d   1      -4.094   6.629   0.025  1.00  0.00     0.188 HD
ATOM     15  HN  UNL d   1      -2.582   4.602  -0.165  1.00  0.00     0.188 HD
BRANCH  11  16
ATOM     16  S   UNL d   1      -6.686   6.601   1.409  0.00  0.00    -0.108 SA
ATOM     17  C   UNL d   1      -6.006   8.100   0.679  0.00  0.00     0.097 C 
ENDBRANCH  11  16
ENDBRANCH   8   9
ENDBRANCH   7   8
ENDBRANCH   5   7
BRANCH   1  18
ATOM     18  C   UNL d   1      -0.129  -2.631   0.038  0.00  0.00     0.311 C 
ATOM     19  O   UNL d   1      -1.121  -3.348   0.149  0.00  0.00    -0.258 OA
BRANCH  18  20
ATOM     20  O   UNL d   1       1.155  -3.085   0.111  0.00  0.00    -0.317 OA
BRANCH  20  21
ATOM     21  C   UNL d   1       1.319  -4.396   0.666  0.00  0.00     0.175 C 
ATOM     22  C   UNL d   1       1.409  -4.260   2.174  0.00  0.00     0.034 C 
ENDBRANCH  20  21
ENDBRANCH  18  20
ENDBRANCH   1  18
TORSDOF 7
