REMARK  8 active torsions:
REMARK  status: ('A' for Active; 'I' for Inactive)
REMARK    1  A    between atoms: C_9  and  C_1 
REMARK       I    between atoms: C_2  and  N_4 
REMARK    2  A    between atoms: C_12  and  C_2 
REMARK    3  A    between atoms: N_4  and  C_9 
REMARK    4  A    between atoms: S_10  and  C_12 
REMARK    5  A    between atoms: C_14  and  S_10 
REMARK    6  A    between atoms: C_11  and  O_13 
REMARK    7  A    between atoms: O_13  and  C_15 
REMARK    8  A    between atoms: C_15  and  C_14 
ROOT
ATOM      1  C   UNL d   1       1.544   5.832  -0.006  0.00  0.00     0.176 C 
ENDROOT
BRANCH   1   2
ATOM      2  S   UNL d   1       1.108   7.611   0.023  0.00  0.00    -0.158 SA
BRANCH   2   3
ATOM      3  C   UNL d   1       2.774   8.356  -0.137  0.00  0.00     0.101 C 
BRANCH   3   4
ATOM      4  C   UNL d   1       3.462   7.942  -1.433  0.00  0.00     0.186 C 
BRANCH   4   5
ATOM      5  O   UNL d   1       4.712   8.620  -1.578  0.00  0.00    -0.350 OA
BRANCH   5   6
ATOM      6  C   UNL d   1       5.422   8.286  -2.706  0.00  0.00     0.068 A 
ATOM      7  C   UNL d   1       5.017   7.368  -3.681  0.00  0.00     0.037 A 
ATOM      8  C   UNL d   1       5.821   7.116  -4.795  0.00  0.00     0.003 A 
ATOM      9  C   UNL d   1       7.035   7.780  -4.943  0.00  0.00     0.000 A 
ATOM     10  C   UNL d   1       7.449   8.691  -3.973  0.00  0.00     0.003 A 
ATOM     11  C   UNL d   1       6.646   8.941  -2.857  0.00  0.00     0.037 A 
ENDBRANCH   5   6
ENDBRANCH   4   5
ENDBRANCH   3   4
ENDBRANCH   2   3
ENDBRANCH   1   2
BRANCH   1  12
ATOM     12  C   UNL d   1       0.320   4.932   0.047  0.00  0.00     0.227 C 
ATOM     13  N   UNL d   1      -0.780   5.386  -0.634  0.00  0.00    -0.354 N 
ATOM     14  H   UNL d   1      -0.779   6.343  -0.973  0.00  0.00     0.162 HD
ATOM     15  O   UNL d   1       0.357   3.822   0.582  0.00  0.00    -0.273 OA
BRANCH  13  16
ATOM     16  C   UNL d   1      -2.005   4.629  -0.674  0.00  0.00     0.187 C 
BRANCH  16  17
ATOM     17  C   UNL d   1      -3.042   5.404  -1.396  0.00  0.00     0.070 A 
ATOM     18  O   UNL d   1      -2.779   5.733  -2.696  0.00  0.00    -0.325 OA
ATOM     19  C   UNL d   1      -3.856   6.419  -3.157  0.00  0.00     0.142 A 
ATOM     20  C   UNL d   1      -4.809   6.540  -2.173  0.00  0.00     0.027 A 
ATOM     21  C   UNL d   1      -4.282   5.888  -1.032  0.00  0.00     0.036 A 
ENDBRANCH  16  17
ENDBRANCH  13  16
ENDBRANCH   1  12
TORSDOF 8
