REMARK  4 active torsions:
REMARK  status: ('A' for Active; 'I' for Inactive)
REMARK    1  A    between atoms: C_4  and  S_1 
REMARK    2  A    between atoms: C_5  and  C_13 
REMARK    3  A    between atoms: C_12  and  C_6 
REMARK    4  A    between atoms: C_16  and  C_9 
ROOT
ATOM      1  C   UNL d   1      -1.195   1.396  -2.701  0.00  0.00     0.139 C 
ATOM      2  C   UNL d   1      -0.348   0.398  -2.389  0.00  0.00     0.046 C 
ATOM      3  C   UNL d   1      -2.583   1.222  -2.938  0.00  0.00     0.111 C 
ATOM      4  N   UNL d   1      -3.722   1.068  -3.086  0.00  0.00    -0.191 NA
ENDROOT
BRANCH   1   5
ATOM      5  S   UNL d   1      -0.560   3.011  -2.826  0.00  0.00     0.181 S 
ATOM      6  O   UNL d   1      -1.402   3.809  -3.697  0.00  0.00    -0.222 OA
ATOM      7  O   UNL d   1       0.872   2.962  -3.063  0.00  0.00    -0.222 OA
ATOM      8  C   UNL d   1      -0.781   3.631  -1.177  0.00  0.00     0.168 C 
ENDBRANCH   1   5
BRANCH   2   9
ATOM      9  C   UNL d   1      -0.746  -1.007  -2.294  0.00  0.00    -0.034 A 
ATOM     10  C   UNL d   1      -0.671  -1.823  -3.425  0.00  0.00     0.012 A 
ATOM     11  C   UNL d   1      -1.064  -3.164  -3.355  0.00  0.00     0.015 A 
ATOM     12  C   UNL d   1      -1.531  -3.719  -2.152  0.00  0.00    -0.002 A 
ATOM     13  C   UNL d   1      -1.621  -2.879  -1.030  0.00  0.00     0.015 A 
ATOM     14  C   UNL d   1      -1.226  -1.537  -1.095  0.00  0.00     0.012 A 
BRANCH  12  15
ATOM     15  C   UNL d   1      -1.931  -5.132  -2.032  0.00  0.00     0.084 A 
ATOM     16  N   UNL d   1      -2.845  -5.583  -1.195  0.00  0.00    -0.352 N 
ATOM     17  C   UNL d   1      -2.988  -6.963  -1.302  0.00  0.00     0.024 A 
ATOM     18  HN  UNL d   1      -3.378  -4.997  -0.553  1.00  0.00     0.166 HD
ATOM     19  C   UNL d   1      -2.121  -7.545  -2.210  0.00  0.00     0.077 A 
ATOM     20  S   UNL d   1      -1.147  -6.358  -2.957  0.00  0.00    -0.081 SA
BRANCH  17  21
ATOM     21  C   UNL d   1      -4.033  -7.685  -0.460  0.00  0.00    -0.008 C 
ATOM     22  C   UNL d   1      -4.834  -6.698   0.413  0.00  0.00     0.021 C 
ATOM     23  C   UNL d   1      -5.028  -8.429  -1.374  0.00  0.00     0.021 C 
ATOM     24  C   UNL d   1      -3.355  -8.708   0.474  0.00  0.00     0.021 C 
ENDBRANCH  17  21
ENDBRANCH  12  15
ENDBRANCH   2   9
TORSDOF 4
