REMARK  6 active torsions:
REMARK  status: ('A' for Active; 'I' for Inactive)
REMARK       I    between atoms: N_2  and  C_1 
REMARK       I    between atoms: N_8  and  C_1 
REMARK    1  A    between atoms: C_7  and  N_2 
REMARK    2  A    between atoms: O_12  and  C_3 
REMARK    3  A    between atoms: O_13  and  C_4 
REMARK    4  A    between atoms: C_14  and  N_8 
REMARK    5  A    between atoms: C_10  and  C_15 
REMARK    6  A    between atoms: C_15  and  C_14 
ROOT
ATOM      1  C   UNL d   1       3.492  -0.322  -1.035  0.00  0.00     0.129 C 
ENDROOT
BRANCH   1   2
ATOM      2  N   UNL d   1       2.695   0.308  -0.001  0.00  0.00    -0.343 N 
ATOM      3  C   UNL d   1       2.410   1.617   0.224  0.00  0.00     0.316 C 
ATOM      4  N   UNL d   1       3.140   2.529  -0.470  0.00  0.00    -0.335 N 
ATOM      5  O   UNL d   1       1.542   1.902   1.049  0.00  0.00    -0.247 OA
ATOM      6  H   UNL d   1       3.976   2.170  -0.888  0.00  0.00     0.165 HD
ATOM      7  H   UNL d   1       2.074  -0.293   0.535  0.00  0.00     0.164 HD
BRANCH   4   8
ATOM      8  C   UNL d   1       3.133   3.978  -0.174  0.00  0.00     0.023 C 
ATOM      9  C   UNL d   1       3.482   4.234   1.310  0.00  0.00     0.037 C 
ATOM     10  C   UNL d   1       4.199   4.647  -1.072  0.00  0.00     0.037 C 
ATOM     11  C   UNL d   1       1.772   4.611  -0.496  0.00  0.00     0.037 C 
ENDBRANCH   4   8
ENDBRANCH   1   2
BRANCH   1  12
ATOM     12  C   UNL d   1       5.005  -0.318  -0.759  0.00  0.00     0.058 C 
BRANCH  12  13
ATOM     13  C   UNL d   1       5.792  -1.017  -1.845  0.00  0.00    -0.054 A 
ATOM     14  C   UNL d   1       5.662  -0.629  -3.191  0.00  0.00     0.046 A 
ATOM     15  C   UNL d   1       6.359  -1.273  -4.226  0.00  0.00     0.102 A 
ATOM     16  C   UNL d   1       7.253  -2.307  -3.899  0.00  0.00     0.101 A 
ATOM     17  C   UNL d   1       7.403  -2.675  -2.553  0.00  0.00     0.040 A 
ATOM     18  C   UNL d   1       6.686  -2.044  -1.536  0.00  0.00     0.010 A 
BRANCH  15  19
ATOM     19  O   UNL d   1       6.195  -0.943  -5.545  0.00  0.00    -0.353 OA
ATOM     20  C   UNL d   1       5.263   0.076  -5.879  0.00  0.00     0.210 C 
ENDBRANCH  15  19
BRANCH  16  21
ATOM     21  O   UNL d   1       8.044  -3.054  -4.732  0.00  0.00    -0.353 OA
ATOM     22  C   UNL d   1       8.062  -2.750  -6.119  0.00  0.00     0.210 C 
ENDBRANCH  16  21
ENDBRANCH  12  13
ENDBRANCH   1  12
TORSDOF 6
