REMARK  3 active torsions:
REMARK  status: ('A' for Active; 'I' for Inactive)
REMARK    1  A    between atoms: C_2  and  C_1 
REMARK       I    between atoms: N_3  and  C_1 
REMARK    2  A    between atoms: C_5  and  N_3 
REMARK    3  A    between atoms: O_14  and  C_4 
ROOT
ATOM      1  C   UNL d   1       0.897   0.246  -0.105  0.00  0.00     0.260 C 
ATOM      2  N   UNL d   1       0.243   1.390   0.315  0.00  0.00    -0.320 N 
ATOM      3  O   UNL d   1       1.956   0.200  -0.722  0.00  0.00    -0.267 OA
ATOM      4  H   UNL d   1      -0.439   1.304   1.063  0.00  0.00     0.169 HD
ENDROOT
BRANCH   1   5
ATOM      5  C   UNL d   1       0.188  -1.013   0.171  0.00  0.00     0.083 A 
ATOM      6  C   UNL d   1       0.788  -2.071   0.844  0.00  0.00     0.157 A 
ATOM      7  N   UNL d   1       0.189  -3.280   0.990  0.00  0.00    -0.346 N 
ATOM      8  C   UNL d   1      -1.020  -3.447   0.409  0.00  0.00     0.090 A 
ATOM      9  HN  UNL d   1       0.634  -4.032   1.516  1.00  0.00     0.167 HD
ATOM     10  C   UNL d   1      -1.686  -2.451  -0.286  0.00  0.00     0.018 A 
ATOM     11  C   UNL d   1      -1.073  -1.208  -0.402  0.00  0.00     0.023 A 
BRANCH   6  12
ATOM     12  O   UNL d   1       2.010  -1.864   1.449  0.00  0.00    -0.340 OA
ATOM     13  C   UNL d   1       2.652  -3.074   1.840  0.00  0.00     0.211 C 
ENDBRANCH   6  12
ENDBRANCH   1   5
BRANCH   2  14
ATOM     14  C   UNL d   1       0.548   2.704  -0.106  0.00  0.00     0.074 A 
ATOM     15  C   UNL d   1       0.060   3.780   0.647  0.00  0.00     0.146 A 
ATOM     16  C   UNL d   1       0.314   5.098   0.279  0.00  0.00     0.086 A 
ATOM     17  F   UNL d   1      -0.654   3.543   1.758  0.00  0.00    -0.204 F 
ATOM     18  C   UNL d   1       1.039   5.342  -0.879  0.00  0.00     0.119 A 
ATOM     19  C   UNL d   1       1.508   4.295  -1.664  0.00  0.00     0.044 A 
ATOM     20  F   UNL d   1       1.283   6.604  -1.253  0.00  0.00    -0.206 F 
ATOM     21  C   UNL d   1       1.268   2.975  -1.274  0.00  0.00     0.036 A 
ENDBRANCH   2  14
TORSDOF 3
