REMARK  7 active torsions:
REMARK  status: ('A' for Active; 'I' for Inactive)
REMARK    1  A    between atoms: C_12  and  C_3 
REMARK    2  A    between atoms: C_19  and  C_4 
REMARK       I    between atoms: C_5  and  N_9 
REMARK       I    between atoms: N_10  and  C_5 
REMARK    3  A    between atoms: C_8  and  C_18 
REMARK       I    between atoms: N_11  and  C_8 
REMARK    4  A    between atoms: N_9  and  N_11 
REMARK    5  A    between atoms: C_16  and  N_10 
REMARK    6  A    between atoms: S_15  and  C_19 
REMARK    7  A    between atoms: C_18  and  S_15 
ROOT
ATOM      1  C   UNL d   1       2.815  -5.765   0.168  0.00  0.00     0.245 C 
ATOM      2  N   UNL d   1       3.007  -6.441   1.355  0.00  0.00    -0.265 N 
ATOM      3  O   UNL d   1       3.723  -5.687  -0.661  0.00  0.00    -0.271 OA
ATOM      4  H   UNL d   1       2.333  -6.509   2.118  0.00  0.00     0.190 HD
ENDROOT
BRANCH   1   5
ATOM      5  C   UNL d   1       1.427  -5.180  -0.019  0.00  0.00     0.178 C 
BRANCH   5   6
ATOM      6  S   UNL d   1       1.466  -3.407  -0.445  0.00  0.00    -0.153 SA
BRANCH   6   7
ATOM      7  C   UNL d   1       2.256  -3.457  -2.098  0.00  0.00     0.139 C 
BRANCH   7   8
ATOM      8  C   UNL d   1       1.503  -4.295  -3.085  0.00  0.00     0.060 A 
ATOM      9  N   UNL d   1       1.657  -5.596  -3.229  0.00  0.00    -0.352 N 
ATOM     10  C   UNL d   1       0.817  -6.078  -4.219  0.00  0.00     0.049 A 
ATOM     11  HN  UNL d   1       2.304  -6.169  -2.687  1.00  0.00     0.166 HD
ATOM     12  C   UNL d   1       0.013  -5.120  -4.808  0.00  0.00     0.081 A 
ATOM     13  S   UNL d   1       0.338  -3.578  -4.128  0.00  0.00    -0.086 SA
BRANCH  10  14
ATOM     14  C   UNL d   1       0.766  -7.501  -4.542  0.00  0.00    -0.009 A 
ATOM     15  C   UNL d   1       1.122  -8.441  -3.562  0.00  0.00     0.014 A 
ATOM     16  C   UNL d   1       1.036  -9.811  -3.822  0.00  0.00     0.001 A 
ATOM     17  C   UNL d   1       0.609 -10.257  -5.069  0.00  0.00     0.000 A 
ATOM     18  C   UNL d   1       0.280  -9.335  -6.063  0.00  0.00     0.001 A 
ATOM     19  C   UNL d   1       0.362  -7.964  -5.801  0.00  0.00     0.014 A 
ENDBRANCH  10  14
ENDBRANCH   7   8
ENDBRANCH   6   7
ENDBRANCH   5   6
ENDBRANCH   1   5
BRANCH   2  20
ATOM     20  N   UNL d   1       4.226  -7.118   1.520  0.00  0.00    -0.249 N 
ATOM     21  C   UNL d   1       4.542  -7.598   2.780  0.00  0.00     0.339 C 
ATOM     22  N   UNL d   1       5.785  -8.198   2.788  0.00  0.00    -0.308 N 
ATOM     23  O   UNL d   1       3.753  -7.504   3.714  0.00  0.00    -0.245 OA
ATOM     24  H   UNL d   1       6.247  -8.255   1.893  0.00  0.00     0.170 HD
ATOM     25  H   UNL d   1       4.962  -6.804   0.892  0.00  0.00     0.192 HD
BRANCH  22  26
ATOM     26  C   UNL d   1       6.466  -8.754   3.888  0.00  0.00     0.036 A 
ATOM     27  C   UNL d   1       5.950  -8.781   5.186  0.00  0.00     0.031 A 
ATOM     28  C   UNL d   1       6.716  -9.283   6.245  0.00  0.00     0.026 A 
ATOM     29  C   UNL d   1       7.999  -9.765   6.007  0.00  0.00     0.034 A 
ATOM     30  C   UNL d   1       8.513  -9.779   4.714  0.00  0.00     0.026 A 
ATOM     31 CL   UNL d   1       8.958 -10.330   7.318  0.00  0.00    -0.084 Cl
ATOM     32  C   UNL d   1       7.746  -9.279   3.656  0.00  0.00     0.031 A 
ENDBRANCH  22  26
ENDBRANCH   2  20
TORSDOF 7
