REMARK  5 active torsions:
REMARK  status: ('A' for Active; 'I' for Inactive)
REMARK    1  A    between atoms: C_7  and  N_1 
REMARK    2  A    between atoms: S_10  and  C_2 
REMARK    3  A    between atoms: C_16  and  S_10 
REMARK    4  A    between atoms: C_13  and  C_16 
REMARK    5  A    between atoms: C_19  and  C_13 
ROOT
ATOM      1  N   UNL d   1       2.445  -0.703   0.028  0.00  0.00    -0.258 N 
ATOM      2  C   UNL d   1       2.420   0.697   0.030  0.00  0.00     0.155 A 
ATOM      3  C   UNL d   1       1.246  -1.427   0.037  0.00  0.00     0.266 A 
ATOM      4  N   UNL d   1       1.331   1.401   0.029  0.00  0.00    -0.335 N 
ATOM      5  HN  UNL d   1       1.372   2.420   0.027  1.00  0.00     0.168 HD
ATOM      6  C   UNL d   1       0.001  -0.650   0.027  0.00  0.00     0.059 A 
ATOM      7  C   UNL d   1       0.099   0.737   0.031  0.00  0.00     0.049 A 
ATOM      8  O   UNL d   1       1.152  -2.654   0.077  0.00  0.00    -0.267 OA
ATOM      9  C   UNL d   1      -1.242  -1.298   0.005  0.00  0.00     0.019 A 
ATOM     10  C   UNL d   1      -1.082   1.482  -0.002  0.00  0.00     0.030 A 
ATOM     11  C   UNL d   1      -2.411  -0.542  -0.025  0.00  0.00     0.001 A 
ATOM     12  C   UNL d   1      -2.330   0.849  -0.032  0.00  0.00     0.002 A 
ENDROOT
BRANCH   2  13
ATOM     13  S   UNL d   1       3.941   1.568  -0.158  0.00  0.00    -0.085 SA
BRANCH  13  14
ATOM     14  C   UNL d   1       3.514   3.231   0.420  0.00  0.00     0.166 C 
BRANCH  14  15
ATOM     15  C   UNL d   1       3.350   3.327   1.930  0.00  0.00     0.169 C 
ATOM     16  O   UNL d   1       3.255   2.343   2.665  0.00  0.00    -0.291 OA
BRANCH  15  17
ATOM     17  C   UNL d   1       3.312   4.700   2.544  0.00  0.00     0.010 A 
ATOM     18  C   UNL d   1       3.402   5.871   1.777  0.00  0.00     0.015 A 
ATOM     19  C   UNL d   1       3.392   7.126   2.396  0.00  0.00     0.001 A 
ATOM     20  C   UNL d   1       3.285   7.225   3.781  0.00  0.00     0.000 A 
ATOM     21  C   UNL d   1       3.186   6.069   4.552  0.00  0.00     0.001 A 
ATOM     22  C   UNL d   1       3.200   4.812   3.938  0.00  0.00     0.015 A 
ENDBRANCH  15  17
ENDBRANCH  14  15
ENDBRANCH  13  14
ENDBRANCH   2  13
BRANCH   1  23
ATOM     23  C   UNL d   1       3.646  -1.488   0.043  0.00  0.00     0.046 A 
ATOM     24  C   UNL d   1       3.819  -2.510  -0.907  0.00  0.00     0.057 A 
ATOM     25  C   UNL d   1       4.925  -3.358  -0.843  0.00  0.00     0.074 A 
ATOM     26 CL   UNL d   1       5.101  -4.609  -2.013  0.00  0.00    -0.081 Cl
ATOM     27  C   UNL d   1       5.863  -3.193   0.171  0.00  0.00     0.138 A 
ATOM     28  C   UNL d   1       5.710  -2.183   1.117  0.00  0.00     0.046 A 
ATOM     29  F   UNL d   1       6.920  -4.012   0.265  0.00  0.00    -0.204 F 
ATOM     30  C   UNL d   1       4.604  -1.330   1.056  0.00  0.00     0.033 A 
ENDBRANCH   1  23
TORSDOF 5
