REMARK  8 active torsions:
REMARK  status: ('A' for Active; 'I' for Inactive)
REMARK    1  A    between atoms: C_2  and  S_1 
REMARK    2  A    between atoms: C_4  and  S_1 
REMARK    3  A    between atoms: S_3  and  N_5 
REMARK    4  A    between atoms: C_12  and  S_3 
REMARK    5  A    between atoms: N_5  and  C_7 
REMARK    6  A    between atoms: C_8  and  O_15 
REMARK    7  A    between atoms: C_16  and  C_8 
REMARK    8  A    between atoms: O_15  and  C_26 
ROOT
ATOM      1  C   UNL d   1       0.451  -2.590   4.551  0.00  0.00     0.160 C 
ATOM      2  C   UNL d   1      -0.365  -1.541   4.744  0.00  0.00     0.132 C 
ATOM      3  C   UNL d   1       1.236  -2.801   3.377  0.00  0.00     0.113 C 
ATOM      4  N   UNL d   1       1.888  -2.986   2.435  0.00  0.00    -0.191 NA
ENDROOT
BRANCH   1   5
ATOM      5  S   UNL d   1       0.471  -3.799   5.778  0.00  0.00     0.224 S 
ATOM      6  O   UNL d   1       0.363  -5.122   5.192  0.00  0.00    -0.216 OA
ATOM      7  O   UNL d   1      -0.384  -3.439   6.897  0.00  0.00    -0.216 OA
BRANCH   5   8
ATOM      8  C   UNL d   1       2.118  -3.763   6.460  0.00  0.00     0.105 A 
ATOM      9  S   UNL d   1       2.629  -2.280   7.146  0.00  0.00    -0.090 SA
ATOM     10  C   UNL d   1       4.144  -2.936   7.593  0.00  0.00     0.051 A 
ATOM     11  C   UNL d   1       4.264  -4.258   7.224  0.00  0.00     0.009 A 
ATOM     12  C   UNL d   1       3.092  -4.737   6.574  0.00  0.00     0.032 A 
ENDBRANCH   5   8
ENDBRANCH   1   5
BRANCH   2  13
ATOM     13  N   UNL d   1      -0.516  -0.556   3.704  0.00  0.00    -0.321 N 
ATOM     14  HN  UNL d   1       0.115  -0.583   2.904  1.00  0.00     0.175 HD
BRANCH  13  15
ATOM     15  S   UNL d   1      -1.608   0.544   3.763  0.00  0.00     0.052 S 
ATOM     16  O   UNL d   1      -1.839   1.392   4.916  0.00  0.00    -0.245 OA
ATOM     17  C   UNL d   1      -1.347   1.592   2.348  0.00  0.00     0.142 C 
BRANCH  15  18
ATOM     18  C   UNL d   1      -3.179  -0.236   3.394  0.00  0.00     0.038 A 
ATOM     19  C   UNL d   1      -3.226  -1.596   3.076  0.00  0.00     0.024 A 
ATOM     20  C   UNL d   1      -4.453  -2.231   2.899  0.00  0.00     0.039 A 
ATOM     21  C   UNL d   1      -5.630  -1.493   2.983  0.00  0.00     0.079 A 
ATOM     22  C   UNL d   1      -5.592  -0.128   3.285  0.00  0.00     0.039 A 
ATOM     23  C   UNL d   1      -4.361   0.505   3.502  0.00  0.00     0.024 A 
BRANCH  21  24
ATOM     24  O   UNL d   1      -6.909  -2.085   2.873  0.00  0.00    -0.275 OA
BRANCH  24  25
ATOM     25  C   UNL d   1      -7.118  -3.229   2.111  0.00  0.00     0.298 C 
ATOM     26  O   UNL d   1      -6.324  -3.766   1.354  0.00  0.00    -0.259 OA
BRANCH  25  27
ATOM     27  C   UNL d   1      -8.490  -3.761   2.340  0.00  0.00     0.040 A 
ATOM     28  C   UNL d   1      -8.866  -4.931   1.659  0.00  0.00     0.019 A 
ATOM     29  C   UNL d   1     -10.134  -5.487   1.851  0.00  0.00     0.025 A 
ATOM     30  C   UNL d   1     -11.030  -4.876   2.725  0.00  0.00     0.034 A 
ATOM     31  C   UNL d   1     -10.669  -3.714   3.406  0.00  0.00     0.025 A 
ATOM     32 CL   UNL d   1     -12.587  -5.563   2.973  0.00  0.00    -0.084 Cl
ATOM     33  C   UNL d   1      -9.401  -3.155   3.215  0.00  0.00     0.019 A 
ENDBRANCH  25  27
ENDBRANCH  24  25
ENDBRANCH  21  24
ENDBRANCH  15  18
ENDBRANCH  13  15
ENDBRANCH   2  13
TORSDOF 8
