REMARK  9 active torsions:
REMARK  status: ('A' for Active; 'I' for Inactive)
REMARK    1  A    between atoms: C_9  and  C_1 
REMARK    2  A    between atoms: C_3  and  C_2 
REMARK    3  A    between atoms: C_6  and  C_10 
REMARK    4  A    between atoms: C_7  and  C_11 
REMARK    5  A    between atoms: S_17  and  C_8 
REMARK    6  A    between atoms: O_20  and  C_9 
REMARK    7  A    between atoms: C_16  and  S_17 
REMARK    8  A    between atoms: C_31  and  O_20 
REMARK    9  A    between atoms: C_33  and  C_31 
ROOT
ATOM      1  C   UNL d   1       0.007  -1.420  -0.012  0.00  0.00     0.086 A 
ATOM      2  C   UNL d   1       1.243  -0.794   0.004  0.00  0.00     0.136 A 
ATOM      3  N   UNL d   1       1.337   0.581   0.020  0.00  0.00    -0.332 N 
ATOM      4  HN  UNL d   1       2.248   1.038   0.056  1.00  0.00     0.168 HD
ATOM      5  C   UNL d   1       0.208   1.309  -0.013  0.00  0.00     0.149 A 
ATOM      6  N   UNL d   1      -1.018   0.777  -0.042  0.00  0.00    -0.345 N 
ATOM      7  HN  UNL d   1      -1.855   1.359  -0.059  1.00  0.00     0.167 HD
ATOM      8  C   UNL d   1      -1.088  -0.574  -0.047  0.00  0.00     0.110 A 
ENDROOT
BRANCH   5   9
ATOM      9  S   UNL d   1       0.353   3.074   0.070  0.00  0.00    -0.054 SA
BRANCH   9  10
ATOM     10  C   UNL d   1       0.443   3.537  -1.652  0.00  0.00     0.010 A 
ATOM     11  C   UNL d   1      -0.499   4.439  -2.167  0.00  0.00     0.035 A 
ATOM     12  C   UNL d   1      -0.422   4.890  -3.497  0.00  0.00     0.050 A 
ATOM     13  C   UNL d   1       0.621   4.424  -4.311  0.00  0.00     0.032 A 
ATOM     14  C   UNL d   1       1.587   3.537  -3.808  0.00  0.00     0.050 A 
ATOM     15  C   UNL d   1       1.488   3.104  -2.475  0.00  0.00     0.035 A 
BRANCH  12  16
ATOM     16  C   UNL d   1      -1.434   5.883  -4.022  0.00  0.00     0.417 C 
ATOM     17  F   UNL d   1      -1.229   6.226  -5.325  0.00  0.00    -0.166 F 
ATOM     18  F   UNL d   1      -2.709   5.414  -3.956  0.00  0.00    -0.166 F 
ATOM     19  F   UNL d   1      -1.424   7.052  -3.325  0.00  0.00    -0.166 F 
ENDBRANCH  12  16
BRANCH  14  20
ATOM     20  C   UNL d   1       2.738   3.074  -4.671  0.00  0.00     0.417 C 
ATOM     21  F   UNL d   1       2.692   3.557  -5.943  0.00  0.00    -0.166 F 
ATOM     22  F   UNL d   1       3.946   3.454  -4.171  0.00  0.00    -0.166 F 
ATOM     23  F   UNL d   1       2.787   1.719  -4.788  0.00  0.00    -0.166 F 
ENDBRANCH  14  20
ENDBRANCH   9  10
ENDBRANCH   5   9
BRANCH   2  24
ATOM     24  C   UNL d   1       2.571  -1.520  -0.056  0.00  0.00     0.433 C 
ATOM     25  F   UNL d   1       2.516  -2.866  -0.241  0.00  0.00    -0.165 F 
ATOM     26  F   UNL d   1       3.341  -1.069  -1.090  0.00  0.00    -0.165 F 
ATOM     27  F   UNL d   1       3.317  -1.331   1.069  0.00  0.00    -0.165 F 
ENDBRANCH   2  24
BRANCH   1  28
ATOM     28  C   UNL d   1      -0.279  -2.857  -0.120  0.00  0.00     0.297 C 
ATOM     29  O   UNL d   1      -1.147  -3.273  -0.874  0.00  0.00    -0.259 OA
BRANCH  28  30
ATOM     30  O   UNL d   1       0.463  -3.595   0.729  0.00  0.00    -0.313 OA
BRANCH  30  31
ATOM     31  C   UNL d   1       0.319  -5.023   0.576  0.00  0.00     0.217 C 
BRANCH  31  32
ATOM     32  C   UNL d   1      -0.612  -5.577   1.625  0.00  0.00    -0.034 A 
ATOM     33  C   UNL d   1      -1.744  -6.319   1.264  0.00  0.00     0.011 A 
ATOM     34  C   UNL d   1      -2.610  -6.818   2.245  0.00  0.00     0.024 A 
ATOM     35  C   UNL d   1      -2.341  -6.573   3.592  0.00  0.00     0.034 A 
ATOM     36  C   UNL d   1      -1.208  -5.855   3.964  0.00  0.00     0.024 A 
ATOM     37 CL   UNL d   1      -3.420  -7.152   4.798  0.00  0.00    -0.084 Cl
ATOM     38  C   UNL d   1      -0.343  -5.363   2.985  0.00  0.00     0.011 A 
ENDBRANCH  31  32
ENDBRANCH  30  31
ENDBRANCH  28  30
ENDBRANCH   1  28
TORSDOF 9
