REMARK  5 active torsions:
REMARK  status: ('A' for Active; 'I' for Inactive)
REMARK    1  A    between atoms: C_12  and  C_2 
REMARK    2  A    between atoms: C_13  and  C_6 
REMARK    3  A    between atoms: C_16  and  C_11 
REMARK    4  A    between atoms: O_17  and  C_12 
REMARK    5  A    between atoms: C_22  and  O_17 
ROOT
ATOM      1  C   UNL d   1      -0.200  -0.988   0.009  0.00  0.00     0.040 A 
ATOM      2  C   UNL d   1      -2.565  -0.687   0.013  0.00  0.00     0.109 A 
ATOM      3  C   UNL d   1      -1.521  -1.597  -0.027  0.00  0.00     0.063 A 
ATOM      4  C   UNL d   1      -0.360   0.391   0.049  0.00  0.00     0.103 A 
ATOM      5  S   UNL d   1      -1.977   0.912   0.058  0.00  0.00    -0.062 SA
ATOM      6  C   UNL d   1       1.153  -1.462   0.009  0.00  0.00     0.018 A 
ATOM      7  N   UNL d   1       1.875   0.867   0.080  0.00  0.00    -0.298 N 
ATOM      8  HN  UNL d   1       2.638   1.544   0.100  1.00  0.00     0.187 HD
ATOM      9  N   UNL d   1       0.633   1.299   0.078  0.00  0.00    -0.292 N 
ATOM     10  HN  UNL d   1       0.427   2.298   0.098  1.00  0.00     0.187 HD
ATOM     11  C   UNL d   1       2.166  -0.461   0.055  0.00  0.00     0.070 A 
ATOM     12  N   UNL d   1      -1.770  -2.925  -0.085  0.00  0.00    -0.397 N 
ATOM     13  H   UNL d   1      -2.731  -3.281  -0.106  0.00  0.00     0.156 HD
ATOM     14  H   UNL d   1      -1.103  -3.596  -0.457  0.00  0.00     0.156 HD
ENDROOT
BRANCH   6  15
ATOM     15  C   UNL d   1       1.436  -2.913  -0.061  0.00  0.00    -0.023 A 
ATOM     16  C   UNL d   1       2.313  -3.451  -1.023  0.00  0.00     0.012 A 
ATOM     17  C   UNL d   1       2.646  -4.807  -1.031  0.00  0.00     0.001 A 
ATOM     18  C   UNL d   1       2.029  -5.678  -0.139  0.00  0.00     0.000 A 
ATOM     19  C   UNL d   1       1.130  -5.184   0.799  0.00  0.00     0.001 A 
ATOM     20  C   UNL d   1       0.883  -3.811   0.873  0.00  0.00     0.012 A 
ENDBRANCH   6  15
BRANCH  11  21
ATOM     21  C   UNL d   1       3.628  -0.741   0.001  0.00  0.00    -0.007 C 
ATOM     22  C   UNL d   1       4.223  -1.795   0.718  0.00  0.00     0.014 C 
ATOM     23  C   UNL d   1       5.532  -2.210   0.452  0.00  0.00     0.001 C 
ATOM     24  C   UNL d   1       6.309  -1.517  -0.468  0.00  0.00     0.000 C 
ATOM     25  C   UNL d   1       5.792  -0.388  -1.093  0.00  0.00     0.001 C 
ATOM     26  C   UNL d   1       4.465  -0.004  -0.862  0.00  0.00     0.014 C 
ENDBRANCH  11  21
BRANCH   2  27
ATOM     27  C   UNL d   1      -3.993  -1.005  -0.006  0.00  0.00     0.302 C 
ATOM     28  O   UNL d   1      -4.446  -2.146  -0.009  0.00  0.00    -0.259 OA
BRANCH  27  29
ATOM     29  O   UNL d   1      -4.762   0.122  -0.033  0.00  0.00    -0.317 OA
BRANCH  29  30
ATOM     30  C   UNL d   1      -6.184  -0.121  -0.048  0.00  0.00     0.174 C 
ATOM     31  C   UNL d   1      -6.695  -0.351   1.363  0.00  0.00     0.034 C 
ENDBRANCH  29  30
ENDBRANCH  27  29
ENDBRANCH   2  27
TORSDOF 5
