REMARK  5 active torsions:
REMARK  status: ('A' for Active; 'I' for Inactive)
REMARK    1  A    between atoms: C_2  and  S_1 
REMARK    2  A    between atoms: C_3  and  S_1 
REMARK    3  A    between atoms: N_4  and  C_6 
REMARK    4  A    between atoms: O_20  and  C_12 
REMARK    5  A    between atoms: O_21  and  C_17 
ROOT
ATOM      1  S   UNL d   1       0.739  -0.148  -0.137  0.00  0.00     0.211 S 
ATOM      2  O   UNL d   1       2.170  -0.375  -0.238  0.00  0.00    -0.217 OA
ATOM      3  O   UNL d   1      -0.089  -0.134  -1.325  0.00  0.00    -0.217 OA
ENDROOT
BRANCH   1   4
ATOM      4  C   UNL d   1       0.558   1.410   0.716  0.00  0.00     0.100 A 
ATOM      5  C   UNL d   1       0.037   1.350   2.033  0.00  0.00     0.063 A 
ATOM      6  C   UNL d   1      -0.211   2.495   2.785  0.00  0.00     0.069 A 
ATOM      7  C   UNL d   1       0.112   3.725   2.243  0.00  0.00     0.039 A 
ATOM      8  C   UNL d   1       0.668   3.797   0.963  0.00  0.00     0.041 A 
ATOM      9  C   UNL d   1       0.899   2.654   0.171  0.00  0.00     0.090 A 
BRANCH   6  10
ATOM     10  O   UNL d   1      -0.744   2.529   4.043  0.00  0.00    -0.356 OA
ATOM     11  C   UNL d   1      -1.189   1.298   4.602  0.00  0.00     0.210 C 
ENDBRANCH   6  10
BRANCH   9  12
ATOM     12  O   UNL d   1       1.425   3.045  -1.020  0.00  0.00    -0.354 OA
ATOM     13  C   UNL d   1       1.928   2.158  -1.996  0.00  0.00     0.210 C 
ENDBRANCH   9  12
ENDBRANCH   1   4
BRANCH   1  14
ATOM     14  C   UNL d   1       0.115  -1.496   0.870  0.00  0.00     0.086 A 
ATOM     15  C   UNL d   1      -1.246  -1.617   1.180  0.00  0.00     0.058 A 
ATOM     16  C   UNL d   1      -1.660  -2.582   2.108  0.00  0.00     0.061 A 
ATOM     17 CL   UNL d   1      -2.475  -0.576   0.562  0.00  0.00    -0.083 Cl
ATOM     18  C   UNL d   1      -0.719  -3.441   2.693  0.00  0.00     0.104 A 
ATOM     19  C   UNL d   1       0.629  -3.374   2.325  0.00  0.00     0.037 A 
ATOM     20  C   UNL d   1       1.044  -2.402   1.412  0.00  0.00     0.028 A 
BRANCH  18  21
ATOM     21  N   UNL d   1      -1.148  -4.384   3.735  0.00  0.00    -0.116 N 
ATOM     22  O   UNL d   1      -2.328  -4.338   4.099  0.00  0.00    -0.532 OA
ATOM     23  O   UNL d   1      -0.291  -5.148   4.204  0.00  0.00    -0.532 OA
ENDBRANCH  18  21
ENDBRANCH   1  14
TORSDOF 5
