REMARK  7 active torsions:
REMARK  status: ('A' for Active; 'I' for Inactive)
REMARK    1  A    between atoms: C_3  and  C_1 
REMARK    2  A    between atoms: C_10  and  C_2 
REMARK    3  A    between atoms: O_17  and  C_10 
REMARK    4  A    between atoms: C_15  and  C_12 
REMARK    5  A    between atoms: O_16  and  C_15 
REMARK    6  A    between atoms: C_18  and  O_16 
REMARK    7  A    between atoms: C_20  and  O_17 
ROOT
ATOM      1  C   UNL d   1      -2.568  -1.652   0.009  0.00  0.00     0.076 A 
ATOM      2  N   UNL d   1      -2.708  -2.704   0.899  0.00  0.00    -0.349 N 
ATOM      3  HN  UNL d   1      -1.981  -3.036   1.532  1.00  0.00     0.166 HD
ATOM      4  C   UNL d   1      -3.630  -1.487  -0.857  0.00  0.00     0.084 A 
ATOM      5  C   UNL d   1      -3.922  -3.214   0.807  0.00  0.00     0.075 A 
ATOM      6  S   UNL d   1      -4.885  -2.586  -0.475  0.00  0.00    -0.084 SA
ENDROOT
BRANCH   1   7
ATOM      7  C   UNL d   1      -1.317  -0.832  -0.015  0.00  0.00     0.144 A 
ATOM      8  C   UNL d   1      -1.121   0.459  -0.482  0.00  0.00     0.101 A 
ATOM      9  C   UNL d   1       0.283   0.658  -0.370  0.00  0.00     0.048 A 
ATOM     10  C   UNL d   1       1.110   1.840  -0.713  0.00  0.00     0.071 C 
ATOM     11  N   UNL d   1       0.884  -0.405   0.177  0.00  0.00    -0.264 N 
ATOM     12  O   UNL d   1      -0.123  -1.310   0.442  0.00  0.00    -0.234 OA
ATOM     13  HN  UNL d   1       1.880  -0.521   0.360  1.00  0.00     0.194 HD
BRANCH   8  14
ATOM     14  C   UNL d   1      -2.155   1.371  -0.916  0.00  0.00     0.298 C 
ATOM     15  O   UNL d   1      -3.268   1.413  -0.415  0.00  0.00    -0.259 OA
BRANCH  14  16
ATOM     16  O   UNL d   1      -1.778   2.116  -1.997  0.00  0.00    -0.318 OA
BRANCH  16  17
ATOM     17  C   UNL d   1      -2.851   2.772  -2.693  0.00  0.00     0.174 C 
ATOM     18  C   UNL d   1      -2.915   4.246  -2.347  0.00  0.00     0.034 C 
ENDBRANCH  16  17
ENDBRANCH  14  16
ENDBRANCH   8  14
ENDBRANCH   1   7
BRANCH   5  19
ATOM     19  C   UNL d   1      -4.484  -4.271   1.709  0.00  0.00     0.240 C 
BRANCH  19  20
ATOM     20  O   UNL d   1      -5.208  -3.590   2.736  0.00  0.00    -0.345 OA
BRANCH  20  21
ATOM     21  C   UNL d   1      -5.791  -4.360   3.702  0.00  0.00     0.069 A 
ATOM     22  C   UNL d   1      -5.814  -5.755   3.739  0.00  0.00     0.037 A 
ATOM     23  C   UNL d   1      -6.455  -6.419   4.790  0.00  0.00     0.003 A 
ATOM     24  C   UNL d   1      -7.076  -5.693   5.805  0.00  0.00     0.000 A 
ATOM     25  C   UNL d   1      -7.056  -4.301   5.773  0.00  0.00     0.003 A 
ATOM     26  C   UNL d   1      -6.417  -3.640   4.724  0.00  0.00     0.037 A 
ENDBRANCH  20  21
ENDBRANCH  19  20
ENDBRANCH   5  19
TORSDOF 7
