REMARK  5 active torsions:
REMARK  status: ('A' for Active; 'I' for Inactive)
REMARK    1  A    between atoms: S_12  and  C_2 
REMARK    2  A    between atoms: C_7  and  C_10 
REMARK    3  A    between atoms: C_19  and  S_12 
REMARK    4  A    between atoms: C_14  and  C_19 
REMARK    5  A    between atoms: O_21  and  C_14 
ROOT
ATOM      1  N   UNL d   1       1.527   1.210   0.004  0.00  0.00    -0.316 N 
ATOM      2  C   UNL d   1       2.364   0.128  -0.069  0.00  0.00     0.148 A 
ATOM      3  C   UNL d   1       0.245   0.723   0.012  0.00  0.00     0.136 A 
ATOM      4  N   UNL d   1       1.707  -1.014  -0.144  0.00  0.00    -0.334 N 
ATOM      5  HN  UNL d   1       2.095  -1.952  -0.246  1.00  0.00     0.168 HD
ATOM      6  C   UNL d   1       0.381  -0.658  -0.052  0.00  0.00     0.079 A 
ATOM      7  N   UNL d   1      -0.897   1.435   0.062  0.00  0.00    -0.349 N 
ATOM      8  HN  UNL d   1      -0.927   2.454   0.104  1.00  0.00     0.166 HD
ATOM      9  C   UNL d   1      -2.013  -0.747   0.009  0.00  0.00     0.065 A 
ATOM     10  C   UNL d   1      -0.786  -1.430  -0.041  0.00  0.00     0.051 A 
ATOM     11  C   UNL d   1      -2.001   0.648   0.050  0.00  0.00     0.106 A 
ATOM     12  C   UNL d   1       1.843   2.615   0.020  0.00  0.00     0.160 C 
ENDROOT
BRANCH   2  13
ATOM     13  S   UNL d   1       4.088   0.260  -0.151  0.00  0.00    -0.083 SA
BRANCH  13  14
ATOM     14  C   UNL d   1       4.555  -1.364  -0.807  0.00  0.00     0.192 C 
BRANCH  14  15
ATOM     15  C   UNL d   1       4.171  -1.507  -2.263  0.00  0.00     0.149 C 
ATOM     16  O   UNL d   1       4.975  -1.450  -3.186  0.00  0.00    -0.649 OA
BRANCH  15  17
ATOM     17  O   UNL d   1       2.854  -1.726  -2.475  0.00  0.00    -0.776 OA
ATOM     18  H   UNL d   1       2.324  -1.700  -1.642  0.00  0.00     0.167 HD
ENDBRANCH  15  17
ENDBRANCH  14  15
ENDBRANCH  13  14
ENDBRANCH   2  13
BRANCH   9  19
ATOM     19  C   UNL d   1      -3.329  -1.462   0.010  0.00  0.00     0.418 C 
ATOM     20  F   UNL d   1      -3.211  -2.818   0.016  0.00  0.00    -0.166 F 
ATOM     21  F   UNL d   1      -4.089  -1.148   1.094  0.00  0.00    -0.166 F 
ATOM     22  F   UNL d   1      -4.085  -1.156  -1.079  0.00  0.00    -0.166 F 
ENDBRANCH   9  19
TORSDOF 5
