REMARK  3 active torsions:
REMARK  status: ('A' for Active; 'I' for Inactive)
REMARK    1  A    between atoms: N_4  and  C_1 
REMARK    2  A    between atoms: N_13  and  C_3 
REMARK    3  A    between atoms: C_16  and  N_13 
ROOT
ATOM      1  C   UNL d   1      -1.355  -1.444   0.015  0.00  0.00     0.159 A 
ATOM      2  C   UNL d   1      -0.091  -0.807   0.016  0.00  0.00     0.102 A 
ATOM      3  C   UNL d   1      -2.541  -0.675   0.039  0.00  0.00     0.068 A 
ATOM      4  C   UNL d   1      -0.041   0.701   0.024  0.00  0.00     0.069 A 
ATOM      5  N   UNL d   1       1.135  -1.358   0.029  0.00  0.00    -0.308 N 
ATOM      6  HN  UNL d   1       1.351  -2.354   0.051  1.00  0.00     0.176 HD
ATOM      7  S   UNL d   1       2.230  -0.111   0.001  0.00  0.00     0.068 SA
ATOM      8  N   UNL d   1       1.205   1.194   0.015  0.00  0.00    -0.310 N 
ATOM      9  HN  UNL d   1       1.471   2.179   0.016  1.00  0.00     0.176 HD
ATOM     10  C   UNL d   1      -2.441   0.746   0.048  0.00  0.00     0.034 A 
ATOM     11  C   UNL d   1      -1.229   1.467   0.042  0.00  0.00     0.035 A 
ENDROOT
BRANCH   3  12
ATOM     12  N   UNL d   1      -3.816  -1.290  -0.021  0.00  0.00    -0.354 N 
ATOM     13  H   UNL d   1      -3.897  -2.173   0.484  0.00  0.00     0.166 HD
BRANCH  12  14
ATOM     14  C   UNL d   1      -5.035  -0.794  -0.519  0.00  0.00     0.032 A 
ATOM     15  C   UNL d   1      -5.093   0.056  -1.631  0.00  0.00     0.029 A 
ATOM     16  C   UNL d   1      -6.305   0.598  -2.062  0.00  0.00     0.002 A 
ATOM     17  C   UNL d   1      -7.480   0.303  -1.376  0.00  0.00     0.000 A 
ATOM     18  C   UNL d   1      -7.441  -0.539  -0.267  0.00  0.00     0.002 A 
ATOM     19  C   UNL d   1      -6.226  -1.086   0.157  0.00  0.00     0.029 A 
ENDBRANCH  12  14
ENDBRANCH   3  12
BRANCH   1  20
ATOM     20  N   UNL d   1      -1.386  -2.877  -0.005  0.00  0.00    -0.111 N 
ATOM     21  O   UNL d   1      -0.847  -3.455  -0.957  0.00  0.00    -0.532 OA
ATOM     22  O   UNL d   1      -2.017  -3.430   0.909  0.00  0.00    -0.532 OA
ENDBRANCH   1  20
TORSDOF 3
