REMARK  6 active torsions:
REMARK  status: ('A' for Active; 'I' for Inactive)
REMARK    1  A    between atoms: C_9  and  C_1 
REMARK    2  A    between atoms: S_2  and  C_3 
REMARK    3  A    between atoms: C_14  and  S_2 
REMARK    4  A    between atoms: C_10  and  C_8 
REMARK    5  A    between atoms: C_11  and  C_15 
REMARK    6  A    between atoms: C_12  and  C_16 
ROOT
ATOM      1  C   UNL d   1       6.348   4.819   0.086  0.00  0.00     0.146 C 
ATOM      2  C   UNL d   1       5.283   4.465   0.833  0.00  0.00     0.054 C 
ATOM      3  C   UNL d   1       7.269   5.867   0.435  0.00  0.00     0.112 C 
ATOM      4  N   UNL d   1       7.996   6.698   0.790  0.00  0.00    -0.191 NA
ENDROOT
BRANCH   1   5
ATOM      5  S   UNL d   1       6.611   3.978  -1.438  0.00  0.00     0.232 S 
ATOM      6  O   UNL d   1       6.302   2.563  -1.315  0.00  0.00    -0.215 OA
ATOM      7  O   UNL d   1       5.999   4.735  -2.518  0.00  0.00    -0.215 OA
BRANCH   5   8
ATOM      8  C   UNL d   1       8.386   4.100  -1.663  0.00  0.00     0.134 A 
ATOM      9  N   UNL d   1       9.103   3.561  -0.642  0.00  0.00    -0.356 N 
ATOM     10  C   UNL d   1      10.447   3.702  -0.720  0.00  0.00     0.105 A 
ATOM     11  HN  UNL d   1       8.655   3.079   0.137  1.00  0.00     0.166 HD
ATOM     12  C   UNL d   1      11.098   4.370  -1.750  0.00  0.00     0.063 A 
ATOM     13  C   UNL d   1      10.312   4.923  -2.773  0.00  0.00     0.020 A 
ATOM     14  C   UNL d   1       8.927   4.787  -2.737  0.00  0.00     0.043 A 
BRANCH  12  15
ATOM     15  C   UNL d   1      12.593   4.493  -1.761  0.00  0.00     0.418 C 
ATOM     16  F   UNL d   1      13.196   3.895  -0.697  0.00  0.00    -0.166 F 
ATOM     17  F   UNL d   1      13.150   3.932  -2.869  0.00  0.00    -0.166 F 
ATOM     18  F   UNL d   1      13.009   5.788  -1.749  0.00  0.00    -0.166 F 
ENDBRANCH  12  15
ENDBRANCH   5   8
ENDBRANCH   1   5
BRANCH   2  19
ATOM     19  C   UNL d   1       5.002   5.080   2.109  0.00  0.00     0.007 C 
ATOM     20  S   UNL d   1       3.378   5.280   2.681  0.00  0.00    -0.088 SA
ATOM     21  C   UNL d   1       3.868   6.203   4.037  0.00  0.00     0.033 C 
ATOM     22  C   UNL d   1       5.237   6.281   4.119  0.00  0.00     0.023 C 
ATOM     23  C   UNL d   1       5.879   5.582   3.063  0.00  0.00     0.020 C 
BRANCH  21  24
ATOM     24  C   UNL d   1       2.965   6.876   5.035  0.00  0.00     0.067 A 
ATOM     25  C   UNL d   1       1.569   6.747   5.154  0.00  0.00     0.068 A 
ATOM     26  C   UNL d   1       1.195   7.590   6.190  0.00  0.00     0.136 A 
ATOM     27  N   UNL d   1       2.350   8.209   6.585  0.00  0.00    -0.292 N 
ATOM     28  N   UNL d   1       3.441   7.728   5.952  0.00  0.00    -0.297 N 
ATOM     29  C   UNL d   1       2.563   9.328   7.478  0.00  0.00     0.178 C 
ATOM     30  HN  UNL d   1       4.417   7.963   6.132  1.00  0.00     0.187 HD
BRANCH  26  31
ATOM     31  C   UNL d   1      -0.151   7.824   6.750  0.00  0.00     0.434 C 
ATOM     32  F   UNL d   1      -0.187   8.690   7.790  0.00  0.00    -0.165 F 
ATOM     33  F   UNL d   1      -0.993   8.317   5.807  0.00  0.00    -0.165 F 
ATOM     34  F   UNL d   1      -0.702   6.667   7.198  0.00  0.00    -0.165 F 
ENDBRANCH  26  31
ENDBRANCH  21  24
ENDBRANCH   2  19
TORSDOF 6
