REMARK  6 active torsions:
REMARK  status: ('A' for Active; 'I' for Inactive)
REMARK    1  A    between atoms: C_14  and  N_1 
REMARK    2  A    between atoms: S_4  and  C_15 
REMARK    3  A    between atoms: N_13  and  S_4 
REMARK    4  A    between atoms: N_7  and  C_9 
REMARK    5  A    between atoms: C_10  and  C_21 
REMARK    6  A    between atoms: C_31  and  N_13 
ROOT
ATOM      1  C   UNL d   1       3.763  -0.125   0.285  0.00  0.00     0.046 A 
ATOM      2  C   UNL d   1       6.559  -0.088   0.526  0.00  0.00     0.080 A 
ATOM      3  C   UNL d   1       5.963  -0.724  -0.567  0.00  0.00     0.027 A 
ATOM      4  C   UNL d   1       5.769   0.494   1.520  0.00  0.00     0.027 A 
ATOM      5  C   UNL d   1       4.571  -0.722  -0.694  0.00  0.00     0.032 A 
ATOM      6  C   UNL d   1       4.375   0.469   1.401  0.00  0.00     0.032 A 
ENDROOT
BRANCH   1   7
ATOM      7  N   UNL d   1       2.335  -0.099   0.144  0.00  0.00    -0.244 N 
ATOM      8  C   UNL d   1       1.561  -0.541   1.225  0.00  0.00     0.266 A 
ATOM      9  C   UNL d   1       0.089  -0.408   1.105  0.00  0.00     0.047 A 
ATOM     10  O   UNL d   1       2.002  -1.066   2.245  0.00  0.00    -0.267 OA
ATOM     11  C   UNL d   1      -0.725  -0.772   2.189  0.00  0.00     0.054 A 
ATOM     12  C   UNL d   1      -0.470   0.080  -0.080  0.00  0.00     0.006 A 
ATOM     13  C   UNL d   1      -2.111  -0.623   2.089  0.00  0.00     0.104 A 
ATOM     14  C   UNL d   1      -2.690  -0.136   0.911  0.00  0.00     0.048 A 
ATOM     15  C   UNL d   1      -1.879   0.211  -0.180  0.00  0.00    -0.021 A 
ATOM     16  C   UNL d   1      -2.446   0.695  -1.369  0.00  0.00     0.012 A 
ATOM     17  C   UNL d   1      -1.641   1.051  -2.449  0.00  0.00     0.002 A 
ATOM     18  C   UNL d   1      -0.256   0.930  -2.349  0.00  0.00     0.018 A 
ATOM     19  C   UNL d   1       0.328   0.447  -1.169  0.00  0.00     0.045 A 
ATOM     20  C   UNL d   1       1.804   0.366  -1.069  0.00  0.00     0.266 A 
ATOM     21  O   UNL d   1       2.466   0.760  -2.028  0.00  0.00    -0.267 OA
BRANCH  13  22
ATOM     22  N   UNL d   1      -2.969  -0.965   3.232  0.00  0.00    -0.116 N 
ATOM     23  O   UNL d   1      -2.421  -1.394   4.255  0.00  0.00    -0.532 OA
ATOM     24  O   UNL d   1      -4.189  -0.796   3.103  0.00  0.00    -0.532 OA
ENDBRANCH  13  22
ENDBRANCH   1   7
BRANCH   2  25
ATOM     25  S   UNL d   1       8.334  -0.074   0.671  0.00  0.00     0.263 S 
ATOM     26  O   UNL d   1       8.667   0.111   2.071  0.00  0.00    -0.200 OA
ATOM     27  O   UNL d   1       8.836  -1.206  -0.074  0.00  0.00    -0.200 OA
BRANCH  25  28
ATOM     28  N   UNL d   1       8.798   1.299  -0.190  0.00  0.00    -0.281 N 
ATOM     29  H   UNL d   1       8.948   1.136  -1.185  0.00  0.00     0.179 HD
BRANCH  28  30
ATOM     30  C   UNL d   1       8.369   2.578   0.243  0.00  0.00     0.042 A 
ATOM     31  C   UNL d   1       9.149   3.278   1.159  0.00  0.00     0.031 A 
ATOM     32  C   UNL d   1       8.724   4.521   1.634  0.00  0.00     0.018 A 
ATOM     33  C   UNL d   1       7.501   5.064   1.211  0.00  0.00     0.048 A 
ATOM     34  C   UNL d   1       6.731   4.350   0.278  0.00  0.00     0.018 A 
ATOM     35  C   UNL d   1       7.168   3.117  -0.214  0.00  0.00     0.031 A 
BRANCH  33  36
ATOM     36  C   UNL d   1       7.001   6.383   1.750  0.00  0.00     0.417 C 
ATOM     37  F   UNL d   1       7.846   6.965   2.645  0.00  0.00    -0.166 F 
ATOM     38  F   UNL d   1       6.803   7.305   0.768  0.00  0.00    -0.166 F 
ATOM     39  F   UNL d   1       5.806   6.259   2.392  0.00  0.00    -0.166 F 
ENDBRANCH  33  36
ENDBRANCH  28  30
ENDBRANCH  25  28
ENDBRANCH   2  25
TORSDOF 6
