REMARK  3 active torsions:
REMARK  status: ('A' for Active; 'I' for Inactive)
REMARK    1  A    between atoms: C_2  and  S_4 
REMARK    2  A    between atoms: S_4  and  C_15 
REMARK    3  A    between atoms: C_15  and  C_11 
ROOT
ATOM      1  C   UNL d   1       0.035  -0.450  -0.698  0.00  0.00     0.085 A 
ATOM      2  C   UNL d   1       0.227   0.775   0.060  0.00  0.00     0.085 A 
ATOM      3  O   UNL d   1       2.097   0.202  -0.882  0.00  0.00    -0.156 OA
ATOM      4  N   UNL d   1       1.202  -0.783  -1.265  0.00  0.00    -0.240 N 
ATOM      5  HN  UNL d   1       1.391  -1.592  -1.855  1.00  0.00     0.197 HD
ATOM      6  N   UNL d   1       1.502   1.157  -0.074  0.00  0.00    -0.240 N 
ATOM      7  HN  UNL d   1       1.945   1.981   0.334  1.00  0.00     0.197 HD
ATOM      8  C   UNL d   1      -1.207  -1.112  -0.759  0.00  0.00     0.041 A 
ATOM      9  C   UNL d   1      -2.267  -0.505  -0.036  0.00  0.00    -0.044 A 
ATOM     10  C   UNL d   1      -0.814   1.375   0.786  0.00  0.00     0.034 A 
ATOM     11  C   UNL d   1      -2.047   0.688   0.725  0.00  0.00     0.010 A 
ENDROOT
BRANCH   9  12
ATOM     12  C   UNL d   1      -3.607  -1.230  -0.022  0.00  0.00     0.153 C 
BRANCH  12  13
ATOM     13  S   UNL d   1      -5.086  -0.158  -0.040  0.00  0.00     0.061 S 
ATOM     14  O   UNL d   1      -5.230   0.476   1.315  0.00  0.00    -0.252 OA
BRANCH  13  15
ATOM     15  C   UNL d   1      -6.309  -1.403  -0.127  0.00  0.00     0.072 A 
ATOM     16  S   UNL d   1      -6.486  -2.458  -1.452  0.00  0.00    -0.093 SA
ATOM     17  C   UNL d   1      -7.851  -3.210  -0.741  0.00  0.00     0.051 A 
ATOM     18  C   UNL d   1      -8.168  -2.654   0.480  0.00  0.00     0.009 A 
ATOM     19  C   UNL d   1      -7.279  -1.595   0.831  0.00  0.00     0.029 A 
ENDBRANCH  13  15
ENDBRANCH  12  13
ENDBRANCH   9  12
TORSDOF 3
