REMARK  3 active torsions:
REMARK  status: ('A' for Active; 'I' for Inactive)
REMARK    1  A    between atoms: C_2  and  S_1 
REMARK    2  A    between atoms: C_7  and  S_1 
REMARK    3  A    between atoms: N_6  and  C_3 
ROOT
ATOM      1  C   UNL d   1       0.509   1.241   1.099  0.00  0.00     0.159 C 
ATOM      2  C   UNL d   1      -0.202   2.277   0.608  0.00  0.00     0.121 C 
ATOM      3  C   UNL d   1       0.983   0.177   0.306  0.00  0.00     0.113 C 
ATOM      4  N   UNL d   1       1.395  -0.674  -0.368  0.00  0.00    -0.191 NA
ENDROOT
BRANCH   1   5
ATOM      5  S   UNL d   1       0.869   1.159   2.790  0.00  0.00     0.218 S 
ATOM      6  O   UNL d   1       0.370  -0.097   3.323  0.00  0.00    -0.216 OA
ATOM      7  O   UNL d   1       0.518   2.404   3.452  0.00  0.00    -0.216 OA
BRANCH   5   8
ATOM      8  C   UNL d   1       2.656   1.055   2.854  0.00  0.00     0.065 A 
ATOM      9  C   UNL d   1       3.405   2.223   3.041  0.00  0.00     0.025 A 
ATOM     10  C   UNL d   1       4.794   2.139   3.168  0.00  0.00     0.025 A 
ATOM     11  C   UNL d   1       5.424   0.894   3.119  0.00  0.00     0.034 A 
ATOM     12  C   UNL d   1       4.676  -0.272   2.949  0.00  0.00     0.025 A 
ATOM     13 CL   UNL d   1       7.133   0.797   3.287  0.00  0.00    -0.084 Cl
ATOM     14  C   UNL d   1       3.286  -0.196   2.825  0.00  0.00     0.025 A 
ENDBRANCH   5   8
ENDBRANCH   1   5
BRANCH   2  15
ATOM     15  N   UNL d   1      -0.715   2.492  -0.668  0.00  0.00    -0.384 N 
ATOM     16  C   UNL d   1      -1.218   1.437  -1.577  0.00  0.00     0.148 C 
ATOM     17  C   UNL d   1      -0.329   1.362  -2.826  0.00  0.00     0.187 C 
ATOM     18  O   UNL d   1      -0.280   2.635  -3.497  0.00  0.00    -0.388 OA
ATOM     19  C   UNL d   1       0.229   3.653  -2.615  0.00  0.00     0.187 C 
ATOM     20  C   UNL d   1      -0.646   3.802  -1.353  0.00  0.00     0.148 C 
ENDBRANCH   2  15
TORSDOF 3
