REMARK  7 active torsions:
REMARK  status: ('A' for Active; 'I' for Inactive)
REMARK    1  A    between atoms: C_3  and  C_8 
REMARK    2  A    between atoms: C_26  and  C_4 
REMARK    3  A    between atoms: C_22  and  C_7 
REMARK    4  A    between atoms: C_15  and  S_20 
REMARK    5  A    between atoms: C_19  and  O_27 
REMARK    6  A    between atoms: S_20  and  C_22 
REMARK    7  A    between atoms: O_27  and  C_26 
ROOT
ATOM      1  N   UNL d   1       1.331   0.163   0.053  0.00  0.00    -0.324 N 
ATOM      2  HN  UNL d   1       2.339   0.309   0.109  1.00  0.00     0.169 HD
ATOM      3  C   UNL d   1       0.326   1.097  -0.030  0.00  0.00     0.128 A 
ATOM      4  N   UNL d   1      -0.913   0.588  -0.078  0.00  0.00    -0.245 N 
ATOM      5  HN  UNL d   1      -1.802   1.086  -0.125  1.00  0.00     0.196 HD
ATOM      6  C   UNL d   1       0.659  -0.967   0.042  0.00  0.00     0.158 A 
ATOM      7  O   UNL d   1      -0.694  -0.790  -0.049  0.00  0.00    -0.222 OA
ENDROOT
BRANCH   6   8
ATOM      8  C   UNL d   1       1.156  -2.362   0.086  0.00  0.00     0.167 C 
BRANCH   8   9
ATOM      9  S   UNL d   1       0.600  -3.209   1.605  0.00  0.00    -0.104 SA
BRANCH   9  10
ATOM     10  C   UNL d   1       1.359  -4.798   1.365  0.00  0.00     0.069 A 
ATOM     11  N   UNL d   1       2.120  -4.982   0.263  0.00  0.00    -0.360 N 
ATOM     12  C   UNL d   1       2.703  -6.191   0.100  0.00  0.00     0.105 A 
ATOM     13  HN  UNL d   1       2.249  -4.236  -0.421  1.00  0.00     0.166 HD
ATOM     14  C   UNL d   1       2.567  -7.247   0.986  0.00  0.00     0.063 A 
ATOM     15  C   UNL d   1       1.770  -7.036   2.116  0.00  0.00     0.020 A 
ATOM     16  C   UNL d   1       1.160  -5.798   2.309  0.00  0.00     0.038 A 
BRANCH  14  17
ATOM     17  C   UNL d   1       3.254  -8.553   0.730  0.00  0.00     0.418 C 
ATOM     18  F   UNL d   1       3.982  -8.566  -0.421  0.00  0.00    -0.166 F 
ATOM     19  F   UNL d   1       4.124  -8.886   1.723  0.00  0.00    -0.166 F 
ATOM     20  F   UNL d   1       2.381  -9.591   0.631  0.00  0.00    -0.166 F 
ENDBRANCH  14  17
ENDBRANCH   9  10
ENDBRANCH   8   9
ENDBRANCH   6   8
BRANCH   3  21
ATOM     21  C   UNL d   1       0.595   2.561  -0.040  0.00  0.00     0.254 C 
BRANCH  21  22
ATOM     22  O   UNL d   1       0.741   3.052  -1.377  0.00  0.00    -0.344 OA
BRANCH  22  23
ATOM     23  C   UNL d   1       1.070   4.371  -1.524  0.00  0.00     0.070 A 
ATOM     24  C   UNL d   1       1.228   5.296  -0.496  0.00  0.00     0.045 A 
ATOM     25  C   UNL d   1       1.575   6.631  -0.777  0.00  0.00    -0.037 A 
ATOM     26  C   UNL d   1       1.747   7.588   0.373  0.00  0.00     0.050 C 
ATOM     27  C   UNL d   1       1.760   7.031  -2.116  0.00  0.00     0.046 A 
ATOM     28  C   UNL d   1       1.601   6.107  -3.163  0.00  0.00    -0.037 A 
ATOM     29 CL   UNL d   1       2.185   8.678  -2.454  0.00  0.00    -0.083 Cl
ATOM     30  C   UNL d   1       1.255   4.781  -2.845  0.00  0.00     0.045 A 
ATOM     31  C   UNL d   1       1.779   6.436  -4.620  0.00  0.00     0.050 C 
ENDBRANCH  22  23
ENDBRANCH  21  22
ENDBRANCH   3  21
TORSDOF 7
