REMARK  4 active torsions:
REMARK  status: ('A' for Active; 'I' for Inactive)
REMARK    1  A    between atoms: C_2  and  C_9 
REMARK    2  A    between atoms: C_23  and  C_14 
REMARK    3  A    between atoms: C_16  and  S_18 
REMARK    4  A    between atoms: S_18  and  C_23 
ROOT
ATOM      1  S   UNL d   1      -4.965   0.071  -0.056  0.00  0.00    -0.108 SA
ENDROOT
BRANCH   1   2
ATOM      2  C   UNL d   1      -6.455  -0.896  -0.164  0.00  0.00     0.069 A 
ATOM      3  N   UNL d   1      -6.488  -2.117   0.411  0.00  0.00    -0.360 N 
ATOM      4  C   UNL d   1      -7.665  -2.793   0.370  0.00  0.00     0.105 A 
ATOM      5  HN  UNL d   1      -5.662  -2.516   0.857  1.00  0.00     0.166 HD
ATOM      6  C   UNL d   1      -8.820  -2.312  -0.229  0.00  0.00     0.063 A 
ATOM      7  C   UNL d   1      -8.754  -1.053  -0.829  0.00  0.00     0.020 A 
ATOM      8  C   UNL d   1      -7.562  -0.333  -0.790  0.00  0.00     0.038 A 
BRANCH   6   9
ATOM      9  C   UNL d   1     -10.091  -3.107  -0.226  0.00  0.00     0.418 C 
ATOM     10  F   UNL d   1      -9.993  -4.292   0.436  0.00  0.00    -0.166 F 
ATOM     11  F   UNL d   1     -11.121  -2.436   0.359  0.00  0.00    -0.166 F 
ATOM     12  F   UNL d   1     -10.514  -3.414  -1.483  0.00  0.00    -0.166 F 
ENDBRANCH   6   9
ENDBRANCH   1   2
BRANCH   1  13
ATOM     13  C   UNL d   1      -3.712  -1.249   0.021  0.00  0.00     0.119 C 
BRANCH  13  14
ATOM     14  C   UNL d   1      -2.319  -0.642  -0.007  0.00  0.00    -0.046 A 
ATOM     15  C   UNL d   1      -1.706  -0.383  -1.258  0.00  0.00     0.041 A 
ATOM     16  C   UNL d   1      -0.442   0.234  -1.190  0.00  0.00     0.085 A 
ATOM     17  C   UNL d   1       0.190   0.580   0.075  0.00  0.00     0.085 A 
ATOM     18  N   UNL d   1       0.374   0.608  -2.183  0.00  0.00    -0.240 N 
ATOM     19  N   UNL d   1       1.371   1.151  -0.187  0.00  0.00    -0.240 N 
ATOM     20  C   UNL d   1      -0.420   0.320   1.315  0.00  0.00     0.034 A 
ATOM     21  O   UNL d   1       1.482   1.169  -1.568  0.00  0.00    -0.156 OA
ATOM     22  HN  UNL d   1       2.050   1.500   0.489  1.00  0.00     0.197 HD
ATOM     23  C   UNL d   1      -1.686  -0.293   1.229  0.00  0.00     0.010 A 
ATOM     24  HN  UNL d   1       0.214   0.501  -3.185  1.00  0.00     0.197 HD
ENDBRANCH  13  14
ENDBRANCH   1  13
TORSDOF 4
