REMARK  3 active torsions:
REMARK  status: ('A' for Active; 'I' for Inactive)
REMARK    1  A    between atoms: C_3  and  N_1 
REMARK    2  A    between atoms: N_14  and  C_11 
REMARK    3  A    between atoms: C_15  and  N_14 
ROOT
ATOM      1  C   UNL d   1       0.049  -3.090   1.593  0.00  0.00     0.068 A 
ATOM      2  C   UNL d   1       0.296  -1.118   0.195  0.00  0.00     0.104 A 
ATOM      3  N   UNL d   1       0.939  -4.484   3.593  0.00  0.00    -0.191 NA
ATOM      4  C   UNL d   1       0.537  -3.852   2.709  0.00  0.00     0.101 C 
ATOM      5  C   UNL d   1       0.728  -1.896   1.273  0.00  0.00     0.060 A 
ATOM      6  C   UNL d   1      -1.054  -3.535   0.820  0.00  0.00     0.030 A 
ATOM      7  C   UNL d   1      -0.813  -1.513  -0.553  0.00  0.00     0.038 A 
ATOM      8  C   UNL d   1      -1.481  -2.700  -0.229  0.00  0.00     0.027 A 
ENDROOT
BRANCH   6   9
ATOM      9  N   UNL d   1      -1.776  -4.698   1.159  0.00  0.00    -0.279 NA
ATOM     10  H   UNL d   1      -1.296  -5.306   1.824  0.00  0.00     0.128 HD
BRANCH   9  11
ATOM     11  C   UNL d   1      -2.394  -5.481   0.071  0.00  0.00     0.216 C 
ATOM     12  C   UNL d   1      -3.064  -6.713   0.547  0.00  0.00     0.073 C 
ATOM     13  N   UNL d   1      -3.593  -7.691   0.887  0.00  0.00    -0.196 NA
ENDBRANCH   9  11
ENDBRANCH   6   9
BRANCH   2  14
ATOM     14  N   UNL d   1       1.002   0.124  -0.149  0.00  0.00    -0.116 N 
ATOM     15  O   UNL d   1       1.975   0.442   0.546  0.00  0.00    -0.532 OA
ATOM     16  O   UNL d   1       0.582   0.773  -1.117  0.00  0.00    -0.532 OA
ENDBRANCH   2  14
TORSDOF 3
