REMARK  7 active torsions:
REMARK  status: ('A' for Active; 'I' for Inactive)
REMARK    1  A    between atoms: N_2  and  S_1 
REMARK    2  A    between atoms: C_4  and  S_1 
REMARK    3  A    between atoms: C_5  and  N_2 
REMARK    4  A    between atoms: C_21  and  N_2 
REMARK    5  A    between atoms: C_3  and  C_6 
REMARK    6  A    between atoms: C_11  and  C_5 
REMARK    7  A    between atoms: C_20  and  C_21 
ROOT
ATOM      1  N   UNL d   1       3.048   4.517  -2.828  0.00  0.00    -0.197 NA
ATOM      2  C   UNL d   1       2.770   3.448  -2.476  0.00  0.00     0.060 C 
ATOM      3  C   UNL d   1       2.416   2.094  -2.012  0.00  0.00     0.139 C 
ENDROOT
BRANCH   3   4
ATOM      4  C   UNL d   1       0.902   1.972  -1.824  0.00  0.00     0.122 C 
BRANCH   4   5
ATOM      5  N   UNL d   1       0.419   0.592  -1.371  0.00  0.00    -0.200 NA
BRANCH   5   6
ATOM      6  S   UNL d   1       1.093   0.173   0.168  0.00  0.00     0.244 S 
ATOM      7  O   UNL d   1       0.681   1.214   1.087  0.00  0.00    -0.206 OA
ATOM      8  O   UNL d   1       2.495  -0.129  -0.032  0.00  0.00    -0.206 OA
BRANCH   6   9
ATOM      9  C   UNL d   1       0.331  -1.341   0.692  0.00  0.00     0.075 A 
ATOM     10  C   UNL d   1      -0.315  -1.384   1.936  0.00  0.00     0.041 A 
ATOM     11  C   UNL d   1      -0.826  -2.596   2.424  0.00  0.00     0.049 A 
ATOM     12  C   UNL d   1      -0.696  -3.749   1.633  0.00  0.00     0.016 A 
ATOM     13  C   UNL d   1      -0.049  -3.699   0.393  0.00  0.00     0.002 A 
ATOM     14  C   UNL d   1       0.478  -2.496  -0.077  0.00  0.00     0.025 A 
BRANCH  11  15
ATOM     15  C   UNL d   1      -1.479  -2.677   3.784  0.00  0.00     0.417 C 
ATOM     16  F   UNL d   1      -1.475  -1.495   4.460  0.00  0.00    -0.166 F 
ATOM     17  F   UNL d   1      -2.783  -3.061   3.711  0.00  0.00    -0.166 F 
ATOM     18  F   UNL d   1      -0.867  -3.577   4.602  0.00  0.00    -0.166 F 
ENDBRANCH  11  15
ENDBRANCH   6   9
ENDBRANCH   5   6
BRANCH   5  19
ATOM     19  C   UNL d   1      -1.087   0.548  -1.359  0.00  0.00     0.172 C 
BRANCH  19  20
ATOM     20  C   UNL d   1      -1.669   0.813  -2.709  0.00  0.00     0.066 A 
ATOM     21  O   UNL d   1      -2.519   1.879  -2.791  0.00  0.00    -0.326 OA
ATOM     22  C   UNL d   1      -2.958   1.949  -4.072  0.00  0.00     0.142 A 
ATOM     23  C   UNL d   1      -2.401   0.942  -4.825  0.00  0.00     0.027 A 
ATOM     24  C   UNL d   1      -1.563   0.209  -3.947  0.00  0.00     0.036 A 
ENDBRANCH  19  20
ENDBRANCH   5  19
ENDBRANCH   4   5
ENDBRANCH   3   4
TORSDOF 7
