REMARK  5 active torsions:
REMARK  status: ('A' for Active; 'I' for Inactive)
REMARK    1  A    between atoms: N_4  and  C_1 
REMARK    2  A    between atoms: C_2  and  C_3 
REMARK       I    between atoms: N_6  and  C_2 
REMARK    3  A    between atoms: O_19  and  C_5 
REMARK       I    between atoms: C_7  and  N_6 
REMARK       I    between atoms: N_9  and  C_7 
REMARK    4  A    between atoms: C_8  and  N_9 
REMARK    5  A    between atoms: O_21  and  C_11 
ROOT
ATOM      1  C   UNL d   1      -1.717  -1.857   0.918  0.00  0.00     0.244 C 
ATOM      2  N   UNL d   1      -2.412  -1.146   1.876  0.00  0.00    -0.175 NA
ATOM      3  C   UNL d   1      -3.468  -0.386   1.428  0.00  0.00     0.305 C 
ATOM      4  N   UNL d   1      -3.146   0.906   1.073  0.00  0.00    -0.311 N 
ATOM      5  O   UNL d   1      -2.233  -2.846   0.408  0.00  0.00    -0.273 OA
ATOM      6  O   UNL d   1      -4.595  -0.873   1.438  0.00  0.00    -0.253 OA
ATOM      7  H   UNL d   1      -2.967  -1.896   2.293  0.00  0.00     0.141 HD
ATOM      8  H   UNL d   1      -2.184   1.008   0.779  0.00  0.00     0.170 HD
ENDROOT
BRANCH   1   9
ATOM      9  C   UNL d   1      -0.275  -1.527   0.646  0.00  0.00     0.096 C 
ATOM     10  C   UNL d   1       0.235  -0.220   0.641  0.00  0.00     0.119 C 
ATOM     11  C   UNL d   1       1.483   0.028   0.044  0.00  0.00     0.137 C 
ATOM     12  C   UNL d   1       2.305  -1.005  -0.408  0.00  0.00     0.042 C 
ATOM     13  C   UNL d   1       1.871  -2.315  -0.256  0.00  0.00     0.040 C 
ATOM     14  C   UNL d   1       0.605  -2.581   0.288  0.00  0.00     0.086 C 
BRANCH  10  15
ATOM     15  O   UNL d   1      -0.485   0.802   1.193  0.00  0.00    -0.352 OA
ATOM     16  C   UNL d   1       0.096   1.266   2.423  0.00  0.00     0.210 C 
ENDBRANCH  10  15
BRANCH  11  17
ATOM     17  N   UNL d   1       1.931   1.393  -0.178  0.00  0.00    -0.113 N 
ATOM     18  O   UNL d   1       1.144   2.174  -0.726  0.00  0.00    -0.532 OA
ATOM     19  O   UNL d   1       3.083   1.669   0.187  0.00  0.00    -0.532 OA
ENDBRANCH  11  17
BRANCH  14  20
ATOM     20  O   UNL d   1       0.209  -3.886   0.423  0.00  0.00    -0.355 OA
ATOM     21  C   UNL d   1       1.082  -4.693   1.216  0.00  0.00     0.210 C 
ENDBRANCH  14  20
ENDBRANCH   1   9
BRANCH   4  22
ATOM     22  C   UNL d   1      -4.100   1.807   0.530  0.00  0.00     0.063 C 
ATOM     23  C   UNL d   1      -5.368   1.999   1.123  0.00  0.00     0.061 C 
ATOM     24 CL   UNL d   1      -5.697   1.570   2.773  0.00  0.00    -0.082 Cl
ATOM     25  C   UNL d   1      -6.372   2.703   0.453  0.00  0.00     0.026 C 
ATOM     26  C   UNL d   1      -6.117   3.258  -0.795  0.00  0.00     0.002 C 
ATOM     27  C   UNL d   1      -4.830   3.195  -1.325  0.00  0.00     0.009 C 
ATOM     28  C   UNL d   1      -3.797   2.505  -0.660  0.00  0.00    -0.034 C 
ATOM     29  C   UNL d   1      -2.425   2.608  -1.272  0.00  0.00     0.050 C 
ENDBRANCH   4  22
TORSDOF 5
