REMARK  6 active torsions:
REMARK  status: ('A' for Active; 'I' for Inactive)
REMARK    1  A    between atoms: C_6  and  C_1 
REMARK    2  A    between atoms: N_4  and  C_2 
REMARK       I    between atoms: C_3  and  N_5 
REMARK    3  A    between atoms: C_7  and  C_3 
REMARK    4  A    between atoms: C_8  and  N_4 
REMARK    5  A    between atoms: N_5  and  C_9 
REMARK    6  A    between atoms: O_19  and  C_6 
ROOT
ATOM      1  C   UNL d   1       3.185  -0.547  -0.734  0.00  0.00     0.059 A 
ATOM      2  C   UNL d   1       3.719  -0.438   0.576  0.00  0.00     0.061 A 
ATOM      3  C   UNL d   1       5.073  -0.123   0.765  0.00  0.00     0.032 A 
ATOM      4  C   UNL d   1       4.094  -0.508  -1.799  0.00  0.00     0.032 A 
ATOM      5  C   UNL d   1       5.464  -0.299  -1.590  0.00  0.00     0.002 A 
ATOM      6  C   UNL d   1       5.947  -0.064  -0.312  0.00  0.00     0.002 A 
ENDROOT
BRANCH   1   7
ATOM      7  N   UNL d   1       1.789  -0.737  -0.893  0.00  0.00    -0.356 N 
ATOM      8  H   UNL d   1       1.273  -0.078  -0.297  0.00  0.00     0.166 HD
BRANCH   7   9
ATOM      9  C   UNL d   1       1.011  -1.217  -1.940  0.00  0.00     0.032 C 
ATOM     10  C   UNL d   1      -0.320  -1.003  -2.059  0.00  0.00     0.050 C 
ATOM     11  C   UNL d   1      -1.040  -1.639  -3.199  0.00  0.00     0.121 C 
ATOM     12  S   UNL d   1       0.232  -2.431  -4.205  0.00  0.00    -0.158 SA
ATOM     13  C   UNL d   1       1.549  -2.179  -2.977  0.00  0.00     0.132 C 
BRANCH  10  14
ATOM     14  C   UNL d   1      -1.099  -0.225  -1.071  0.00  0.00     0.291 C 
ATOM     15  O   UNL d   1      -0.595   0.449  -0.184  0.00  0.00    -0.260 OA
BRANCH  14  16
ATOM     16  O   UNL d   1      -2.424  -0.434  -1.262  0.00  0.00    -0.323 OA
ATOM     17  C   UNL d   1      -3.279   0.175  -0.292  0.00  0.00     0.213 C 
ENDBRANCH  14  16
ENDBRANCH  10  14
ENDBRANCH   7   9
ENDBRANCH   1   7
BRANCH   2  18
ATOM     18  N   UNL d   1       2.885  -0.718   1.690  0.00  0.00    -0.320 N 
ATOM     19  C   UNL d   1       3.348  -1.336   2.849  0.00  0.00     0.263 C 
ATOM     20  O   UNL d   1       4.531  -1.610   3.048  0.00  0.00    -0.267 OA
ATOM     21  H   UNL d   1       1.893  -0.814   1.510  0.00  0.00     0.169 HD
BRANCH  19  22
ATOM     22  C   UNL d   1       2.336  -1.736   3.817  0.00  0.00     0.072 A 
ATOM     23  S   UNL d   1       0.704  -1.236   3.744  0.00  0.00    -0.097 SA
ATOM     24  C   UNL d   1       0.322  -2.073   5.188  0.00  0.00     0.050 A 
ATOM     25  C   UNL d   1       1.403  -2.736   5.715  0.00  0.00     0.009 A 
ATOM     26  C   UNL d   1       2.565  -2.538   4.923  0.00  0.00     0.025 A 
ENDBRANCH  19  22
ENDBRANCH   2  18
TORSDOF 6
