REMARK  3 active torsions:
REMARK  status: ('A' for Active; 'I' for Inactive)
REMARK    1  A    between atoms: C_10  and  C_6 
REMARK    2  A    between atoms: N_7  and  C_9 
REMARK    3  A    between atoms: C_14  and  C_8 
ROOT
ATOM      1  O   UNL d   1      -1.085   0.009  -0.027  0.00  0.00    -0.273 OA
ATOM      2  N   UNL d   1       1.038  -0.693  -0.024  0.00  0.00    -0.277 N 
ATOM      3  HN  UNL d   1       1.852  -1.309  -0.022  1.00  0.00     0.189 HD
ATOM      4  N   UNL d   1       1.047   0.686  -0.019  0.00  0.00    -0.277 N 
ATOM      5  HN  UNL d   1       1.868   1.291  -0.012  1.00  0.00     0.189 HD
ATOM      6  C   UNL d   1      -0.227  -1.059  -0.031  0.00  0.00     0.174 A 
ATOM      7  C   UNL d   1      -0.214   1.070  -0.028  0.00  0.00     0.174 A 
ENDROOT
BRANCH   6   8
ATOM      8  C   UNL d   1      -0.813  -2.394  -0.070  0.00  0.00     0.019 A 
ATOM      9  C   UNL d   1      -2.201  -2.598  -0.059  0.00  0.00     0.052 A 
ATOM     10  C   UNL d   1      -2.719  -3.902  -0.121  0.00  0.00     0.103 A 
ATOM     11  C   UNL d   1      -1.866  -5.010  -0.191  0.00  0.00     0.036 A 
ATOM     12  C   UNL d   1      -0.487  -4.811  -0.197  0.00  0.00     0.003 A 
ATOM     13  C   UNL d   1       0.033  -3.515  -0.137  0.00  0.00     0.016 A 
BRANCH  10  14
ATOM     14  N   UNL d   1      -4.173  -4.107  -0.119  0.00  0.00    -0.116 N 
ATOM     15  O   UNL d   1      -4.895  -3.101  -0.049  0.00  0.00    -0.532 OA
ATOM     16  O   UNL d   1      -4.593  -5.270  -0.190  0.00  0.00    -0.532 OA
ENDBRANCH  10  14
ENDBRANCH   6   8
BRANCH   7  17
ATOM     17  C   UNL d   1      -0.786   2.409  -0.075  0.00  0.00     0.017 A 
ATOM     18  C   UNL d   1       0.064   3.526  -0.084  0.00  0.00     0.016 A 
ATOM     19  C   UNL d   1      -0.456   4.820  -0.175  0.00  0.00     0.001 A 
ATOM     20  C   UNL d   1      -1.833   5.014  -0.255  0.00  0.00     0.000 A 
ATOM     21  C   UNL d   1      -2.691   3.917  -0.231  0.00  0.00     0.001 A 
ATOM     22  C   UNL d   1      -2.172   2.622  -0.139  0.00  0.00     0.016 A 
ENDBRANCH   7  17
TORSDOF 3
