REMARK  6 active torsions:
REMARK  status: ('A' for Active; 'I' for Inactive)
REMARK    1  A    between atoms: C_5  and  C_1 
REMARK    2  A    between atoms: C_12  and  C_4 
REMARK       I    between atoms: N_13  and  C_5 
REMARK    3  A    between atoms: C_9  and  O_16 
REMARK    4  A    between atoms: N_10  and  N_13 
REMARK    5  A    between atoms: C_14  and  C_18 
REMARK    6  A    between atoms: O_16  and  C_24 
ROOT
ATOM      1  C   UNL d   1       0.581  -1.046   0.056  0.00  0.00     0.241 A 
ATOM      2  N   UNL d   1       1.291   0.063  -0.060  0.00  0.00    -0.315 N 
ATOM      3  HN  UNL d   1       2.298   0.169  -0.187  1.00  0.00     0.169 HD
ATOM      4  C   UNL d   1       0.317   1.042   0.034  0.00  0.00     0.138 A 
ATOM      5  N   UNL d   1      -0.927   0.562   0.202  0.00  0.00    -0.242 N 
ATOM      6  HN  UNL d   1      -1.796   1.087   0.298  1.00  0.00     0.196 HD
ATOM      7  O   UNL d   1      -0.752  -0.818   0.214  0.00  0.00    -0.212 OA
ENDROOT
BRANCH   1   8
ATOM      8  C   UNL d   1       1.048  -2.413   0.039  0.00  0.00     0.313 C 
ATOM      9  N   UNL d   1       2.432  -2.541  -0.105  0.00  0.00    -0.263 N 
ATOM     10  H   UNL d   1       3.013  -1.712  -0.189  0.00  0.00     0.190 HD
ATOM     11  O   UNL d   1       0.293  -3.380   0.145  0.00  0.00    -0.262 OA
BRANCH   9  12
ATOM     12  N   UNL d   1       2.977  -3.789  -0.131  0.00  0.00    -0.308 N 
ATOM     13  C   UNL d   1       4.264  -3.880  -0.236  0.00  0.00     0.120 C 
ATOM     14  HN  UNL d   1       2.392  -4.623  -0.068  1.00  0.00     0.186 HD
BRANCH  13  15
ATOM     15  C   UNL d   1       4.918  -5.212  -0.279  0.00  0.00     0.002 A 
ATOM     16  C   UNL d   1       6.305  -5.359  -0.397  0.00  0.00     0.045 A 
ATOM     17 CL   UNL d   1       7.386  -4.014  -0.485  0.00  0.00    -0.083 Cl
ATOM     18  C   UNL d   1       6.869  -6.641  -0.448  0.00  0.00     0.024 A 
ATOM     19  C   UNL d   1       6.058  -7.775  -0.379  0.00  0.00     0.002 A 
ATOM     20  C   UNL d   1       4.678  -7.634  -0.256  0.00  0.00     0.001 A 
ATOM     21  C   UNL d   1       4.111  -6.360  -0.205  0.00  0.00     0.014 A 
ENDBRANCH  13  15
ENDBRANCH   9  12
ENDBRANCH   1   8
BRANCH   4  22
ATOM     22  C   UNL d   1       0.612   2.471  -0.039  0.00  0.00     0.010 A 
ATOM     23  C   UNL d   1       1.920   2.922  -0.263  0.00  0.00     0.018 A 
ATOM     24  C   UNL d   1       2.206   4.294  -0.335  0.00  0.00     0.038 A 
ATOM     25  C   UNL d   1       1.194   5.233  -0.147  0.00  0.00     0.078 A 
ATOM     26  C   UNL d   1      -0.117   4.789   0.043  0.00  0.00     0.038 A 
ATOM     27  C   UNL d   1      -0.406   3.423   0.103  0.00  0.00     0.018 A 
BRANCH  25  28
ATOM     28  O   UNL d   1       1.332   6.585  -0.192  0.00  0.00    -0.255 OA
BRANCH  28  29
ATOM     29  C   UNL d   1       2.540   7.184   0.256  0.00  0.00     0.530 C 
ATOM     30  F   UNL d   1       3.396   6.329   0.853  0.00  0.00    -0.144 F 
ATOM     31  F   UNL d   1       3.163   7.765  -0.791  0.00  0.00    -0.144 F 
ATOM     32  F   UNL d   1       2.231   8.150   1.151  0.00  0.00    -0.144 F 
ENDBRANCH  28  29
ENDBRANCH  25  28
ENDBRANCH   4  22
TORSDOF 6
