REMARK  5 active torsions:
REMARK  status: ('A' for Active; 'I' for Inactive)
REMARK    1  A    between atoms: C_7  and  C_1 
REMARK    2  A    between atoms: O_10  and  C_6 
REMARK    3  A    between atoms: C_8  and  C_9 
REMARK       I    between atoms: N_11  and  C_8 
REMARK    4  A    between atoms: C_9  and  O_10 
REMARK    5  A    between atoms: C_13  and  N_11 
ROOT
ATOM      1  O   UNL d   1       2.290   1.606   0.171  0.00  0.00    -0.314 OA
ENDROOT
BRANCH   1   2
ATOM      2  C   UNL d   1       3.609   1.158  -0.145  0.00  0.00     0.142 C 
ATOM      3  C   UNL d   1       3.785   0.887  -1.648  0.00  0.00     0.057 C 
ATOM      4  C   UNL d   1       4.511   2.372   0.174  0.00  0.00     0.057 C 
BRANCH   2   5
ATOM      5  C   UNL d   1       4.141  -0.005   0.744  0.00  0.00     0.253 C 
ATOM      6  N   UNL d   1       3.777   0.104   2.073  0.00  0.00    -0.350 N 
ATOM      7  H   UNL d   1       3.129   0.857   2.297  0.00  0.00     0.163 HD
ATOM      8  O   UNL d   1       4.878  -0.886   0.305  0.00  0.00    -0.270 OA
BRANCH   6   9
ATOM      9  C   UNL d   1       4.288  -0.707   3.188  0.00  0.00     0.022 C 
ATOM     10  C   UNL d   1       5.776  -0.401   3.421  0.00  0.00     0.037 C 
ATOM     11  C   UNL d   1       3.498  -0.328   4.456  0.00  0.00     0.037 C 
ATOM     12  C   UNL d   1       4.098  -2.211   2.939  0.00  0.00     0.037 C 
ENDBRANCH   6   9
ENDBRANCH   2   5
ENDBRANCH   1   2
BRANCH   1  13
ATOM     13  C   UNL d   1       1.321   0.675   0.255  0.00  0.00     0.160 C 
ATOM     14  C   UNL d   1       1.033  -0.466  -0.500  0.00  0.00     0.093 C 
ATOM     15  C   UNL d   1      -0.211  -0.883  -0.059  0.00  0.00     0.138 C 
ATOM     16  N   UNL d   1      -0.500  -0.086   1.019  0.00  0.00    -0.290 N 
ATOM     17  N   UNL d   1       0.405   0.906   1.190  0.00  0.00    -0.278 N 
ATOM     18  C   UNL d   1      -1.578  -0.164   1.977  0.00  0.00     0.178 C 
ATOM     19  HN  UNL d   1       0.388   1.659   1.878  1.00  0.00     0.189 HD
BRANCH  15  20
ATOM     20  C   UNL d   1      -1.081  -1.935  -0.615  0.00  0.00     0.434 C 
ATOM     21  F   UNL d   1      -2.345  -1.921  -0.136  0.00  0.00    -0.165 F 
ATOM     22  F   UNL d   1      -1.186  -1.808  -1.966  0.00  0.00    -0.165 F 
ATOM     23  F   UNL d   1      -0.579  -3.172  -0.380  0.00  0.00    -0.165 F 
ENDBRANCH  15  20
ENDBRANCH   1  13
TORSDOF 5
