REMARK  6 active torsions:
REMARK  status: ('A' for Active; 'I' for Inactive)
REMARK    1  A    between atoms: C_2  and  N_1 
REMARK    2  A    between atoms: C_3  and  C_7 
REMARK    3  A    between atoms: O_19  and  C_4 
REMARK    4  A    between atoms: C_7  and  C_14 
REMARK    5  A    between atoms: C_12  and  C_20 
REMARK    6  A    between atoms: C_20  and  C_15 
ROOT
ATOM      1  C   UNL d   1      -1.076  -5.775  -1.833  0.00  0.00    -0.021 A 
ATOM      2  C   UNL d   1      -1.070  -6.133  -0.476  0.00  0.00     0.075 A 
ATOM      3  C   UNL d   1      -0.502  -7.360  -0.086  0.00  0.00     0.044 A 
ATOM      4  C   UNL d   1      -0.541  -6.694  -2.765  0.00  0.00     0.011 A 
ATOM      5  C   UNL d   1       0.067  -8.245  -1.015  0.00  0.00    -0.052 A 
ATOM      6  C   UNL d   1       0.016  -7.910  -2.366  0.00  0.00     0.008 A 
ENDROOT
BRANCH   1   7
ATOM      7  C   UNL d   1      -1.529  -4.441  -2.385  0.00  0.00     0.080 C 
BRANCH   7   8
ATOM      8  C   UNL d   1      -2.967  -4.339  -2.864  0.00  0.00    -0.054 A 
ATOM      9  C   UNL d   1      -3.603  -3.084  -2.835  0.00  0.00     0.010 A 
ATOM     10  C   UNL d   1      -4.885  -2.913  -3.364  0.00  0.00     0.036 A 
ATOM     11  C   UNL d   1      -5.543  -4.003  -3.943  0.00  0.00     0.102 A 
ATOM     12  C   UNL d   1      -4.933  -5.261  -3.978  0.00  0.00     0.036 A 
ATOM     13  C   UNL d   1      -3.655  -5.422  -3.440  0.00  0.00     0.010 A 
BRANCH  11  14
ATOM     14  N   UNL d   1      -6.873  -3.822  -4.542  0.00  0.00    -0.116 N 
ATOM     15  O   UNL d   1      -7.400  -4.802  -5.084  0.00  0.00    -0.532 OA
ATOM     16  O   UNL d   1      -7.382  -2.694  -4.476  0.00  0.00    -0.532 OA
ENDBRANCH  11  14
ENDBRANCH   7   8
ENDBRANCH   1   7
BRANCH   2  17
ATOM     17  O   UNL d   1      -1.419  -5.351   0.592  0.00  0.00    -0.355 OA
ATOM     18  C   UNL d   1      -2.624  -4.604   0.512  0.00  0.00     0.210 C 
ENDBRANCH   2  17
BRANCH   5  19
ATOM     19  C   UNL d   1       0.765  -9.505  -0.564  0.00  0.00     0.065 C 
BRANCH  19  20
ATOM     20  C   UNL d   1      -0.118 -10.718  -0.568  0.00  0.00    -0.032 C 
ATOM     21  C   UNL d   1       0.122 -11.827  -1.284  0.00  0.00     0.007 C 
ENDBRANCH  19  20
ENDBRANCH   5  19
TORSDOF 6
