REMARK  8 active torsions:
REMARK  status: ('A' for Active; 'I' for Inactive)
REMARK    1  A    between atoms: C_2  and  C_1 
REMARK       I    between atoms: N_6  and  C_1 
REMARK    2  A    between atoms: O_11  and  C_3 
REMARK    3  A    between atoms: O_13  and  C_4 
REMARK    4  A    between atoms: O_12  and  C_5 
REMARK    5  A    between atoms: C_10  and  N_6 
REMARK    6  A    between atoms: C_19  and  C_14 
REMARK    7  A    between atoms: C_23  and  C_19 
REMARK    8  A    between atoms: C_24  and  C_23 
ROOT
ATOM      1  C   UNL d   1       0.972   0.079  -0.272  0.00  0.00     0.256 C 
ATOM      2  N   UNL d   1       0.179   1.108   0.198  0.00  0.00    -0.323 N 
ATOM      3  O   UNL d   1       2.198   0.088  -0.347  0.00  0.00    -0.267 OA
ATOM      4  H   UNL d   1      -0.826   0.997   0.143  0.00  0.00     0.169 HD
ENDROOT
BRANCH   1   5
ATOM      5  C   UNL d   1       0.293  -1.153  -0.756  0.00  0.00     0.037 A 
ATOM      6  C   UNL d   1       0.967  -1.898  -1.736  0.00  0.00     0.057 A 
ATOM      7  C   UNL d   1       0.468  -3.117  -2.208  0.00  0.00     0.105 A 
ATOM      8  C   UNL d   1      -0.749  -3.610  -1.690  0.00  0.00     0.135 A 
ATOM      9  C   UNL d   1      -1.406  -2.870  -0.674  0.00  0.00     0.105 A 
ATOM     10  C   UNL d   1      -0.896  -1.640  -0.228  0.00  0.00     0.057 A 
BRANCH   7  11
ATOM     11  O   UNL d   1       1.134  -3.855  -3.151  0.00  0.00    -0.353 OA
ATOM     12  C   UNL d   1       2.352  -3.345  -3.683  0.00  0.00     0.210 C 
ENDBRANCH   7  11
BRANCH   8  13
ATOM     13  O   UNL d   1      -1.398  -4.748  -2.095  0.00  0.00    -0.351 OA
ATOM     14  C   UNL d   1      -0.838  -5.580  -3.098  0.00  0.00     0.210 C 
ENDBRANCH   8  13
BRANCH   9  15
ATOM     15  O   UNL d   1      -2.588  -3.214  -0.057  0.00  0.00    -0.353 OA
ATOM     16  C   UNL d   1      -2.770  -4.601   0.225  0.00  0.00     0.210 C 
ENDBRANCH   9  15
ENDBRANCH   1   5
BRANCH   2  17
ATOM     17  C   UNL d   1       0.643   2.319   0.771  0.00  0.00     0.035 A 
ATOM     18  C   UNL d   1       1.994   2.640   0.913  0.00  0.00     0.030 A 
ATOM     19  C   UNL d   1       2.394   3.802   1.582  0.00  0.00     0.009 A 
ATOM     20  C   UNL d   1       1.446   4.671   2.122  0.00  0.00    -0.058 A 
ATOM     21  C   UNL d   1       0.089   4.394   1.916  0.00  0.00     0.009 A 
ATOM     22  C   UNL d   1      -0.309   3.224   1.250  0.00  0.00     0.030 A 
BRANCH  20  23
ATOM     23  C   UNL d   1       1.894   5.856   2.944  0.00  0.00     0.038 C 
BRANCH  23  24
ATOM     24  C   UNL d   1       1.374   5.835   4.388  0.00  0.00     0.004 C 
BRANCH  24  25
ATOM     25  C   UNL d   1       1.841   4.613   5.186  0.00  0.00    -0.004 C 
ATOM     26  C   UNL d   1       1.288   4.637   6.604  0.00  0.00     0.005 C 
ENDBRANCH  24  25
ENDBRANCH  23  24
ENDBRANCH  20  23
ENDBRANCH   2  17
TORSDOF 8
