REMARK  3 active torsions:
REMARK  status: ('A' for Active; 'I' for Inactive)
REMARK    1  A    between atoms: C_13  and  C_5 
REMARK    2  A    between atoms: O_14  and  C_6 
REMARK    3  A    between atoms: C_12  and  C_10 
ROOT
ATOM      1  C   UNL d   1       0.257  -0.708  -0.006  0.00  0.00     0.142 A 
ATOM      2  N   UNL d   1       0.265   0.684   0.011  0.00  0.00    -0.217 N 
ATOM      3  N   UNL d   1      -0.917  -1.416  -0.006  0.00  0.00    -0.336 N 
ATOM      4  HN  UNL d   1      -0.918  -2.436  -0.011  1.00  0.00     0.167 HD
ATOM      5  C   UNL d   1       1.588  -1.093  -0.008  0.00  0.00     0.037 A 
ATOM      6  C   UNL d   1      -0.935   1.408   0.011  0.00  0.00     0.165 A 
ATOM      7  N   UNL d   1       1.519   1.202   0.031  0.00  0.00    -0.301 N 
ATOM      8  HN  UNL d   1       1.795   2.184   0.046  1.00  0.00     0.186 HD
ATOM      9  C   UNL d   1      -2.107   0.762   0.003  0.00  0.00     0.092 A 
ATOM     10  C   UNL d   1      -2.038  -0.740  -0.001  0.00  0.00     0.122 A 
ATOM     11  C   UNL d   1       2.306   0.123   0.026  0.00  0.00     0.124 A 
ENDROOT
BRANCH   5  12
ATOM     12  C   UNL d   1       2.065  -2.468  -0.000  0.00  0.00    -0.021 A 
ATOM     13  C   UNL d   1       1.363  -3.483  -0.665  0.00  0.00     0.012 A 
ATOM     14  C   UNL d   1       1.804  -4.807  -0.618  0.00  0.00     0.001 A 
ATOM     15  C   UNL d   1       2.959  -5.130   0.086  0.00  0.00     0.000 A 
ATOM     16  C   UNL d   1       3.683  -4.129   0.731  0.00  0.00     0.001 A 
ATOM     17  C   UNL d   1       3.242  -2.803   0.684  0.00  0.00     0.012 A 
ENDBRANCH   5  12
BRANCH   6  18
ATOM     18  O   UNL d   1      -0.887   2.792   0.020  0.00  0.00    -0.345 OA
ATOM     19  H   UNL d   1       0.068   3.022   0.025  0.00  0.00     0.219 HD
ENDBRANCH   6  18
BRANCH  10  20
ATOM     20  C   UNL d   1      -3.374  -1.488   0.000  0.00  0.00     0.432 C 
ATOM     21  F   UNL d   1      -4.449  -0.650   0.002  0.00  0.00    -0.165 F 
ATOM     22  F   UNL d   1      -3.518  -2.285  -1.093  0.00  0.00    -0.165 F 
ATOM     23  F   UNL d   1      -3.518  -2.289   1.091  0.00  0.00    -0.165 F 
ENDBRANCH  10  20
TORSDOF 3
