REMARK  2 active torsions:
REMARK  status: ('A' for Active; 'I' for Inactive)
REMARK    1  A    between atoms: N_14  and  C_10 
REMARK    2  A    between atoms: C_18  and  N_14 
ROOT
ATOM      1  S   UNL d   1      -1.056  -1.449   0.067  0.00  0.00     0.270 S 
ATOM      2  C   UNL d   1      -1.736  -0.200   2.297  0.00  0.00     0.101 A 
ATOM      3  N   UNL d   1      -1.473  -1.482   1.704  0.00  0.00    -0.269 N 
ATOM      4  C   UNL d   1      -2.045   0.954   1.583  0.00  0.00     0.057 A 
ATOM      5  C   UNL d   1      -2.136  -0.284  -0.553  0.00  0.00     0.146 C 
ATOM      6  C   UNL d   1      -2.137   1.013   0.120  0.00  0.00     0.210 C 
ATOM      7  S   UNL d   1      -1.768   0.054   3.979  0.00  0.00    -0.075 SA
ATOM      8  C   UNL d   1      -2.340   2.063   2.485  0.00  0.00    -0.032 A 
ATOM      9  C   UNL d   1      -2.214   1.683   3.813  0.00  0.00    -0.012 A 
ATOM     10  C   UNL d   1      -3.049  -0.592  -1.484  0.00  0.00     0.118 C 
ATOM     11  O   UNL d   1      -1.371  -2.760  -0.474  0.00  0.00    -0.200 OA
ATOM     12  O   UNL d   1       0.300  -0.949  -0.020  0.00  0.00    -0.200 OA
ATOM     13  O   UNL d   1      -2.332   2.043  -0.522  0.00  0.00    -0.286 OA
ATOM     14  C   UNL d   1      -1.111  -2.696   2.443  0.00  0.00     0.170 C 
ATOM     15  C   UNL d   1      -2.770   3.448   2.091  0.00  0.00     0.050 C 
ATOM     16  C   UNL d   1      -2.448   2.517   5.031  0.00  0.00     0.057 C 
ENDROOT
BRANCH  10  17
ATOM     17  N   UNL d   1      -4.015   0.237  -2.004  0.00  0.00    -0.363 N 
ATOM     18  H   UNL d   1      -3.919   1.231  -1.776  0.00  0.00     0.165 HD
BRANCH  17  19
ATOM     19  C   UNL d   1      -5.114  -0.102  -2.804  0.00  0.00     0.047 A 
ATOM     20  C   UNL d   1      -5.747   0.875  -3.574  0.00  0.00     0.117 A 
ATOM     21  N   UNL d   1      -6.770   0.651  -4.436  0.00  0.00    -0.373 N 
ATOM     22  C   UNL d   1      -7.185  -0.627  -4.547  0.00  0.00     0.088 A 
ATOM     23  HN  UNL d   1      -7.200   1.406  -4.970  1.00  0.00     0.164 HD
ATOM     24  C   UNL d   1      -6.641  -1.676  -3.827  0.00  0.00     0.019 A 
ATOM     25  C   UNL d   1      -5.592  -1.406  -2.949  0.00  0.00     0.032 A 
ENDBRANCH  17  19
ENDBRANCH  10  17
TORSDOF 2
