REMARK  4 active torsions:
REMARK  status: ('A' for Active; 'I' for Inactive)
REMARK    1  A    between atoms: N_3  and  C_2 
REMARK    2  A    between atoms: S_11  and  C_8 
REMARK    3  A    between atoms: C_16  and  S_11 
REMARK    4  A    between atoms: C_17  and  C_16 
ROOT
ATOM      1  N   UNL d   1       1.802  -0.426  -0.210  0.00  0.00    -0.289 N 
ATOM      2  C   UNL d   1      -2.705  -0.795   0.407  0.00  0.00     0.120 A 
ATOM      3  C   UNL d   1       0.972  -1.503  -0.158  0.00  0.00     0.259 A 
ATOM      4  C   UNL d   1       1.140   0.748  -0.036  0.00  0.00     0.259 A 
ATOM      5  C   UNL d   1      -0.371  -0.973   0.067  0.00  0.00     0.050 A 
ATOM      6  C   UNL d   1      -0.272   0.404   0.141  0.00  0.00     0.049 A 
ATOM      7  C   UNL d   1      -2.643   0.631   0.447  0.00  0.00     0.035 A 
ATOM      8  C   UNL d   1      -1.578  -1.617   0.210  0.00  0.00     0.055 A 
ATOM      9  C   UNL d   1      -1.373   1.223   0.344  0.00  0.00     0.039 A 
ATOM     10  O   UNL d   1       1.590   1.876  -0.020  0.00  0.00    -0.267 OA
ATOM     11  O   UNL d   1       1.251  -2.679  -0.269  0.00  0.00    -0.267 OA
ATOM     12  H   UNL d   1       2.799  -0.494  -0.359  0.00  0.00     0.172 HD
ENDROOT
BRANCH   7  13
ATOM     13  S   UNL d   1      -4.133   1.624   0.635  0.00  0.00    -0.123 SA
BRANCH  13  14
ATOM     14  C   UNL d   1      -3.719   3.299   0.004  0.00  0.00     0.118 C 
BRANCH  14  15
ATOM     15  C   UNL d   1      -3.301   3.346  -1.445  0.00  0.00    -0.049 A 
ATOM     16  C   UNL d   1      -4.112   2.820  -2.460  0.00  0.00     0.008 A 
ATOM     17  C   UNL d   1      -3.667   2.795  -3.784  0.00  0.00     0.007 A 
ATOM     18  C   UNL d   1      -2.414   3.317  -4.123  0.00  0.00    -0.062 A 
ATOM     19  C   UNL d   1      -1.638   3.916  -3.127  0.00  0.00     0.007 A 
ATOM     20  C   UNL d   1      -1.865   3.147  -5.508  0.00  0.00     0.048 C 
ATOM     21  C   UNL d   1      -2.084   3.944  -1.804  0.00  0.00     0.008 A 
ENDBRANCH  14  15
ENDBRANCH  13  14
ENDBRANCH   7  13
BRANCH   2  22
ATOM     22  N   UNL d   1      -3.964  -1.493   0.601  0.00  0.00    -0.114 N 
ATOM     23  O   UNL d   1      -4.472  -1.440   1.728  0.00  0.00    -0.532 OA
ATOM     24  O   UNL d   1      -4.380  -2.163  -0.354  0.00  0.00    -0.532 OA
ENDBRANCH   2  22
TORSDOF 4
