REMARK  5 active torsions:
REMARK  status: ('A' for Active; 'I' for Inactive)
REMARK    1  A    between atoms: C_10  and  C_1 
REMARK    2  A    between atoms: C_9  and  C_2 
REMARK    3  A    between atoms: S_6  and  C_9 
REMARK    4  A    between atoms: C_20  and  S_6 
REMARK    5  A    between atoms: C_21  and  C_20 
ROOT
ATOM      1  C   UNL d   1       0.152   0.877  -0.670  0.00  0.00     0.174 A 
ATOM      2  C   UNL d   1      -0.338  -1.079   0.026  0.00  0.00     0.154 A 
ATOM      3  N   UNL d   1       0.766   0.719   0.485  0.00  0.00    -0.277 N 
ATOM      4  HN  UNL d   1       1.358   1.402   0.958  1.00  0.00     0.189 HD
ATOM      5  O   UNL d   1      -0.553  -0.243  -1.042  0.00  0.00    -0.276 OA
ATOM      6  N   UNL d   1       0.455  -0.546   0.932  0.00  0.00    -0.280 N 
ATOM      7  HN  UNL d   1       0.775  -0.984   1.796  1.00  0.00     0.189 HD
ENDROOT
BRANCH   1   8
ATOM      8  C   UNL d   1       0.152   2.024  -1.571  0.00  0.00     0.020 A 
ATOM      9  C   UNL d   1       0.971   3.129  -1.279  0.00  0.00     0.040 A 
ATOM     10  C   UNL d   1       0.986   4.245  -2.118  0.00  0.00     0.036 A 
ATOM     11 CL   UNL d   1       2.000   5.583  -1.740  0.00  0.00    -0.084 Cl
ATOM     12  C   UNL d   1       0.187   4.286  -3.255  0.00  0.00     0.047 A 
ATOM     13  C   UNL d   1      -0.626   3.196  -3.551  0.00  0.00     0.036 A 
ATOM     14  C   UNL d   1      -0.645   2.070  -2.723  0.00  0.00     0.040 A 
ATOM     15 CL   UNL d   1      -1.622   3.239  -4.953  0.00  0.00    -0.084 Cl
ENDBRANCH   1   8
BRANCH   2  16
ATOM     16  C   UNL d   1      -0.857  -2.456  -0.029  0.00  0.00     0.226 C 
BRANCH  16  17
ATOM     17  S   UNL d   1      -2.634  -2.406  -0.031  0.00  0.00     0.151 S 
ATOM     18  O   UNL d   1      -3.088  -1.708   1.155  0.00  0.00    -0.227 OA
ATOM     19  O   UNL d   1      -3.077  -2.004  -1.354  0.00  0.00    -0.227 OA
BRANCH  17  20
ATOM     20  C   UNL d   1      -3.070  -4.134   0.175  0.00  0.00     0.140 C 
BRANCH  20  21
ATOM     21  C   UNL d   1      -4.584  -4.324   0.186  0.00  0.00     0.010 C 
ATOM     22  C   UNL d   1      -4.983  -5.780   0.363  0.00  0.00     0.006 C 
ENDBRANCH  20  21
ENDBRANCH  17  20
ENDBRANCH  16  17
ENDBRANCH   2  16
TORSDOF 5
