REMARK  5 active torsions:
REMARK  status: ('A' for Active; 'I' for Inactive)
REMARK    1  A    between atoms: C_2  and  C_1 
REMARK    2  A    between atoms: O_12  and  C_2 
REMARK    3  A    between atoms: C_9  and  C_3 
REMARK    4  A    between atoms: N_7  and  C_6 
REMARK    5  A    between atoms: C_17  and  O_12 
ROOT
ATOM      1  C   UNL d   1       1.040  -1.627  -1.317  0.00  0.00     0.120 C 
ATOM      2  C   UNL d   1       0.210  -1.131  -0.375  0.00  0.00     0.040 C 
ATOM      3  C   UNL d   1       0.583  -2.257  -2.506  0.00  0.00     0.105 C 
ATOM      4  N   UNL d   1       0.202  -2.763  -3.481  0.00  0.00    -0.191 NA
ENDROOT
BRANCH   1   5
ATOM      5  C   UNL d   1       2.492  -1.417  -1.089  0.00  0.00     0.303 C 
ATOM      6  O   UNL d   1       2.958  -0.823  -0.128  0.00  0.00    -0.258 OA
BRANCH   5   7
ATOM      7  O   UNL d   1       3.207  -1.897  -2.136  0.00  0.00    -0.317 OA
BRANCH   7   8
ATOM      8  C   UNL d   1       4.562  -1.431  -2.228  0.00  0.00     0.174 C 
ATOM      9  C   UNL d   1       4.559  -0.129  -3.008  0.00  0.00     0.034 C 
ENDBRANCH   7   8
ENDBRANCH   5   7
ENDBRANCH   1   5
BRANCH   2  10
ATOM     10  C   UNL d   1      -1.250  -1.177  -0.454  0.00  0.00    -0.035 A 
ATOM     11  C   UNL d   1      -1.952  -2.255   0.073  0.00  0.00     0.013 A 
ATOM     12  C   UNL d   1      -3.352  -2.285   0.005  0.00  0.00     0.030 A 
ATOM     13  C   UNL d   1      -4.098  -1.247  -0.577  0.00  0.00     0.029 A 
ATOM     14  C   UNL d   1      -3.356  -0.178  -1.108  0.00  0.00     0.030 A 
ATOM     15  C   UNL d   1      -1.956  -0.137  -1.054  0.00  0.00     0.013 A 
BRANCH  13  16
ATOM     16  N   UNL d   1      -5.485  -1.234  -0.582  0.00  0.00    -0.390 N 
ATOM     17  C   UNL d   1      -6.232  -0.649  -1.694  0.00  0.00     0.149 C 
ATOM     18  C   UNL d   1      -6.269  -2.092   0.300  0.00  0.00     0.149 C 
ENDBRANCH  13  16
ENDBRANCH   2  10
TORSDOF 5
