REMARK  4 active torsions:
REMARK  status: ('A' for Active; 'I' for Inactive)
REMARK    1  A    between atoms: C_4  and  N_1 
REMARK    2  A    between atoms: N_5  and  C_2 
REMARK    3  A    between atoms: C_3  and  C_7 
REMARK       I    between atoms: C_6  and  N_5 
REMARK    4  A    between atoms: C_16  and  C_6 
ROOT
ATOM      1  C   UNL d   1       4.767   0.908   0.375  0.00  0.00     0.062 A 
ATOM      2  C   UNL d   1       3.439   1.300   0.704  0.00  0.00     0.057 A 
ATOM      3  C   UNL d   1       5.761   2.667   1.767  0.00  0.00     0.050 A 
ATOM      4  C   UNL d   1       5.893   1.582   0.901  0.00  0.00     0.048 A 
ATOM      5  C   UNL d   1       3.354   2.388   1.604  0.00  0.00     0.032 A 
ATOM      6  C   UNL d   1       4.475   3.059   2.119  0.00  0.00     0.018 A 
ENDROOT
BRANCH   1   7
ATOM      7  N   UNL d   1       5.031  -0.122  -0.561  0.00  0.00    -0.321 N 
ATOM      8  C   UNL d   1       5.914  -1.152  -0.255  0.00  0.00     0.256 C 
ATOM      9  O   UNL d   1       6.584  -1.229   0.771  0.00  0.00    -0.267 OA
ATOM     10  H   UNL d   1       4.291  -0.301  -1.227  0.00  0.00     0.169 HD
BRANCH   8  11
ATOM     11  C   UNL d   1       5.957  -2.295  -1.206  0.00  0.00     0.032 A 
ATOM     12  C   UNL d   1       5.826  -2.117  -2.583  0.00  0.00     0.017 A 
ATOM     13  C   UNL d   1       5.934  -3.220  -3.438  0.00  0.00     0.001 A 
ATOM     14  C   UNL d   1       6.165  -4.496  -2.914  0.00  0.00     0.000 A 
ATOM     15  C   UNL d   1       6.290  -4.675  -1.540  0.00  0.00     0.001 A 
ATOM     16  C   UNL d   1       6.191  -3.578  -0.685  0.00  0.00     0.017 A 
ENDBRANCH   8  11
ENDBRANCH   1   7
BRANCH   2  17
ATOM     17  N   UNL d   1       2.281   0.662   0.206  0.00  0.00    -0.374 N 
ATOM     18  C   UNL d   1       0.970   1.374   0.268  0.00  0.00     0.162 C 
ATOM     19  C   UNL d   1      -0.238   0.474   0.476  0.00  0.00    -0.034 A 
ATOM     20  C   UNL d   1      -1.384   0.940   1.137  0.00  0.00     0.009 A 
ATOM     21  C   UNL d   1      -0.235  -0.829  -0.040  0.00  0.00    -0.049 A 
ATOM     22  C   UNL d   1      -2.506   0.119   1.268  0.00  0.00     0.001 A 
ATOM     23  C   UNL d   1      -2.504  -1.162   0.718  0.00  0.00     0.001 A 
ATOM     24  C   UNL d   1      -1.371  -1.637   0.060  0.00  0.00     0.008 A 
ATOM     25  C   UNL d   1       1.046  -1.316  -0.645  0.00  0.00     0.059 C 
ATOM     26  C   UNL d   1       2.198  -0.818   0.245  0.00  0.00     0.128 C 
ENDBRANCH   2  17
BRANCH   3  27
ATOM     27  C   UNL d   1       6.960   3.401   2.306  0.00  0.00     0.417 C 
ATOM     28  F   UNL d   1       8.154   2.916   1.868  0.00  0.00    -0.166 F 
ATOM     29  F   UNL d   1       6.951   4.721   1.963  0.00  0.00    -0.166 F 
ATOM     30  F   UNL d   1       7.019   3.375   3.667  0.00  0.00    -0.166 F 
ENDBRANCH   3  27
TORSDOF 4
