REMARK  3 active torsions:
REMARK  status: ('A' for Active; 'I' for Inactive)
REMARK    1  A    between atoms: S_11  and  C_1 
REMARK    2  A    between atoms: N_16  and  C_5 
REMARK    3  A    between atoms: C_8  and  S_11 
ROOT
ATOM      1  C   UNL d   1       4.282   0.685  -0.103  0.00  0.00     0.021 A 
ATOM      2  N   UNL d   1       6.004   2.876  -0.095  0.00  0.00    -0.359 N 
ATOM      3  HN  UNL d   1       6.635   3.677  -0.086  1.00  0.00     0.166 HD
ATOM      4  C   UNL d   1       5.195   0.864  -1.174  0.00  0.00     0.008 A 
ATOM      5  C   UNL d   1       6.039   1.993  -1.105  0.00  0.00     0.044 A 
ATOM      6  C   UNL d   1       4.251   1.612   0.943  0.00  0.00     0.044 A 
ATOM      7  C   UNL d   1       5.122   2.688   0.910  0.00  0.00     0.007 A 
ATOM      8  C   UNL d   1       5.327  -0.010  -2.284  0.00  0.00     0.015 A 
ATOM      9  C   UNL d   1       6.970   2.203  -2.113  0.00  0.00     0.030 A 
ATOM     10  C   UNL d   1       5.143   3.684   2.030  0.00  0.00     0.068 C 
ATOM     11  C   UNL d   1       6.268   0.225  -3.286  0.00  0.00     0.001 A 
ATOM     12  C   UNL d   1       7.096   1.334  -3.198  0.00  0.00     0.002 A 
ENDROOT
BRANCH   1  13
ATOM     13  S   UNL d   1       3.263  -0.782   0.080  0.00  0.00    -0.063 SA
BRANCH  13  14
ATOM     14  C   UNL d   1       1.821  -0.312  -0.793  0.00  0.00     0.135 A 
ATOM     15  S   UNL d   1       0.490  -1.387  -0.950  0.00  0.00    -0.026 SA
ATOM     16  C   UNL d   1      -0.325  -0.146  -1.810  0.00  0.00     0.159 A 
ATOM     17  N   UNL d   1       0.390   0.945  -1.966  0.00  0.00    -0.279 N 
ATOM     18  N   UNL d   1       1.640   0.853  -1.373  0.00  0.00    -0.286 N 
ATOM     19  HN  UNL d   1       0.062   1.770  -2.469  1.00  0.00     0.189 HD
ATOM     20  HN  UNL d   1       2.335   1.599  -1.386  1.00  0.00     0.188 HD
BRANCH  16  21
ATOM     21  N   UNL d   1      -1.578  -0.321  -2.270  0.00  0.00    -0.379 N 
ATOM     22  H   UNL d   1      -1.941  -1.259  -2.371  0.00  0.00     0.158 HD
ATOM     23  H   UNL d   1      -1.908   0.343  -2.963  0.00  0.00     0.158 HD
ENDBRANCH  16  21
ENDBRANCH  13  14
ENDBRANCH   1  13
TORSDOF 3
