REMARK  4 active torsions:
REMARK  status: ('A' for Active; 'I' for Inactive)
REMARK    1  A    between atoms: S_7  and  C_1 
REMARK    2  A    between atoms: C_8  and  C_2 
REMARK    3  A    between atoms: C_13  and  S_7 
REMARK    4  A    between atoms: O_15  and  C_8 
ROOT
ATOM      1  N   UNL d   1       0.071   2.126  -3.730  0.00  0.00    -0.196 NA
ATOM      2  C   UNL d   1      -0.139   2.649  -2.716  0.00  0.00     0.072 C 
ATOM      3  C   UNL d   1      -0.435   3.333  -1.458  0.00  0.00     0.241 C 
ENDROOT
BRANCH   3   4
ATOM      4  S   UNL d   1       0.595   2.731  -0.107  0.00  0.00     0.097 S 
ATOM      5  O   UNL d   1       2.049   2.789  -0.463  0.00  0.00    -0.249 OA
BRANCH   4   6
ATOM      6  C   UNL d   1       0.076   1.067  -0.081  0.00  0.00     0.178 A 
ATOM      7  N   UNL d   1       0.866  -0.066  -0.099  0.00  0.00    -0.324 N 
ATOM      8  C   UNL d   1       0.026  -1.167  -0.045  0.00  0.00     0.127 A 
ATOM      9  C   UNL d   1       2.311  -0.068  -0.137  0.00  0.00     0.159 C 
ATOM     10  C   UNL d   1      -1.239  -0.609   0.024  0.00  0.00     0.126 A 
ATOM     11  N   UNL d   1      -1.200   0.756  -0.003  0.00  0.00    -0.342 N 
ATOM     12  HN  UNL d   1      -1.992   1.398   0.030  1.00  0.00     0.167 HD
BRANCH   8  13
ATOM     13  C   UNL d   1       0.381  -2.567  -0.053  0.00  0.00     0.311 C 
ATOM     14  O   UNL d   1       1.512  -3.028  -0.112  0.00  0.00    -0.258 OA
BRANCH  13  15
ATOM     15  O   UNL d   1      -0.752  -3.323   0.015  0.00  0.00    -0.321 OA
ATOM     16  C   UNL d   1      -0.532  -4.734  -0.013  0.00  0.00     0.213 C 
ENDBRANCH  13  15
ENDBRANCH   8  13
ENDBRANCH   4   6
ENDBRANCH   3   4
TORSDOF 4
