REMARK  5 active torsions:
REMARK  status: ('A' for Active; 'I' for Inactive)
REMARK    1  A    between atoms: N_4  and  C_1 
REMARK       I    between atoms: C_2  and  N_3 
REMARK    2  A    between atoms: C_6  and  C_2 
REMARK    3  A    between atoms: N_3  and  C_5 
REMARK    4  A    between atoms: O_16  and  C_8 
REMARK    5  A    between atoms: O_17  and  C_11 
ROOT
ATOM      1  C   UNL d   1       2.731   2.517  -0.026  0.00  0.00     0.235 C 
ATOM      2  N   UNL d   1       1.347   2.386  -0.017  0.00  0.00    -0.222 NA
ATOM      3  O   UNL d   1       3.538   1.613  -0.191  0.00  0.00    -0.274 OA
ATOM      4  H   UNL d   1       0.922   3.096   0.562  0.00  0.00     0.137 HD
ENDROOT
BRANCH   2   5
ATOM      5  C   UNL d   1       0.733   1.129   0.184  0.00  0.00     0.054 A 
ATOM      6  C   UNL d   1       0.579   0.544   1.462  0.00  0.00     0.104 A 
ATOM      7  N   UNL d   1      -0.154  -0.583   1.622  0.00  0.00    -0.355 N 
ATOM      8  C   UNL d   1      -0.729  -1.135   0.528  0.00  0.00     0.089 A 
ATOM      9  HN  UNL d   1      -0.269  -1.006   2.543  1.00  0.00     0.166 HD
ATOM     10  C   UNL d   1      -0.602  -0.631  -0.755  0.00  0.00     0.019 A 
ATOM     11  C   UNL d   1       0.142   0.526  -0.928  0.00  0.00     0.028 A 
BRANCH   6  12
ATOM     12  N   UNL d   1       1.293   1.040   2.557  0.00  0.00    -0.264 NA
ATOM     13  C   UNL d   1       1.613   0.028   3.582  0.00  0.00     0.123 C 
ATOM     14  C   UNL d   1       2.738   0.592   4.468  0.00  0.00     0.182 C 
ATOM     15  O   UNL d   1       2.371   1.855   5.061  0.00  0.00    -0.389 OA
ATOM     16  C   UNL d   1       2.006   2.807   4.045  0.00  0.00     0.182 C 
ATOM     17  C   UNL d   1       0.838   2.284   3.188  0.00  0.00     0.123 C 
ENDBRANCH   6  12
ENDBRANCH   2   5
BRANCH   1  18
ATOM     18  C   UNL d   1       3.204   3.919   0.222  0.00  0.00     0.029 A 
ATOM     19  C   UNL d   1       4.455   4.136   0.823  0.00  0.00     0.056 A 
ATOM     20  C   UNL d   1       4.890   5.439   1.134  0.00  0.00     0.102 A 
ATOM     21  C   UNL d   1       4.053   6.530   0.832  0.00  0.00     0.101 A 
ATOM     22  C   UNL d   1       2.823   6.301   0.199  0.00  0.00     0.040 A 
ATOM     23  C   UNL d   1       2.403   5.012  -0.112  0.00  0.00     0.019 A 
BRANCH  20  24
ATOM     24  O   UNL d   1       6.094   5.706   1.730  0.00  0.00    -0.353 OA
ATOM     25  C   UNL d   1       6.967   4.625   2.024  0.00  0.00     0.210 C 
ENDBRANCH  20  24
BRANCH  21  26
ATOM     26  O   UNL d   1       4.256   7.865   1.060  0.00  0.00    -0.353 OA
ATOM     27  C   UNL d   1       5.390   8.280   1.806  0.00  0.00     0.210 C 
ENDBRANCH  21  26
ENDBRANCH   1  18
TORSDOF 5
