REMARK  1 active torsions:
REMARK  status: ('A' for Active; 'I' for Inactive)
REMARK    1  A    between atoms: C_2  and  N_1 
ROOT
ATOM      1  C   UNL d   1       0.009   2.283  -0.147  0.00  0.00     0.080 A 
ATOM      2  C   UNL d   1       0.637   2.930  -1.228  0.00  0.00     0.040 A 
ATOM      3  C   UNL d   1      -0.606   3.086   0.836  0.00  0.00     0.040 A 
ATOM      4  C   UNL d   1       0.653   4.330  -1.318  0.00  0.00     0.028 A 
ATOM      5  C   UNL d   1      -0.590   4.486   0.736  0.00  0.00     0.028 A 
ATOM      6  C   UNL d   1       0.041   5.117  -0.338  0.00  0.00    -0.059 A 
ATOM      7 BR   UNL d   1      -1.370   2.373   2.433  0.00  0.00    -0.049 Br
ATOM      8 BR   UNL d   1       1.375   1.992  -2.715  0.00  0.00    -0.049 Br
ATOM      9  C   UNL d   1       0.070   6.613  -0.455  0.00  0.00     0.048 C 
ENDROOT
BRANCH   1  10
ATOM     10  N   UNL d   1      -0.000   0.869  -0.045  0.00  0.00    -0.250 N 
ATOM     11  C   UNL d   1       1.135   0.103   0.026  0.00  0.00     0.231 A 
ATOM     12  C   UNL d   1       0.736  -1.338   0.148  0.00  0.00     0.113 A 
ATOM     13  O   UNL d   1       2.300   0.476   0.037  0.00  0.00    -0.273 OA
ATOM     14  C   UNL d   1      -0.776  -1.314   0.231  0.00  0.00     0.113 A 
ATOM     15  C   UNL d   1      -1.147   0.122   0.015  0.00  0.00     0.231 A 
ATOM     16  O   UNL d   1      -2.304   0.504  -0.112  0.00  0.00    -0.273 OA
ENDBRANCH   1  10
TORSDOF 1
