REMARK  6 active torsions:
REMARK  status: ('A' for Active; 'I' for Inactive)
REMARK    1  A    between atoms: C_5  and  C_3 
REMARK    2  A    between atoms: C_13  and  N_4 
REMARK    3  A    between atoms: C_6  and  C_14 
REMARK    4  A    between atoms: S_17  and  C_12 
REMARK    5  A    between atoms: C_29  and  S_17 
REMARK    6  A    between atoms: C_30  and  C_29 
ROOT
ATOM      1  C   UNL d   1       2.542   1.314  -0.420  0.00  0.00     0.067 A 
ATOM      2  N   UNL d   1       3.252   1.112  -1.549  0.00  0.00    -0.335 N 
ATOM      3  HN  UNL d   1       2.904   0.525  -2.306  1.00  0.00     0.168 HD
ATOM      4  C   UNL d   1       4.440   1.725  -1.621  0.00  0.00     0.144 A 
ATOM      5  N   UNL d   1       4.936   2.533  -0.668  0.00  0.00    -0.347 N 
ATOM      6  HN  UNL d   1       5.849   2.975  -0.768  1.00  0.00     0.167 HD
ATOM      7  C   UNL d   1       2.951   2.147   0.601  0.00  0.00     0.049 A 
ATOM      8  C   UNL d   1       4.176   2.735   0.421  0.00  0.00     0.092 A 
ENDROOT
BRANCH   1   9
ATOM      9  C   UNL d   1       1.255   0.581  -0.278  0.00  0.00     0.125 A 
ATOM     10  N   UNL d   1       0.271   1.129   0.386  0.00  0.00    -0.288 N 
ATOM     11  N   UNL d   1      -0.886   0.404   0.562  0.00  0.00    -0.267 N 
ATOM     12  HN  UNL d   1       0.359   2.073   0.764  1.00  0.00     0.188 HD
ATOM     13  C   UNL d   1      -1.019  -0.890   0.100  0.00  0.00     0.120 A 
ATOM     14  C   UNL d   1      -0.097  -1.553  -0.596  0.00  0.00     0.076 A 
ATOM     15  C   UNL d   1       1.141  -0.816  -0.874  0.00  0.00     0.203 A 
ATOM     16  O   UNL d   1       2.029  -1.345  -1.525  0.00  0.00    -0.286 OA
BRANCH  11  17
ATOM     17  C   UNL d   1      -1.944   1.100   1.233  0.00  0.00     0.056 A 
ATOM     18  C   UNL d   1      -2.065   2.499   1.117  0.00  0.00     0.034 A 
ATOM     19  C   UNL d   1      -3.113   3.193   1.732  0.00  0.00     0.044 A 
ATOM     20  C   UNL d   1      -4.045   2.495   2.486  0.00  0.00     0.116 A 
ATOM     21  C   UNL d   1      -3.948   1.119   2.638  0.00  0.00     0.044 A 
ATOM     22  F   UNL d   1      -5.048   3.156   3.077  0.00  0.00    -0.206 F 
ATOM     23  C   UNL d   1      -2.904   0.427   2.015  0.00  0.00     0.034 A 
ENDBRANCH  11  17
ENDBRANCH   1   9
BRANCH   4  24
ATOM     24  S   UNL d   1       5.492   1.425  -3.016  0.00  0.00    -0.089 SA
BRANCH  24  25
ATOM     25  C   UNL d   1       4.247   1.113  -4.306  0.00  0.00     0.121 C 
BRANCH  25  26
ATOM     26  C   UNL d   1       4.910   0.900  -5.651  0.00  0.00    -0.048 A 
ATOM     27  C   UNL d   1       5.273  -0.389  -6.068  0.00  0.00     0.009 A 
ATOM     28  C   UNL d   1       5.943  -0.585  -7.280  0.00  0.00     0.017 A 
ATOM     29  C   UNL d   1       6.272   0.504  -8.099  0.00  0.00     0.047 A 
ATOM     30  C   UNL d   1       5.894   1.792  -7.691  0.00  0.00     0.017 A 
ATOM     31  C   UNL d   1       5.223   1.988  -6.479  0.00  0.00     0.009 A 
BRANCH  29  32
ATOM     32  C   UNL d   1       7.037   0.312  -9.386  0.00  0.00     0.417 C 
ATOM     33  F   UNL d   1       7.373  -0.985  -9.637  0.00  0.00    -0.166 F 
ATOM     34  F   UNL d   1       6.338   0.732 -10.478  0.00  0.00    -0.166 F 
ATOM     35  F   UNL d   1       8.209   1.008  -9.406  0.00  0.00    -0.166 F 
ENDBRANCH  29  32
ENDBRANCH  25  26
ENDBRANCH  24  25
ENDBRANCH   4  24
TORSDOF 6
