REMARK  8 active torsions:
REMARK  status: ('A' for Active; 'I' for Inactive)
REMARK    1  A    between atoms: N_2  and  C_1 
REMARK    2  A    between atoms: C_3  and  C_8 
REMARK    3  A    between atoms: O_7  and  C_4 
REMARK    4  A    between atoms: C_6  and  O_7 
REMARK    5  A    between atoms: C_10  and  C_6 
REMARK    6  A    between atoms: C_13  and  C_12 
REMARK    7  A    between atoms: C_29  and  C_28 
REMARK    8  A    between atoms: C_30  and  C_29 
ROOT
ATOM      1  C   UNL d   1       2.685  -3.193  -0.286  0.00  0.00     0.298 C 
ATOM      2  O   UNL d   1       1.908  -3.602   0.552  0.00  0.00    -0.259 OA
ENDROOT
BRANCH   1   3
ATOM      3  O   UNL d   1       2.775  -3.628  -1.606  0.00  0.00    -0.272 OA
BRANCH   3   4
ATOM      4  C   UNL d   1       2.208  -4.827  -2.091  0.00  0.00     0.112 A 
ATOM      5  C   UNL d   1       2.328  -6.069  -1.468  0.00  0.00     0.137 A 
ATOM      6  C   UNL d   1       1.973  -7.250  -2.131  0.00  0.00     0.055 A 
ATOM      7  C   UNL d   1       1.609  -7.199  -3.484  0.00  0.00     0.050 A 
ATOM      8  C   UNL d   1       1.460  -5.944  -4.105  0.00  0.00     0.019 A 
ATOM      9  C   UNL d   1       1.736  -4.764  -3.404  0.00  0.00     0.041 A 
BRANCH   5  10
ATOM     10  N   UNL d   1       3.155  -6.228  -0.294  0.00  0.00    -0.113 N 
ATOM     11  O   UNL d   1       4.365  -6.022  -0.444  0.00  0.00    -0.532 OA
ATOM     12  O   UNL d   1       2.607  -6.652   0.737  0.00  0.00    -0.532 OA
ENDBRANCH   5  10
BRANCH   7  13
ATOM     13  C   UNL d   1       1.575  -8.469  -4.306  0.00  0.00     0.417 C 
ATOM     14  F   UNL d   1       1.729  -9.596  -3.559  0.00  0.00    -0.166 F 
ATOM     15  F   UNL d   1       0.420  -8.628  -5.004  0.00  0.00    -0.166 F 
ATOM     16  F   UNL d   1       2.581  -8.495  -5.223  0.00  0.00    -0.166 F 
ENDBRANCH   7  13
ENDBRANCH   3   4
ENDBRANCH   1   3
BRANCH   1  17
ATOM     17  C   UNL d   1       3.704  -2.121  -0.080  0.00  0.00     0.040 A 
ATOM     18  C   UNL d   1       3.705  -1.358   1.090  0.00  0.00     0.018 A 
ATOM     19  C   UNL d   1       4.606  -0.286   1.240  0.00  0.00     0.013 A 
ATOM     20  C   UNL d   1       5.527   0.047   0.227  0.00  0.00    -0.026 A 
ATOM     21  C   UNL d   1       5.571  -0.800  -0.893  0.00  0.00     0.013 A 
ATOM     22  C   UNL d   1       4.672  -1.859  -1.052  0.00  0.00     0.018 A 
BRANCH  20  23
ATOM     23  C   UNL d   1       6.356   1.278   0.266  0.00  0.00    -0.026 A 
ATOM     24  C   UNL d   1       6.586   2.008  -0.917  0.00  0.00     0.013 A 
ATOM     25  C   UNL d   1       7.301   3.208  -0.923  0.00  0.00     0.008 A 
ATOM     26  C   UNL d   1       7.813   3.736   0.263  0.00  0.00    -0.058 A 
ATOM     27  C   UNL d   1       7.611   3.019   1.448  0.00  0.00     0.008 A 
ATOM     28  C   UNL d   1       6.900   1.805   1.448  0.00  0.00     0.013 A 
BRANCH  26  29
ATOM     29  C   UNL d   1       8.498   5.082   0.243  0.00  0.00     0.038 C 
BRANCH  29  30
ATOM     30  C   UNL d   1       9.930   5.106   0.783  0.00  0.00     0.000 C 
ATOM     31  C   UNL d   1      10.896   4.267  -0.041  0.00  0.00     0.005 C 
ENDBRANCH  29  30
ENDBRANCH  26  29
ENDBRANCH  20  23
ENDBRANCH   1  17
TORSDOF 8
