REMARK  5 active torsions:
REMARK  status: ('A' for Active; 'I' for Inactive)
REMARK    1  A    between atoms: N_3  and  C_1 
REMARK    2  A    between atoms: S_15  and  C_8 
REMARK    3  A    between atoms: C_16  and  S_15 
REMARK    4  A    between atoms: C_18  and  C_16 
REMARK    5  A    between atoms: C_17  and  C_18 
ROOT
ATOM      1  C   UNL d   1      -1.825  -0.442  -1.125  0.00  0.00     0.149 A 
ATOM      2  C   UNL d   1      -0.591   0.234  -0.959  0.00  0.00     0.101 A 
ATOM      3  C   UNL d   1      -0.121   0.552   0.440  0.00  0.00     0.069 A 
ATOM      4  N   UNL d   1       0.269   0.664  -1.896  0.00  0.00    -0.308 N 
ATOM      5  HN  UNL d   1       0.158   0.577  -2.907  1.00  0.00     0.176 HD
ATOM      6  S   UNL d   1       1.548   1.364  -1.103  0.00  0.00     0.068 SA
ATOM      7  C   UNL d   1      -2.601  -0.772   0.006  0.00  0.00     0.036 A 
ATOM      8  N   UNL d   1       1.063   1.181   0.474  0.00  0.00    -0.310 N 
ATOM      9  HN  UNL d   1       1.568   1.486   1.307  1.00  0.00     0.176 HD
ATOM     10  C   UNL d   1      -0.898   0.192   1.567  0.00  0.00     0.034 A 
ATOM     11  C   UNL d   1      -2.122  -0.464   1.309  0.00  0.00     0.023 A 
ENDROOT
BRANCH   7  12
ATOM     12  S   UNL d   1      -4.133  -1.708  -0.075  0.00  0.00    -0.127 SA
BRANCH  12  13
ATOM     13  C   UNL d   1      -5.371  -0.351  -0.179  0.00  0.00     0.084 C 
BRANCH  13  14
ATOM     14  C   UNL d   1      -6.773  -0.964  -0.272  0.00  0.00     0.049 C 
BRANCH  14  15
ATOM     15  C   UNL d   1      -7.877   0.063  -0.404  0.00  0.00    -0.057 A 
ATOM     16  C   UNL d   1      -8.277   0.511  -1.671  0.00  0.00     0.007 A 
ATOM     17  C   UNL d   1      -9.338   1.409  -1.804  0.00  0.00     0.001 A 
ATOM     18  C   UNL d   1     -10.007   1.876  -0.674  0.00  0.00     0.000 A 
ATOM     19  C   UNL d   1      -9.604   1.452   0.592  0.00  0.00     0.001 A 
ATOM     20  C   UNL d   1      -8.543   0.554   0.727  0.00  0.00     0.007 A 
ENDBRANCH  14  15
ENDBRANCH  13  14
ENDBRANCH  12  13
ENDBRANCH   7  12
BRANCH   1  21
ATOM     21  N   UNL d   1      -2.206  -0.785  -2.462  0.00  0.00    -0.112 N 
ATOM     22  O   UNL d   1      -1.503  -1.609  -3.060  0.00  0.00    -0.532 OA
ATOM     23  O   UNL d   1      -3.224  -0.241  -2.915  0.00  0.00    -0.532 OA
ENDBRANCH   1  21
TORSDOF 5
