REMARK  6 active torsions:
REMARK  status: ('A' for Active; 'I' for Inactive)
REMARK    1  A    between atoms: C_17  and  N_1 
REMARK    2  A    between atoms: S_15  and  C_2 
REMARK    3  A    between atoms: O_19  and  C_3 
REMARK    4  A    between atoms: C_16  and  C_10 
REMARK    5  A    between atoms: C_14  and  C_18 
REMARK    6  A    between atoms: C_18  and  S_15 
ROOT
ATOM      1  S   UNL d   1       2.743  -1.506  -0.503  0.00  0.00    -0.084 SA
ENDROOT
BRANCH   1   2
ATOM      2  C   UNL d   1       1.213  -0.773  -0.168  0.00  0.00     0.165 A 
ATOM      3  N   UNL d   1       0.015  -1.434  -0.032  0.00  0.00    -0.286 N 
ATOM      4  C   UNL d   1      -0.917  -0.418   0.112  0.00  0.00     0.240 A 
ATOM      5  N   UNL d   1      -0.314   0.743   0.140  0.00  0.00    -0.263 N 
ATOM      6  N   UNL d   1       1.028   0.521  -0.044  0.00  0.00    -0.277 N 
ATOM      7  HN  UNL d   1      -0.760   1.650   0.276  1.00  0.00     0.190 HD
ATOM      8  HN  UNL d   1       1.755   1.236  -0.078  1.00  0.00     0.189 HD
BRANCH   3   9
ATOM      9  C   UNL d   1      -0.320  -2.846  -0.031  0.00  0.00     0.095 C 
ATOM     10  C   UNL d   1      -0.541  -3.413  -1.440  0.00  0.00     0.026 C 
ATOM     11  C   UNL d   1      -1.276  -4.752  -1.345  0.00  0.00     0.002 C 
ATOM     12  C   UNL d   1      -0.547  -5.750  -0.444  0.00  0.00     0.000 C 
ATOM     13  C   UNL d   1      -0.149  -5.162   0.913  0.00  0.00     0.002 C 
ATOM     14  C   UNL d   1       0.563  -3.808   0.779  0.00  0.00     0.026 C 
ENDBRANCH   3   9
BRANCH   4  15
ATOM     15  O   UNL d   1      -2.232  -0.547   0.203  0.00  0.00    -0.331 OA
ATOM     16  H   UNL d   1      -2.505  -1.431  -0.085  0.00  0.00     0.221 HD
ENDBRANCH   4  15
ENDBRANCH   1   2
BRANCH   1  17
ATOM     17  C   UNL d   1       3.853  -0.041  -0.504  0.00  0.00     0.168 C 
BRANCH  17  18
ATOM     18  C   UNL d   1       5.264  -0.412  -0.820  0.00  0.00     0.150 A 
ATOM     19  O   UNL d   1       6.059   0.530  -1.442  0.00  0.00    -0.277 OA
ATOM     20  C   UNL d   1       7.258  -0.139  -1.554  0.00  0.00     0.174 A 
ATOM     21  N   UNL d   1       7.196  -1.355  -1.044  0.00  0.00    -0.277 N 
ATOM     22  N   UNL d   1       5.920  -1.527  -0.564  0.00  0.00    -0.281 N 
ATOM     23  HN  UNL d   1       7.953  -2.038  -1.013  1.00  0.00     0.189 HD
ATOM     24  HN  UNL d   1       5.552  -2.357  -0.100  1.00  0.00     0.189 HD
BRANCH  20  25
ATOM     25  C   UNL d   1       8.400   0.546  -2.155  0.00  0.00     0.017 A 
ATOM     26  C   UNL d   1       8.334   1.863  -2.639  0.00  0.00     0.017 A 
ATOM     27  C   UNL d   1       9.472   2.494  -3.164  0.00  0.00     0.025 A 
ATOM     28  C   UNL d   1      10.686   1.815  -3.211  0.00  0.00     0.034 A 
ATOM     29  C   UNL d   1      10.775   0.502  -2.760  0.00  0.00     0.025 A 
ATOM     30 CL   UNL d   1      12.091   2.603  -3.824  0.00  0.00    -0.084 Cl
ATOM     31  C   UNL d   1       9.636  -0.125  -2.236  0.00  0.00     0.017 A 
ENDBRANCH  20  25
ENDBRANCH  17  18
ENDBRANCH   1  17
TORSDOF 6
