REMARK  2 active torsions:
REMARK  status: ('A' for Active; 'I' for Inactive)
REMARK    1  A    between atoms: N_6  and  N_1 
REMARK       I    between atoms: C_4  and  N_6 
REMARK       I    between atoms: N_11  and  C_4 
REMARK    2  A    between atoms: C_16  and  N_11 
ROOT
ATOM      1  C   UNL d   1       3.469  -2.807   0.038  0.00  0.00     0.341 C 
ATOM      2  N   UNL d   1       3.319  -1.451  -0.242  0.00  0.00    -0.237 N 
ATOM      3  N   UNL d   1       4.767  -3.275  -0.046  0.00  0.00    -0.307 N 
ATOM      4  O   UNL d   1       2.500  -3.518   0.298  0.00  0.00    -0.245 OA
ATOM      5  C   UNL d   1       4.355  -0.497  -0.615  0.00  0.00     0.183 C 
ATOM      6  H   UNL d   1       5.491  -2.620   0.211  0.00  0.00     0.170 HD
ENDROOT
BRANCH   2   7
ATOM      7  N   UNL d   1       1.997  -0.883  -0.172  0.00  0.00    -0.209 N 
ATOM      8  C   UNL d   1       1.758   0.240   0.643  0.00  0.00     0.287 A 
ATOM      9  C   UNL d   1       0.386   0.662   0.556  0.00  0.00     0.101 A 
ATOM     10  O   UNL d   1       2.629   0.797   1.304  0.00  0.00    -0.265 OA
ATOM     11  S   UNL d   1      -0.255   2.026   1.336  0.00  0.00    -0.094 SA
ATOM     12  C   UNL d   1      -0.552   0.014  -0.197  0.00  0.00     0.056 A 
ATOM     13  C   UNL d   1      -1.820   1.720   0.685  0.00  0.00     0.053 A 
ATOM     14  C   UNL d   1      -1.837   0.593  -0.116  0.00  0.00     0.038 A 
ATOM     15  N   UNL d   1      -0.260  -1.105  -0.982  0.00  0.00    -0.349 N 
ATOM     16  C   UNL d   1       0.983  -1.476  -0.922  0.00  0.00     0.211 A 
ATOM     17  HN  UNL d   1      -0.959  -1.585  -1.549  1.00  0.00     0.166 HD
ENDBRANCH   2   7
BRANCH   3  18
ATOM     18  C   UNL d   1       5.145  -4.638  -0.058  0.00  0.00     0.036 A 
ATOM     19  C   UNL d   1       4.282  -5.665  -0.456  0.00  0.00     0.029 A 
ATOM     20  C   UNL d   1       4.693  -7.000  -0.401  0.00  0.00     0.002 A 
ATOM     21  C   UNL d   1       5.974  -7.319   0.043  0.00  0.00     0.000 A 
ATOM     22  C   UNL d   1       6.856  -6.301   0.396  0.00  0.00     0.002 A 
ATOM     23  C   UNL d   1       6.449  -4.964   0.330  0.00  0.00     0.029 A 
ENDBRANCH   3  18
TORSDOF 2
