REMARK  9 active torsions:
REMARK  status: ('A' for Active; 'I' for Inactive)
REMARK    1  A    between atoms: C_8  and  C_1 
REMARK    2  A    between atoms: N_16  and  C_2 
REMARK    3  A    between atoms: C_7  and  C_3 
REMARK    4  A    between atoms: C_10  and  C_7 
REMARK    5  A    between atoms: O_19  and  C_8 
REMARK    6  A    between atoms: O_20  and  C_9 
REMARK    7  A    between atoms: O_21  and  C_10 
REMARK    8  A    between atoms: C_23  and  O_19 
REMARK    9  A    between atoms: C_24  and  O_21 
ROOT
ATOM      1  C   UNL d   1      -1.193   2.177   1.235  0.00  0.00     0.205 C 
ATOM      2  C   UNL d   1       0.011   3.012   1.389  0.00  0.00     0.075 C 
ATOM      3  N   UNL d   1       0.960   3.673   1.500  0.00  0.00    -0.196 NA
ENDROOT
BRANCH   1   4
ATOM      4  C   UNL d   1      -1.209   1.361  -0.088  0.00  0.00     0.092 C 
ATOM      5  C   UNL d   1      -2.485   0.539  -0.228  0.00  0.00     0.073 C 
ATOM      6  C   UNL d   1      -2.461  -0.798  -0.047  0.00  0.00     0.134 C 
ATOM      7  O   UNL d   1      -1.300  -1.444   0.358  0.00  0.00    -0.295 OA
ATOM      8  C   UNL d   1      -0.083  -0.898   0.037  0.00  0.00     0.117 A 
ATOM      9  C   UNL d   1       0.014   0.470  -0.264  0.00  0.00    -0.009 A 
ATOM     10  C   UNL d   1       1.056  -1.711   0.032  0.00  0.00     0.103 A 
ATOM     11  C   UNL d   1       1.253   0.995  -0.663  0.00  0.00     0.030 A 
ATOM     12  C   UNL d   1       2.386   0.185  -0.660  0.00  0.00     0.014 A 
ATOM     13  C   UNL d   1       2.297  -1.153  -0.288  0.00  0.00     0.058 A 
ATOM     14 BR   UNL d   1       4.063   0.916  -1.135  0.00  0.00    -0.051 Br
BRANCH   5  15
ATOM     15  C   UNL d   1      -3.708   1.317  -0.563  0.00  0.00     0.293 C 
ATOM     16  O   UNL d   1      -3.658   2.476  -0.950  0.00  0.00    -0.259 OA
BRANCH  15  17
ATOM     17  O   UNL d   1      -4.840   0.621  -0.293  0.00  0.00    -0.318 OA
BRANCH  17  18
ATOM     18  C   UNL d   1      -6.091   1.290  -0.513  0.00  0.00     0.174 C 
ATOM     19  C   UNL d   1      -6.560   1.044  -1.934  0.00  0.00     0.034 C 
ENDBRANCH  17  18
ENDBRANCH  15  17
ENDBRANCH   5  15
BRANCH   6  20
ATOM     20  N   UNL d   1      -3.521  -1.664  -0.173  0.00  0.00    -0.282 NA
ATOM     21  H   UNL d   1      -4.426  -1.201  -0.087  0.00  0.00     0.126 HD
ATOM     22  H   UNL d   1      -3.431  -2.462   0.451  0.00  0.00     0.126 HD
ENDBRANCH   6  20
BRANCH  10  23
ATOM     23  O   UNL d   1       1.117  -3.036   0.374  0.00  0.00    -0.353 OA
ATOM     24  C   UNL d   1      -0.000  -3.837   0.006  0.00  0.00     0.210 C 
ENDBRANCH  10  23
ENDBRANCH   1   4
BRANCH   1  25
ATOM     25  C   UNL d   1      -1.388   1.294   2.449  0.00  0.00     0.277 C 
ATOM     26  O   UNL d   1      -2.497   0.997   2.882  0.00  0.00    -0.264 OA
BRANCH  25  27
ATOM     27  O   UNL d   1      -0.215   0.835   2.955  0.00  0.00    -0.321 OA
BRANCH  27  28
ATOM     28  C   UNL d   1      -0.295  -0.029   4.099  0.00  0.00     0.174 C 
ATOM     29  C   UNL d   1      -0.514   0.782   5.363  0.00  0.00     0.034 C 
ENDBRANCH  27  28
ENDBRANCH  25  27
ENDBRANCH   1  25
TORSDOF 9
