REMARK  8 active torsions:
REMARK  status: ('A' for Active; 'I' for Inactive)
REMARK    1  A    between atoms: S_15  and  C_3 
REMARK    2  A    between atoms: C_8  and  C_4 
REMARK    3  A    between atoms: S_6  and  C_12 
REMARK    4  A    between atoms: C_16  and  S_6 
REMARK    5  A    between atoms: O_20  and  C_8 
REMARK    6  A    between atoms: C_12  and  C_19 
REMARK    7  A    between atoms: C_19  and  S_15 
REMARK    8  A    between atoms: C_25  and  O_20 
ROOT
ATOM      1  C   UNL d   1       0.065  -0.791   0.066  0.00  0.00     0.041 A 
ATOM      2  C   UNL d   1       0.422   0.614  -0.032  0.00  0.00    -0.018 A 
ATOM      3  C   UNL d   1       1.170  -1.620  -0.004  0.00  0.00     0.056 A 
ATOM      4  C   UNL d   1       1.792   0.801  -0.150  0.00  0.00     0.088 A 
ATOM      5  S   UNL d   1       2.613  -0.696  -0.111  0.00  0.00    -0.076 SA
ATOM      6  C   UNL d   1      -1.337  -1.170   0.230  0.00  0.00     0.162 C 
ATOM      7  C   UNL d   1      -0.619   1.716  -0.025  0.00  0.00     0.050 C 
ATOM      8  C   UNL d   1      -2.040   1.234   0.381  0.00  0.00    -0.037 C 
ATOM      9  C   UNL d   1      -2.339  -0.140  -0.253  0.00  0.00     0.093 C 
ATOM     10  O   UNL d   1      -1.697  -2.219   0.750  0.00  0.00    -0.292 OA
ATOM     11  C   UNL d   1      -3.083   2.248  -0.120  0.00  0.00     0.015 C 
ATOM     12  C   UNL d   1      -2.163   1.141   1.917  0.00  0.00     0.015 C 
ENDROOT
BRANCH   3  13
ATOM     13  S   UNL d   1       1.371  -3.369   0.032  0.00  0.00    -0.121 SA
BRANCH  13  14
ATOM     14  C   UNL d   1      -0.021  -4.105  -0.862  0.00  0.00     0.095 C 
BRANCH  14  15
ATOM     15  C   UNL d   1      -0.234  -3.592  -2.274  0.00  0.00     0.156 C 
BRANCH  15  16
ATOM     16  S   UNL d   1      -1.769  -4.255  -2.898  0.00  0.00     0.176 S 
ATOM     17  O   UNL d   1      -1.702  -5.705  -2.845  0.00  0.00    -0.223 OA
ATOM     18  O   UNL d   1      -2.858  -3.534  -2.271  0.00  0.00    -0.223 OA
BRANCH  16  19
ATOM     19  C   UNL d   1      -1.772  -3.800  -4.615  0.00  0.00     0.059 A 
ATOM     20  C   UNL d   1      -1.198  -4.659  -5.556  0.00  0.00     0.023 A 
ATOM     21  C   UNL d   1      -1.263  -4.333  -6.910  0.00  0.00     0.002 A 
ATOM     22  C   UNL d   1      -1.906  -3.163  -7.318  0.00  0.00     0.000 A 
ATOM     23  C   UNL d   1      -2.491  -2.316  -6.375  0.00  0.00     0.002 A 
ATOM     24  C   UNL d   1      -2.430  -2.634  -5.018  0.00  0.00     0.023 A 
ENDBRANCH  16  19
ENDBRANCH  15  16
ENDBRANCH  14  15
ENDBRANCH  13  14
ENDBRANCH   3  13
BRANCH   4  25
ATOM     25  C   UNL d   1       2.516   2.055  -0.333  0.00  0.00     0.300 C 
ATOM     26  O   UNL d   1       1.987   3.149  -0.493  0.00  0.00    -0.259 OA
BRANCH  25  27
ATOM     27  O   UNL d   1       3.864   1.847  -0.374  0.00  0.00    -0.317 OA
BRANCH  27  28
ATOM     28  C   UNL d   1       4.664   2.933  -0.859  0.00  0.00     0.174 C 
ATOM     29  C   UNL d   1       4.760   2.821  -2.370  0.00  0.00     0.034 C 
ENDBRANCH  27  28
ENDBRANCH  25  27
ENDBRANCH   4  25
TORSDOF 8
