REMARK  3 active torsions:
REMARK  status: ('A' for Active; 'I' for Inactive)
REMARK    1  A    between atoms: C_3  and  C_1 
REMARK    2  A    between atoms: C_2  and  C_3 
REMARK    3  A    between atoms: N_8  and  C_4 
ROOT
ATOM      1  C   UNL d   1       1.274   2.708  -0.087  0.00  0.00     0.091 A 
ATOM      2  C   UNL d   1       2.244   1.930   0.550  0.00  0.00     0.133 A 
ATOM      3  C   UNL d   1       1.688   3.852  -0.767  0.00  0.00     0.133 A 
ATOM      4  F   UNL d   1       1.907   0.829   1.239  0.00  0.00    -0.205 F 
ATOM      5  F   UNL d   1       0.809   4.622  -1.424  0.00  0.00    -0.205 F 
ATOM      6  C   UNL d   1       3.996   3.423  -0.178  0.00  0.00     0.006 A 
ATOM      7  C   UNL d   1       3.595   2.279   0.508  0.00  0.00     0.043 A 
ATOM      8  C   UNL d   1       3.037   4.211  -0.813  0.00  0.00     0.043 A 
ENDROOT
BRANCH   1   9
ATOM      9  C   UNL d   1      -0.127   2.244  -0.101  0.00  0.00     0.189 C 
ATOM     10  O   UNL d   1      -0.358   1.043  -0.209  0.00  0.00    -0.287 OA
BRANCH   9  11
ATOM     11  C   UNL d   1      -1.224   3.249   0.025  0.00  0.00     0.072 C 
ATOM     12  C   UNL d   1      -2.487   2.848  -0.182  0.00  0.00     0.088 C 
BRANCH  12  13
ATOM     13  N   UNL d   1      -3.689   3.541  -0.107  0.00  0.00    -0.398 N 
ATOM     14  C   UNL d   1      -3.838   4.905   0.390  0.00  0.00     0.148 C 
ATOM     15  C   UNL d   1      -4.954   2.906  -0.490  0.00  0.00     0.148 C 
ENDBRANCH  12  13
ENDBRANCH   9  11
ENDBRANCH   1   9
TORSDOF 3
