REMARK  9 active torsions:
REMARK  status: ('A' for Active; 'I' for Inactive)
REMARK    1  A    between atoms: C_8  and  C_1 
REMARK    2  A    between atoms: S_13  and  C_5 
REMARK    3  A    between atoms: C_9  and  C_14 
REMARK    4  A    between atoms: N_23  and  C_9 
REMARK    5  A    between atoms: O_16  and  N_10 
REMARK    6  A    between atoms: C_12  and  O_16 
REMARK       I    between atoms: N_15  and  C_12 
REMARK    7  A    between atoms: C_25  and  S_13 
REMARK    8  A    between atoms: C_24  and  N_15 
REMARK    9  A    between atoms: C_26  and  C_25 
ROOT
ATOM      1  C   UNL d   1       2.382  -6.664  -0.124  0.00  0.00     0.004 A 
ATOM      2  C   UNL d   1       1.856  -5.359  -0.197  0.00  0.00     0.022 A 
ATOM      3  C   UNL d   1       2.688  -4.224  -0.162  0.00  0.00    -0.048 A 
ATOM      4  C   UNL d   1       3.767  -6.833  -0.083  0.00  0.00     0.015 A 
ATOM      5  C   UNL d   1       4.610  -5.718  -0.129  0.00  0.00     0.002 A 
ATOM      6  C   UNL d   1       4.075  -4.427  -0.159  0.00  0.00     0.008 A 
ENDROOT
BRANCH   1   7
ATOM      7  C   UNL d   1       1.421  -7.815   0.061  0.00  0.00     0.109 C 
ATOM      8  N   UNL d   1       1.546  -9.038  -0.394  0.00  0.00    -0.244 N 
ATOM      9  HN  UNL d   1       0.910  -9.801  -0.163  1.00  0.00     0.196 HD
BRANCH   8  10
ATOM     10  O   UNL d   1       2.662  -9.172  -1.238  0.00  0.00    -0.179 OA
BRANCH  10  11
ATOM     11  C   UNL d   1       2.899 -10.473  -1.647  0.00  0.00     0.387 C 
ATOM     12  N   UNL d   1       1.990 -11.404  -1.191  0.00  0.00    -0.301 N 
ATOM     13  H   UNL d   1       1.234 -10.975  -0.667  0.00  0.00     0.171 HD
ATOM     14  O   UNL d   1       3.862 -10.700  -2.375  0.00  0.00    -0.236 OA
BRANCH  12  15
ATOM     15  C   UNL d   1       1.969 -12.785  -1.476  0.00  0.00     0.037 A 
ATOM     16  C   UNL d   1       3.020 -13.455  -2.110  0.00  0.00     0.031 A 
ATOM     17  C   UNL d   1       2.924 -14.814  -2.428  0.00  0.00     0.026 A 
ATOM     18  C   UNL d   1       1.773 -15.521  -2.104  0.00  0.00     0.034 A 
ATOM     19  C   UNL d   1       0.730 -14.884  -1.437  0.00  0.00     0.026 A 
ATOM     20 CL   UNL d   1       1.639 -17.180  -2.537  0.00  0.00    -0.084 Cl
ATOM     21  C   UNL d   1       0.831 -13.523  -1.113  0.00  0.00     0.031 A 
ENDBRANCH  12  15
ENDBRANCH  10  11
ENDBRANCH   8  10
BRANCH   7  22
ATOM     22  N   UNL d   1       0.300  -7.567   0.820  0.00  0.00    -0.286 NA
ATOM     23  H   UNL d   1       0.392  -6.852   1.534  0.00  0.00     0.125 HD
ATOM     24  H   UNL d   1      -0.155  -8.407   1.151  0.00  0.00     0.125 HD
ENDBRANCH   7  22
ENDBRANCH   1   7
BRANCH   3  25
ATOM     25  C   UNL d   1       2.143  -2.804  -0.178  0.00  0.00     0.121 C 
BRANCH  25  26
ATOM     26  S   UNL d   1       0.613  -2.596   0.794  0.00  0.00    -0.088 SA
BRANCH  26  27
ATOM     27  C   UNL d   1       0.267  -0.922   0.538  0.00  0.00     0.162 A 
ATOM     28  N   UNL d   1      -0.871  -0.304   0.998  0.00  0.00    -0.312 N 
ATOM     29  C   UNL d   1      -0.743   1.022   0.637  0.00  0.00     0.209 A 
ATOM     30  C   UNL d   1      -1.940  -0.962   1.705  0.00  0.00     0.160 C 
ATOM     31  N   UNL d   1       0.397   1.159  -0.026  0.00  0.00    -0.279 N 
ATOM     32  N   UNL d   1       1.025  -0.057  -0.085  0.00  0.00    -0.278 N 
ATOM     33  HN  UNL d   1       0.749   2.028  -0.428  1.00  0.00     0.188 HD
ATOM     34  HN  UNL d   1       1.920  -0.252  -0.533  1.00  0.00     0.189 HD
BRANCH  29  35
ATOM     35  C   UNL d   1      -1.694   2.130   0.932  0.00  0.00     0.450 C 
ATOM     36  F   UNL d   1      -2.763   1.754   1.683  0.00  0.00    -0.163 F 
ATOM     37  F   UNL d   1      -1.099   3.140   1.618  0.00  0.00    -0.163 F 
ATOM     38  F   UNL d   1      -2.207   2.673  -0.203  0.00  0.00    -0.163 F 
ENDBRANCH  29  35
ENDBRANCH  26  27
ENDBRANCH  25  26
ENDBRANCH   3  25
TORSDOF 9
