REMARK  7 active torsions:
REMARK  status: ('A' for Active; 'I' for Inactive)
REMARK    1  A    between atoms: C_2  and  S_1 
REMARK    2  A    between atoms: N_5  and  S_1 
REMARK    3  A    between atoms: C_8  and  C_4 
REMARK    4  A    between atoms: O_18  and  C_8 
REMARK    5  A    between atoms: C_19  and  N_11 
REMARK    6  A    between atoms: C_21  and  C_19 
REMARK    7  A    between atoms: O_20  and  C_21 
ROOT
ATOM      1  S   UNL d   1       1.288   0.031   0.168  0.00  0.00     0.259 S 
ATOM      2  O   UNL d   1       0.277   0.392   1.133  0.00  0.00    -0.204 OA
ATOM      3  O   UNL d   1       2.371  -0.875   0.479  0.00  0.00    -0.204 OA
ENDROOT
BRANCH   1   4
ATOM      4  C   UNL d   1       2.126   1.566  -0.184  0.00  0.00     0.146 A 
ATOM      5  N   UNL d   1       2.825   2.300   0.761  0.00  0.00    -0.336 N 
ATOM      6  C   UNL d   1       3.405   3.421   0.171  0.00  0.00     0.109 A 
ATOM      7  C   UNL d   1       2.986   1.960   2.165  0.00  0.00     0.157 C 
ATOM      8  C   UNL d   1       3.021   3.404  -1.163  0.00  0.00     0.039 A 
ATOM      9  C   UNL d   1       2.243   2.251  -1.382  0.00  0.00     0.046 A 
BRANCH   6  10
ATOM     10  C   UNL d   1       4.209   4.401   0.877  0.00  0.00     0.193 C 
ATOM     11  O   UNL d   1       4.173   4.622   2.078  0.00  0.00    -0.645 OA
BRANCH  10  12
ATOM     12  O   UNL d   1       5.061   5.054   0.055  0.00  0.00    -0.772 OA
ATOM     13  H   UNL d   1       5.090   4.680  -0.844  0.00  0.00     0.167 HD
ENDBRANCH  10  12
ENDBRANCH   6  10
ENDBRANCH   1   4
BRANCH   1  14
ATOM     14  N   UNL d   1       0.558  -0.447  -1.294  0.00  0.00    -0.202 NA
ATOM     15  C   UNL d   1      -0.801   0.111  -1.568  0.00  0.00     0.138 C 
ATOM     16  C   UNL d   1      -1.903  -0.694  -0.837  0.00  0.00     0.288 C 
ATOM     17  N   UNL d   1      -1.871  -2.161  -1.060  0.00  0.00     0.092 N 
ATOM     18  C   UNL d   1      -0.496  -2.661  -0.831  0.00  0.00     0.288 C 
ATOM     19  C   UNL d   1       0.601  -1.903  -1.600  0.00  0.00     0.138 C 
BRANCH  17  20
ATOM     20  C   UNL d   1      -2.421  -2.509  -2.382  0.00  0.00     0.298 C 
BRANCH  20  21
ATOM     21  C   UNL d   1      -2.622  -4.016  -2.601  0.00  0.00     0.194 C 
BRANCH  21  22
ATOM     22  O   UNL d   1      -3.210  -4.238  -3.881  0.00  0.00    -0.399 OA
ATOM     23  H   UNL d   1      -3.332  -5.200  -3.967  0.00  0.00     0.209 HD
ENDBRANCH  21  22
ENDBRANCH  20  21
ENDBRANCH  17  20
ENDBRANCH   1  14
TORSDOF 7
