REMARK  4 active torsions:
REMARK  status: ('A' for Active; 'I' for Inactive)
REMARK    1  A    between atoms: C_5  and  C_3 
REMARK    2  A    between atoms: C_12  and  N_4 
REMARK       I    between atoms: N_10  and  C_5 
REMARK       I    between atoms: C_9  and  N_11 
REMARK    3  A    between atoms: C_13  and  C_9 
REMARK    4  A    between atoms: N_11  and  N_10 
ROOT
ATOM      1  N   UNL d   1       0.054   1.406   0.500  0.00  0.00    -0.286 N 
ATOM      2  HN  UNL d   1       0.143   2.375   0.806  1.00  0.00     0.188 HD
ATOM      3  C   UNL d   1       1.062   0.770  -0.044  0.00  0.00     0.168 C 
ATOM      4  N   UNL d   1      -1.133   0.714   0.645  0.00  0.00    -0.267 N 
ATOM      5  C   UNL d   1       0.930  -0.654  -0.541  0.00  0.00     0.206 C 
ATOM      6  C   UNL d   1      -0.260  -1.398  -0.121  0.00  0.00     0.076 C 
ATOM      7  C   UNL d   1      -1.215  -0.651   0.430  0.00  0.00     0.120 C 
ATOM      8  O   UNL d   1       1.762  -1.155  -1.282  0.00  0.00    -0.286 OA
ENDROOT
BRANCH   3   9
ATOM      9  C   UNL d   1       2.388   1.498  -0.140  0.00  0.00     0.292 C 
ATOM     10  N   UNL d   1       2.309   2.838  -0.462  0.00  0.00    -0.262 N 
ATOM     11  H   UNL d   1       1.427   3.338  -0.565  0.00  0.00     0.190 HD
ATOM     12  O   UNL d   1       3.436   0.909   0.097  0.00  0.00    -0.264 OA
BRANCH  10  13
ATOM     13  N   UNL d   1       3.498   3.587  -0.508  0.00  0.00    -0.263 N 
ATOM     14  C   UNL d   1       3.500   4.782  -1.204  0.00  0.00     0.270 C 
ATOM     15  O   UNL d   1       2.496   5.266  -1.714  0.00  0.00    -0.266 OA
ATOM     16  H   UNL d   1       4.359   3.068  -0.336  0.00  0.00     0.190 HD
BRANCH  14  17
ATOM     17  C   UNL d   1       4.823   5.456  -1.321  0.00  0.00     0.033 A 
ATOM     18  C   UNL d   1       5.121   6.172  -2.489  0.00  0.00     0.017 A 
ATOM     19  C   UNL d   1       6.362   6.804  -2.626  0.00  0.00     0.007 A 
ATOM     20  C   UNL d   1       7.309   6.748  -1.594  0.00  0.00    -0.062 A 
ATOM     21  C   UNL d   1       6.992   6.058  -0.417  0.00  0.00     0.007 A 
ATOM     22  C   UNL d   1       8.651   7.400  -1.767  0.00  0.00     0.048 C 
ATOM     23  C   UNL d   1       5.757   5.415  -0.280  0.00  0.00     0.017 A 
ENDBRANCH  14  17
ENDBRANCH  10  13
ENDBRANCH   3   9
BRANCH   4  24
ATOM     24  C   UNL d   1      -2.254   1.479   1.106  0.00  0.00     0.056 A 
ATOM     25  C   UNL d   1      -3.578   1.111   0.783  0.00  0.00     0.034 A 
ATOM     26  C   UNL d   1      -4.673   1.846   1.248  0.00  0.00     0.044 A 
ATOM     27  C   UNL d   1      -4.458   2.962   2.042  0.00  0.00     0.116 A 
ATOM     28  C   UNL d   1      -3.170   3.362   2.369  0.00  0.00     0.044 A 
ATOM     29  F   UNL d   1      -5.506   3.662   2.494  0.00  0.00    -0.206 F 
ATOM     30  C   UNL d   1      -2.074   2.630   1.896  0.00  0.00     0.034 A 
ENDBRANCH   4  24
TORSDOF 4
