REMARK  7 active torsions:
REMARK  status: ('A' for Active; 'I' for Inactive)
REMARK       I    between atoms: N_3  and  C_1 
REMARK    1  A    between atoms: C_8  and  C_1 
REMARK    2  A    between atoms: C_2  and  C_6 
REMARK    3  A    between atoms: O_9  and  C_2 
REMARK    4  A    between atoms: C_6  and  N_3 
REMARK    5  A    between atoms: O_7  and  C_8 
REMARK    6  A    between atoms: C_10  and  O_7 
REMARK    7  A    between atoms: C_11  and  O_9 
ROOT
ATOM      1  C   UNL d   1       0.966  -0.015   0.073  0.00  0.00     0.242 C 
ATOM      2  N   UNL d   1       0.392  -1.062  -0.606  0.00  0.00    -0.350 N 
ATOM      3  O   UNL d   1       0.300   0.845   0.647  0.00  0.00    -0.271 OA
ATOM      4  H   UNL d   1       0.968  -1.671  -1.179  0.00  0.00     0.163 HD
ENDROOT
BRANCH   1   5
ATOM      5  C   UNL d   1       2.489  -0.015   0.081  0.00  0.00     0.278 C 
BRANCH   5   6
ATOM      6  O   UNL d   1       2.953   0.675  -1.073  0.00  0.00    -0.342 OA
BRANCH   6   7
ATOM      7  C   UNL d   1       4.305   0.864  -1.170  0.00  0.00     0.069 A 
ATOM      8  C   UNL d   1       5.271   0.331  -0.314  0.00  0.00     0.037 A 
ATOM      9  C   UNL d   1       6.627   0.590  -0.536  0.00  0.00     0.003 A 
ATOM     10  C   UNL d   1       7.024   1.383  -1.613  0.00  0.00     0.000 A 
ATOM     11  C   UNL d   1       6.064   1.919  -2.468  0.00  0.00     0.003 A 
ATOM     12  C   UNL d   1       4.710   1.658  -2.246  0.00  0.00     0.037 A 
ENDBRANCH   6   7
ENDBRANCH   5   6
ENDBRANCH   1   5
BRANCH   2  13
ATOM     13  C   UNL d   1      -1.051  -1.169  -0.744  0.00  0.00     0.233 C 
BRANCH  13  14
ATOM     14  C   UNL d   1      -1.439  -2.559  -1.218  0.00  0.00     0.276 C 
ATOM     15  O   UNL d   1      -0.639  -3.440  -1.512  0.00  0.00    -0.263 OA
BRANCH  14  16
ATOM     16  O   UNL d   1      -2.793  -2.644  -1.341  0.00  0.00    -0.321 OA
BRANCH  16  17
ATOM     17  C   UNL d   1      -3.281  -3.812  -2.016  0.00  0.00     0.174 C 
ATOM     18  C   UNL d   1      -3.280  -3.549  -3.511  0.00  0.00     0.034 C 
ENDBRANCH  16  17
ENDBRANCH  14  16
ENDBRANCH  13  14
ENDBRANCH   2  13
TORSDOF 7
