REMARK  7 active torsions:
REMARK  status: ('A' for Active; 'I' for Inactive)
REMARK    1  A    between atoms: C_2  and  N_1 
REMARK       I    between atoms: C_6  and  N_1 
REMARK    2  A    between atoms: C_7  and  C_3 
REMARK    3  A    between atoms: C_15  and  C_6 
REMARK    4  A    between atoms: C_8  and  C_16 
REMARK    5  A    between atoms: O_14  and  C_8 
REMARK    6  A    between atoms: S_13  and  C_15 
REMARK    7  A    between atoms: C_16  and  S_13 
ROOT
ATOM      1  C   UNL d   1       0.298   1.315  -0.030  0.00  0.00     0.040 A 
ATOM      2  C   UNL d   1      -1.144   3.755  -0.211  0.00  0.00    -0.050 A 
ATOM      3  C   UNL d   1      -1.561   2.710   0.637  0.00  0.00     0.017 A 
ATOM      4  C   UNL d   1      -0.861   1.492   0.735  0.00  0.00    -0.035 A 
ATOM      5  C   UNL d   1       0.698   2.314  -0.919  0.00  0.00     0.030 A 
ATOM      6  C   UNL d   1      -0.026   3.507  -1.022  0.00  0.00     0.010 A 
ATOM      7  C   UNL d   1      -1.321   0.459   1.727  0.00  0.00     0.050 C 
ENDROOT
BRANCH   1   8
ATOM      8  N   UNL d   1       1.035   0.119   0.083  0.00  0.00    -0.326 N 
ATOM      9  C   UNL d   1       2.408   0.099   0.233  0.00  0.00     0.231 C 
ATOM     10  O   UNL d   1       3.137   1.092   0.318  0.00  0.00    -0.272 OA
ATOM     11  H   UNL d   1       0.532  -0.695   0.413  0.00  0.00     0.169 HD
BRANCH   9  12
ATOM     12  C   UNL d   1       3.009  -1.295   0.291  0.00  0.00     0.177 C 
BRANCH  12  13
ATOM     13  S   UNL d   1       3.790  -1.707  -1.304  0.00  0.00    -0.149 SA
BRANCH  13  14
ATOM     14  C   UNL d   1       4.983  -0.334  -1.481  0.00  0.00     0.184 C 
BRANCH  14  15
ATOM     15  C   UNL d   1       5.989  -0.298  -0.354  0.00  0.00     0.149 C 
ATOM     16  O   UNL d   1       7.004  -0.974  -0.325  0.00  0.00    -0.649 OA
BRANCH  15  17
ATOM     17  O   UNL d   1       5.659   0.536   0.666  0.00  0.00    -0.776 OA
ATOM     18  H   UNL d   1       4.798   1.007   0.549  0.00  0.00     0.167 HD
ENDBRANCH  15  17
ENDBRANCH  14  15
ENDBRANCH  13  14
ENDBRANCH  12  13
ENDBRANCH   9  12
ENDBRANCH   1   8
BRANCH   2  19
ATOM     19  C   UNL d   1      -1.898   5.098  -0.252  0.00  0.00    -0.024 C 
ATOM     20  C   UNL d   1      -3.080   4.974  -1.231  0.00  0.00     0.019 C 
ATOM     21  C   UNL d   1      -2.447   5.495   1.141  0.00  0.00     0.019 C 
ATOM     22  C   UNL d   1      -1.003   6.274  -0.709  0.00  0.00     0.019 C 
ENDBRANCH   2  19
TORSDOF 7
