REMARK  3 active torsions:
REMARK  status: ('A' for Active; 'I' for Inactive)
REMARK    1  A    between atoms: C_8  and  C_3 
REMARK    2  A    between atoms: C_7  and  C_4 
REMARK    3  A    between atoms: O_18  and  C_15 
ROOT
ATOM      1  N   UNL d   1       1.190   0.546   0.005  0.00  0.00    -0.341 N 
ATOM      2  HN  UNL d   1       2.106   0.993  -0.016  1.00  0.00     0.167 HD
ATOM      3  C   UNL d   1       0.058   1.277   0.038  0.00  0.00     0.116 A 
ATOM      4  C   UNL d   1       1.069  -0.802   0.001  0.00  0.00     0.045 A 
ATOM      5  N   UNL d   1      -1.182   0.754   0.060  0.00  0.00    -0.352 N 
ATOM      6  HN  UNL d   1      -2.013   1.344   0.089  1.00  0.00     0.166 HD
ATOM      7  C   UNL d   1      -0.171  -1.414   0.010  0.00  0.00     0.047 A 
ATOM      8  C   UNL d   1      -1.266  -0.585   0.042  0.00  0.00     0.092 A 
ENDROOT
BRANCH   4   9
ATOM      9  C   UNL d   1       2.336  -1.564  -0.021  0.00  0.00    -0.009 A 
ATOM     10  C   UNL d   1       2.456  -2.828   0.587  0.00  0.00     0.016 A 
ATOM     11  C   UNL d   1       3.659  -3.547   0.557  0.00  0.00     0.037 A 
ATOM     12  C   UNL d   1       4.777  -3.014  -0.076  0.00  0.00     0.068 A 
ATOM     13  C   UNL d   1       4.679  -1.768  -0.694  0.00  0.00     0.037 A 
ATOM     14  C   UNL d   1       3.479  -1.049  -0.656  0.00  0.00     0.016 A 
BRANCH  12  15
ATOM     15  O   UNL d   1       5.992  -3.632  -0.186  0.00  0.00    -0.356 OA
ATOM     16  C   UNL d   1       6.318  -4.533   0.867  0.00  0.00     0.210 C 
ENDBRANCH  12  15
ENDBRANCH   4   9
BRANCH   3  17
ATOM     17  C   UNL d   1       0.184   2.745   0.051  0.00  0.00     0.011 A 
ATOM     18  C   UNL d   1       1.435   3.378   0.017  0.00  0.00     0.032 A 
ATOM     19  C   UNL d   1       1.500   4.763   0.028  0.00  0.00     0.088 A 
ATOM     20  N   UNL d   1       0.417   5.565   0.071  0.00  0.00    -0.375 N 
ATOM     21  C   UNL d   1      -0.782   4.952   0.105  0.00  0.00     0.088 A 
ATOM     22  HN  UNL d   1       0.501   6.582   0.078  1.00  0.00     0.164 HD
ATOM     23  C   UNL d   1      -0.946   3.576   0.097  0.00  0.00     0.032 A 
ENDBRANCH   3  17
TORSDOF 3
