REMARK  6 active torsions:
REMARK  status: ('A' for Active; 'I' for Inactive)
REMARK    1  A    between atoms: C_3  and  C_1 
REMARK    2  A    between atoms: C_2  and  C_5 
REMARK       I    between atoms: N_7  and  C_3 
REMARK    3  A    between atoms: C_22  and  N_7 
REMARK    4  A    between atoms: C_20  and  C_10 
REMARK    5  A    between atoms: C_12  and  S_15 
REMARK    6  A    between atoms: S_15  and  C_20 
ROOT
ATOM      1  C   UNL d   1      -0.105   1.154  -0.112  0.00  0.00     0.143 A 
ATOM      2  O   UNL d   1      -0.946   0.071  -0.173  0.00  0.00    -0.309 OA
ATOM      3  C   UNL d   1       1.204   0.718  -0.002  0.00  0.00     0.045 A 
ATOM      4  C   UNL d   1      -0.152  -1.052  -0.139  0.00  0.00     0.063 A 
ATOM      5  C   UNL d   1       1.176  -0.689  -0.021  0.00  0.00     0.036 A 
ENDROOT
BRANCH   4   6
ATOM      6  C   UNL d   1      -0.808  -2.390  -0.187  0.00  0.00     0.145 C 
BRANCH   6   7
ATOM      7  S   UNL d   1      -1.681  -2.657  -1.763  0.00  0.00    -0.106 SA
BRANCH   7   8
ATOM      8  C   UNL d   1      -2.340  -4.292  -1.490  0.00  0.00     0.069 A 
ATOM      9  N   UNL d   1      -2.047  -4.922  -0.331  0.00  0.00    -0.360 N 
ATOM     10  C   UNL d   1      -2.559  -6.162  -0.141  0.00  0.00     0.105 A 
ATOM     11  HN  UNL d   1      -1.461  -4.479   0.377  1.00  0.00     0.166 HD
ATOM     12  C   UNL d   1      -3.361  -6.824  -1.058  0.00  0.00     0.063 A 
ATOM     13  C   UNL d   1      -3.650  -6.156  -2.251  0.00  0.00     0.020 A 
ATOM     14  C   UNL d   1      -3.133  -4.877  -2.470  0.00  0.00     0.038 A 
BRANCH  12  15
ATOM     15  C   UNL d   1      -3.888  -8.195  -0.762  0.00  0.00     0.418 C 
ATOM     16  F   UNL d   1      -3.496  -8.677   0.451  0.00  0.00    -0.166 F 
ATOM     17  F   UNL d   1      -5.248  -8.243  -0.758  0.00  0.00    -0.166 F 
ATOM     18  F   UNL d   1      -3.483  -9.119  -1.676  0.00  0.00    -0.166 F 
ENDBRANCH  12  15
ENDBRANCH   7   8
ENDBRANCH   6   7
ENDBRANCH   4   6
BRANCH   1  19
ATOM     19  C   UNL d   1      -0.588   2.522  -0.163  0.00  0.00     0.279 C 
ATOM     20  N   UNL d   1      -1.965   2.686  -0.241  0.00  0.00    -0.321 N 
ATOM     21  H   UNL d   1      -2.517   1.845  -0.137  0.00  0.00     0.169 HD
ATOM     22  O   UNL d   1       0.214   3.455  -0.109  0.00  0.00    -0.265 OA
BRANCH  20  23
ATOM     23  C   UNL d   1      -2.643   3.930  -0.310  0.00  0.00     0.035 A 
ATOM     24  C   UNL d   1      -2.004   5.135  -0.628  0.00  0.00     0.029 A 
ATOM     25  C   UNL d   1      -2.698   6.349  -0.616  0.00  0.00     0.002 A 
ATOM     26  C   UNL d   1      -4.049   6.375  -0.294  0.00  0.00     0.000 A 
ATOM     27  C   UNL d   1      -4.712   5.180  -0.016  0.00  0.00     0.002 A 
ATOM     28  C   UNL d   1      -4.015   3.962  -0.036  0.00  0.00     0.029 A 
ENDBRANCH  20  23
ENDBRANCH   1  19
TORSDOF 6
