REMARK  4 active torsions:
REMARK  status: ('A' for Active; 'I' for Inactive)
REMARK    1  A    between atoms: C_7  and  C_1 
REMARK    2  A    between atoms: C_9  and  C_6 
REMARK    3  A    between atoms: O_10  and  C_9 
REMARK    4  A    between atoms: C_11  and  O_10 
ROOT
ATOM      1  C   UNL d   1      -0.328  -0.926   0.396  0.00  0.00     0.074 A 
ATOM      2  N   UNL d   1      -0.227   0.972  -0.968  0.00  0.00    -0.355 N 
ATOM      3  HN  UNL d   1      -0.463   1.580  -1.753  1.00  0.00     0.166 HD
ATOM      4  C   UNL d   1      -0.807  -0.261  -0.725  0.00  0.00     0.026 A 
ATOM      5  S   UNL d   1       0.848   0.056   1.172  0.00  0.00    -0.069 SA
ATOM      6  C   UNL d   1       0.670   1.252  -0.047  0.00  0.00     0.076 A 
ATOM      7  C   UNL d   1      -1.853  -0.736  -1.673  0.00  0.00     0.070 C 
ENDROOT
BRANCH   6   8
ATOM      8  C   UNL d   1       1.432   2.544   0.001  0.00  0.00     0.240 C 
BRANCH   8   9
ATOM      9  O   UNL d   1       2.833   2.256  -0.007  0.00  0.00    -0.345 OA
BRANCH   9  10
ATOM     10  C   UNL d   1       3.655   3.349   0.060  0.00  0.00     0.069 A 
ATOM     11  C   UNL d   1       4.922   3.116   0.604  0.00  0.00     0.038 A 
ATOM     12  C   UNL d   1       5.847   4.157   0.719  0.00  0.00     0.026 A 
ATOM     13  C   UNL d   1       5.511   5.433   0.274  0.00  0.00     0.034 A 
ATOM     14  C   UNL d   1       4.260   5.671  -0.291  0.00  0.00     0.026 A 
ATOM     15 CL   UNL d   1       6.643   6.719   0.413  0.00  0.00    -0.084 Cl
ATOM     16  C   UNL d   1       3.333   4.630  -0.400  0.00  0.00     0.038 A 
ENDBRANCH   9  10
ENDBRANCH   8   9
ENDBRANCH   6   8
BRANCH   1  17
ATOM     17  C   UNL d   1      -0.744  -2.227   0.898  0.00  0.00     0.164 C 
ATOM     18  O   UNL d   1      -1.766  -2.787   0.490  0.00  0.00    -0.292 OA
ATOM     19  C   UNL d   1       0.074  -2.939   1.950  0.00  0.00     0.097 C 
ENDBRANCH   1  17
TORSDOF 4
