REMARK  0 active torsions:
REMARK  status: ('A' for Active; 'I' for Inactive)
ROOT
ATOM      1  N   UNL d   1       0.290   0.610  -0.001  0.00  0.00    -0.203 N 
ATOM      2  C   UNL d   1       0.274  -0.776   0.001  0.00  0.00     0.153 A 
ATOM      3  N   UNL d   1       1.559   1.108  -0.001  0.00  0.00    -0.299 N 
ATOM      4  HN  UNL d   1       1.852   2.085  -0.001  1.00  0.00     0.186 HD
ATOM      5  C   UNL d   1      -0.859   1.419  -0.001  0.00  0.00     0.270 A 
ATOM      6  C   UNL d   1       1.587  -1.178  -0.000  0.00  0.00     0.107 A 
ATOM      7  C   UNL d   1      -2.135   0.654   0.001  0.00  0.00     0.101 A 
ATOM      8  N   UNL d   1      -0.927  -1.407   0.003  0.00  0.00    -0.343 N 
ATOM      9  C   UNL d   1      -2.118  -0.694   0.003  0.00  0.00     0.012 A 
ATOM     10  C   UNL d   1       2.330   0.016  -0.001  0.00  0.00     0.134 A 
ATOM     11  C   UNL d   1       2.080  -2.511  -0.000  0.00  0.00     0.105 C 
ATOM     12  N   UNL d   1       2.470  -3.603  -0.001  0.00  0.00    -0.191 NA
ATOM     13  O   UNL d   1      -0.803   2.641  -0.003  0.00  0.00    -0.266 OA
ATOM     14  C   UNL d   1      -3.397  -1.486   0.008  0.00  0.00     0.068 C 
ATOM     15  H   UNL d   1      -1.009  -2.425   0.004  0.00  0.00     0.167 HD
ENDROOT
TORSDOF 0
