REMARK  7 active torsions:
REMARK  status: ('A' for Active; 'I' for Inactive)
REMARK    1  A    between atoms: C_3  and  S_1 
REMARK    2  A    between atoms: C_4  and  S_1 
REMARK    3  A    between atoms: C_5  and  C_2 
REMARK    4  A    between atoms: C_6  and  C_4 
REMARK    5  A    between atoms: C_9  and  C_4 
REMARK    6  A    between atoms: O_10  and  C_5 
REMARK    7  A    between atoms: O_11  and  C_6 
ROOT
ATOM      1  S   UNL d   1       0.933   0.140  -0.050  0.00  0.00    -0.108 SA
ENDROOT
BRANCH   1   2
ATOM      2  C   UNL d   1       0.191  -0.770   1.301  0.00  0.00     0.018 A 
ATOM      3  C   UNL d   1       0.442  -0.625   2.677  0.00  0.00     0.054 A 
ATOM      4  C   UNL d   1      -0.364  -1.299   3.615  0.00  0.00     0.020 A 
ATOM      5  C   UNL d   1      -1.444  -2.077   3.201  0.00  0.00     0.001 A 
ATOM      6  C   UNL d   1      -1.711  -2.215   1.845  0.00  0.00     0.001 A 
ATOM      7  C   UNL d   1      -0.897  -1.574   0.908  0.00  0.00     0.019 A 
BRANCH   3   8
ATOM      8  C   UNL d   1       1.479   0.261   3.261  0.00  0.00     0.177 C 
ATOM      9  O   UNL d   1       2.143  -0.038   4.235  0.00  0.00    -0.646 OA
BRANCH   8  10
ATOM     10  O   UNL d   1       1.550   1.473   2.668  0.00  0.00    -0.773 OA
ATOM     11  H   UNL d   1       0.904   1.602   1.945  0.00  0.00     0.167 HD
ENDBRANCH   8  10
ENDBRANCH   3   8
ENDBRANCH   1   2
BRANCH   1  12
ATOM     12  C   UNL d   1       2.789  -0.127   0.068  0.00  0.00     0.183 C 
BRANCH  12  13
ATOM     13  C   UNL d   1       3.023  -1.632  -0.129  0.00  0.00     0.159 C 
ATOM     14  O   UNL d   1       3.202  -2.414   0.796  0.00  0.00    -0.649 OA
BRANCH  13  15
ATOM     15  O   UNL d   1       2.958  -2.068  -1.414  0.00  0.00    -0.775 OA
ATOM     16  H   UNL d   1       2.792  -1.354  -2.064  0.00  0.00     0.167 HD
ENDBRANCH  13  15
ENDBRANCH  12  13
BRANCH  12  17
ATOM     17  C   UNL d   1       3.526   0.758  -0.963  0.00  0.00    -0.034 A 
ATOM     18  C   UNL d   1       3.002   1.999  -1.392  0.00  0.00     0.009 A 
ATOM     19  C   UNL d   1       3.621   2.748  -2.393  0.00  0.00     0.001 A 
ATOM     20  C   UNL d   1       4.807   2.305  -2.961  0.00  0.00     0.000 A 
ATOM     21  C   UNL d   1       5.396   1.133  -2.495  0.00  0.00     0.001 A 
ATOM     22  C   UNL d   1       4.774   0.378  -1.494  0.00  0.00     0.009 A 
ENDBRANCH  12  17
ENDBRANCH   1  12
TORSDOF 7
