REMARK  8 active torsions:
REMARK  status: ('A' for Active; 'I' for Inactive)
REMARK    1  A    between atoms: O_10  and  C_1 
REMARK    2  A    between atoms: O_9  and  C_2 
REMARK    3  A    between atoms: C_12  and  C_3 
REMARK    4  A    between atoms: C_11  and  C_4 
REMARK    5  A    between atoms: C_5  and  O_10 
REMARK    6  A    between atoms: C_13  and  C_5 
REMARK    7  A    between atoms: C_6  and  O_9 
REMARK    8  A    between atoms: C_14  and  C_6 
ROOT
ATOM      1  C   UNL d   1       1.197  -0.464   0.356  0.00  0.00     0.087 C 
ATOM      2  C   UNL d   1      -1.385   0.418  -0.084  0.00  0.00     0.087 C 
ATOM      3  C   UNL d   1       0.373  -1.236  -0.490  0.00  0.00    -0.014 C 
ATOM      4  C   UNL d   1      -0.482   1.325   0.503  0.00  0.00    -0.014 C 
ATOM      5  C   UNL d   1      -0.939  -0.782  -0.653  0.00  0.00     0.048 C 
ATOM      6  C   UNL d   1       0.806   0.807   0.807  0.00  0.00     0.048 C 
ENDROOT
BRANCH   1   7
ATOM      7  O   UNL d   1       2.437  -1.085   0.760  0.00  0.00    -0.274 OA
BRANCH   7   8
ATOM      8  C   UNL d   1       3.513  -0.788   1.613  0.00  0.00     0.298 C 
ATOM      9  O   UNL d   1       3.655   0.238   2.248  0.00  0.00    -0.259 OA
BRANCH   8  10
ATOM     10  C   UNL d   1       4.499  -1.931   1.585  0.00  0.00     0.040 A 
ATOM     11  C   UNL d   1       5.769  -1.776   2.154  0.00  0.00     0.019 A 
ATOM     12  C   UNL d   1       6.719  -2.818   2.092  0.00  0.00     0.025 A 
ATOM     13  C   UNL d   1       6.402  -4.023   1.464  0.00  0.00     0.034 A 
ATOM     14  C   UNL d   1       5.137  -4.208   0.922  0.00  0.00     0.025 A 
ATOM     15 CL   UNL d   1       7.565  -5.283   1.354  0.00  0.00    -0.084 Cl
ATOM     16  C   UNL d   1       4.203  -3.172   0.995  0.00  0.00     0.019 A 
ENDBRANCH   8  10
ENDBRANCH   7   8
ENDBRANCH   1   7
BRANCH   3  17
ATOM     17  C   UNL d   1       0.814  -2.555  -1.144  0.00  0.00    -0.021 C 
ATOM     18  C   UNL d   1       0.769  -3.658  -0.065  0.00  0.00     0.019 C 
ATOM     19  C   UNL d   1      -0.115  -3.033  -2.293  0.00  0.00     0.019 C 
ATOM     20  C   UNL d   1       2.194  -2.408  -1.833  0.00  0.00     0.019 C 
ENDBRANCH   3  17
BRANCH   4  21
ATOM     21  C   UNL d   1      -0.844   2.802   0.780  0.00  0.00    -0.021 C 
ATOM     22  C   UNL d   1      -1.404   2.947   2.204  0.00  0.00     0.019 C 
ATOM     23  C   UNL d   1       0.388   3.731   0.628  0.00  0.00     0.019 C 
ATOM     24  C   UNL d   1      -1.885   3.372  -0.218  0.00  0.00     0.019 C 
ENDBRANCH   4  21
BRANCH   2  25
ATOM     25  O   UNL d   1      -2.772   0.686  -0.144  0.00  0.00    -0.274 OA
BRANCH  25  26
ATOM     26  C   UNL d   1      -3.600  -0.315   0.360  0.00  0.00     0.298 C 
ATOM     27  O   UNL d   1      -3.253  -1.366   0.882  0.00  0.00    -0.259 OA
BRANCH  26  28
ATOM     28  C   UNL d   1      -5.041  -0.002   0.153  0.00  0.00     0.040 A 
ATOM     29  C   UNL d   1      -5.968  -1.051   0.290  0.00  0.00     0.019 A 
ATOM     30  C   UNL d   1      -7.339  -0.815   0.151  0.00  0.00     0.025 A 
ATOM     31  C   UNL d   1      -7.791   0.472  -0.119  0.00  0.00     0.034 A 
ATOM     32  C   UNL d   1      -6.885   1.520  -0.266  0.00  0.00     0.025 A 
ATOM     33 CL   UNL d   1      -9.480   0.774  -0.263  0.00  0.00    -0.084 Cl
ATOM     34  C   UNL d   1      -5.510   1.284  -0.136  0.00  0.00     0.019 A 
ENDBRANCH  26  28
ENDBRANCH  25  26
ENDBRANCH   2  25
TORSDOF 8
