REMARK  3 active torsions:
REMARK  status: ('A' for Active; 'I' for Inactive)
REMARK    1  A    between atoms: C_2  and  N_1 
REMARK    2  A    between atoms: S_5  and  C_3 
REMARK    3  A    between atoms: C_12  and  S_5 
ROOT
ATOM      1  C   UNL d   1       0.133  -0.942  -0.619  0.00  0.00     0.121 A 
ATOM      2  C   UNL d   1      -0.946  -0.334  -1.278  0.00  0.00     0.038 A 
ATOM      3  N   UNL d   1       0.305  -5.554  -2.117  0.00  0.00    -0.191 NA
ATOM      4  C   UNL d   1       0.035  -4.441  -1.924  0.00  0.00     0.099 C 
ATOM      5  C   UNL d   1       0.475  -2.291  -0.825  0.00  0.00     0.060 A 
ATOM      6  C   UNL d   1      -1.711  -1.139  -2.137  0.00  0.00     0.023 A 
ATOM      7  C   UNL d   1      -0.300  -3.067  -1.688  0.00  0.00     0.047 A 
ATOM      8  C   UNL d   1      -1.401  -2.493  -2.330  0.00  0.00     0.024 A 
ENDROOT
BRANCH   1   9
ATOM      9  N   UNL d   1       0.953  -0.195   0.315  0.00  0.00    -0.114 N 
ATOM     10  O   UNL d   1       0.397   0.252   1.326  0.00  0.00    -0.532 OA
ATOM     11  O   UNL d   1       2.164  -0.127   0.066  0.00  0.00    -0.532 OA
ENDBRANCH   1   9
BRANCH   2  12
ATOM     12  S   UNL d   1      -1.268   1.421  -1.295  0.00  0.00    -0.088 SA
BRANCH  12  13
ATOM     13  C   UNL d   1      -2.461   1.672   0.005  0.00  0.00     0.005 A 
ATOM     14  C   UNL d   1      -2.182   2.646   0.973  0.00  0.00     0.020 A 
ATOM     15  C   UNL d   1      -3.133   2.989   1.938  0.00  0.00     0.025 A 
ATOM     16  C   UNL d   1      -4.373   2.358   1.938  0.00  0.00     0.034 A 
ATOM     17  C   UNL d   1      -4.663   1.379   0.989  0.00  0.00     0.025 A 
ATOM     18 CL   UNL d   1      -5.562   2.808   3.096  0.00  0.00    -0.084 Cl
ATOM     19  C   UNL d   1      -3.709   1.039   0.021  0.00  0.00     0.020 A 
ENDBRANCH  12  13
ENDBRANCH   2  12
TORSDOF 3
