REMARK  1 active torsions:
REMARK  status: ('A' for Active; 'I' for Inactive)
REMARK    1  A    between atoms: N_6  and  C_2 
ROOT
ATOM      1  C   UNL d   1       2.264  -0.485   0.683  0.00  0.00     0.070 A 
ATOM      2  C   UNL d   1       1.411  -1.432   0.086  0.00  0.00     0.103 A 
ATOM      3  S   UNL d   1       3.918  -0.629   1.145  0.00  0.00    -0.096 SA
ATOM      4  C   UNL d   1       1.784   0.790   0.968  0.00  0.00     0.060 A 
ATOM      5  C   UNL d   1       2.762   1.625   1.611  0.00  0.00    -0.027 A 
ATOM      6  C   UNL d   1       3.967   0.963   1.750  0.00  0.00     0.059 A 
ATOM      7  N   UNL d   1       0.161  -1.025  -0.237  0.00  0.00    -0.342 N 
ATOM      8  HN  UNL d   1      -0.489  -1.661  -0.699  1.00  0.00     0.167 HD
ATOM      9  N   UNL d   1       0.517   1.173   0.666  0.00  0.00    -0.351 N 
ATOM     10  HN  UNL d   1       0.152   2.100   0.881  1.00  0.00     0.166 HD
ATOM     11  C   UNL d   1      -0.208   0.229   0.062  0.00  0.00     0.182 A 
ATOM     12  C   UNL d   1       2.523   3.021   2.073  0.00  0.00     0.051 C 
ENDROOT
BRANCH   2  13
ATOM     13  N   UNL d   1       1.829  -2.746  -0.196  0.00  0.00    -0.268 NA
ATOM     14  C   UNL d   1       1.130  -3.346  -1.338  0.00  0.00     0.097 C 
ATOM     15  C   UNL d   1       1.840  -4.652  -1.704  0.00  0.00     0.015 C 
ATOM     16  C   UNL d   1       1.905  -5.602  -0.507  0.00  0.00     0.002 C 
ATOM     17  C   UNL d   1       2.484  -4.907   0.725  0.00  0.00     0.015 C 
ATOM     18  C   UNL d   1       1.772  -3.584   1.011  0.00  0.00     0.097 C 
ENDBRANCH   2  13
TORSDOF 1
