REMARK  1 active torsions:
REMARK  status: ('A' for Active; 'I' for Inactive)
REMARK       I    between atoms: N_2  and  C_1 
REMARK       I    between atoms: N_4  and  C_1 
REMARK    1  A    between atoms: C_5  and  N_2 
ROOT
ATOM      1  C   UNL d   1       1.027   2.366   0.831  0.00  0.00     0.035 A 
ATOM      2  C   UNL d   1       2.448   4.677   1.601  0.00  0.00    -0.062 A 
ATOM      3  C   UNL d   1       0.637   3.094   1.956  0.00  0.00     0.030 A 
ATOM      4  C   UNL d   1       2.133   2.801   0.093  0.00  0.00     0.030 A 
ATOM      5  C   UNL d   1       2.836   3.951   0.471  0.00  0.00     0.009 A 
ATOM      6  C   UNL d   1       1.343   4.240   2.338  0.00  0.00     0.009 A 
ATOM      7  C   UNL d   1       3.202   5.897   2.039  0.00  0.00     0.048 C 
ENDROOT
BRANCH   1   8
ATOM      8  N   UNL d   1       0.384   1.185   0.413  0.00  0.00    -0.314 N 
ATOM      9  C   UNL d   1      -0.811   0.692   0.862  0.00  0.00     0.296 C 
ATOM     10  O   UNL d   1      -1.623   1.220   1.608  0.00  0.00    -0.254 OA
ATOM     11  N   UNL d   1      -1.065  -0.553   0.363  0.00  0.00    -0.254 NA
ATOM     12  H   UNL d   1      -0.283  -1.192   0.353  0.00  0.00     0.128 HD
ATOM     13  H   UNL d   1      -1.907  -0.951   0.765  0.00  0.00     0.128 HD
ATOM     14  H   UNL d   1       0.754   0.724  -0.405  0.00  0.00     0.170 HD
ENDBRANCH   1   8
TORSDOF 1
