REMARK  3 active torsions:
REMARK  status: ('A' for Active; 'I' for Inactive)
REMARK    1  A    between atoms: C_8  and  C_3 
REMARK    2  A    between atoms: O_15  and  C_6 
REMARK       I    between atoms: N_13  and  C_8 
REMARK    3  A    between atoms: C_17  and  N_13 
ROOT
ATOM      1  S   UNL d   1       2.149  -1.095   0.301  0.00  0.00     0.273 S 
ATOM      2  N   UNL d   1       0.665  -1.711  -0.247  0.00  0.00    -0.269 N 
ATOM      3  C   UNL d   1       2.246   0.542  -0.188  0.00  0.00     0.181 C 
ATOM      4  C   UNL d   1      -0.407  -0.751  -0.235  0.00  0.00     0.100 A 
ATOM      5  C   UNL d   1      -0.223   0.619  -0.327  0.00  0.00     0.040 A 
ATOM      6  C   UNL d   1       1.096   1.194  -0.455  0.00  0.00     0.108 C 
ATOM      7  S   UNL d   1      -2.050  -1.182  -0.151  0.00  0.00    -0.075 SA
ATOM      8  C   UNL d   1      -1.490   1.331  -0.239  0.00  0.00    -0.033 A 
ATOM      9  C   UNL d   1      -2.553   0.442  -0.124  0.00  0.00    -0.012 A 
ATOM     10  O   UNL d   1       3.187  -1.829  -0.405  0.00  0.00    -0.200 OA
ATOM     11  O   UNL d   1       2.122  -1.157   1.751  0.00  0.00    -0.200 OA
ATOM     12  C   UNL d   1       0.412  -3.133   0.040  0.00  0.00     0.170 C 
ATOM     13  C   UNL d   1      -1.719   2.817  -0.247  0.00  0.00     0.050 C 
ATOM     14  C   UNL d   1      -4.007   0.767   0.013  0.00  0.00     0.057 C 
ENDROOT
BRANCH   3  15
ATOM     15  C   UNL d   1       3.549   1.247  -0.238  0.00  0.00     0.272 C 
ATOM     16  N   UNL d   1       4.690   0.478  -0.281  0.00  0.00    -0.322 N 
ATOM     17  H   UNL d   1       4.593  -0.527  -0.433  0.00  0.00     0.169 HD
ATOM     18  O   UNL d   1       3.533   2.480  -0.294  0.00  0.00    -0.266 OA
BRANCH  16  19
ATOM     19  C   UNL d   1       6.022   0.954  -0.256  0.00  0.00     0.035 A 
ATOM     20  C   UNL d   1       6.374   2.267   0.070  0.00  0.00     0.029 A 
ATOM     21  C   UNL d   1       7.712   2.671   0.051  0.00  0.00     0.002 A 
ATOM     22  C   UNL d   1       8.711   1.764  -0.289  0.00  0.00     0.000 A 
ATOM     23  C   UNL d   1       8.374   0.447  -0.592  0.00  0.00     0.002 A 
ATOM     24  C   UNL d   1       7.037   0.041  -0.565  0.00  0.00     0.029 A 
ENDBRANCH  16  19
ENDBRANCH   3  15
BRANCH   6  25
ATOM     25  O   UNL d   1       1.087   2.504  -0.914  0.00  0.00    -0.358 OA
ATOM     26  H   UNL d   1       1.992   2.882  -0.831  0.00  0.00     0.217 HD
ENDBRANCH   6  25
TORSDOF 3
