REMARK  1 active torsions:
REMARK  status: ('A' for Active; 'I' for Inactive)
REMARK    1  A    between atoms: C_13  and  C_7 
ROOT
ATOM      1  C   UNL d   1       1.179   0.132  -0.045  0.00  0.00     0.102 A 
ATOM      2  N   UNL d   1      -0.799  -1.242  -0.003  0.00  0.00    -0.275 N 
ATOM      3  N   UNL d   1      -1.039   1.060   0.006  0.00  0.00    -0.275 N 
ATOM      4  C   UNL d   1       0.565  -1.220  -0.031  0.00  0.00     0.265 A 
ATOM      5  C   UNL d   1       0.299   1.326  -0.091  0.00  0.00     0.265 A 
ATOM      6  C   UNL d   1      -1.629  -0.166   0.001  0.00  0.00     0.329 A 
ATOM      7  C   UNL d   1       2.523   0.182   0.004  0.00  0.00     0.052 C 
ATOM      8  O   UNL d   1       0.692   2.476  -0.253  0.00  0.00    -0.267 OA
ATOM      9  O   UNL d   1       1.212  -2.261  -0.059  0.00  0.00    -0.267 OA
ATOM     10  O   UNL d   1      -2.849  -0.293  -0.021  0.00  0.00    -0.246 OA
ATOM     11  H   UNL d   1      -1.238  -2.153  -0.009  0.00  0.00     0.173 HD
ATOM     12  H   UNL d   1      -1.657   1.858  -0.035  0.00  0.00     0.173 HD
ENDROOT
BRANCH   7  13
ATOM     13  C   UNL d   1       3.345   1.385   0.058  0.00  0.00     0.033 A 
ATOM     14  N   UNL d   1       3.679   1.795   1.301  0.00  0.00    -0.366 N 
ATOM     15  C   UNL d   1       4.474   2.884   1.388  0.00  0.00     0.088 A 
ATOM     16  HN  UNL d   1       3.346   1.307   2.133  1.00  0.00     0.165 HD
ATOM     17  C   UNL d   1       4.976   3.565   0.290  0.00  0.00     0.017 A 
ATOM     18  C   UNL d   1       4.632   3.111  -0.978  0.00  0.00     0.004 A 
ATOM     19  C   UNL d   1       3.798   2.003  -1.102  0.00  0.00     0.029 A 
ENDBRANCH   7  13
TORSDOF 1
