REMARK  3 active torsions:
REMARK  status: ('A' for Active; 'I' for Inactive)
REMARK    1  A    between atoms: C_8  and  C_1 
REMARK    2  A    between atoms: N_10  and  C_8 
REMARK    3  A    between atoms: C_11  and  N_10 
ROOT
ATOM      1  C   UNL d   1      -3.582   4.103  -2.584  0.00  0.00    -0.076 C 
ATOM      2  C   UNL d   1      -3.368   4.726  -3.590  0.00  0.00     0.015 C 
ATOM      3  C   UNL d   1      -3.827   3.305  -1.319  0.00  0.00     0.212 C 
ATOM      4  C   UNL d   1      -5.045   2.381  -1.529  0.00  0.00     0.063 C 
ATOM      5  C   UNL d   1      -4.117   4.270  -0.153  0.00  0.00     0.063 C 
ENDROOT
BRANCH   3   6
ATOM      6  N   UNL d   1      -2.612   2.518  -1.098  0.00  0.00     0.108 N 
ATOM      7  H   UNL d   1      -2.464   1.885  -1.881  0.00  0.00     0.318 HD
BRANCH   6   8
ATOM      8  C   UNL d   1      -2.487   1.769   0.150  0.00  0.00     0.311 C 
BRANCH   8   9
ATOM      9  C   UNL d   1      -1.188   0.959   0.127  0.00  0.00    -0.017 A 
ATOM     10  C   UNL d   1       0.058   1.656   0.164  0.00  0.00    -0.047 A 
ATOM     11  C   UNL d   1       1.278   0.941   0.060  0.00  0.00    -0.049 A 
ATOM     12  C   UNL d   1       0.112   3.169   0.269  0.00  0.00     0.049 C 
ATOM     13  C   UNL d   1       2.607   1.664  -0.024  0.00  0.00     0.049 C 
ATOM     14  C   UNL d   1       1.266  -0.476   0.028  0.00  0.00    -0.049 A 
ATOM     15  C   UNL d   1       0.033  -1.178   0.027  0.00  0.00    -0.049 A 
ATOM     16  C   UNL d   1       2.590  -1.212  -0.010  0.00  0.00     0.049 C 
ATOM     17  C   UNL d   1      -1.197  -0.461   0.020  0.00  0.00    -0.047 A 
ATOM     18  C   UNL d   1       0.052  -2.692   0.038  0.00  0.00     0.049 C 
ATOM     19  C   UNL d   1      -2.482  -1.254  -0.098  0.00  0.00     0.049 C 
ENDBRANCH   8   9
ENDBRANCH   6   8
ENDBRANCH   3   6
TORSDOF 3
