REMARK  6 active torsions:
REMARK  status: ('A' for Active; 'I' for Inactive)
REMARK    1  A    between atoms: C_10  and  C_1 
REMARK    2  A    between atoms: N_3  and  O_12 
REMARK    3  A    between atoms: C_11  and  C_5 
REMARK    4  A    between atoms: N_24  and  C_5 
REMARK    5  A    between atoms: C_6  and  C_13 
REMARK    6  A    between atoms: O_12  and  C_6 
ROOT
ATOM      1  N   UNL d   1      -2.124  -0.452  -7.847  0.00  0.00    -0.246 N 
ATOM      2  HN  UNL d   1      -2.268  -0.558  -8.851  1.00  0.00     0.196 HD
ATOM      3  C   UNL d   1      -2.151  -1.453  -7.017  0.00  0.00     0.109 C 
ENDROOT
BRANCH   3   4
ATOM      4  C   UNL d   1      -2.440  -2.833  -7.569  0.00  0.00     0.005 A 
ATOM      5  C   UNL d   1      -2.106  -3.153  -8.893  0.00  0.00     0.029 A 
ATOM      6  C   UNL d   1      -2.320  -4.452  -9.385  0.00  0.00    -0.002 A 
ATOM      7  C   UNL d   1      -1.989  -4.809 -10.760  0.00  0.00     0.013 C 
ATOM      8  C   UNL d   1      -2.876  -5.427  -8.550  0.00  0.00     0.080 A 
ATOM      9  C   UNL d   1      -1.988  -6.109 -11.082  0.00  0.00     0.011 C 
ATOM     10  C   UNL d   1      -2.313  -7.190 -10.072  0.00  0.00     0.078 C 
ATOM     11  O   UNL d   1      -3.103  -6.718  -8.956  0.00  0.00    -0.336 OA
ATOM     12  C   UNL d   1      -1.017  -7.797  -9.514  0.00  0.00     0.051 C 
ATOM     13  C   UNL d   1      -3.134  -8.302 -10.742  0.00  0.00     0.051 C 
ATOM     14  C   UNL d   1      -3.256  -5.103  -7.249  0.00  0.00     0.038 A 
ATOM     15  C   UNL d   1      -3.030  -3.812  -6.755  0.00  0.00     0.017 A 
ENDBRANCH   3   4
BRANCH   3  16
ATOM     16  N   UNL d   1      -1.912  -1.341  -5.665  0.00  0.00    -0.286 NA
ATOM     17  H   UNL d   1      -1.448  -0.476  -5.416  0.00  0.00     0.125 HD
ATOM     18  H   UNL d   1      -1.471  -2.148  -5.237  0.00  0.00     0.125 HD
ENDBRANCH   3  16
BRANCH   1  19
ATOM     19  O   UNL d   1      -1.873   0.806  -7.224  0.00  0.00    -0.193 OA
BRANCH  19  20
ATOM     20  C   UNL d   1      -1.875   1.790  -8.195  0.00  0.00     0.315 C 
ATOM     21  O   UNL d   1      -2.010   1.619  -9.403  0.00  0.00    -0.257 OA
BRANCH  20  22
ATOM     22  C   UNL d   1      -1.671   3.170  -7.649  0.00  0.00     0.042 A 
ATOM     23  C   UNL d   1      -1.558   3.454  -6.277  0.00  0.00     0.034 A 
ATOM     24  C   UNL d   1      -1.364   4.782  -5.828  0.00  0.00     0.048 A 
ATOM     25  C   UNL d   1      -1.273   5.824  -6.767  0.00  0.00     0.016 A 
ATOM     26  C   UNL d   1      -1.393   5.556  -8.125  0.00  0.00     0.002 A 
ATOM     27  C   UNL d   1      -1.596   4.241  -8.559  0.00  0.00     0.018 A 
BRANCH  24  28
ATOM     28  C   UNL d   1      -1.266   5.106  -4.356  0.00  0.00     0.417 C 
ATOM     29  F   UNL d   1      -1.367   4.011  -3.555  0.00  0.00    -0.166 F 
ATOM     30  F   UNL d   1      -2.243   5.963  -3.947  0.00  0.00    -0.166 F 
ATOM     31  F   UNL d   1      -0.086   5.702  -4.031  0.00  0.00    -0.166 F 
ENDBRANCH  24  28
ENDBRANCH  20  22
ENDBRANCH  19  20
ENDBRANCH   1  19
TORSDOF 6
