REMARK  3 active torsions:
REMARK  status: ('A' for Active; 'I' for Inactive)
REMARK    1  A    between atoms: N_7  and  S_1 
REMARK    2  A    between atoms: C_11  and  S_1 
REMARK    3  A    between atoms: N_6  and  C_14 
ROOT
ATOM      1  C   UNL d   1      -0.623  -4.756  -2.468  0.00  0.00     0.147 A 
ATOM      2  N   UNL d   1      -0.320  -6.021  -2.668  0.00  0.00    -0.336 N 
ATOM      3  HN  UNL d   1      -0.024  -6.663  -1.933  1.00  0.00     0.168 HD
ATOM      4  S   UNL d   1      -1.011  -3.901  -3.925  0.00  0.00    -0.052 SA
ATOM      5  N   UNL d   1       0.501  -1.597  -0.020  0.00  0.00    -0.205 NA
ATOM      6  N   UNL d   1      -0.602  -4.157  -1.241  0.00  0.00    -0.360 N 
ATOM      7  C   UNL d   1      -0.801  -5.327  -4.855  0.00  0.00     0.036 A 
ATOM      8  C   UNL d   1      -0.455  -6.371  -4.000  0.00  0.00     0.051 A 
ATOM      9  C   UNL d   1      -0.653  -1.673  -0.993  0.00  0.00     0.127 C 
ATOM     10  C   UNL d   1      -0.943  -5.509  -6.241  0.00  0.00     0.045 A 
ATOM     11  C   UNL d   1      -1.430  -2.995  -0.909  0.00  0.00     0.140 C 
ATOM     12  C   UNL d   1      -0.275  -7.661  -4.546  0.00  0.00     0.032 A 
ATOM     13  C   UNL d   1      -0.755  -6.794  -6.753  0.00  0.00     0.035 A 
ATOM     14  C   UNL d   1       1.319  -3.969   0.316  0.00  0.00     0.035 C 
ATOM     15  C   UNL d   1       1.558  -2.622  -0.362  0.00  0.00     0.109 C 
ATOM     16  C   UNL d   1       0.102  -4.780  -0.133  0.00  0.00     0.126 C 
ATOM     17  C   UNL d   1      -0.434  -7.862  -5.924  0.00  0.00     0.026 A 
ATOM     18 CL   UNL d   1      -0.932  -7.057  -8.447  0.00  0.00    -0.084 Cl
ENDROOT
BRANCH   5  19
ATOM     19  S   UNL d   1       1.204  -0.013   0.034  0.00  0.00     0.243 S 
ATOM     20  O   UNL d   1       1.419   0.404  -1.335  0.00  0.00    -0.206 OA
ATOM     21  O   UNL d   1       2.292  -0.034   0.992  0.00  0.00    -0.206 OA
BRANCH  19  22
ATOM     22  C   UNL d   1      -0.047   1.042   0.740  0.00  0.00     0.074 A 
ATOM     23  C   UNL d   1      -0.457   0.827   2.060  0.00  0.00     0.027 A 
ATOM     24  C   UNL d   1      -1.300   1.754   2.683  0.00  0.00     0.037 A 
ATOM     25  C   UNL d   1      -1.721   2.894   1.981  0.00  0.00     0.102 A 
ATOM     26  C   UNL d   1      -1.325   3.099   0.650  0.00  0.00     0.037 A 
ATOM     27  C   UNL d   1      -0.485   2.168   0.029  0.00  0.00     0.027 A 
BRANCH  25  28
ATOM     28  N   UNL d   1      -2.550   3.904   2.655  0.00  0.00    -0.116 N 
ATOM     29  O   UNL d   1      -2.856   3.701   3.838  0.00  0.00    -0.532 OA
ATOM     30  O   UNL d   1      -2.894   4.898   2.000  0.00  0.00    -0.532 OA
ENDBRANCH  25  28
ENDBRANCH  19  22
ENDBRANCH   5  19
TORSDOF 3
