REMARK  2 active torsions:
REMARK  status: ('A' for Active; 'I' for Inactive)
REMARK    1  A    between atoms: C_9  and  C_1 
REMARK    2  A    between atoms: N_12  and  C_2 
REMARK       I    between atoms: N_14  and  C_9 
ROOT
ATOM      1  C   UNL d   1       2.498   0.082  -0.024  0.00  0.00     0.101 A 
ATOM      2  C   UNL d   1       1.625   1.162  -0.009  0.00  0.00     0.062 A 
ATOM      3  C   UNL d   1       0.226   0.779  -0.004  0.00  0.00     0.032 A 
ATOM      4  S   UNL d   1       1.645  -1.398  -0.025  0.00  0.00    -0.064 SA
ATOM      5  C   UNL d   1       0.142  -0.614  -0.012  0.00  0.00     0.088 A 
ATOM      6  N   UNL d   1      -0.968  -1.376  -0.011  0.00  0.00    -0.354 N 
ATOM      7  HN  UNL d   1      -0.933  -2.395  -0.018  1.00  0.00     0.166 HD
ATOM      8  C   UNL d   1      -1.021   1.474   0.011  0.00  0.00    -0.045 A 
ATOM      9  C   UNL d   1      -2.194   0.689   0.010  0.00  0.00     0.032 A 
ATOM     10  C   UNL d   1      -2.123  -0.697   0.000  0.00  0.00     0.006 A 
ATOM     11  C   UNL d   1      -1.235   2.965   0.025  0.00  0.00     0.049 C 
ATOM     12  C   UNL d   1      -3.384  -1.508   0.001  0.00  0.00     0.068 C 
ENDROOT
BRANCH   1  13
ATOM     13  C   UNL d   1       3.954   0.098  -0.042  0.00  0.00     0.258 C 
ATOM     14  O   UNL d   1       4.638   1.121  -0.041  0.00  0.00    -0.267 OA
ATOM     15  N   UNL d   1       4.589  -1.115  -0.070  0.00  0.00    -0.365 N 
ATOM     16  H   UNL d   1       4.074  -1.984  -0.087  0.00  0.00     0.159 HD
ATOM     17  H   UNL d   1       5.599  -1.127  -0.094  0.00  0.00     0.159 HD
ENDBRANCH   1  13
BRANCH   2  18
ATOM     18  N   UNL d   1       2.093   2.431   0.002  0.00  0.00    -0.397 N 
ATOM     19  H   UNL d   1       3.099   2.615  -0.046  0.00  0.00     0.156 HD
ATOM     20  H   UNL d   1       1.532   3.264  -0.101  0.00  0.00     0.156 HD
ENDBRANCH   2  18
TORSDOF 2
