REMARK  8 active torsions:
REMARK  status: ('A' for Active; 'I' for Inactive)
REMARK       I    between atoms: N_2  and  C_1 
REMARK       I    between atoms: N_3  and  C_1 
REMARK    1  A    between atoms: C_9  and  N_2 
REMARK    2  A    between atoms: C_10  and  N_3 
REMARK    3  A    between atoms: N_6  and  C_4 
REMARK    4  A    between atoms: C_21  and  N_6 
REMARK    5  A    between atoms: C_22  and  N_6 
REMARK    6  A    between atoms: O_11  and  C_12 
REMARK    7  A    between atoms: C_15  and  O_11 
REMARK    8  A    between atoms: C_20  and  C_15 
ROOT
ATOM      1  C   UNL d   1       1.142  -0.036   0.045  0.00  0.00     0.325 C 
ATOM      2  N   UNL d   1       0.585   0.852  -0.863  0.00  0.00    -0.309 N 
ATOM      3  N   UNL d   1       0.240  -0.360   1.044  0.00  0.00    -0.309 N 
ATOM      4  O   UNL d   1       2.288  -0.466  -0.013  0.00  0.00    -0.247 OA
ATOM      5  H   UNL d   1      -0.312   1.245  -0.627  0.00  0.00     0.170 HD
ATOM      6  H   UNL d   1      -0.725  -0.119   0.879  0.00  0.00     0.170 HD
ENDROOT
BRANCH   3   7
ATOM      7  C   UNL d   1       0.508  -1.127   2.198  0.00  0.00     0.036 A 
ATOM      8  C   UNL d   1       1.782  -1.570   2.561  0.00  0.00     0.032 A 
ATOM      9  C   UNL d   1       1.967  -2.348   3.706  0.00  0.00     0.039 A 
ATOM     10  C   UNL d   1       0.882  -2.696   4.504  0.00  0.00     0.069 A 
ATOM     11  C   UNL d   1      -0.385  -2.213   4.181  0.00  0.00     0.039 A 
ATOM     12  C   UNL d   1      -0.572  -1.440   3.030  0.00  0.00     0.032 A 
BRANCH  10  13
ATOM     13  O   UNL d   1       1.181  -3.498   5.569  0.00  0.00    -0.347 OA
BRANCH  13  14
ATOM     14  C   UNL d   1       0.092  -4.261   6.085  0.00  0.00     0.214 C 
BRANCH  14  15
ATOM     15  C   UNL d   1       0.627  -5.459   6.829  0.00  0.00    -0.034 A 
ATOM     16  C   UNL d   1       0.256  -5.700   8.158  0.00  0.00     0.009 A 
ATOM     17  C   UNL d   1       0.701  -6.847   8.819  0.00  0.00     0.001 A 
ATOM     18  C   UNL d   1       1.518  -7.762   8.158  0.00  0.00     0.000 A 
ATOM     19  C   UNL d   1       1.899  -7.530   6.838  0.00  0.00     0.001 A 
ATOM     20  C   UNL d   1       1.456  -6.384   6.176  0.00  0.00     0.009 A 
ENDBRANCH  14  15
ENDBRANCH  13  14
ENDBRANCH  10  13
ENDBRANCH   3   7
BRANCH   2  21
ATOM     21  C   UNL d   1       1.243   1.424  -1.974  0.00  0.00     0.036 A 
ATOM     22  C   UNL d   1       2.497   1.020  -2.418  0.00  0.00     0.032 A 
ATOM     23  C   UNL d   1       3.124   1.671  -3.484  0.00  0.00     0.031 A 
ATOM     24  C   UNL d   1       2.517   2.728  -4.171  0.00  0.00     0.030 A 
ATOM     25  C   UNL d   1       1.237   3.099  -3.734  0.00  0.00     0.031 A 
ATOM     26  C   UNL d   1       0.607   2.465  -2.652  0.00  0.00     0.032 A 
BRANCH  24  27
ATOM     27  N   UNL d   1       3.151   3.349  -5.235  0.00  0.00    -0.382 N 
BRANCH  27  28
ATOM     28  C   UNL d   1       4.604   3.551  -5.213  0.00  0.00     0.118 C 
ATOM     29  C   UNL d   1       5.326   2.541  -6.092  0.00  0.00     0.026 C 
ENDBRANCH  27  28
BRANCH  27  30
ATOM     30  C   UNL d   1       2.397   3.896  -6.365  0.00  0.00     0.118 C 
ATOM     31  C   UNL d   1       1.692   2.789  -7.140  0.00  0.00     0.026 C 
ENDBRANCH  27  30
ENDBRANCH  24  27
ENDBRANCH   2  21
TORSDOF 8
