REMARK  4 active torsions:
REMARK  status: ('A' for Active; 'I' for Inactive)
REMARK    1  A    between atoms: S_6  and  C_1 
REMARK    2  A    between atoms: S_4  and  C_2 
REMARK    3  A    between atoms: S_5  and  C_3 
REMARK    4  A    between atoms: C_7  and  C_10 
ROOT
ATOM      1  C   UNL d   1       1.484  -0.352  -0.044  0.00  0.00     0.101 A 
ATOM      2  C   UNL d   1       0.531  -1.400  -0.045  0.00  0.00     0.082 A 
ATOM      3  C   UNL d   1       0.962   0.990  -0.099  0.00  0.00     0.082 A 
ATOM      4  C   UNL d   1      -0.862  -1.101  -0.055  0.00  0.00     0.041 A 
ATOM      5  C   UNL d   1      -0.434   1.231  -0.081  0.00  0.00     0.041 A 
ATOM      6  C   UNL d   1      -1.358   0.197  -0.051  0.00  0.00     0.050 A 
ENDROOT
BRANCH   1   7
ATOM      7  S   UNL d   1       3.237  -0.460   0.258  0.00  0.00     0.174 S 
ATOM      8  O   UNL d   1       3.873   0.172  -0.877  0.00  0.00    -0.223 OA
ATOM      9  O   UNL d   1       3.337   0.148   1.577  0.00  0.00    -0.223 OA
ATOM     10  C   UNL d   1       4.078  -1.969   0.440  0.00  0.00     0.167 C 
ENDBRANCH   1   7
BRANCH   2  11
ATOM     11  S   UNL d   1       0.774  -3.162  -0.202  0.00  0.00     0.173 S 
ATOM     12  O   UNL d   1      -0.066  -3.589  -1.307  0.00  0.00    -0.223 OA
ATOM     13  O   UNL d   1       2.178  -3.466  -0.220  0.00  0.00    -0.223 OA
ATOM     14  C   UNL d   1       0.098  -3.851   1.291  0.00  0.00     0.167 C 
ENDBRANCH   2  11
BRANCH   3  15
ATOM     15  S   UNL d   1       1.910   2.513  -0.451  0.00  0.00     0.173 S 
ATOM     16  O   UNL d   1       2.517   2.333  -1.752  0.00  0.00    -0.223 OA
ATOM     17  O   UNL d   1       0.955   3.601  -0.288  0.00  0.00    -0.223 OA
ATOM     18  C   UNL d   1       3.132   2.842   0.775  0.00  0.00     0.167 C 
ENDBRANCH   3  15
BRANCH   6  19
ATOM     19  C   UNL d   1      -2.841   0.491  -0.086  0.00  0.00     0.417 C 
ATOM     20  F   UNL d   1      -3.607  -0.635  -0.054  0.00  0.00    -0.166 F 
ATOM     21  F   UNL d   1      -3.241   1.243   0.974  0.00  0.00    -0.166 F 
ATOM     22  F   UNL d   1      -3.212   1.170  -1.202  0.00  0.00    -0.166 F 
ENDBRANCH   6  19
TORSDOF 4
