REMARK  3 active torsions:
REMARK  status: ('A' for Active; 'I' for Inactive)
REMARK    1  A    between atoms: C_2  and  S_1 
REMARK    2  A    between atoms: C_4  and  S_1 
REMARK    3  A    between atoms: C_3  and  C_4 
ROOT
ATOM      1  S   UNL d   1       1.096  -0.023   0.108  0.00  0.00     0.181 S 
ATOM      2  O   UNL d   1       0.736   0.873  -0.976  0.00  0.00    -0.222 OA
ATOM      3  O   UNL d   1       2.477  -0.290   0.451  0.00  0.00    -0.222 OA
ENDROOT
BRANCH   1   4
ATOM      4  C   UNL d   1       0.379  -1.606  -0.315  0.00  0.00     0.081 A 
ATOM      5  C   UNL d   1       0.834  -2.297  -1.441  0.00  0.00     0.057 A 
ATOM      6  C   UNL d   1       0.235  -3.512  -1.794  0.00  0.00     0.049 A 
ATOM      7 CL   UNL d   1       2.113  -1.742  -2.458  0.00  0.00    -0.083 Cl
ATOM      8  C   UNL d   1      -0.818  -4.039  -1.042  0.00  0.00     0.041 A 
ATOM      9  C   UNL d   1      -1.281  -3.364   0.096  0.00  0.00    -0.039 A 
ATOM     10 CL   UNL d   1      -1.513  -5.526  -1.575  0.00  0.00    -0.084 Cl
ATOM     11  C   UNL d   1      -0.662  -2.152   0.455  0.00  0.00     0.033 A 
ATOM     12  C   UNL d   1      -2.426  -3.839   0.949  0.00  0.00     0.050 C 
ENDBRANCH   1   4
BRANCH   1  13
ATOM     13  C   UNL d   1       0.246   0.519   1.583  0.00  0.00     0.187 C 
BRANCH  13  14
ATOM     14  C   UNL d   1       0.693   1.894   2.021  0.00  0.00    -0.001 A 
ATOM     15  C   UNL d   1      -0.007   3.051   1.620  0.00  0.00     0.043 A 
ATOM     16 CL   UNL d   1      -1.355   2.988   0.536  0.00  0.00    -0.084 Cl
ATOM     17  C   UNL d   1       0.329   4.313   2.125  0.00  0.00     0.024 A 
ATOM     18  C   UNL d   1       1.382   4.454   3.022  0.00  0.00     0.003 A 
ATOM     19  C   UNL d   1       2.112   3.332   3.401  0.00  0.00     0.024 A 
ATOM     20  C   UNL d   1       1.772   2.066   2.910  0.00  0.00     0.043 A 
ATOM     21 CL   UNL d   1       2.695   0.732   3.511  0.00  0.00    -0.084 Cl
ENDBRANCH  13  14
ENDBRANCH   1  13
TORSDOF 3
