REMARK  7 active torsions:
REMARK  status: ('A' for Active; 'I' for Inactive)
REMARK    1  A    between atoms: C_9  and  N_1 
REMARK    2  A    between atoms: S_12  and  C_2 
REMARK    3  A    between atoms: C_11  and  C_3 
REMARK    4  A    between atoms: C_8  and  S_10 
REMARK    5  A    between atoms: S_10  and  C_17 
REMARK    6  A    between atoms: O_13  and  C_11 
REMARK    7  A    between atoms: C_18  and  O_13 
ROOT
ATOM      1  N   UNL d   1      -0.364  -0.926  -0.809  0.00  0.00    -0.277 N 
ATOM      2  C   UNL d   1       0.869  -0.580  -0.258  0.00  0.00     0.164 A 
ATOM      3  C   UNL d   1      -1.275  -0.248   0.007  0.00  0.00     0.129 A 
ATOM      4  N   UNL d   1       0.708   0.172   0.803  0.00  0.00    -0.278 N 
ATOM      5  HN  UNL d   1       1.451   0.531   1.403  1.00  0.00     0.189 HD
ATOM      6  N   UNL d   1      -0.623   0.390   0.963  0.00  0.00    -0.285 N 
ATOM      7  HN  UNL d   1      -1.048   0.953   1.699  1.00  0.00     0.188 HD
ENDROOT
BRANCH   3   8
ATOM      8  C   UNL d   1      -2.764  -0.239  -0.059  0.00  0.00     0.254 C 
BRANCH   8   9
ATOM      9  O   UNL d   1      -3.236  -1.581   0.031  0.00  0.00    -0.344 OA
BRANCH   9  10
ATOM     10  C   UNL d   1      -4.598  -1.736   0.017  0.00  0.00     0.069 A 
ATOM     11  C   UNL d   1      -5.041  -3.009  -0.342  0.00  0.00     0.038 A 
ATOM     12  C   UNL d   1      -6.409  -3.298  -0.402  0.00  0.00     0.021 A 
ATOM     13  C   UNL d   1      -7.353  -2.316  -0.096  0.00  0.00     0.009 A 
ATOM     14  C   UNL d   1      -6.909  -1.055   0.308  0.00  0.00     0.021 A 
ATOM     15  C   UNL d   1      -5.538  -0.762   0.360  0.00  0.00     0.038 A 
BRANCH  13  16
ATOM     16  S   UNL d   1      -9.084  -2.727  -0.123  0.00  0.00    -0.016 SA
BRANCH  16  17
ATOM     17  C   UNL d   1      -9.693  -1.644  -1.425  0.00  0.00     0.448 C 
ATOM     18  F   UNL d   1      -8.769  -0.770  -1.889  0.00  0.00    -0.160 F 
ATOM     19  F   UNL d   1     -10.127  -2.365  -2.488  0.00  0.00    -0.160 F 
ATOM     20  F   UNL d   1     -10.744  -0.911  -0.985  0.00  0.00    -0.160 F 
ENDBRANCH  16  17
ENDBRANCH  13  16
ENDBRANCH   9  10
ENDBRANCH   8   9
ENDBRANCH   3   8
BRANCH   1  21
ATOM     21  C   UNL d   1      -0.620  -1.758  -1.943  0.00  0.00     0.043 A 
ATOM     22  C   UNL d   1       0.208  -2.859  -2.220  0.00  0.00     0.030 A 
ATOM     23  C   UNL d   1       0.015  -3.632  -3.368  0.00  0.00     0.002 A 
ATOM     24  C   UNL d   1      -1.031  -3.341  -4.237  0.00  0.00     0.000 A 
ATOM     25  C   UNL d   1      -1.884  -2.276  -3.954  0.00  0.00     0.002 A 
ATOM     26  C   UNL d   1      -1.679  -1.485  -2.819  0.00  0.00     0.030 A 
ENDBRANCH   1  21
BRANCH   2  27
ATOM     27  S   UNL d   1       2.449  -0.860  -0.929  0.00  0.00    -0.105 SA
ATOM     28  H   UNL d   1       2.115  -1.142  -2.194  0.00  0.00     0.110 HD
ENDBRANCH   2  27
TORSDOF 7
