REMARK  4 active torsions:
REMARK  status: ('A' for Active; 'I' for Inactive)
REMARK    1  A    between atoms: C_2  and  S_1 
REMARK    2  A    between atoms: N_4  and  S_1 
REMARK    3  A    between atoms: C_7  and  N_4 
REMARK    4  A    between atoms: C_5  and  C_9 
ROOT
ATOM      1  C   UNL d   1       0.869  -0.287   2.724  0.00  0.00     0.064 A 
ATOM      2  C   UNL d   1       1.488  -1.964   4.908  0.00  0.00     0.049 A 
ATOM      3  C   UNL d   1       2.203  -0.634   2.996  0.00  0.00     0.062 A 
ATOM      4  C   UNL d   1       2.507  -1.466   4.080  0.00  0.00     0.042 A 
ATOM      5  C   UNL d   1      -0.147  -0.785   3.544  0.00  0.00     0.032 A 
ATOM      6  C   UNL d   1       0.159  -1.616   4.625  0.00  0.00     0.018 A 
ATOM      7 CL   UNL d   1       3.522   0.018   2.092  0.00  0.00    -0.082 Cl
ENDROOT
BRANCH   1   8
ATOM      8  N   UNL d   1       0.503   0.546   1.619  0.00  0.00    -0.278 N 
ATOM      9  H   UNL d   1      -0.253   1.210   1.782  0.00  0.00     0.179 HD
BRANCH   8  10
ATOM     10  S   UNL d   1       0.344  -0.177   0.095  0.00  0.00     0.269 S 
ATOM     11  O   UNL d   1      -0.075   0.861  -0.819  0.00  0.00    -0.200 OA
ATOM     12  O   UNL d   1       1.486  -1.023  -0.178  0.00  0.00    -0.200 OA
BRANCH  10  13
ATOM     13  C   UNL d   1      -1.028  -1.316   0.134  0.00  0.00     0.121 A 
ATOM     14  S   UNL d   1      -2.549  -0.676   0.594  0.00  0.00    -0.069 SA
ATOM     15  C   UNL d   1      -3.297  -2.185   0.401  0.00  0.00     0.052 A 
ATOM     16 BR   UNL d   1      -5.121  -2.471   0.721  0.00  0.00    -0.043 Br
ATOM     17  C   UNL d   1      -2.439  -3.171  -0.014  0.00  0.00     0.028 A 
ATOM     18  C   UNL d   1      -1.115  -2.664  -0.169  0.00  0.00     0.035 A 
ENDBRANCH  10  13
ENDBRANCH   8  10
ENDBRANCH   1   8
BRANCH   2  19
ATOM     19  C   UNL d   1       1.799  -2.841   6.098  0.00  0.00     0.417 C 
ATOM     20  F   UNL d   1       3.126  -3.100   6.254  0.00  0.00    -0.166 F 
ATOM     21  F   UNL d   1       1.385  -2.284   7.269  0.00  0.00    -0.166 F 
ATOM     22  F   UNL d   1       1.184  -4.053   6.022  0.00  0.00    -0.166 F 
ENDBRANCH   2  19
TORSDOF 4
