REMARK  5 active torsions:
REMARK  status: ('A' for Active; 'I' for Inactive)
REMARK    1  A    between atoms: C_4  and  C_1 
REMARK       I    between atoms: N_10  and  C_4 
REMARK    2  A    between atoms: C_13  and  C_6 
REMARK    3  A    between atoms: O_9  and  C_13 
REMARK    4  A    between atoms: C_11  and  O_9 
REMARK    5  A    between atoms: N_14  and  N_10 
ROOT
ATOM      1  C   UNL d   1       0.306   1.062  -0.335  0.00  0.00     0.109 A 
ATOM      2  N   UNL d   1      -0.101  -0.213  -0.745  0.00  0.00    -0.347 N 
ATOM      3  HN  UNL d   1      -0.718  -0.405  -1.534  1.00  0.00     0.166 HD
ATOM      4  C   UNL d   1       1.158   1.070   0.754  0.00  0.00     0.086 A 
ATOM      5  C   UNL d   1       0.431  -1.132   0.040  0.00  0.00     0.075 A 
ATOM      6  S   UNL d   1       1.456  -0.526   1.288  0.00  0.00    -0.084 SA
ENDROOT
BRANCH   5   7
ATOM      7  C   UNL d   1       0.091  -2.595  -0.004  0.00  0.00     0.240 C 
BRANCH   7   8
ATOM      8  O   UNL d   1       1.296  -3.343  -0.190  0.00  0.00    -0.343 OA
BRANCH   8   9
ATOM      9  C   UNL d   1       1.170  -4.709  -0.111  0.00  0.00     0.090 A 
ATOM     10  C   UNL d   1       2.045  -5.498  -0.874  0.00  0.00     0.067 A 
ATOM     11 CL   UNL d   1       3.213  -4.784  -1.927  0.00  0.00    -0.081 Cl
ATOM     12  C   UNL d   1       1.988  -6.894  -0.809  0.00  0.00     0.026 A 
ATOM     13  C   UNL d   1       1.065  -7.519   0.029  0.00  0.00     0.002 A 
ATOM     14  C   UNL d   1       0.209  -6.747   0.807  0.00  0.00     0.003 A 
ATOM     15  C   UNL d   1       0.262  -5.354   0.744  0.00  0.00     0.038 A 
ENDBRANCH   8   9
ENDBRANCH   7   8
ENDBRANCH   5   7
BRANCH   1  16
ATOM     16  C   UNL d   1      -0.174   2.276  -1.000  0.00  0.00     0.282 C 
ATOM     17  O   UNL d   1       0.110   3.413  -0.631  0.00  0.00    -0.265 OA
ATOM     18  N   UNL d   1      -1.002   2.006  -2.084  0.00  0.00    -0.288 N 
ATOM     19  H   UNL d   1      -1.108   1.032  -2.368  0.00  0.00     0.183 HD
BRANCH  18  20
ATOM     20  N   UNL d   1      -1.519   3.054  -2.879  0.00  0.00    -0.247 NA
ATOM     21  H   UNL d   1      -1.046   3.919  -2.583  0.00  0.00     0.143 HD
ATOM     22  H   UNL d   1      -2.496   3.198  -2.612  0.00  0.00     0.143 HD
ENDBRANCH  18  20
ENDBRANCH   1  16
TORSDOF 5
