REMARK  4 active torsions:
REMARK  status: ('A' for Active; 'I' for Inactive)
REMARK    1  A    between atoms: C_8  and  C_1 
REMARK    2  A    between atoms: N_7  and  C_2 
REMARK    3  A    between atoms: S_9  and  C_8 
REMARK    4  A    between atoms: C_13  and  S_9 
ROOT
ATOM      1  C   UNL d   1       0.644  -1.283  -0.057  0.00  0.00     0.143 C 
ATOM      2  C   UNL d   1       0.633   0.079   0.259  0.00  0.00     0.159 C 
ATOM      3  N   UNL d   1      -0.620  -1.485  -0.588  0.00  0.00    -0.290 N 
ATOM      4  N   UNL d   1      -1.308  -0.348  -0.815  0.00  0.00    -0.300 N 
ATOM      5  HN  UNL d   1      -2.198  -0.245  -1.302  1.00  0.00     0.187 HD
ATOM      6  C   UNL d   1      -0.567   0.613  -0.262  0.00  0.00     0.057 C 
ATOM      7  C   UNL d   1      -1.305  -2.716  -0.921  0.00  0.00     0.178 C 
ATOM      8  C   UNL d   1      -1.085   2.005  -0.240  0.00  0.00     0.072 C 
ENDROOT
BRANCH   1   9
ATOM      9  C   UNL d   1       1.629  -2.334   0.110  0.00  0.00     0.244 C 
ATOM     10  O   UNL d   1       1.356  -3.528   0.093  0.00  0.00    -0.278 OA
BRANCH   9  11
ATOM     11  S   UNL d   1       3.299  -1.836   0.311  0.00  0.00    -0.046 SA
BRANCH  11  12
ATOM     12  C   UNL d   1       4.198  -2.517  -1.073  0.00  0.00     0.008 A 
ATOM     13  C   UNL d   1       3.657  -3.325  -2.075  0.00  0.00     0.019 A 
ATOM     14  C   UNL d   1       4.427  -3.702  -3.185  0.00  0.00     0.008 A 
ATOM     15  C   UNL d   1       5.750  -3.269  -3.318  0.00  0.00    -0.062 A 
ATOM     16  C   UNL d   1       6.323  -2.537  -2.277  0.00  0.00     0.008 A 
ATOM     17  C   UNL d   1       6.548  -3.599  -4.546  0.00  0.00     0.048 C 
ATOM     18  C   UNL d   1       5.553  -2.162  -1.171  0.00  0.00     0.019 A 
ENDBRANCH  11  12
ENDBRANCH   9  11
ENDBRANCH   1   9
BRANCH   2  19
ATOM     19  N   UNL d   1       1.594   0.808   1.016  0.00  0.00    -0.111 N 
ATOM     20  O   UNL d   1       1.854   0.372   2.143  0.00  0.00    -0.532 OA
ATOM     21  O   UNL d   1       2.046   1.839   0.501  0.00  0.00    -0.532 OA
ENDBRANCH   2  19
TORSDOF 4
