REMARK  4 active torsions:
REMARK  status: ('A' for Active; 'I' for Inactive)
REMARK    1  A    between atoms: N_5  and  C_1 
REMARK    2  A    between atoms: C_4  and  C_7 
REMARK       I    between atoms: C_6  and  N_9 
REMARK    3  A    between atoms: C_8  and  C_6 
REMARK    4  A    between atoms: N_9  and  C_22 
ROOT
ATOM      1  N   UNL d   1       0.227   2.666   0.241  0.00  0.00    -0.254 NA
ATOM      2  C   UNL d   1      -0.549   3.317   1.292  0.00  0.00     0.100 C 
ATOM      3  C   UNL d   1       0.219   3.345  -1.056  0.00  0.00     0.100 C 
ATOM      4  C   UNL d   1      -0.010   5.544   0.167  0.00  0.00     0.087 C 
ATOM      5  C   UNL d   1       0.776   4.752  -0.885  0.00  0.00     0.040 C 
ATOM      6  C   UNL d   1      -0.051   4.755   1.484  0.00  0.00     0.040 C 
ENDROOT
BRANCH   1   7
ATOM      7  C   UNL d   1       0.059   1.287   0.124  0.00  0.00     0.159 A 
ATOM      8  N   UNL d   1       0.759   0.658  -0.831  0.00  0.00    -0.329 N 
ATOM      9  C   UNL d   1       0.667  -0.691  -0.942  0.00  0.00     0.120 A 
ATOM     10  HN  UNL d   1       1.354   1.188  -1.468  1.00  0.00     0.168 HD
ATOM     11  C   UNL d   1      -0.154  -1.426  -0.112  0.00  0.00     0.051 A 
ATOM     12  C   UNL d   1      -0.841  -0.707   0.833  0.00  0.00     0.093 A 
ATOM     13  N   UNL d   1      -0.742   0.628   0.974  0.00  0.00    -0.343 N 
ATOM     14  HN  UNL d   1      -1.258   1.122   1.702  1.00  0.00     0.167 HD
BRANCH   9  15
ATOM     15  C   UNL d   1       1.491  -1.400  -1.998  0.00  0.00     0.432 C 
ATOM     16  F   UNL d   1       2.306  -0.583  -2.725  0.00  0.00    -0.165 F 
ATOM     17  F   UNL d   1       2.306  -2.357  -1.466  0.00  0.00    -0.165 F 
ATOM     18  F   UNL d   1       0.713  -2.055  -2.911  0.00  0.00    -0.165 F 
ENDBRANCH   9  15
ENDBRANCH   1   7
BRANCH   4  19
ATOM     19  N   UNL d   1      -1.353   5.906  -0.274  0.00  0.00    -0.351 N 
ATOM     20  C   UNL d   1      -1.606   6.733  -1.351  0.00  0.00     0.275 C 
ATOM     21  O   UNL d   1      -0.719   7.168  -2.080  0.00  0.00    -0.265 OA
ATOM     22  H   UNL d   1      -2.150   5.715   0.325  0.00  0.00     0.163 HD
BRANCH  20  23
ATOM     23  C   UNL d   1      -3.008   7.035  -1.542  0.00  0.00     0.142 A 
ATOM     24  O   UNL d   1      -3.929   6.585  -0.629  0.00  0.00    -0.317 OA
ATOM     25  C   UNL d   1      -5.149   7.014  -1.049  0.00  0.00     0.143 A 
ATOM     26  C   UNL d   1      -5.034   7.728  -2.218  0.00  0.00     0.027 A 
ATOM     27  C   UNL d   1      -3.656   7.743  -2.537  0.00  0.00     0.045 A 
ENDBRANCH  20  23
ENDBRANCH   4  19
TORSDOF 4
