REMARK  6 active torsions:
REMARK  status: ('A' for Active; 'I' for Inactive)
REMARK    1  A    between atoms: C_11  and  C_1 
REMARK    2  A    between atoms: C_12  and  C_6 
REMARK    3  A    between atoms: C_18  and  C_10 
REMARK    4  A    between atoms: O_16  and  C_11 
REMARK    5  A    between atoms: O_17  and  C_12 
REMARK    6  A    between atoms: O_19  and  C_18 
ROOT
ATOM      1  C   UNL d   1      -2.075  -0.115   0.048  0.00  0.00     0.109 A 
ATOM      2  C   UNL d   1       0.080   0.831   0.001  0.00  0.00     0.027 A 
ATOM      3  C   UNL d   1       0.364  -0.519   0.108  0.00  0.00     0.087 A 
ATOM      4  S   UNL d   1      -1.033  -1.483   0.144  0.00  0.00    -0.063 SA
ATOM      5  C   UNL d   1      -1.337   1.056  -0.009  0.00  0.00     0.062 A 
ATOM      6  C   UNL d   1       2.493   1.169  -0.105  0.00  0.00     0.065 A 
ATOM      7  N   UNL d   1       1.588  -1.078   0.166  0.00  0.00    -0.350 N 
ATOM      8  HN  UNL d   1       1.720  -2.083   0.276  1.00  0.00     0.166 HD
ATOM      9  C   UNL d   1       1.188   1.697  -0.096  0.00  0.00     0.036 A 
ATOM     10  C   UNL d   1       2.642  -0.215   0.068  0.00  0.00     0.050 A 
ATOM     11  N   UNL d   1      -1.875   2.296  -0.086  0.00  0.00    -0.397 N 
ATOM     12  H   UNL d   1      -1.331   3.146   0.023  0.00  0.00     0.156 HD
ATOM     13  H   UNL d   1      -2.881   2.439   0.005  0.00  0.00     0.156 HD
ENDROOT
BRANCH   1  14
ATOM     14  C   UNL d   1      -3.510  -0.346   0.043  0.00  0.00     0.302 C 
ATOM     15  O   UNL d   1      -4.072  -1.435   0.061  0.00  0.00    -0.259 OA
BRANCH  14  16
ATOM     16  O   UNL d   1      -4.185   0.846   0.019  0.00  0.00    -0.322 OA
ATOM     17  C   UNL d   1      -5.607   0.721   0.021  0.00  0.00     0.213 C 
ENDBRANCH  14  16
ENDBRANCH   1  14
BRANCH  10  18
ATOM     18  C   UNL d   1       3.991  -0.904   0.122  0.00  0.00     0.225 C 
BRANCH  18  19
ATOM     19  O   UNL d   1       4.762  -0.474   1.245  0.00  0.00    -0.390 OA
ATOM     20  C   UNL d   1       6.005  -1.171   1.313  0.00  0.00     0.201 C 
ENDBRANCH  18  19
ENDBRANCH  10  18
BRANCH   6  21
ATOM     21  C   UNL d   1       3.647   2.078  -0.385  0.00  0.00     0.295 C 
ATOM     22  O   UNL d   1       4.814   1.738  -0.479  0.00  0.00    -0.259 OA
BRANCH  21  23
ATOM     23  O   UNL d   1       3.190   3.336  -0.619  0.00  0.00    -0.322 OA
ATOM     24  C   UNL d   1       4.175   4.294  -1.021  0.00  0.00     0.213 C 
ENDBRANCH  21  23
ENDBRANCH   6  21
TORSDOF 6
