REMARK  3 active torsions:
REMARK  status: ('A' for Active; 'I' for Inactive)
REMARK    1  A    between atoms: N_5  and  C_1 
REMARK    2  A    between atoms: C_10  and  C_4 
REMARK       I    between atoms: C_6  and  N_5 
REMARK       I    between atoms: N_9  and  C_6 
REMARK    3  A    between atoms: C_11  and  N_9 
ROOT
ATOM      1  C   UNL d   1       0.013  -1.166  -0.308  0.00  0.00     0.152 A 
ATOM      2  N   UNL d   1       0.942  -0.410   0.226  0.00  0.00    -0.335 N 
ATOM      3  HN  UNL d   1       1.868  -0.723   0.517  1.00  0.00     0.168 HD
ATOM      4  C   UNL d   1       0.454   0.894   0.332  0.00  0.00     0.051 A 
ATOM      5  S   UNL d   1      -1.438  -0.404  -0.770  0.00  0.00    -0.063 SA
ATOM      6  C   UNL d   1      -0.794   1.089  -0.236  0.00  0.00     0.083 A 
ENDROOT
BRANCH   1   7
ATOM      7  N   UNL d   1       0.017  -2.502  -0.556  0.00  0.00    -0.288 N 
ATOM      8  C   UNL d   1       1.074  -3.351  -0.544  0.00  0.00     0.326 C 
ATOM      9  N   UNL d   1       2.308  -2.835  -0.264  0.00  0.00    -0.307 N 
ATOM     10  O   UNL d   1       0.851  -4.524  -0.841  0.00  0.00    -0.247 OA
ATOM     11  H   UNL d   1       2.324  -1.975   0.282  0.00  0.00     0.170 HD
ATOM     12  H   UNL d   1      -0.843  -2.914  -0.887  0.00  0.00     0.172 HD
BRANCH   9  13
ATOM     13  C   UNL d   1       3.552  -3.456  -0.539  0.00  0.00     0.058 A 
ATOM     14  C   UNL d   1       4.725  -2.980   0.071  0.00  0.00     0.062 A 
ATOM     15  C   UNL d   1       5.971  -3.542  -0.227  0.00  0.00     0.050 A 
ATOM     16 CL   UNL d   1       4.674  -1.702   1.235  0.00  0.00    -0.082 Cl
ATOM     17  C   UNL d   1       6.055  -4.578  -1.152  0.00  0.00     0.035 A 
ATOM     18  C   UNL d   1       4.908  -5.061  -1.773  0.00  0.00     0.026 A 
ATOM     19 CL   UNL d   1       7.585  -5.262  -1.542  0.00  0.00    -0.084 Cl
ATOM     20  C   UNL d   1       3.663  -4.503  -1.464  0.00  0.00     0.033 A 
ENDBRANCH   9  13
ENDBRANCH   1   7
BRANCH   4  21
ATOM     21  C   UNL d   1       1.207   1.943   1.021  0.00  0.00    -0.006 A 
ATOM     22  C   UNL d   1       2.562   1.744   1.319  0.00  0.00     0.059 A 
ATOM     23  C   UNL d   1       3.269   2.701   2.045  0.00  0.00     0.155 A 
ATOM     24  F   UNL d   1       4.561   2.483   2.334  0.00  0.00    -0.203 F 
ATOM     25  C   UNL d   1       2.646   3.863   2.478  0.00  0.00     0.154 A 
ATOM     26  C   UNL d   1       1.310   4.090   2.183  0.00  0.00     0.046 A 
ATOM     27  F   UNL d   1       3.324   4.772   3.193  0.00  0.00    -0.203 F 
ATOM     28  C   UNL d   1       0.592   3.133   1.457  0.00  0.00     0.017 A 
ENDBRANCH   4  21
TORSDOF 3
