REMARK  5 active torsions:
REMARK  status: ('A' for Active; 'I' for Inactive)
REMARK       I    between atoms: N_2  and  C_1 
REMARK    1  A    between atoms: C_5  and  C_1 
REMARK    2  A    between atoms: C_17  and  N_2 
REMARK    3  A    between atoms: O_12  and  C_6 
REMARK    4  A    between atoms: C_7  and  C_8 
REMARK    5  A    between atoms: C_20  and  O_12 
ROOT
ATOM      1  N   UNL d   1       3.114   1.469   3.504  0.00  0.00    -0.344 N 
ATOM      2  HN  UNL d   1       4.022   1.931   3.468  1.00  0.00     0.167 HD
ATOM      3  C   UNL d   1       2.533   1.150   4.679  0.00  0.00     0.148 A 
ATOM      4  C   UNL d   1       1.186   0.542   2.363  0.00  0.00     0.050 A 
ATOM      5  C   UNL d   1       2.438   1.148   2.377  0.00  0.00     0.119 A 
ATOM      6  C   UNL d   1       1.259   0.611   4.779  0.00  0.00     0.059 A 
ATOM      7  C   UNL d   1       0.576   0.308   3.599  0.00  0.00     0.035 A 
ENDROOT
BRANCH   4   8
ATOM      8  N   UNL d   1       0.509   0.144   1.191  0.00  0.00    -0.322 N 
ATOM      9  C   UNL d   1       1.081   0.054  -0.066  0.00  0.00     0.256 C 
ATOM     10  O   UNL d   1       2.257   0.258  -0.344  0.00  0.00    -0.267 OA
ATOM     11  H   UNL d   1      -0.417  -0.245   1.311  0.00  0.00     0.169 HD
BRANCH   9  12
ATOM     12  C   UNL d   1       0.173  -0.408  -1.144  0.00  0.00     0.032 A 
ATOM     13  C   UNL d   1      -1.158   0.002  -1.208  0.00  0.00     0.017 A 
ATOM     14  C   UNL d   1      -1.978  -0.467  -2.239  0.00  0.00     0.009 A 
ATOM     15  C   UNL d   1      -1.494  -1.353  -3.224  0.00  0.00    -0.051 A 
ATOM     16  C   UNL d   1      -0.141  -1.726  -3.153  0.00  0.00     0.009 A 
ATOM     17  C   UNL d   1       0.685  -1.256  -2.128  0.00  0.00     0.017 A 
BRANCH  15  18
ATOM     18  C   UNL d   1      -2.439  -1.880  -4.319  0.00  0.00    -0.024 C 
ATOM     19  C   UNL d   1      -1.768  -2.865  -5.303  0.00  0.00     0.019 C 
ATOM     20  C   UNL d   1      -3.615  -2.630  -3.656  0.00  0.00     0.019 C 
ATOM     21  C   UNL d   1      -2.987  -0.702  -5.151  0.00  0.00     0.019 C 
ENDBRANCH  15  18
ENDBRANCH   9  12
ENDBRANCH   4   8
BRANCH   3  22
ATOM     22  O   UNL d   1       3.229   1.361   5.860  0.00  0.00    -0.293 OA
BRANCH  22  23
ATOM     23  C   UNL d   1       4.600   1.278   5.793  0.00  0.00     0.093 A 
ATOM     24  C   UNL d   1       5.345   2.193   6.522  0.00  0.00     0.124 A 
ATOM     25  N   UNL d   1       6.701   2.211   6.559  0.00  0.00    -0.373 N 
ATOM     26  C   UNL d   1       7.335   1.268   5.827  0.00  0.00     0.088 A 
ATOM     27  HN  UNL d   1       7.215   2.899   7.111  1.00  0.00     0.164 HD
ATOM     28  C   UNL d   1       6.682   0.297   5.086  0.00  0.00     0.020 A 
ATOM     29  C   UNL d   1       5.290   0.292   5.087  0.00  0.00     0.040 A 
ENDBRANCH  22  23
ENDBRANCH   3  22
TORSDOF 5
