REMARK  4 active torsions:
REMARK  status: ('A' for Active; 'I' for Inactive)
REMARK    1  A    between atoms: O_12  and  C_3 
REMARK    2  A    between atoms: C_4  and  C_7 
REMARK    3  A    between atoms: C_8  and  C_5 
REMARK    4  A    between atoms: C_11  and  O_12 
ROOT
ATOM      1  N   UNL d   1       1.234  -1.406   0.072  0.00  0.00    -0.350 N 
ATOM      2  HN  UNL d   1       1.233  -2.426   0.097  1.00  0.00     0.166 HD
ATOM      3  C   UNL d   1       1.262   1.358   0.137  0.00  0.00     0.090 A 
ATOM      4  C   UNL d   1       2.416  -0.733   0.035  0.00  0.00     0.119 A 
ATOM      5  C   UNL d   1       0.060  -0.734   0.074  0.00  0.00     0.063 A 
ATOM      6  C   UNL d   1       0.028   0.677   0.086  0.00  0.00     0.026 A 
ATOM      7  C   UNL d   1       2.462   0.653   0.068  0.00  0.00     0.072 A 
ATOM      8  C   UNL d   1      -1.169  -1.411   0.049  0.00  0.00     0.038 A 
ATOM      9 BR   UNL d   1      -1.228  -3.316   0.080  0.00  0.00    -0.049 Br
ATOM     10  C   UNL d   1      -1.215   1.351   0.037  0.00  0.00     0.017 A 
ATOM     11  C   UNL d   1      -2.416   0.648  -0.022  0.00  0.00     0.002 A 
ATOM     12  C   UNL d   1      -2.394  -0.738  -0.007  0.00  0.00     0.021 A 
ENDROOT
BRANCH   3  13
ATOM     13  O   UNL d   1       1.230   2.743   0.169  0.00  0.00    -0.309 OA
BRANCH  13  14
ATOM     14  C   UNL d   1       2.150   3.433   0.929  0.00  0.00     0.091 A 
ATOM     15  C   UNL d   1       2.584   4.688   0.470  0.00  0.00     0.081 A 
ATOM     16  C   UNL d   1       3.541   5.394   1.229  0.00  0.00     0.019 A 
ATOM     17  C   UNL d   1       4.034   4.878   2.426  0.00  0.00     0.001 A 
ATOM     18  C   UNL d   1       3.555   3.661   2.901  0.00  0.00     0.003 A 
ATOM     19  C   UNL d   1       2.605   2.952   2.167  0.00  0.00     0.038 A 
BRANCH  15  20
ATOM     20  C   UNL d   1       2.059   5.342  -0.783  0.00  0.00     0.420 C 
ATOM     21  F   UNL d   1       1.155   4.618  -1.498  0.00  0.00    -0.166 F 
ATOM     22  F   UNL d   1       1.441   6.530  -0.513  0.00  0.00    -0.166 F 
ATOM     23  F   UNL d   1       3.060   5.646  -1.658  0.00  0.00    -0.166 F 
ENDBRANCH  15  20
ENDBRANCH  13  14
ENDBRANCH   3  13
BRANCH   4  24
ATOM     24  C   UNL d   1       3.721  -1.513  -0.052  0.00  0.00     0.432 C 
ATOM     25  F   UNL d   1       3.568  -2.854  -0.228  0.00  0.00    -0.165 F 
ATOM     26  F   UNL d   1       4.505  -1.090  -1.088  0.00  0.00    -0.165 F 
ATOM     27  F   UNL d   1       4.490  -1.366   1.067  0.00  0.00    -0.165 F 
ENDBRANCH   4  24
TORSDOF 4
