REMARK  3 active torsions:
REMARK  status: ('A' for Active; 'I' for Inactive)
REMARK    1  A    between atoms: N_2  and  S_1 
REMARK    2  A    between atoms: C_8  and  S_1 
REMARK    3  A    between atoms: C_3  and  N_2 
ROOT
ATOM      1  S   UNL d   1       1.056  -0.087  -0.029  0.00  0.00     0.247 S 
ATOM      2  O   UNL d   1       0.378  -0.971   0.893  0.00  0.00    -0.205 OA
ATOM      3  O   UNL d   1       2.494  -0.080  -0.173  0.00  0.00    -0.205 OA
ENDROOT
BRANCH   1   4
ATOM      4  N   UNL d   1       0.471   1.476   0.312  0.00  0.00    -0.165 NA
ATOM      5  H   UNL d   1      -0.143   1.342   1.119  0.00  0.00     0.147 HD
BRANCH   4   6
ATOM      6  C   UNL d   1       1.438   2.436   0.604  0.00  0.00     0.117 A 
ATOM      7  N   UNL d   1       1.808   2.700   1.857  0.00  0.00    -0.249 N 
ATOM      8  O   UNL d   1       2.792   3.672   1.754  0.00  0.00    -0.241 OA
ATOM      9  HN  UNL d   1       1.444   2.278   2.710  1.00  0.00     0.196 HD
ATOM     10  C   UNL d   1       2.941   4.026   0.447  0.00  0.00     0.075 A 
ATOM     11  C   UNL d   1       2.074   3.285  -0.320  0.00  0.00     0.079 A 
ATOM     12  C   UNL d   1       3.941   5.066   0.153  0.00  0.00     0.079 C 
ENDBRANCH   4   6
ENDBRANCH   1   4
BRANCH   1  13
ATOM     13  C   UNL d   1       0.392  -0.385  -1.652  0.00  0.00     0.075 A 
ATOM     14  C   UNL d   1       0.784   0.451  -2.703  0.00  0.00     0.026 A 
ATOM     15  C   UNL d   1       0.296   0.218  -3.990  0.00  0.00     0.025 A 
ATOM     16  C   UNL d   1      -0.561  -0.859  -4.219  0.00  0.00     0.034 A 
ATOM     17  C   UNL d   1      -0.932  -1.707  -3.174  0.00  0.00     0.025 A 
ATOM     18 CL   UNL d   1      -1.157  -1.144  -5.807  0.00  0.00    -0.084 Cl
ATOM     19  C   UNL d   1      -0.456  -1.472  -1.881  0.00  0.00     0.026 A 
ENDBRANCH   1  13
TORSDOF 3
