REMARK  2 active torsions:
REMARK  status: ('A' for Active; 'I' for Inactive)
REMARK    1  A    between atoms: C_8  and  C_4 
REMARK    2  A    between atoms: O_15  and  C_12 
ROOT
ATOM      1  N   UNL d   1       1.255  -0.070  -1.159  0.00  0.00    -0.297 N 
ATOM      2  HN  UNL d   1       1.815  -0.059  -2.012  1.00  0.00     0.187 HD
ATOM      3  N   UNL d   1      -0.109  -0.138  -1.203  0.00  0.00    -0.266 N 
ATOM      4  C   UNL d   1       1.807  -0.020   0.017  0.00  0.00     0.058 A 
ATOM      5  C   UNL d   1      -0.946  -0.178  -0.119  0.00  0.00     0.259 A 
ATOM      6  C   UNL d   1       1.039  -0.050   1.288  0.00  0.00     0.037 A 
ATOM      7  C   UNL d   1      -0.289  -0.127   1.201  0.00  0.00     0.078 A 
ATOM      8  O   UNL d   1      -2.166  -0.258  -0.206  0.00  0.00    -0.267 OA
ATOM      9  H   UNL d   1      -0.534  -0.178  -2.123  0.00  0.00     0.190 HD
ENDROOT
BRANCH   4  10
ATOM     10  C   UNL d   1       3.293   0.028   0.129  0.00  0.00    -0.008 A 
ATOM     11  C   UNL d   1       3.937   0.701   1.175  0.00  0.00     0.016 A 
ATOM     12  C   UNL d   1       5.332   0.676   1.280  0.00  0.00     0.037 A 
ATOM     13  C   UNL d   1       6.094  -0.005   0.331  0.00  0.00     0.068 A 
ATOM     14  C   UNL d   1       5.455  -0.665  -0.720  0.00  0.00     0.037 A 
ATOM     15  C   UNL d   1       4.062  -0.638  -0.832  0.00  0.00     0.016 A 
BRANCH  13  16
ATOM     16  O   UNL d   1       7.456  -0.125   0.353  0.00  0.00    -0.356 OA
ATOM     17  C   UNL d   1       8.158   0.937   0.990  0.00  0.00     0.210 C 
ENDBRANCH  13  16
ENDBRANCH   4  10
TORSDOF 2
