REMARK  4 active torsions:
REMARK  status: ('A' for Active; 'I' for Inactive)
REMARK    1  A    between atoms: C_9  and  C_1 
REMARK    2  A    between atoms: N_7  and  C_14 
REMARK    3  A    between atoms: C_16  and  C_8 
REMARK    4  A    between atoms: C_11  and  C_9 
ROOT
ATOM      1  C   UNL d   1       4.786   3.017  -0.483  0.00  0.00     0.086 A 
ATOM      2  O   UNL d   1       4.254   1.828  -0.890  0.00  0.00    -0.310 OA
ATOM      3  C   UNL d   1       3.333   1.414   0.042  0.00  0.00     0.077 A 
ATOM      4  C   UNL d   1       4.197   3.395   0.704  0.00  0.00     0.041 A 
ATOM      5  C   UNL d   1       3.268   2.381   1.034  0.00  0.00     0.040 A 
ENDROOT
BRANCH   3   6
ATOM      6  C   UNL d   1       2.598   0.211  -0.090  0.00  0.00     0.060 C 
BRANCH   6   7
ATOM      7  C   UNL d   1       2.968  -0.959   0.464  0.00  0.00     0.103 A 
ATOM      8  C   UNL d   1       2.098  -2.125   0.160  0.00  0.00     0.265 A 
ATOM      9  N   UNL d   1       2.507  -3.317   0.685  0.00  0.00    -0.275 N 
ATOM     10  O   UNL d   1       1.075  -2.052  -0.513  0.00  0.00    -0.267 OA
ATOM     11  C   UNL d   1       3.614  -3.532   1.445  0.00  0.00     0.329 A 
ATOM     12  H   UNL d   1       1.926  -4.121   0.496  0.00  0.00     0.173 HD
ATOM     13  N   UNL d   1       4.399  -2.453   1.698  0.00  0.00    -0.275 N 
ATOM     14  O   UNL d   1       3.880  -4.642   1.893  0.00  0.00    -0.246 OA
ATOM     15  C   UNL d   1       4.163  -1.158   1.325  0.00  0.00     0.265 A 
ATOM     16  H   UNL d   1       5.202  -2.607   2.291  0.00  0.00     0.173 HD
ATOM     17  O   UNL d   1       4.898  -0.264   1.724  0.00  0.00    -0.267 OA
ENDBRANCH   6   7
ENDBRANCH   3   6
BRANCH   1  18
ATOM     18  C   UNL d   1       5.807   3.610  -1.346  0.00  0.00    -0.002 A 
ATOM     19  C   UNL d   1       6.250   2.966  -2.514  0.00  0.00     0.017 A 
ATOM     20  C   UNL d   1       7.225   3.547  -3.336  0.00  0.00     0.037 A 
ATOM     21  C   UNL d   1       7.766   4.791  -2.989  0.00  0.00     0.102 A 
ATOM     22  C   UNL d   1       7.342   5.447  -1.830  0.00  0.00     0.037 A 
ATOM     23  C   UNL d   1       6.370   4.855  -1.018  0.00  0.00     0.017 A 
BRANCH  21  24
ATOM     24  N   UNL d   1       8.783   5.414  -3.845  0.00  0.00    -0.116 N 
ATOM     25  O   UNL d   1       9.132   4.800  -4.864  0.00  0.00    -0.532 OA
ATOM     26  O   UNL d   1       9.230   6.516  -3.501  0.00  0.00    -0.532 OA
ENDBRANCH  21  24
ENDBRANCH   1  18
TORSDOF 4
