REMARK  6 active torsions:
REMARK  status: ('A' for Active; 'I' for Inactive)
REMARK    1  A    between atoms: S_8  and  C_1 
REMARK    2  A    between atoms: C_16  and  N_4 
REMARK    3  A    between atoms: C_7  and  C_9 
REMARK    4  A    between atoms: C_14  and  S_8 
REMARK    5  A    between atoms: C_12  and  C_14 
REMARK    6  A    between atoms: C_13  and  C_12 
ROOT
ATOM      1  C   UNL d   1       2.338   0.104   0.241  0.00  0.00     0.148 A 
ATOM      2  N   UNL d   1       1.645  -1.008   0.275  0.00  0.00    -0.335 N 
ATOM      3  HN  UNL d   1       2.003  -1.957   0.374  1.00  0.00     0.168 HD
ATOM      4  N   UNL d   1       1.536   1.212   0.040  0.00  0.00    -0.321 N 
ATOM      5  C   UNL d   1       0.337  -0.622   0.148  0.00  0.00     0.062 A 
ATOM      6  C   UNL d   1       0.226   0.764   0.041  0.00  0.00     0.063 A 
ATOM      7  C   UNL d   1      -2.081  -0.802   0.018  0.00  0.00     0.050 A 
ATOM      8  C   UNL d   1      -0.820  -1.416   0.123  0.00  0.00     0.048 A 
ATOM      9  C   UNL d   1      -1.019   1.403  -0.054  0.00  0.00     0.033 A 
ATOM     10  C   UNL d   1      -2.163   0.597  -0.059  0.00  0.00     0.018 A 
ENDROOT
BRANCH   1  11
ATOM     11  S   UNL d   1       4.061   0.187   0.440  0.00  0.00    -0.086 SA
BRANCH  11  12
ATOM     12  C   UNL d   1       4.493  -1.564   0.711  0.00  0.00     0.166 C 
BRANCH  12  13
ATOM     13  C   UNL d   1       5.984  -1.734   0.991  0.00  0.00     0.169 C 
ATOM     14  O   UNL d   1       6.803  -0.818   0.909  0.00  0.00    -0.291 OA
BRANCH  13  15
ATOM     15  C   UNL d   1       6.487  -3.086   1.406  0.00  0.00     0.011 A 
ATOM     16  C   UNL d   1       5.683  -4.231   1.403  0.00  0.00     0.015 A 
ATOM     17  C   UNL d   1       6.188  -5.449   1.877  0.00  0.00     0.007 A 
ATOM     18  C   UNL d   1       7.501  -5.545   2.356  0.00  0.00    -0.062 A 
ATOM     19  C   UNL d   1       8.319  -4.413   2.315  0.00  0.00     0.007 A 
ATOM     20  C   UNL d   1       7.995  -6.830   2.958  0.00  0.00     0.048 C 
ATOM     21  C   UNL d   1       7.818  -3.197   1.841  0.00  0.00     0.015 A 
ENDBRANCH  13  15
ENDBRANCH  12  13
ENDBRANCH  11  12
ENDBRANCH   1  11
BRANCH   4  22
ATOM     22  C   UNL d   1       1.974   2.588  -0.203  0.00  0.00     0.084 C 
ATOM     23  C   UNL d   1       1.500   3.121  -1.560  0.00  0.00     0.032 C 
ATOM     24  C   UNL d   1       1.595   3.540   0.933  0.00  0.00     0.032 C 
ENDBRANCH   4  22
BRANCH   7  25
ATOM     25  C   UNL d   1      -3.342  -1.629  -0.004  0.00  0.00     0.417 C 
ATOM     26  F   UNL d   1      -3.119  -2.972   0.032  0.00  0.00    -0.166 F 
ATOM     27  F   UNL d   1      -4.157  -1.358   1.053  0.00  0.00    -0.166 F 
ATOM     28  F   UNL d   1      -4.092  -1.405  -1.119  0.00  0.00    -0.166 F 
ENDBRANCH   7  25
TORSDOF 6
