REMARK  3 active torsions:
REMARK  status: ('A' for Active; 'I' for Inactive)
REMARK    1  A    between atoms: C_6  and  C_17 
REMARK    2  A    between atoms: O_19  and  C_8 
REMARK    3  A    between atoms: N_11  and  N_9 
ROOT
ATOM      1  C   UNL d   1      -1.220   0.874  -0.020  0.00  0.00     0.128 A 
ATOM      2  C   UNL d   1       0.286   0.641  -0.219  0.00  0.00     0.275 A 
ATOM      3  N   UNL d   1       0.411  -0.691  -0.548  0.00  0.00    -0.321 N 
ATOM      4  C   UNL d   1      -1.859  -0.427  -0.263  0.00  0.00     0.024 A 
ATOM      5  C   UNL d   1      -0.830  -1.317  -0.570  0.00  0.00     0.047 A 
ATOM      6  N   UNL d   1      -1.700   2.034   0.305  0.00  0.00    -0.295 N 
ATOM      7  HN  UNL d   1      -1.115   2.849   0.486  1.00  0.00     0.187 HD
ATOM      8  O   UNL d   1       1.167   1.464  -0.108  0.00  0.00    -0.266 OA
ATOM      9  C   UNL d   1      -3.175  -0.848  -0.209  0.00  0.00     0.016 A 
ATOM     10  C   UNL d   1      -1.078  -2.648  -0.844  0.00  0.00     0.030 A 
ATOM     11  C   UNL d   1      -3.448  -2.190  -0.482  0.00  0.00     0.001 A 
ATOM     12  C   UNL d   1      -2.407  -3.082  -0.799  0.00  0.00     0.002 A 
ATOM     13  H   UNL d   1       1.302  -1.127  -0.734  0.00  0.00     0.169 HD
ENDROOT
BRANCH   6  14
ATOM     14  N   UNL d   1      -3.083   2.061   0.382  0.00  0.00    -0.310 N 
ATOM     15  C   UNL d   1      -3.510   3.010   1.153  0.00  0.00     0.121 C 
ATOM     16  HN  UNL d   1      -3.694   1.408  -0.110  1.00  0.00     0.186 HD
BRANCH  15  17
ATOM     17  C   UNL d   1      -4.959   3.219   1.354  0.00  0.00     0.017 A 
ATOM     18  C   UNL d   1      -5.421   4.195   2.240  0.00  0.00     0.094 A 
ATOM     19  C   UNL d   1      -6.799   4.386   2.400  0.00  0.00     0.046 A 
ATOM     20 BR   UNL d   1      -7.461   5.713   3.580  0.00  0.00    -0.048 Br
ATOM     21  C   UNL d   1      -7.713   3.605   1.689  0.00  0.00     0.041 A 
ATOM     22  C   UNL d   1      -7.243   2.630   0.814  0.00  0.00     0.013 A 
ATOM     23  C   UNL d   1      -5.875   2.433   0.640  0.00  0.00     0.034 A 
ATOM     24 BR   UNL d   1      -8.469   1.563  -0.152  0.00  0.00    -0.051 Br
BRANCH  18  25
ATOM     25  O   UNL d   1      -4.520   4.950   2.940  0.00  0.00    -0.358 OA
ATOM     26  H   UNL d   1      -5.017   5.579   3.496  0.00  0.00     0.217 HD
ENDBRANCH  18  25
ENDBRANCH  15  17
ENDBRANCH   6  14
TORSDOF 3
