REMARK  4 active torsions:
REMARK  status: ('A' for Active; 'I' for Inactive)
REMARK    1  A    between atoms: S_9  and  C_2 
REMARK    2  A    between atoms: S_13  and  C_3 
REMARK    3  A    between atoms: C_8  and  C_10 
REMARK    4  A    between atoms: C_10  and  S_9 
ROOT
ATOM      1  N   UNL d   1       0.360   0.430  -0.406  0.00  0.00    -0.310 N 
ATOM      2  C   UNL d   1       0.873  -0.830  -0.233  0.00  0.00     0.163 A 
ATOM      3  C   UNL d   1      -0.985   0.298  -0.166  0.00  0.00     0.160 A 
ATOM      4  N   UNL d   1      -0.094  -1.667   0.066  0.00  0.00    -0.278 N 
ATOM      5  HN  UNL d   1       0.008  -2.667   0.236  1.00  0.00     0.189 HD
ATOM      6  N   UNL d   1      -1.268  -0.954   0.110  0.00  0.00    -0.278 N 
ATOM      7  HN  UNL d   1      -2.193  -1.330   0.319  1.00  0.00     0.189 HD
ATOM      8  C   UNL d   1       1.057   1.636  -0.767  0.00  0.00     0.160 C 
ENDROOT
BRANCH   2   9
ATOM      9  S   UNL d   1       2.550  -1.238  -0.371  0.00  0.00    -0.087 SA
BRANCH   9  10
ATOM     10  C   UNL d   1       2.471  -3.031  -0.061  0.00  0.00     0.126 C 
BRANCH  10  11
ATOM     11  C   UNL d   1       3.839  -3.652   0.072  0.00  0.00     0.012 A 
ATOM     12  C   UNL d   1       4.424  -3.732   1.342  0.00  0.00     0.125 A 
ATOM     13  F   UNL d   1       3.774  -3.241   2.408  0.00  0.00    -0.205 F 
ATOM     14  C   UNL d   1       5.673  -4.316   1.546  0.00  0.00     0.043 A 
ATOM     15  C   UNL d   1       6.374  -4.840   0.466  0.00  0.00     0.005 A 
ATOM     16  C   UNL d   1       5.822  -4.761  -0.813  0.00  0.00     0.024 A 
ATOM     17  C   UNL d   1       4.566  -4.167  -1.010  0.00  0.00     0.044 A 
ATOM     18 CL   UNL d   1       3.963  -4.109  -2.628  0.00  0.00    -0.084 Cl
ENDBRANCH  10  11
ENDBRANCH   9  10
ENDBRANCH   2   9
BRANCH   3  19
ATOM     19  S   UNL d   1      -2.147   1.577  -0.214  0.00  0.00    -0.105 SA
ATOM     20  H   UNL d   1      -1.354   2.626  -0.458  0.00  0.00     0.110 HD
ENDBRANCH   3  19
TORSDOF 4
