REMARK  8 active torsions:
REMARK  status: ('A' for Active; 'I' for Inactive)
REMARK    1  A    between atoms: N_2  and  C_1 
REMARK    2  A    between atoms: C_4  and  C_1 
REMARK       I    between atoms: C_3  and  N_2 
REMARK    3  A    between atoms: C_15  and  C_3 
REMARK    4  A    between atoms: O_21  and  C_4 
REMARK    5  A    between atoms: C_5  and  S_7 
REMARK    6  A    between atoms: N_13  and  C_6 
REMARK    7  A    between atoms: S_7  and  C_10 
REMARK    8  A    between atoms: C_19  and  N_13 
ROOT
ATOM      1  N   UNL d   1       3.123   0.144   1.280  0.00  0.00    -0.362 N 
ATOM      2  H   UNL d   1       2.633   0.237   2.171  0.00  0.00     0.165 HD
ENDROOT
BRANCH   1   3
ATOM      3  C   UNL d   1       2.331  -0.046   0.172  0.00  0.00     0.124 C 
ATOM      4  C   UNL d   1       0.991  -0.086   0.027  0.00  0.00     0.126 C 
BRANCH   4   5
ATOM      5  N   UNL d   1       0.338  -0.315  -1.189  0.00  0.00    -0.317 N 
ATOM      6  C   UNL d   1       0.946  -0.562  -2.415  0.00  0.00     0.256 C 
ATOM      7  O   UNL d   1       2.161  -0.623  -2.601  0.00  0.00    -0.267 OA
ATOM      8  H   UNL d   1      -0.674  -0.338  -1.125  0.00  0.00     0.169 HD
BRANCH   6   9
ATOM      9  C   UNL d   1       0.092  -0.784  -3.613  0.00  0.00     0.032 A 
ATOM     10  C   UNL d   1      -1.198  -0.268  -3.757  0.00  0.00     0.017 A 
ATOM     11  C   UNL d   1      -1.883  -0.446  -4.966  0.00  0.00     0.001 A 
ATOM     12  C   UNL d   1      -1.288  -1.131  -6.029  0.00  0.00     0.000 A 
ATOM     13  C   UNL d   1      -0.006  -1.652  -5.889  0.00  0.00     0.001 A 
ATOM     14  C   UNL d   1       0.678  -1.479  -4.688  0.00  0.00     0.017 A 
ENDBRANCH   6   9
ENDBRANCH   4   5
BRANCH   4  15
ATOM     15  C   UNL d   1       0.174   0.141   1.269  0.00  0.00     0.311 C 
ATOM     16  O   UNL d   1       0.637   0.327   2.389  0.00  0.00    -0.258 OA
BRANCH  15  17
ATOM     17  O   UNL d   1      -1.157   0.115   0.972  0.00  0.00    -0.321 OA
ATOM     18  C   UNL d   1      -1.982   0.344   2.120  0.00  0.00     0.213 C 
ENDBRANCH  15  17
ENDBRANCH   4  15
ENDBRANCH   1   3
BRANCH   1  19
ATOM     19  C   UNL d   1       4.516   0.307   1.288  0.00  0.00     0.047 A 
ATOM     20  C   UNL d   1       5.273   0.646   0.162  0.00  0.00     0.118 A 
ATOM     21  N   UNL d   1       6.627   0.731   0.121  0.00  0.00    -0.358 N 
ATOM     22  C   UNL d   1       7.286   0.449   1.261  0.00  0.00     0.074 A 
ATOM     23  HN  UNL d   1       7.121   0.996  -0.731  1.00  0.00     0.166 HD
ATOM     24  C   UNL d   1       6.637   0.088   2.435  0.00  0.00     0.039 A 
ATOM     25  C   UNL d   1       5.241   0.013   2.442  0.00  0.00     0.034 A 
BRANCH  22  26
ATOM     26  S   UNL d   1       9.056   0.609   1.217  0.00  0.00    -0.071 SA
BRANCH  26  27
ATOM     27  C   UNL d   1       9.509  -0.986   0.540  0.00  0.00     0.030 A 
ATOM     28  C   UNL d   1       9.554  -1.126  -0.856  0.00  0.00     0.044 A 
ATOM     29  C   UNL d   1       9.969  -2.329  -1.431  0.00  0.00     0.035 A 
ATOM     30 CL   UNL d   1      10.039  -2.484  -3.143  0.00  0.00    -0.084 Cl
ATOM     31  C   UNL d   1      10.342  -3.405  -0.629  0.00  0.00     0.025 A 
ATOM     32  C   UNL d   1      10.293  -3.280   0.759  0.00  0.00     0.027 A 
ATOM     33  C   UNL d   1       9.880  -2.078   1.345  0.00  0.00     0.051 A 
ATOM     34 CL   UNL d   1       9.859  -2.009   3.074  0.00  0.00    -0.083 Cl
ENDBRANCH  26  27
ENDBRANCH  22  26
ENDBRANCH   1  19
TORSDOF 8
