REMARK  5 active torsions:
REMARK  status: ('A' for Active; 'I' for Inactive)
REMARK    1  A    between atoms: C_2  and  S_1 
REMARK    2  A    between atoms: N_3  and  S_1 
REMARK    3  A    between atoms: C_12  and  N_3 
REMARK    4  A    between atoms: O_13  and  C_9 
REMARK    5  A    between atoms: C_16  and  O_13 
ROOT
ATOM      1  N   UNL d   1       0.608   1.227  -0.683  0.00  0.00    -0.180 NA
ATOM      2  H   UNL d   1       1.236   0.543  -0.243  0.00  0.00     0.146 HD
ENDROOT
BRANCH   1   3
ATOM      3  S   UNL d   1       0.285   0.669  -2.255  0.00  0.00     0.248 S 
ATOM      4  O   UNL d   1      -0.187  -0.695  -2.151  0.00  0.00    -0.205 OA
ATOM      5  O   UNL d   1      -0.507   1.669  -2.943  0.00  0.00    -0.205 OA
BRANCH   3   6
ATOM      6  C   UNL d   1       1.877   0.614  -3.030  0.00  0.00     0.102 A 
ATOM      7  C   UNL d   1       2.910  -0.076  -2.393  0.00  0.00     0.065 A 
ATOM      8  N   UNL d   1       2.782  -0.604  -1.148  0.00  0.00    -0.364 N 
ATOM      9  C   UNL d   1       4.124  -0.197  -3.107  0.00  0.00    -0.008 A 
ATOM     10  C   UNL d   1       3.812  -1.314  -0.632  0.00  0.00     0.088 A 
ATOM     11  HN  UNL d   1       1.925  -0.468  -0.612  1.00  0.00     0.165 HD
ATOM     12  C   UNL d   1       5.016  -1.502  -1.278  0.00  0.00     0.018 A 
ATOM     13  C   UNL d   1       5.174  -0.923  -2.530  0.00  0.00     0.015 A 
ATOM     14  C   UNL d   1       4.279   0.388  -4.377  0.00  0.00     0.014 A 
ATOM     15  C   UNL d   1       3.236   1.097  -4.964  0.00  0.00     0.003 A 
ATOM     16  C   UNL d   1       2.026   1.207  -4.294  0.00  0.00     0.027 A 
ENDBRANCH   3   6
ENDBRANCH   1   3
BRANCH   1  17
ATOM     17  C   UNL d   1       0.984   2.598  -0.525  0.00  0.00     0.038 A 
ATOM     18  C   UNL d   1       0.094   3.646  -0.761  0.00  0.00     0.114 A 
ATOM     19  N   UNL d   1       0.391   4.957  -0.568  0.00  0.00    -0.345 N 
ATOM     20  C   UNL d   1       1.637   5.234  -0.128  0.00  0.00     0.148 A 
ATOM     21  HN  UNL d   1      -0.291   5.694  -0.746  1.00  0.00     0.167 HD
ATOM     22  C   UNL d   1       2.591   4.258   0.134  0.00  0.00     0.058 A 
ATOM     23  C   UNL d   1       2.258   2.920  -0.072  0.00  0.00     0.030 A 
BRANCH  20  24
ATOM     24  O   UNL d   1       2.005   6.537   0.187  0.00  0.00    -0.294 OA
BRANCH  24  25
ATOM     25  C   UNL d   1       1.343   7.583  -0.412  0.00  0.00     0.078 A 
ATOM     26  C   UNL d   1       1.064   8.688   0.400  0.00  0.00     0.040 A 
ATOM     27  C   UNL d   1       0.487   9.833  -0.150  0.00  0.00     0.045 A 
ATOM     28  C   UNL d   1       0.206   9.870  -1.511  0.00  0.00     0.116 A 
ATOM     29  C   UNL d   1       0.492   8.783  -2.331  0.00  0.00     0.045 A 
ATOM     30  F   UNL d   1      -0.336  10.973  -2.043  0.00  0.00    -0.206 F 
ATOM     31  C   UNL d   1       1.072   7.637  -1.782  0.00  0.00     0.040 A 
ENDBRANCH  24  25
ENDBRANCH  20  24
ENDBRANCH   1  17
TORSDOF 5
