REMARK  4 active torsions:
REMARK  status: ('A' for Active; 'I' for Inactive)
REMARK    1  A    between atoms: C_9  and  C_1 
REMARK       I    between atoms: C_10  and  N_2 
REMARK    2  A    between atoms: C_7  and  C_5 
REMARK    3  A    between atoms: O_17  and  C_9 
REMARK    4  A    between atoms: C_19  and  O_17 
ROOT
ATOM      1  C   UNL d   1      -0.347   1.238  -0.204  0.00  0.00     0.137 C 
ATOM      2  N   UNL d   1       0.964   0.787  -0.170  0.00  0.00    -0.218 N 
ATOM      3  N   UNL d   1       1.013  -0.578  -0.173  0.00  0.00    -0.290 N 
ATOM      4  HN  UNL d   1       1.834  -1.169  -0.299  1.00  0.00     0.188 HD
ATOM      5  C   UNL d   1      -0.248  -0.969   0.023  0.00  0.00     0.068 C 
ATOM      6  C   UNL d   1      -1.139   0.107  -0.083  0.00  0.00     0.070 C 
ATOM      7  C   UNL d   1       2.155   1.516   0.027  0.00  0.00     0.239 C 
ATOM      8  O   UNL d   1       2.113   2.716   0.274  0.00  0.00    -0.272 OA
ATOM      9  C   UNL d   1       3.439   0.734  -0.036  0.00  0.00     0.119 C 
ENDROOT
BRANCH   5  10
ATOM     10  C   UNL d   1      -0.586  -2.379   0.392  0.00  0.00     0.034 A 
ATOM     11  S   UNL d   1      -2.158  -2.924   0.791  0.00  0.00    -0.076 SA
ATOM     12  C   UNL d   1      -1.570  -4.451   1.219  0.00  0.00     0.075 A 
ATOM     13 CL   UNL d   1      -2.647  -5.634   1.841  0.00  0.00    -0.076 Cl
ATOM     14  C   UNL d   1      -0.221  -4.592   1.026  0.00  0.00     0.033 A 
ATOM     15  C   UNL d   1       0.354  -3.384   0.529  0.00  0.00     0.023 A 
ENDBRANCH   5  10
BRANCH   1  16
ATOM     16  C   UNL d   1      -0.760   2.612  -0.225  0.00  0.00     0.312 C 
ATOM     17  O   UNL d   1      -0.213   3.534  -0.803  0.00  0.00    -0.258 OA
BRANCH  16  18
ATOM     18  O   UNL d   1      -1.871   2.721   0.559  0.00  0.00    -0.317 OA
BRANCH  18  19
ATOM     19  C   UNL d   1      -2.139   4.020   1.096  0.00  0.00     0.175 C 
ATOM     20  C   UNL d   1      -1.505   4.077   2.475  0.00  0.00     0.034 C 
ENDBRANCH  18  19
ENDBRANCH  16  18
ENDBRANCH   1  16
TORSDOF 4
