REMARK  9 active torsions:
REMARK  status: ('A' for Active; 'I' for Inactive)
REMARK    1  A    between atoms: C_18  and  C_3 
REMARK    2  A    between atoms: S_7  and  C_4 
REMARK    3  A    between atoms: C_11  and  S_7 
REMARK    4  A    between atoms: N_10  and  C_14 
REMARK       I    between atoms: C_15  and  N_10 
REMARK    5  A    between atoms: C_23  and  C_15 
REMARK    6  A    between atoms: C_17  and  C_24 
REMARK    7  A    between atoms: O_22  and  C_17 
REMARK    8  A    between atoms: S_21  and  C_23 
REMARK    9  A    between atoms: C_24  and  S_21 
ROOT
ATOM      1  S   UNL d   1      -0.694  -3.081   0.635  0.00  0.00    -0.069 SA
ENDROOT
BRANCH   1   2
ATOM      2  C   UNL d   1      -1.310  -1.752   1.637  0.00  0.00     0.095 A 
ATOM      3  C   UNL d   1      -0.568  -0.579   1.792  0.00  0.00     0.066 A 
ATOM      4  S   UNL d   1       0.937  -0.103   1.119  0.00  0.00    -0.084 SA
ATOM      5  C   UNL d   1      -1.064   0.419   2.622  0.00  0.00     0.054 A 
ATOM      6  C   UNL d   1       0.916   1.436   1.872  0.00  0.00     0.018 A 
ATOM      7  C   UNL d   1      -0.209   1.562   2.666  0.00  0.00     0.050 A 
ATOM      8  N   UNL d   1      -2.233   0.297   3.296  0.00  0.00    -0.351 N 
ATOM      9  C   UNL d   1      -2.865  -0.862   3.093  0.00  0.00     0.181 A 
ATOM     10  HN  UNL d   1      -2.599   1.028   3.907  1.00  0.00     0.166 HD
ATOM     11  N   UNL d   1      -2.474  -1.879   2.312  0.00  0.00    -0.345 N 
ATOM     12  HN  UNL d   1      -3.039  -2.724   2.230  1.00  0.00     0.167 HD
BRANCH   6  13
ATOM     13  C   UNL d   1       1.985   2.416   1.599  0.00  0.00    -0.019 A 
ATOM     14  C   UNL d   1       1.699   3.791   1.620  0.00  0.00     0.013 A 
ATOM     15  C   UNL d   1       2.688   4.737   1.331  0.00  0.00     0.001 A 
ATOM     16  C   UNL d   1       3.979   4.325   1.016  0.00  0.00     0.000 A 
ATOM     17  C   UNL d   1       4.286   2.969   0.998  0.00  0.00     0.001 A 
ATOM     18  C   UNL d   1       3.299   2.023   1.293  0.00  0.00     0.013 A 
ENDBRANCH   6  13
ENDBRANCH   1   2
BRANCH   1  19
ATOM     19  C   UNL d   1      -2.165  -3.989   0.183  0.00  0.00     0.033 A 
ATOM     20  C   UNL d   1      -2.947  -3.743  -0.964  0.00  0.00     0.052 A 
ATOM     21  C   UNL d   1      -4.162  -4.434  -1.126  0.00  0.00     0.031 A 
ATOM     22  C   UNL d   1      -4.561  -5.413  -0.217  0.00  0.00     0.002 A 
ATOM     23  C   UNL d   1      -3.769  -5.692   0.889  0.00  0.00     0.002 A 
ATOM     24  C   UNL d   1      -2.587  -4.978   1.091  0.00  0.00     0.021 A 
BRANCH  20  25
ATOM     25  N   UNL d   1      -2.648  -2.812  -1.988  0.00  0.00    -0.325 N 
ATOM     26  C   UNL d   1      -1.424  -2.681  -2.622  0.00  0.00     0.231 C 
ATOM     27  O   UNL d   1      -0.406  -3.340  -2.408  0.00  0.00    -0.272 OA
ATOM     28  H   UNL d   1      -3.447  -2.494  -2.525  0.00  0.00     0.169 HD
BRANCH  26  29
ATOM     29  C   UNL d   1      -1.417  -1.612  -3.705  0.00  0.00     0.177 C 
BRANCH  29  30
ATOM     30  S   UNL d   1      -0.702  -0.062  -3.075  0.00  0.00    -0.149 SA
BRANCH  30  31
ATOM     31  C   UNL d   1       0.963  -0.618  -2.578  0.00  0.00     0.184 C 
BRANCH  31  32
ATOM     32  C   UNL d   1       1.750  -1.209  -3.724  0.00  0.00     0.149 C 
ATOM     33  O   UNL d   1       2.376  -0.545  -4.539  0.00  0.00    -0.649 OA
BRANCH  32  34
ATOM     34  O   UNL d   1       1.691  -2.562  -3.800  0.00  0.00    -0.776 OA
ATOM     35  H   UNL d   1       1.113  -2.992  -3.120  0.00  0.00     0.167 HD
ENDBRANCH  32  34
ENDBRANCH  31  32
ENDBRANCH  30  31
ENDBRANCH  29  30
ENDBRANCH  26  29
ENDBRANCH  20  25
ENDBRANCH   1  19
TORSDOF 9
