REMARK  3 active torsions:
REMARK  status: ('A' for Active; 'I' for Inactive)
REMARK    1  A    between atoms: N_14  and  C_5 
REMARK    2  A    between atoms: S_15  and  C_11 
REMARK    3  A    between atoms: C_13  and  C_12 
ROOT
ATOM      1  N   UNL d   1      -0.233  -0.544  -0.074  0.00  0.00    -0.070 N 
ATOM      2  C   UNL d   1      -0.198   0.815  -0.011  0.00  0.00     0.149 A 
ATOM      3  N   UNL d   1       0.989   1.467   0.017  0.00  0.00    -0.321 N 
ATOM      4  HN  UNL d   1       1.038   2.485   0.055  1.00  0.00     0.169 HD
ATOM      5  C   UNL d   1       0.957  -1.285  -0.108  0.00  0.00     0.701 A 
ATOM      6  N   UNL d   1      -1.475  -1.081  -0.050  0.00  0.00    -0.281 N 
ATOM      7  HN  UNL d   1      -1.740  -2.066  -0.059  1.00  0.00     0.188 HD
ATOM      8  N   UNL d   1       2.096  -0.651  -0.059  0.00  0.00    -0.169 N 
ATOM      9  HN  UNL d   1       2.981  -1.158  -0.061  1.00  0.00     0.186 HD
ATOM     10  C   UNL d   1      -1.513   1.208   0.008  0.00  0.00     0.078 A 
ATOM     11  C   UNL d   1       2.065   0.735  -0.005  0.00  0.00     0.160 A 
ATOM     12  C   UNL d   1      -2.275   0.002  -0.013  0.00  0.00     0.038 A 
ENDROOT
BRANCH  12  13
ATOM     13  C   UNL d   1      -3.794  -0.107   0.017  0.00  0.00    -0.007 C 
ATOM     14  C   UNL d   1      -4.279  -1.571   0.003  0.00  0.00     0.021 C 
ATOM     15  C   UNL d   1      -4.342   0.564   1.294  0.00  0.00     0.021 C 
ATOM     16  C   UNL d   1      -4.398   0.605  -1.212  0.00  0.00     0.021 C 
ENDBRANCH  12  13
BRANCH   5  17
ATOM     17  N   UNL d   1       0.885  -2.655  -0.177  0.00  0.00    -0.233 N 
ATOM     18  H   UNL d   1      -0.013  -3.054   0.091  0.00  0.00     0.174 HD
ATOM     19  H   UNL d   1       1.702  -3.156   0.146  0.00  0.00     0.174 HD
ENDBRANCH   5  17
BRANCH  11  20
ATOM     20  S   UNL d   1       3.579   1.629   0.039  0.00  0.00    -0.098 SA
ATOM     21  C   UNL d   1       4.798   0.310  -0.007  0.00  0.00     0.099 C 
ENDBRANCH  11  20
TORSDOF 3
