REMARK  3 active torsions:
REMARK  status: ('A' for Active; 'I' for Inactive)
REMARK    1  A    between atoms: C_2  and  C_1 
REMARK    2  A    between atoms: C_13  and  C_9 
REMARK    3  A    between atoms: C_14  and  C_15 
ROOT
ATOM      1  C   UNL d   1       2.888  -1.287   0.051  0.00  0.00     0.146 A 
ATOM      2  N   UNL d   1       3.331  -1.837  -1.131  0.00  0.00    -0.318 N 
ATOM      3  HN  UNL d   1       3.399  -1.399  -2.050  1.00  0.00     0.169 HD
ATOM      4  N   UNL d   1       2.918  -2.135   1.089  0.00  0.00    -0.241 N 
ATOM      5  HN  UNL d   1       2.642  -1.957   2.055  1.00  0.00     0.196 HD
ATOM      6  C   UNL d   1       3.643  -3.063  -0.783  0.00  0.00     0.182 A 
ATOM      7  O   UNL d   1       3.415  -3.317   0.537  0.00  0.00    -0.217 OA
ENDROOT
BRANCH   6   8
ATOM      8  C   UNL d   1       4.169  -4.143  -1.607  0.00  0.00     0.017 A 
ATOM      9  C   UNL d   1       4.481  -3.885  -2.946  0.00  0.00     0.016 A 
ATOM     10  C   UNL d   1       4.931  -4.906  -3.788  0.00  0.00     0.009 A 
ATOM     11  C   UNL d   1       5.077  -6.226  -3.326  0.00  0.00    -0.051 A 
ATOM     12  C   UNL d   1       4.803  -6.464  -1.969  0.00  0.00     0.009 A 
ATOM     13  C   UNL d   1       4.355  -5.440  -1.122  0.00  0.00     0.016 A 
BRANCH  11  14
ATOM     14  C   UNL d   1       5.478  -7.343  -4.305  0.00  0.00    -0.024 C 
ATOM     15  C   UNL d   1       5.541  -8.743  -3.656  0.00  0.00     0.019 C 
ATOM     16  C   UNL d   1       4.435  -7.415  -5.443  0.00  0.00     0.019 C 
ATOM     17  C   UNL d   1       6.867  -7.050  -4.909  0.00  0.00     0.019 C 
ENDBRANCH  11  14
ENDBRANCH   6   8
BRANCH   1  18
ATOM     18  C   UNL d   1       2.451   0.146   0.117  0.00  0.00     0.072 A 
ATOM     19  C   UNL d   1       2.050   0.859   1.233  0.00  0.00     0.061 A 
ATOM     20  C   UNL d   1       1.768   2.243   0.929  0.00  0.00    -0.032 A 
ATOM     21 CL   UNL d   1       1.912   0.247   2.836  0.00  0.00    -0.082 Cl
ATOM     22  C   UNL d   1       1.369   3.309   1.897  0.00  0.00     0.050 C 
ATOM     23  C   UNL d   1       1.922   2.491  -0.422  0.00  0.00     0.059 A 
ATOM     24  S   UNL d   1       2.419   1.119  -1.295  0.00  0.00    -0.096 SA
ENDBRANCH   1  18
TORSDOF 3
