REMARK  0 active torsions:
REMARK  status: ('A' for Active; 'I' for Inactive)
ROOT
ATOM      1  N   UNL d   1      -2.311   1.527  -0.000  0.00  0.00    -0.353 N 
ATOM      2  HN  UNL d   1      -2.410   2.542   0.000  1.00  0.00     0.166 HD
ATOM      3  C   UNL d   1      -1.103   0.848  -0.000  0.00  0.00     0.052 A 
ATOM      4  S   UNL d   1      -2.874  -0.985  -0.002  0.00  0.00    -0.075 SA
ATOM      5  C   UNL d   1      -1.206  -0.552  -0.001  0.00  0.00     0.036 A 
ATOM      6  C   UNL d   1      -3.310   0.674  -0.001  0.00  0.00     0.048 A 
ATOM      7  C   UNL d   1       0.174   1.452   0.001  0.00  0.00     0.070 A 
ATOM      8  C   UNL d   1      -0.079  -1.394  -0.001  0.00  0.00     0.061 A 
ATOM      9  C   UNL d   1       1.270   0.611   0.002  0.00  0.00     0.107 A 
ATOM     10  C   UNL d   1       1.147  -0.756   0.001  0.00  0.00     0.106 A 
ATOM     11  O   UNL d   1       2.570   1.015   0.003  0.00  0.00    -0.323 OA
ATOM     12  O   UNL d   1       2.355  -1.385   0.002  0.00  0.00    -0.323 OA
ATOM     13  C   UNL d   1       3.252  -0.255   0.005  0.00  0.00     0.352 A 
ATOM     14  C   UNL d   1      -4.742   1.081  -0.000  0.00  0.00     0.076 C 
ENDROOT
TORSDOF 0
