REMARK  3 active torsions:
REMARK  status: ('A' for Active; 'I' for Inactive)
REMARK    1  A    between atoms: C_5  and  C_1 
REMARK    2  A    between atoms: C_16  and  N_4 
REMARK    3  A    between atoms: C_15  and  C_14 
ROOT
ATOM      1  C   UNL d   1      -0.114  -1.343   0.054  0.00  0.00     0.126 A 
ATOM      2  N   UNL d   1       1.128  -0.844   0.036  0.00  0.00    -0.273 N 
ATOM      3  HN  UNL d   1       2.016  -1.345   0.038  1.00  0.00     0.189 HD
ATOM      4  N   UNL d   1       0.910   0.494   0.015  0.00  0.00    -0.196 N 
ATOM      5  N   UNL d   1      -0.394   0.883   0.027  0.00  0.00    -0.281 N 
ATOM      6  HN  UNL d   1      -0.777   1.828   0.032  1.00  0.00     0.189 HD
ATOM      7  C   UNL d   1      -1.049  -0.288   0.030  0.00  0.00     0.056 A 
ATOM      8  C   UNL d   1      -2.528  -0.336   0.036  0.00  0.00     0.072 C 
ENDROOT
BRANCH   1   9
ATOM      9  C   UNL d   1      -0.374  -2.808   0.123  0.00  0.00     0.195 A 
ATOM     10  O   UNL d   1       0.633  -3.730   0.270  0.00  0.00    -0.271 OA
ATOM     11  C   UNL d   1      -0.053  -4.905   0.377  0.00  0.00     0.174 A 
ATOM     12  N   UNL d   1      -1.354  -4.741   0.255  0.00  0.00    -0.277 N 
ATOM     13  N   UNL d   1      -1.564  -3.381   0.097  0.00  0.00    -0.276 N 
ATOM     14  HN  UNL d   1      -2.066  -5.471   0.274  1.00  0.00     0.189 HD
ATOM     15  HN  UNL d   1      -2.463  -2.913  -0.016  1.00  0.00     0.189 HD
BRANCH  11  16
ATOM     16  C   UNL d   1       0.737  -6.094   0.675  0.00  0.00     0.017 A 
ATOM     17  C   UNL d   1       2.131  -6.023   0.850  0.00  0.00     0.017 A 
ATOM     18  C   UNL d   1       2.869  -7.157   1.203  0.00  0.00     0.025 A 
ATOM     19  C   UNL d   1       2.220  -8.375   1.379  0.00  0.00     0.034 A 
ATOM     20  C   UNL d   1       0.843  -8.471   1.193  0.00  0.00     0.025 A 
ATOM     21 CL   UNL d   1       3.122  -9.764   1.843  0.00  0.00    -0.084 Cl
ATOM     22  C   UNL d   1       0.105  -7.335   0.841  0.00  0.00     0.017 A 
ENDBRANCH  11  16
ENDBRANCH   1   9
BRANCH   4  23
ATOM     23  C   UNL d   1       1.985   1.418  -0.024  0.00  0.00     0.074 A 
ATOM     24  C   UNL d   1       3.303   0.950  -0.144  0.00  0.00     0.033 A 
ATOM     25  C   UNL d   1       4.362   1.857  -0.201  0.00  0.00     0.002 A 
ATOM     26  C   UNL d   1       4.113   3.226  -0.125  0.00  0.00     0.000 A 
ATOM     27  C   UNL d   1       2.804   3.695   0.007  0.00  0.00     0.002 A 
ATOM     28  C   UNL d   1       1.737   2.795   0.054  0.00  0.00     0.033 A 
ENDBRANCH   4  23
TORSDOF 3
