REMARK  6 active torsions:
REMARK  status: ('A' for Active; 'I' for Inactive)
REMARK    1  A    between atoms: C_11  and  C_1 
REMARK    2  A    between atoms: C_10  and  C_2 
REMARK    3  A    between atoms: S_17  and  C_9 
REMARK    4  A    between atoms: C_12  and  N_14 
REMARK    5  A    between atoms: C_13  and  C_25 
REMARK       I    between atoms: N_14  and  C_13 
REMARK    6  A    between atoms: C_25  and  S_17 
ROOT
ATOM      1  N   UNL d   1      -1.131   3.269  -0.585  0.00  0.00    -0.334 N 
ATOM      2  HN  UNL d   1      -0.364   3.155  -1.249  1.00  0.00     0.168 HD
ATOM      3  C   UNL d   1      -1.740   4.445  -0.407  0.00  0.00     0.145 A 
ATOM      4  C   UNL d   1      -1.585   2.241   0.161  0.00  0.00     0.071 A 
ATOM      5  N   UNL d   1      -2.745   4.679   0.448  0.00  0.00    -0.347 N 
ATOM      6  HN  UNL d   1      -3.171   5.601   0.542  1.00  0.00     0.167 HD
ATOM      7  C   UNL d   1      -2.609   2.375   1.076  0.00  0.00     0.049 A 
ATOM      8  C   UNL d   1      -3.160   3.628   1.174  0.00  0.00     0.092 A 
ENDROOT
BRANCH   3   9
ATOM      9  S   UNL d   1      -1.018   5.818  -1.264  0.00  0.00    -0.085 SA
BRANCH   9  10
ATOM     10  C   UNL d   1      -0.908   6.973   0.129  0.00  0.00     0.185 C 
BRANCH  10  11
ATOM     11  C   UNL d   1      -0.029   6.532   1.294  0.00  0.00     0.231 C 
ATOM     12  N   UNL d   1       0.793   5.439   1.085  0.00  0.00    -0.326 N 
ATOM     13  H   UNL d   1       0.789   5.050   0.145  0.00  0.00     0.169 HD
ATOM     14  O   UNL d   1      -0.057   7.196   2.333  0.00  0.00    -0.272 OA
BRANCH  12  15
ATOM     15  C   UNL d   1       1.702   4.865   2.000  0.00  0.00     0.037 A 
ATOM     16  C   UNL d   1       1.773   5.222   3.349  0.00  0.00     0.053 A 
ATOM     17  C   UNL d   1       2.759   4.673   4.172  0.00  0.00     0.037 A 
ATOM     18 CL   UNL d   1       2.848   5.144   5.826  0.00  0.00    -0.084 Cl
ATOM     19  C   UNL d   1       3.678   3.759   3.670  0.00  0.00     0.048 A 
ATOM     20  C   UNL d   1       3.581   3.370   2.338  0.00  0.00     0.037 A 
ATOM     21  C   UNL d   1       2.592   3.904   1.507  0.00  0.00     0.053 A 
ATOM     22 CL   UNL d   1       4.709   2.238   1.701  0.00  0.00    -0.084 Cl
ENDBRANCH  12  15
ENDBRANCH  10  11
ENDBRANCH   9  10
ENDBRANCH   3   9
BRANCH   4  23
ATOM     23  C   UNL d   1      -0.898   0.987  -0.086  0.00  0.00     0.127 A 
ATOM     24  C   UNL d   1       0.068   0.586  -0.976  0.00  0.00     0.074 A 
ATOM     25  C   UNL d   1       0.290  -0.786  -0.695  0.00  0.00     0.069 A 
ATOM     26  N   UNL d   1      -0.517  -1.185   0.304  0.00  0.00    -0.260 N 
ATOM     27  O   UNL d   1      -1.247  -0.077   0.684  0.00  0.00    -0.235 OA
ATOM     28  HN  UNL d   1      -0.579  -2.122   0.702  1.00  0.00     0.195 HD
BRANCH  25  29
ATOM     29  C   UNL d   1       1.181  -1.728  -1.377  0.00  0.00     0.014 A 
ATOM     30  C   UNL d   1       2.471  -1.397  -1.825  0.00  0.00     0.046 A 
ATOM     31 CL   UNL d   1       3.221   0.135  -1.521  0.00  0.00    -0.083 Cl
ATOM     32  C   UNL d   1       3.241  -2.337  -2.524  0.00  0.00     0.025 A 
ATOM     33  C   UNL d   1       2.747  -3.618  -2.769  0.00  0.00     0.002 A 
ATOM     34  C   UNL d   1       1.484  -3.969  -2.307  0.00  0.00     0.001 A 
ATOM     35  C   UNL d   1       0.708  -3.034  -1.618  0.00  0.00     0.015 A 
ENDBRANCH  25  29
ENDBRANCH   4  23
TORSDOF 6
