REMARK  4 active torsions:
REMARK  status: ('A' for Active; 'I' for Inactive)
REMARK    1  A    between atoms: S_13  and  C_1 
REMARK    2  A    between atoms: N_4  and  C_2 
REMARK    3  A    between atoms: C_3  and  S_13 
REMARK    4  A    between atoms: N_19  and  C_16 
ROOT
ATOM      1  C   UNL d   1       2.858  -8.689  -0.248  0.00  0.00     0.167 A 
ATOM      2  C   UNL d   1       3.082 -10.844   0.773  0.00  0.00     0.136 A 
ATOM      3  S   UNL d   1       2.444 -10.308  -0.719  0.00  0.00    -0.026 SA
ATOM      4  N   UNL d   1       3.399  -8.640   0.956  0.00  0.00    -0.278 N 
ATOM      5  HN  UNL d   1       3.671  -7.769   1.413  1.00  0.00     0.189 HD
ATOM      6  N   UNL d   1       3.560  -9.887   1.536  0.00  0.00    -0.286 N 
ATOM      7  HN  UNL d   1       3.996 -10.043   2.445  1.00  0.00     0.188 HD
ENDROOT
BRANCH   2   8
ATOM      8  S   UNL d   1       2.949 -12.489   1.348  0.00  0.00    -0.038 SA
BRANCH   8   9
ATOM      9  C   UNL d   1       4.469 -13.100   0.731  0.00  0.00     0.120 A 
ATOM     10  N   UNL d   1       4.958 -12.751  -0.437  0.00  0.00    -0.344 N 
ATOM     11  C   UNL d   1       6.131 -13.447  -0.685  0.00  0.00     0.052 A 
ATOM     12  HN  UNL d   1       4.537 -12.069  -1.068  1.00  0.00     0.167 HD
ATOM     13  C   UNL d   1       6.935 -13.322  -1.836  0.00  0.00     0.054 A 
ATOM     14  C   UNL d   1       6.516 -14.345   0.313  0.00  0.00     0.034 A 
ATOM     15  C   UNL d   1       8.095 -14.090  -1.946  0.00  0.00     0.036 A 
ATOM     16 CL   UNL d   1       9.085 -13.931  -3.346  0.00  0.00    -0.084 Cl
ATOM     17  C   UNL d   1       8.466 -14.981  -0.943  0.00  0.00     0.025 A 
ATOM     18  C   UNL d   1       7.679 -15.126   0.204  0.00  0.00     0.023 A 
ATOM     19  S   UNL d   1       5.358 -14.293   1.584  0.00  0.00    -0.063 SA
ENDBRANCH   8   9
ENDBRANCH   2   8
BRANCH   1  20
ATOM     20  N   UNL d   1       2.489  -7.688  -1.084  0.00  0.00    -0.325 N 
ATOM     21  C   UNL d   1       3.141  -6.562  -1.181  0.00  0.00     0.076 C 
ATOM     22  C   UNL d   1       4.432  -6.252  -0.426  0.00  0.00     0.089 C 
ATOM     23  HN  UNL d   1       1.661  -7.821  -1.664  1.00  0.00     0.169 HD
BRANCH  21  24
ATOM     24  N   UNL d   1       2.648  -5.564  -2.034  0.00  0.00    -0.380 N 
ATOM     25  C   UNL d   1       3.264  -4.261  -2.242  0.00  0.00     0.150 C 
ATOM     26  C   UNL d   1       1.420  -5.759  -2.804  0.00  0.00     0.150 C 
ENDBRANCH  21  24
ENDBRANCH   1  20
TORSDOF 4
