REMARK  6 active torsions:
REMARK  status: ('A' for Active; 'I' for Inactive)
REMARK    1  A    between atoms: C_2  and  S_1 
REMARK    2  A    between atoms: O_5  and  S_1 
REMARK    3  A    between atoms: N_16  and  C_13 
REMARK    4  A    between atoms: S_17  and  C_13 
REMARK    5  A    between atoms: C_18  and  N_14 
REMARK    6  A    between atoms: C_19  and  N_16 
ROOT
ATOM      1  C   UNL d   2      -1.461  -1.647   4.170  0.00  0.00     0.136 C 
ATOM      2  N   UNL d   2      -0.268  -1.389   3.783  0.00  0.00    -0.367 N 
ATOM      3  HN  UNL d   2       0.316  -0.825   4.400  1.00  0.00     0.162 HD
ENDROOT
BRANCH   1   4
ATOM      4  N   UNL d   2      -2.445  -2.375   3.526  0.00  0.00    -0.367 N 
ATOM      5  H   UNL d   2      -2.047  -2.809   2.700  0.00  0.00     0.162 HD
BRANCH   4   6
ATOM      6  C   UNL d   2      -3.407  -3.298   4.158  0.00  0.00     0.075 C 
ATOM      7  C   UNL d   2      -4.512  -2.644   4.992  0.00  0.00     0.032 C 
ATOM      8  C   UNL d   2      -4.125  -4.097   3.053  0.00  0.00     0.032 C 
ENDBRANCH   4   6
ENDBRANCH   1   4
BRANCH   1   9
ATOM      9  S   UNL d   2      -1.816  -0.893   5.720  0.00  0.00    -0.099 SA
ATOM     10  C   UNL d   2      -1.888   0.825   5.155  0.00  0.00     0.099 C 
ENDBRANCH   1   9
BRANCH   2  11
ATOM     11  C   UNL d   2       0.315  -1.841   2.533  0.00  0.00     0.075 C 
ATOM     12  C   UNL d   2       1.333  -0.789   2.089  0.00  0.00     0.032 C 
ATOM     13  C   UNL d   2       1.027  -3.168   2.764  0.00  0.00     0.032 C 
ENDBRANCH   2  11
TORSDOF 6
