REMARK  3 active torsions:
REMARK  status: ('A' for Active; 'I' for Inactive)
REMARK    1  A    between atoms: C_5  and  N_1 
REMARK       I    between atoms: C_2  and  N_4 
REMARK    2  A    between atoms: C_3  and  C_2 
REMARK    3  A    between atoms: N_6  and  C_7 
ROOT
ATOM      1  C   UNL d   1      -2.984  -2.417  -8.442  0.00  0.00     0.257 C 
ATOM      2  N   UNL d   1      -2.141  -2.187  -7.359  0.00  0.00    -0.345 N 
ATOM      3  N   UNL d   1      -1.445  -1.379  -4.744  0.00  0.00    -0.364 N 
ATOM      4  O   UNL d   1      -3.721  -3.396  -8.509  0.00  0.00    -0.267 OA
ATOM      5  C   UNL d   1      -2.110  -3.174  -6.271  0.00  0.00     0.146 C 
ATOM      6  C   UNL d   1      -1.234  -1.042  -7.149  0.00  0.00     0.146 C 
ATOM      7  C   UNL d   1      -1.537  -0.356  -5.796  0.00  0.00     0.144 C 
ATOM      8  C   UNL d   1      -2.377  -2.506  -4.908  0.00  0.00     0.144 C 
ENDROOT
BRANCH   3   9
ATOM      9  C   UNL d   1      -0.953  -1.025  -3.509  0.00  0.00     0.103 A 
ATOM     10  C   UNL d   1      -0.431  -2.006  -2.657  0.00  0.00     0.051 A 
ATOM     11  C   UNL d   1       0.200  -1.646  -1.468  0.00  0.00     0.041 A 
ATOM     12  C   UNL d   1       0.278  -0.298  -1.141  0.00  0.00     0.118 A 
ATOM     13  C   UNL d   1      -0.273   0.627  -2.007  0.00  0.00     0.125 A 
ATOM     14  N   UNL d   1      -0.871   0.284  -3.179  0.00  0.00    -0.350 N 
ATOM     15  HN  UNL d   1      -1.250   1.000  -3.798  1.00  0.00     0.166 HD
BRANCH  12  16
ATOM     16  N   UNL d   1       0.952   0.142   0.068  0.00  0.00    -0.114 N 
ATOM     17  O   UNL d   1       0.939   1.351   0.332  0.00  0.00    -0.532 OA
ATOM     18  O   UNL d   1       1.506  -0.724   0.762  0.00  0.00    -0.532 OA
ENDBRANCH  12  16
ENDBRANCH   3   9
BRANCH   1  19
ATOM     19  C   UNL d   1      -3.032  -1.458  -9.559  0.00  0.00     0.070 A 
ATOM     20  C   UNL d   1      -2.839  -1.933 -10.857  0.00  0.00     0.132 A 
ATOM     21  F   UNL d   1      -2.547  -3.222 -11.086  0.00  0.00    -0.205 F 
ATOM     22  C   UNL d   1      -2.929  -1.071 -11.946  0.00  0.00     0.043 A 
ATOM     23  C   UNL d   1      -3.208   0.280 -11.740  0.00  0.00     0.003 A 
ATOM     24  C   UNL d   1      -3.419   0.760 -10.446  0.00  0.00     0.001 A 
ATOM     25  C   UNL d   1      -3.357  -0.111  -9.356  0.00  0.00     0.020 A 
ENDBRANCH   1  19
TORSDOF 3
