REMARK  9 active torsions:
REMARK  status: ('A' for Active; 'I' for Inactive)
REMARK    1  A    between atoms: C_10  and  N_1 
REMARK    2  A    between atoms: S_2  and  C_12 
REMARK    3  A    between atoms: C_5  and  S_2 
REMARK    4  A    between atoms: S_17  and  C_3 
REMARK    5  A    between atoms: C_12  and  C_23 
REMARK    6  A    between atoms: C_23  and  S_17 
REMARK    7  A    between atoms: O_22  and  C_25 
REMARK    8  A    between atoms: C_26  and  O_22 
REMARK    9  A    between atoms: C_30  and  C_26 
ROOT
ATOM      1  N   UNL d   1       0.895  -0.722  -0.056  0.00  0.00    -0.241 N 
ATOM      2  C   UNL d   1       0.933   0.625   0.151  0.00  0.00     0.170 A 
ATOM      3  C   UNL d   1      -0.447  -1.026  -0.146  0.00  0.00     0.347 A 
ATOM      4  N   UNL d   1      -0.232   1.207   0.203  0.00  0.00    -0.275 N 
ATOM      5  HN  UNL d   1      -0.436   2.196   0.348  1.00  0.00     0.189 HD
ATOM      6  N   UNL d   1      -1.116   0.185   0.017  0.00  0.00    -0.249 N 
ATOM      7  O   UNL d   1      -0.992  -2.109  -0.286  0.00  0.00    -0.245 OA
ATOM      8  H   UNL d   1      -2.120   0.302   0.040  0.00  0.00     0.192 HD
ENDROOT
BRANCH   1   9
ATOM      9  C   UNL d   1       1.912  -1.694  -0.080  0.00  0.00     0.046 A 
ATOM     10  C   UNL d   1       1.968  -2.616  -1.135  0.00  0.00     0.033 A 
ATOM     11  C   UNL d   1       2.944  -3.625  -1.168  0.00  0.00     0.039 A 
ATOM     12  C   UNL d   1       3.852  -3.752  -0.121  0.00  0.00     0.069 A 
ATOM     13  C   UNL d   1       3.774  -2.853   0.949  0.00  0.00     0.039 A 
ATOM     14  C   UNL d   1       2.825  -1.821   0.968  0.00  0.00     0.033 A 
BRANCH  12  15
ATOM     15  O   UNL d   1       4.863  -4.663  -0.021  0.00  0.00    -0.347 OA
BRANCH  15  16
ATOM     16  C   UNL d   1       4.908  -5.755  -0.938  0.00  0.00     0.214 C 
BRANCH  16  17
ATOM     17  C   UNL d   1       6.291  -6.363  -0.878  0.00  0.00    -0.034 A 
ATOM     18  C   UNL d   1       6.503  -7.651  -0.370  0.00  0.00     0.009 A 
ATOM     19  C   UNL d   1       7.797  -8.193  -0.331  0.00  0.00     0.001 A 
ATOM     20  C   UNL d   1       8.882  -7.453  -0.797  0.00  0.00     0.000 A 
ATOM     21  C   UNL d   1       8.680  -6.172  -1.305  0.00  0.00     0.001 A 
ATOM     22  C   UNL d   1       7.395  -5.629  -1.342  0.00  0.00     0.009 A 
ENDBRANCH  16  17
ENDBRANCH  15  16
ENDBRANCH  12  15
ENDBRANCH   1   9
BRANCH   2  23
ATOM     23  S   UNL d   1       2.419   1.516   0.217  0.00  0.00    -0.091 SA
BRANCH  23  24
ATOM     24  C   UNL d   1       1.830   3.206   0.625  0.00  0.00     0.098 C 
BRANCH  24  25
ATOM     25  C   UNL d   1       1.476   3.295   2.097  0.00  0.00     0.156 C 
BRANCH  25  26
ATOM     26  S   UNL d   1       1.131   4.942   2.661  0.00  0.00     0.177 S 
ATOM     27  O   UNL d   1       0.870   4.882   4.088  0.00  0.00    -0.223 OA
ATOM     28  O   UNL d   1       2.208   5.779   2.158  0.00  0.00    -0.223 OA
BRANCH  26  29
ATOM     29  C   UNL d   1      -0.365   5.537   1.913  0.00  0.00     0.081 A 
ATOM     30  C   UNL d   1      -1.571   4.836   1.964  0.00  0.00     0.057 A 
ATOM     31  C   UNL d   1      -2.699   5.354   1.314  0.00  0.00     0.049 A 
ATOM     32 CL   UNL d   1      -1.815   3.377   2.848  0.00  0.00    -0.083 Cl
ATOM     33  C   UNL d   1      -2.637   6.589   0.673  0.00  0.00     0.035 A 
ATOM     34  C   UNL d   1      -1.461   7.332   0.689  0.00  0.00     0.025 A 
ATOM     35 CL   UNL d   1      -4.026   7.204  -0.134  0.00  0.00    -0.084 Cl
ATOM     36  C   UNL d   1      -0.324   6.805   1.304  0.00  0.00     0.027 A 
ENDBRANCH  26  29
ENDBRANCH  25  26
ENDBRANCH  24  25
ENDBRANCH  23  24
ENDBRANCH   2  23
TORSDOF 9
