REMARK  4 active torsions:
REMARK  status: ('A' for Active; 'I' for Inactive)
REMARK    1  A    between atoms: N_2  and  C_1 
REMARK    2  A    between atoms: N_3  and  C_1 
REMARK       I    between atoms: C_6  and  N_3 
REMARK    3  A    between atoms: C_14  and  C_6 
REMARK    4  A    between atoms: C_15  and  C_16 
ROOT
ATOM      1  N   UNL d   1      -0.016  -0.524   0.488  0.00  0.00    -0.300 N 
ATOM      2  C   UNL d   1      -1.298  -1.080   0.673  0.00  0.00     0.257 C 
ATOM      3  O   UNL d   1      -1.568  -2.157   1.179  0.00  0.00    -0.267 OA
ATOM      4  H   UNL d   1      -0.042   0.330  -0.052  0.00  0.00     0.171 HD
ENDROOT
BRANCH   1   5
ATOM      5  C   UNL d   1       1.319  -0.763   0.757  0.00  0.00     0.177 C 
ATOM      6  S   UNL d   1       2.321   0.269  -0.140  0.00  0.00    -0.041 SA
BRANCH   5   7
ATOM      7  N   UNL d   1       1.764  -1.699   1.662  0.00  0.00    -0.349 N 
ATOM      8  C   UNL d   1       0.921  -2.314   2.730  0.00  0.00     0.116 C 
ATOM      9  C   UNL d   1       1.576  -2.084   4.092  0.00  0.00    -0.022 A 
ATOM     10  C   UNL d   1       0.710  -3.805   2.455  0.00  0.00     0.037 C 
ATOM     11  C   UNL d   1       1.000  -2.376   5.372  0.00  0.00     0.017 A 
ATOM     12  C   UNL d   1       2.849  -1.561   4.245  0.00  0.00    -0.008 A 
ATOM     13  C   UNL d   1       1.831  -2.028   6.415  0.00  0.00     0.051 A 
ATOM     14  S   UNL d   1       3.309  -1.362   5.867  0.00  0.00    -0.106 SA
ATOM     15  C   UNL d   1       3.739  -1.196   3.102  0.00  0.00     0.066 C 
ATOM     16  C   UNL d   1       3.225  -1.942   1.858  0.00  0.00     0.131 C 
ENDBRANCH   5   7
ENDBRANCH   1   5
BRANCH   2  17
ATOM     17  C   UNL d   1      -2.409  -0.182   0.200  0.00  0.00     0.032 C 
ATOM     18  C   UNL d   1      -2.305   0.576  -0.971  0.00  0.00     0.017 C 
ATOM     19  C   UNL d   1      -3.261   1.562  -1.266  0.00  0.00     0.009 C 
ATOM     20  C   UNL d   1      -4.333   1.829  -0.396  0.00  0.00    -0.051 C 
ATOM     21  C   UNL d   1      -4.506   0.944   0.686  0.00  0.00     0.009 C 
ATOM     22  C   UNL d   1      -3.551  -0.042   0.989  0.00  0.00     0.017 C 
BRANCH  20  23
ATOM     23  C   UNL d   1      -5.218   3.087  -0.558  0.00  0.00    -0.024 C 
ATOM     24  C   UNL d   1      -5.601   3.672   0.824  0.00  0.00     0.019 C 
ATOM     25  C   UNL d   1      -4.479   4.221  -1.312  0.00  0.00     0.019 C 
ATOM     26  C   UNL d   1      -6.514   2.773  -1.326  0.00  0.00     0.019 C 
ENDBRANCH  20  23
ENDBRANCH   2  17
TORSDOF 4
