REMARK  3 active torsions:
REMARK  status: ('A' for Active; 'I' for Inactive)
REMARK    1  A    between atoms: C_10  and  N_2 
REMARK    2  A    between atoms: C_11  and  C_15 
REMARK    3  A    between atoms: C_12  and  C_16 
ROOT
ATOM      1  C   UNL d   1      -0.338   0.564   0.068  0.00  0.00     0.139 A 
ATOM      2  N   UNL d   1       1.997   1.050  -0.036  0.00  0.00    -0.218 N 
ATOM      3  C   UNL d   1       0.684   1.593   0.050  0.00  0.00     0.296 A 
ATOM      4  C   UNL d   1      -0.024  -0.799   0.006  0.00  0.00     0.053 A 
ATOM      5  N   UNL d   1       2.284  -0.328  -0.121  0.00  0.00    -0.294 N 
ATOM      6  HN  UNL d   1       3.254  -0.629  -0.217  1.00  0.00     0.187 HD
ATOM      7  N   UNL d   1      -1.659   0.767   0.139  0.00  0.00    -0.255 N 
ATOM      8  HN  UNL d   1      -2.147   1.661   0.193  1.00  0.00     0.195 HD
ATOM      9  C   UNL d   1       1.340  -1.225  -0.080  0.00  0.00     0.037 A 
ATOM     10  O   UNL d   1      -2.221  -0.499   0.122  0.00  0.00    -0.241 OA
ATOM     11  C   UNL d   1      -1.236  -1.442   0.044  0.00  0.00     0.087 A 
ATOM     12  O   UNL d   1       0.403   2.787   0.076  0.00  0.00    -0.264 OA
ATOM     13  C   UNL d   1       1.716  -2.678  -0.106  0.00  0.00     0.070 C 
ATOM     14  C   UNL d   1      -1.715  -2.836   0.016  0.00  0.00     0.080 C 
ENDROOT
BRANCH   2  15
ATOM     15  C   UNL d   1       3.175   1.869   0.005  0.00  0.00     0.061 A 
ATOM     16  C   UNL d   1       3.181   3.123   0.632  0.00  0.00     0.048 A 
ATOM     17  C   UNL d   1       4.342   3.912   0.697  0.00  0.00     0.051 A 
ATOM     18  C   UNL d   1       5.516   3.445   0.088  0.00  0.00     0.032 A 
ATOM     19  C   UNL d   1       5.543   2.199  -0.555  0.00  0.00     0.051 A 
ATOM     20  C   UNL d   1       4.376   1.414  -0.568  0.00  0.00     0.048 A 
BRANCH  17  21
ATOM     21  C   UNL d   1       4.337   5.235   1.428  0.00  0.00     0.417 C 
ATOM     22  F   UNL d   1       3.131   5.560   1.968  0.00  0.00    -0.166 F 
ATOM     23  F   UNL d   1       5.223   5.249   2.463  0.00  0.00    -0.166 F 
ATOM     24  F   UNL d   1       4.684   6.276   0.624  0.00  0.00    -0.166 F 
ENDBRANCH  17  21
BRANCH  19  25
ATOM     25  C   UNL d   1       6.810   1.726  -1.228  0.00  0.00     0.417 C 
ATOM     26  F   UNL d   1       6.693   0.508  -1.825  0.00  0.00    -0.166 F 
ATOM     27  F   UNL d   1       7.225   2.581  -2.204  0.00  0.00    -0.166 F 
ATOM     28  F   UNL d   1       7.852   1.619  -0.358  0.00  0.00    -0.166 F 
ENDBRANCH  19  25
ENDBRANCH   2  15
TORSDOF 3
