REMARK  1 active torsions:
REMARK  status: ('A' for Active; 'I' for Inactive)
REMARK    1  A    between atoms: S_7  and  C_2 
ROOT
ATOM      1  C   UNL d   1      -0.017  -0.847  -0.035  0.00  0.00     0.044 A 
ATOM      2  C   UNL d   1       1.117  -1.644   0.014  0.00  0.00     0.087 A 
ATOM      3  C   UNL d   1       0.326   0.560   0.062  0.00  0.00    -0.013 A 
ATOM      4  S   UNL d   1       2.546  -0.717   0.199  0.00  0.00    -0.067 SA
ATOM      5  C   UNL d   1       1.683   0.730   0.176  0.00  0.00     0.083 A 
ATOM      6  C   UNL d   1      -1.405  -1.270  -0.218  0.00  0.00     0.162 C 
ATOM      7  C   UNL d   1      -0.706   1.650  -0.021  0.00  0.00     0.051 C 
ATOM      8  C   UNL d   1      -2.127   1.147   0.334  0.00  0.00    -0.037 C 
ATOM      9  C   UNL d   1      -2.436  -0.168  -0.422  0.00  0.00     0.093 C 
ATOM     10  O   UNL d   1      -1.741  -2.449  -0.288  0.00  0.00    -0.292 OA
ATOM     11 CL   UNL d   1       2.542   2.219   0.256  0.00  0.00    -0.076 Cl
ATOM     12  C   UNL d   1      -3.155   2.211  -0.099  0.00  0.00     0.015 C 
ATOM     13  C   UNL d   1      -2.264   0.947   1.856  0.00  0.00     0.015 C 
ENDROOT
BRANCH   2  14
ATOM     14  S   UNL d   1       1.185  -3.384  -0.221  0.00  0.00     0.053 S 
ATOM     15  O   UNL d   1       2.634  -3.777  -0.171  0.00  0.00    -0.253 OA
ATOM     16  C   UNL d   1       0.433  -3.945   1.323  0.00  0.00     0.133 C 
ENDBRANCH   2  14
TORSDOF 1
