REMARK  1 active torsions:
REMARK  status: ('A' for Active; 'I' for Inactive)
REMARK    1  A    between atoms: N_2  and  C_1 
ROOT
ATOM      1  C   UNL d   1       1.374  -1.463  -0.035  0.00  0.00     0.108 A 
ATOM      2  C   UNL d   1       1.372  -0.072  -0.018  0.00  0.00     0.086 A 
ATOM      3  S   UNL d   1      -0.234  -2.070  -0.053  0.00  0.00    -0.074 SA
ATOM      4  C   UNL d   1       0.039   0.472  -0.010  0.00  0.00    -0.021 A 
ATOM      5  C   UNL d   1      -0.915  -0.526  -0.002  0.00  0.00    -0.007 A 
ATOM      6  C   UNL d   1       2.540   0.763  -0.095  0.00  0.00     0.103 C 
ATOM      7  N   UNL d   1       3.444   1.486  -0.205  0.00  0.00    -0.191 NA
ATOM      8  C   UNL d   1      -0.351   1.926  -0.051  0.00  0.00     0.041 C 
ATOM      9  C   UNL d   1      -2.392  -0.321   0.062  0.00  0.00     0.047 C 
ATOM     10  C   UNL d   1      -1.825   2.141   0.329  0.00  0.00     0.005 C 
ATOM     11  C   UNL d   1      -2.750   1.116  -0.342  0.00  0.00     0.005 C 
ENDROOT
BRANCH   1  12
ATOM     12  N   UNL d   1       2.404  -2.405   0.016  0.00  0.00    -0.244 N 
ATOM     13  C   UNL d   1       3.572  -2.177   0.698  0.00  0.00     0.232 A 
ATOM     14  C   UNL d   1       4.440  -3.394   0.600  0.00  0.00     0.113 A 
ATOM     15  O   UNL d   1       3.888  -1.205   1.369  0.00  0.00    -0.273 OA
ATOM     16  C   UNL d   1       3.595  -4.411  -0.134  0.00  0.00     0.113 A 
ATOM     17  C   UNL d   1       2.329  -3.686  -0.480  0.00  0.00     0.232 A 
ATOM     18  O   UNL d   1       1.449  -4.226  -1.137  0.00  0.00    -0.273 OA
ENDBRANCH   1  12
TORSDOF 1
