REMARK  8 active torsions:
REMARK  status: ('A' for Active; 'I' for Inactive)
REMARK    1  A    between atoms: C_9  and  C_1 
REMARK    2  A    between atoms: S_14  and  C_6 
REMARK    3  A    between atoms: C_21  and  C_7 
REMARK    4  A    between atoms: C_13  and  C_17 
REMARK    5  A    between atoms: C_20  and  C_13 
REMARK    6  A    between atoms: C_17  and  S_14 
REMARK    7  A    between atoms: O_15  and  C_21 
REMARK    8  A    between atoms: C_16  and  O_15 
ROOT
ATOM      1  N   UNL d   1       2.590   2.558   0.807  0.00  0.00    -0.335 N 
ATOM      2  HN  UNL d   1       1.850   2.708   1.492  1.00  0.00     0.168 HD
ATOM      3  C   UNL d   1       3.690   3.329   0.778  0.00  0.00     0.145 A 
ATOM      4  C   UNL d   1       2.515   1.573  -0.117  0.00  0.00     0.062 A 
ATOM      5  N   UNL d   1       4.664   3.242  -0.147  0.00  0.00    -0.347 N 
ATOM      6  HN  UNL d   1       5.456   3.885  -0.154  1.00  0.00     0.167 HD
ATOM      7  C   UNL d   1       3.490   1.393  -1.083  0.00  0.00     0.049 A 
ATOM      8  C   UNL d   1       4.541   2.272  -1.056  0.00  0.00     0.092 A 
ENDROOT
BRANCH   4   9
ATOM      9  C   UNL d   1       1.350   0.679  -0.058  0.00  0.00     0.066 A 
ATOM     10  N   UNL d   1       0.717   0.340   1.135  0.00  0.00    -0.350 N 
ATOM     11  C   UNL d   1      -0.276  -0.506   0.916  0.00  0.00     0.075 A 
ATOM     12  HN  UNL d   1       0.982   0.696   2.053  1.00  0.00     0.166 HD
ATOM     13  S   UNL d   1      -0.519  -0.922  -0.738  0.00  0.00    -0.084 SA
ATOM     14  C   UNL d   1       0.784   0.098  -1.179  0.00  0.00     0.083 A 
BRANCH  11  15
ATOM     15  C   UNL d   1      -1.238  -1.012   1.964  0.00  0.00     0.240 C 
BRANCH  15  16
ATOM     16  O   UNL d   1      -1.083  -2.424   2.104  0.00  0.00    -0.343 OA
BRANCH  16  17
ATOM     17  C   UNL d   1      -1.736  -3.085   3.116  0.00  0.00     0.090 A 
ATOM     18  C   UNL d   1      -2.725  -2.644   4.012  0.00  0.00     0.067 A 
ATOM     19 CL   UNL d   1      -3.514  -1.109   3.959  0.00  0.00    -0.081 Cl
ATOM     20  C   UNL d   1      -3.217  -3.511   5.006  0.00  0.00     0.026 A 
ATOM     21  C   UNL d   1      -2.792  -4.833   5.080  0.00  0.00     0.002 A 
ATOM     22  C   UNL d   1      -1.858  -5.299   4.164  0.00  0.00     0.003 A 
ATOM     23  C   UNL d   1      -1.327  -4.427   3.207  0.00  0.00     0.038 A 
ENDBRANCH  16  17
ENDBRANCH  15  16
ENDBRANCH  11  15
ENDBRANCH   4   9
BRANCH   3  24
ATOM     24  S   UNL d   1       3.948   4.587   2.004  0.00  0.00    -0.086 SA
BRANCH  24  25
ATOM     25  C   UNL d   1       2.554   4.271   3.107  0.00  0.00     0.166 C 
BRANCH  25  26
ATOM     26  C   UNL d   1       2.544   2.857   3.667  0.00  0.00     0.169 C 
ATOM     27  O   UNL d   1       3.574   2.251   3.966  0.00  0.00    -0.291 OA
BRANCH  26  28
ATOM     28  C   UNL d   1       1.223   2.260   4.024  0.00  0.00     0.010 A 
ATOM     29  C   UNL d   1       0.021   2.693   3.450  0.00  0.00     0.015 A 
ATOM     30  C   UNL d   1      -1.198   2.226   3.939  0.00  0.00     0.001 A 
ATOM     31  C   UNL d   1      -1.219   1.309   4.987  0.00  0.00     0.000 A 
ATOM     32  C   UNL d   1      -0.027   0.799   5.497  0.00  0.00     0.001 A 
ATOM     33  C   UNL d   1       1.193   1.273   5.017  0.00  0.00     0.015 A 
ENDBRANCH  26  28
ENDBRANCH  25  26
ENDBRANCH  24  25
ENDBRANCH   3  24
TORSDOF 8
