REMARK  3 active torsions:
REMARK  status: ('A' for Active; 'I' for Inactive)
REMARK    1  A    between atoms: C_2  and  C_1 
REMARK    2  A    between atoms: O_6  and  C_1 
REMARK    3  A    between atoms: C_10  and  C_9 
ROOT
ATOM      1  C   UNL d   1       0.326   1.202   0.133  0.00  0.00     0.037 A 
ATOM      2  C   UNL d   1       0.769   2.257  -0.671  0.00  0.00     0.019 A 
ATOM      3  C   UNL d   1      -0.795   1.375   0.953  0.00  0.00     0.019 A 
ATOM      4  C   UNL d   1       0.072   3.468  -0.686  0.00  0.00     0.008 A 
ATOM      5  C   UNL d   1      -1.493   2.586   0.930  0.00  0.00     0.008 A 
ATOM      6  C   UNL d   1      -1.074   3.636   0.102  0.00  0.00    -0.059 A 
ENDROOT
BRANCH   1   7
ATOM      7  C   UNL d   1       1.093  -0.068   0.116  0.00  0.00     0.176 C 
ATOM      8  O   UNL d   1       2.298  -0.115  -0.064  0.00  0.00    -0.646 OA
BRANCH   7   9
ATOM      9  O   UNL d   1       0.325  -1.168   0.269  0.00  0.00    -0.773 OA
ATOM     10  H   UNL d   1      -0.634  -1.007   0.213  0.00  0.00     0.167 HD
ENDBRANCH   7   9
ENDBRANCH   1   7
BRANCH   6  11
ATOM     11  C   UNL d   1      -1.838   4.937   0.081  0.00  0.00     0.034 C 
ATOM     12  C   UNL d   1      -1.367   5.904   1.156  0.00  0.00     0.010 C 
ENDBRANCH   6  11
TORSDOF 3
