REMARK  11 active torsions:
REMARK  status: ('A' for Active; 'I' for Inactive)
REMARK    1  A    between atoms: C_5  and  C_1 
REMARK    2  A    between atoms: S_12  and  C_6 
REMARK    3  A    between atoms: C_9  and  C_18 
REMARK    4  A    between atoms: C_10  and  C_20 
REMARK    5  A    between atoms: O_16  and  C_11 
REMARK    6  A    between atoms: C_17  and  S_12 
REMARK    7  A    between atoms: C_14  and  C_17 
REMARK    8  A    between atoms: C_15  and  C_14 
REMARK    9  A    between atoms: C_18  and  O_16 
REMARK   10  A    between atoms: C_20  and  O_31 
REMARK   11  A    between atoms: O_31  and  C_30 
ROOT
ATOM      1  C   UNL d   1      -0.280  -1.076   0.185  0.00  0.00     0.178 A 
ATOM      2  O   UNL d   1       0.859  -0.883   0.933  0.00  0.00    -0.267 OA
ATOM      3  N   UNL d   1      -0.785   0.066  -0.238  0.00  0.00    -0.277 N 
ATOM      4  HN  UNL d   1      -1.619   0.187  -0.813  1.00  0.00     0.189 HD
ATOM      5  C   UNL d   1       0.997   0.478   0.929  0.00  0.00     0.204 A 
ATOM      6  N   UNL d   1       0.039   1.071   0.248  0.00  0.00    -0.272 N 
ATOM      7  HN  UNL d   1      -0.075   2.074   0.105  1.00  0.00     0.189 HD
ENDROOT
BRANCH   1   8
ATOM      8  C   UNL d   1      -0.707  -2.468   0.020  0.00  0.00     0.053 A 
ATOM      9  C   UNL d   1      -1.579  -2.898  -1.002  0.00  0.00     0.083 A 
ATOM     10  C   UNL d   1      -1.858  -4.270  -1.130  0.00  0.00     0.040 A 
ATOM     11  C   UNL d   1      -1.373  -5.202  -0.211  0.00  0.00     0.039 A 
ATOM     12  C   UNL d   1      -0.577  -4.782   0.843  0.00  0.00     0.070 A 
ATOM     13  C   UNL d   1      -0.226  -3.434   0.933  0.00  0.00     0.055 A 
BRANCH   9  14
ATOM     14  O   UNL d   1      -2.119  -1.956  -1.847  0.00  0.00    -0.341 OA
BRANCH  14  15
ATOM     15  C   UNL d   1      -3.224  -2.392  -2.660  0.00  0.00     0.293 C 
BRANCH  15  16
ATOM     16  C   UNL d   1      -4.008  -1.246  -3.290  0.00  0.00     0.408 C 
ATOM     17  F   UNL d   1      -3.350  -0.070  -3.264  0.00  0.00    -0.169 F 
ATOM     18  F   UNL d   1      -4.282  -1.525  -4.588  0.00  0.00    -0.169 F 
ATOM     19  F   UNL d   1      -5.196  -1.075  -2.664  0.00  0.00    -0.169 F 
ENDBRANCH  15  16
ENDBRANCH  14  15
ENDBRANCH   9  14
BRANCH  12  20
ATOM     20  O   UNL d   1      -0.046  -5.590   1.807  0.00  0.00    -0.342 OA
BRANCH  20  21
ATOM     21  C   UNL d   1      -0.745  -6.815   2.074  0.00  0.00     0.293 C 
BRANCH  21  22
ATOM     22  C   UNL d   1      -0.037  -7.640   3.145  0.00  0.00     0.408 C 
ATOM     23  F   UNL d   1       1.122  -7.087   3.560  0.00  0.00    -0.169 F 
ATOM     24  F   UNL d   1      -0.826  -7.803   4.232  0.00  0.00    -0.169 F 
ATOM     25  F   UNL d   1       0.252  -8.877   2.672  0.00  0.00    -0.169 F 
ENDBRANCH  21  22
ENDBRANCH  20  21
ENDBRANCH  12  20
ENDBRANCH   1   8
BRANCH   5  26
ATOM     26  S   UNL d   1       2.271   1.283   1.793  0.00  0.00    -0.077 SA
BRANCH  26  27
ATOM     27  C   UNL d   1       2.319   2.874   0.935  0.00  0.00     0.166 C 
BRANCH  27  28
ATOM     28  C   UNL d   1       3.429   3.729   1.525  0.00  0.00     0.169 C 
ATOM     29  O   UNL d   1       4.599   3.583   1.169  0.00  0.00    -0.291 OA
BRANCH  28  30
ATOM     30  C   UNL d   1       3.117   4.773   2.553  0.00  0.00     0.011 A 
ATOM     31  C   UNL d   1       1.855   4.917   3.139  0.00  0.00     0.017 A 
ATOM     32  C   UNL d   1       1.620   5.934   4.073  0.00  0.00     0.025 A 
ATOM     33  C   UNL d   1       2.647   6.803   4.436  0.00  0.00     0.034 A 
ATOM     34  C   UNL d   1       3.914   6.665   3.876  0.00  0.00     0.025 A 
ATOM     35 CL   UNL d   1       2.347   8.054   5.577  0.00  0.00    -0.084 Cl
ATOM     36  C   UNL d   1       4.148   5.651   2.939  0.00  0.00     0.017 A 
ENDBRANCH  28  30
ENDBRANCH  27  28
ENDBRANCH  26  27
ENDBRANCH   5  26
TORSDOF 11
