REMARK  6 active torsions:
REMARK  status: ('A' for Active; 'I' for Inactive)
REMARK    1  A    between atoms: C_6  and  C_1 
REMARK    2  A    between atoms: C_13  and  N_2 
REMARK       I    between atoms: N_8  and  C_6 
REMARK    3  A    between atoms: C_10  and  N_8 
REMARK    4  A    between atoms: C_11  and  C_16 
REMARK    5  A    between atoms: S_12  and  C_15 
REMARK    6  A    between atoms: C_16  and  S_12 
ROOT
ATOM      1  C   UNL d   1      -0.507   2.337   0.811  0.00  0.00     0.259 C 
ATOM      2  N   UNL d   1       0.176   3.490   0.462  0.00  0.00    -0.322 N 
ATOM      3  O   UNL d   1      -0.078   1.200   0.653  0.00  0.00    -0.267 OA
ATOM      4  H   UNL d   1      -0.093   4.330   0.956  0.00  0.00     0.169 HD
ENDROOT
BRANCH   2   5
ATOM      5  C   UNL d   1       1.484   3.482  -0.077  0.00  0.00     0.051 A 
ATOM      6  C   UNL d   1       1.942   2.653  -1.125  0.00  0.00     0.027 A 
ATOM      7  C   UNL d   1       3.321   2.655  -1.413  0.00  0.00     0.021 A 
ATOM      8  C   UNL d   1       4.214   3.478  -0.723  0.00  0.00     0.002 A 
ATOM      9  C   UNL d   1       3.740   4.346   0.250  0.00  0.00     0.002 A 
ATOM     10  C   UNL d   1       2.381   4.363   0.555  0.00  0.00     0.031 A 
BRANCH   6  11
ATOM     11  S   UNL d   1       0.986   1.584  -2.215  0.00  0.00    -0.123 SA
BRANCH  11  12
ATOM     12  C   UNL d   1      -0.513   2.562  -2.577  0.00  0.00     0.121 C 
BRANCH  12  13
ATOM     13  C   UNL d   1      -1.445   1.858  -3.538  0.00  0.00    -0.008 A 
ATOM     14  C   UNL d   1      -1.898   2.513  -4.689  0.00  0.00     0.145 A 
ATOM     15  C   UNL d   1      -2.807   1.903  -5.556  0.00  0.00     0.073 A 
ATOM     16  F   UNL d   1      -1.463   3.758  -4.948  0.00  0.00    -0.204 F 
ATOM     17 CL   UNL d   1      -3.369   2.728  -6.961  0.00  0.00    -0.081 Cl
ATOM     18  C   UNL d   1      -3.283   0.622  -5.283  0.00  0.00     0.027 A 
ATOM     19  C   UNL d   1      -2.849  -0.045  -4.137  0.00  0.00     0.002 A 
ATOM     20  C   UNL d   1      -1.944   0.572  -3.266  0.00  0.00     0.011 A 
ENDBRANCH  12  13
ENDBRANCH  11  12
ENDBRANCH   6  11
ENDBRANCH   2   5
BRANCH   1  21
ATOM     21  C   UNL d   1      -1.821   2.569   1.401  0.00  0.00     0.073 C 
ATOM     22  C   UNL d   1      -2.861   1.647   1.457  0.00  0.00     0.048 C 
ATOM     23  N   UNL d   1      -3.953   2.316   1.993  0.00  0.00    -0.260 N 
ATOM     24  C   UNL d   1      -2.863   0.205   1.080  0.00  0.00     0.071 C 
ATOM     25  N   UNL d   1      -3.581   3.516   2.510  0.00  0.00    -0.304 N 
ATOM     26  C   UNL d   1      -2.336   3.693   2.075  0.00  0.00     0.126 C 
ATOM     27  HN  UNL d   1      -4.131   4.140   3.100  1.00  0.00     0.186 HD
BRANCH  23  28
ATOM     28  C   UNL d   1      -5.323   1.939   2.012  0.00  0.00     0.056 A 
ATOM     29  C   UNL d   1      -6.161   2.450   3.013  0.00  0.00     0.031 A 
ATOM     30  C   UNL d   1      -7.514   2.104   3.037  0.00  0.00     0.002 A 
ATOM     31  C   UNL d   1      -8.041   1.277   2.046  0.00  0.00     0.000 A 
ATOM     32  C   UNL d   1      -7.219   0.791   1.032  0.00  0.00     0.002 A 
ATOM     33  C   UNL d   1      -5.861   1.117   1.014  0.00  0.00     0.031 A 
ENDBRANCH  23  28
ENDBRANCH   1  21
TORSDOF 6
