REMARK  5 active torsions:
REMARK  status: ('A' for Active; 'I' for Inactive)
REMARK    1  A    between atoms: S_7  and  C_1 
REMARK    2  A    between atoms: C_18  and  N_4 
REMARK    3  A    between atoms: C_20  and  S_7 
REMARK    4  A    between atoms: C_8  and  N_12 
REMARK    5  A    between atoms: C_11  and  C_20 
REMARK       I    between atoms: N_12  and  C_11 
ROOT
ATOM      1  C   UNL d   1       2.236   0.292   0.648  0.00  0.00     0.148 C 
ATOM      2  N   UNL d   1       1.617  -0.859   0.578  0.00  0.00    -0.335 N 
ATOM      3  HN  UNL d   1       2.013  -1.785   0.737  1.00  0.00     0.168 HD
ATOM      4  N   UNL d   1       1.441   1.329   0.223  0.00  0.00    -0.321 N 
ATOM      5  C   UNL d   1       0.326  -0.556   0.247  0.00  0.00     0.062 A 
ATOM      6  C   UNL d   1       0.163   0.820   0.086  0.00  0.00     0.063 A 
ATOM      7  C   UNL d   1      -0.769  -1.422   0.124  0.00  0.00     0.055 A 
ATOM      8  C   UNL d   1      -1.096   1.389  -0.148  0.00  0.00     0.034 A 
ATOM      9  C   UNL d   1      -2.028  -0.860  -0.092  0.00  0.00     0.036 A 
ATOM     10  C   UNL d   1      -2.192   0.518  -0.214  0.00  0.00     0.026 A 
ATOM     11 CL   UNL d   1      -3.402  -1.893  -0.173  0.00  0.00    -0.084 Cl
ENDROOT
BRANCH   1  12
ATOM     12  S   UNL d   1       3.762   0.475   1.450  0.00  0.00    -0.084 SA
BRANCH  12  13
ATOM     13  C   UNL d   1       4.659  -1.026   0.973  0.00  0.00     0.185 C 
BRANCH  13  14
ATOM     14  C   UNL d   1       4.297  -2.343   1.659  0.00  0.00     0.231 C 
ATOM     15  N   UNL d   1       3.021  -2.463   2.159  0.00  0.00    -0.326 N 
ATOM     16  H   UNL d   1       2.406  -1.679   1.949  0.00  0.00     0.169 HD
ATOM     17  O   UNL d   1       5.132  -3.253   1.657  0.00  0.00    -0.272 OA
BRANCH  15  18
ATOM     18  C   UNL d   1       2.366  -3.623   2.623  0.00  0.00     0.037 A 
ATOM     19  C   UNL d   1       2.999  -4.849   2.835  0.00  0.00     0.053 A 
ATOM     20  C   UNL d   1       2.247  -5.969   3.195  0.00  0.00     0.037 A 
ATOM     21 CL   UNL d   1       3.032  -7.486   3.427  0.00  0.00    -0.084 Cl
ATOM     22  C   UNL d   1       0.866  -5.886   3.355  0.00  0.00     0.048 A 
ATOM     23  C   UNL d   1       0.243  -4.657   3.177  0.00  0.00     0.037 A 
ATOM     24  C   UNL d   1       0.984  -3.528   2.829  0.00  0.00     0.053 A 
ATOM     25 CL   UNL d   1      -1.465  -4.529   3.353  0.00  0.00    -0.084 Cl
ENDBRANCH  15  18
ENDBRANCH  13  14
ENDBRANCH  12  13
ENDBRANCH   1  12
BRANCH   4  26
ATOM     26  C   UNL d   1       1.881   2.688  -0.094  0.00  0.00     0.084 C 
ATOM     27  C   UNL d   1       1.527   3.096  -1.529  0.00  0.00     0.032 C 
ATOM     28  C   UNL d   1       1.388   3.713   0.924  0.00  0.00     0.032 C 
ENDBRANCH   4  26
TORSDOF 5
