REMARK  10 active torsions:
REMARK  status: ('A' for Active; 'I' for Inactive)
REMARK    1  A    between atoms: C_9  and  C_1 
REMARK    2  A    between atoms: C_11  and  C_2 
REMARK    3  A    between atoms: C_12  and  C_2 
REMARK    4  A    between atoms: C_14  and  C_8 
REMARK    5  A    between atoms: C_10  and  N_13 
REMARK    6  A    between atoms: O_21  and  C_11 
REMARK    7  A    between atoms: O_20  and  C_12 
REMARK    8  A    between atoms: N_13  and  C_15 
REMARK    9  A    between atoms: C_28  and  O_20 
REMARK   10  A    between atoms: C_29  and  O_21 
ROOT
ATOM      1  C   UNL d   1      -0.602  -2.357   0.047  0.00  0.00     0.043 A 
ATOM      2  C   UNL d   1      -1.395  -2.789  -1.048  0.00  0.00     0.046 A 
ATOM      3  C   UNL d   1      -0.222  -3.299   1.029  0.00  0.00     0.018 A 
ATOM      4  C   UNL d   1      -1.755  -4.153  -1.111  0.00  0.00     0.030 A 
ATOM      5  C   UNL d   1      -0.598  -4.639   0.939  0.00  0.00     0.001 A 
ATOM      6  C   UNL d   1      -1.358  -5.068  -0.137  0.00  0.00     0.002 A 
ENDROOT
BRANCH   1   7
ATOM      7  C   UNL d   1      -0.169  -0.966   0.187  0.00  0.00     0.177 A 
ATOM      8  O   UNL d   1       0.398  -0.593   1.386  0.00  0.00    -0.273 OA
ATOM      9  C   UNL d   1       0.665   0.735   1.175  0.00  0.00     0.174 A 
ATOM     10  N   UNL d   1       0.317   1.133  -0.033  0.00  0.00    -0.277 N 
ATOM     11  N   UNL d   1      -0.219   0.034  -0.672  0.00  0.00    -0.277 N 
ATOM     12  HN  UNL d   1       0.423   2.070  -0.420  1.00  0.00     0.189 HD
ATOM     13  HN  UNL d   1      -0.583   0.002  -1.625  1.00  0.00     0.189 HD
BRANCH   9  14
ATOM     14  C   UNL d   1       1.234   1.503   2.280  0.00  0.00     0.017 A 
ATOM     15  C   UNL d   1       1.627   0.912   3.493  0.00  0.00     0.017 A 
ATOM     16  C   UNL d   1       2.130   1.694   4.542  0.00  0.00     0.025 A 
ATOM     17  C   UNL d   1       2.245   3.074   4.388  0.00  0.00     0.034 A 
ATOM     18  C   UNL d   1       1.877   3.677   3.189  0.00  0.00     0.025 A 
ATOM     19 CL   UNL d   1       2.837   4.036   5.684  0.00  0.00    -0.084 Cl
ATOM     20  C   UNL d   1       1.378   2.895   2.143  0.00  0.00     0.017 A 
ENDBRANCH   9  14
ENDBRANCH   1   7
BRANCH   2  21
ATOM     21  N   UNL d   1      -1.910  -1.870  -1.996  0.00  0.00    -0.364 N 
ATOM     22  H   UNL d   1      -1.329  -1.042  -2.170  0.00  0.00     0.165 HD
BRANCH  21  23
ATOM     23  C   UNL d   1      -2.993  -2.049  -2.833  0.00  0.00     0.112 C 
ATOM     24  C   UNL d   1      -3.419  -1.355  -3.906  0.00  0.00     0.129 C 
BRANCH  24  25
ATOM     25  C   UNL d   1      -2.725  -0.183  -4.481  0.00  0.00     0.300 C 
ATOM     26  O   UNL d   1      -3.239   0.626  -5.240  0.00  0.00    -0.259 OA
BRANCH  25  27
ATOM     27  O   UNL d   1      -1.411  -0.196  -4.127  0.00  0.00    -0.318 OA
BRANCH  27  28
ATOM     28  C   UNL d   1      -0.535   0.571  -4.964  0.00  0.00     0.174 C 
ATOM     29  C   UNL d   1      -0.081  -0.326  -6.103  0.00  0.00     0.034 C 
ENDBRANCH  27  28
ENDBRANCH  25  27
ENDBRANCH  24  25
BRANCH  24  30
ATOM     30  C   UNL d   1      -4.594  -1.950  -4.600  0.00  0.00     0.300 C 
ATOM     31  O   UNL d   1      -5.395  -2.709  -4.068  0.00  0.00    -0.259 OA
BRANCH  30  32
ATOM     32  O   UNL d   1      -4.518  -1.696  -5.925  0.00  0.00    -0.318 OA
BRANCH  32  33
ATOM     33  C   UNL d   1      -5.251  -2.576  -6.792  0.00  0.00     0.174 C 
ATOM     34  C   UNL d   1      -4.279  -3.632  -7.285  0.00  0.00     0.034 C 
ENDBRANCH  32  33
ENDBRANCH  30  32
ENDBRANCH  24  30
ENDBRANCH  21  23
ENDBRANCH   2  21
TORSDOF 10
