REMARK  4 active torsions:
REMARK  status: ('A' for Active; 'I' for Inactive)
REMARK    1  A    between atoms: N_8  and  S_1 
REMARK    2  A    between atoms: C_10  and  S_1 
REMARK    3  A    between atoms: C_4  and  C_13 
REMARK    4  A    between atoms: C_14  and  C_5 
ROOT
ATOM      1  C   UNL d   1       0.764   1.083   1.548  0.00  0.00     0.074 A 
ATOM      2  C   UNL d   1      -0.019   2.852   3.570  0.00  0.00     0.010 A 
ATOM      3  C   UNL d   1       0.361   0.578   2.786  0.00  0.00     0.026 A 
ATOM      4  C   UNL d   1       0.752   2.457   1.297  0.00  0.00     0.026 A 
ATOM      5  C   UNL d   1       0.356   3.338   2.307  0.00  0.00     0.017 A 
ATOM      6  C   UNL d   1      -0.032   1.464   3.791  0.00  0.00     0.017 A 
ENDROOT
BRANCH   2   7
ATOM      7  C   UNL d   1      -0.369   3.777   4.642  0.00  0.00     0.138 A 
ATOM      8  N   UNL d   1      -0.356   5.144   4.470  0.00  0.00    -0.319 N 
ATOM      9  C   UNL d   1      -0.748   5.585   5.645  0.00  0.00     0.182 A 
ATOM     10  HN  UNL d   1      -0.105   5.679   3.639  1.00  0.00     0.169 HD
ATOM     11  O   UNL d   1      -0.979   4.581   6.540  0.00  0.00    -0.217 OA
ATOM     12  N   UNL d   1      -0.729   3.385   5.875  0.00  0.00    -0.242 N 
ATOM     13  HN  UNL d   1      -0.802   2.435   6.238  1.00  0.00     0.196 HD
BRANCH   9  14
ATOM     14  C   UNL d   1      -1.037   6.942   6.086  0.00  0.00     0.017 A 
ATOM     15  C   UNL d   1      -0.912   8.007   5.181  0.00  0.00     0.016 A 
ATOM     16  C   UNL d   1      -1.266   9.306   5.555  0.00  0.00     0.001 A 
ATOM     17  C   UNL d   1      -1.741   9.555   6.841  0.00  0.00     0.000 A 
ATOM     18  C   UNL d   1      -1.846   8.513   7.759  0.00  0.00     0.001 A 
ATOM     19  C   UNL d   1      -1.492   7.214   7.386  0.00  0.00     0.016 A 
ENDBRANCH   9  14
ENDBRANCH   2   7
BRANCH   1  20
ATOM     20  S   UNL d   1       1.384  -0.018   0.302  0.00  0.00     0.243 S 
ATOM     21  O   UNL d   1       2.676   0.496  -0.104  0.00  0.00    -0.206 OA
ATOM     22  O   UNL d   1       1.238  -1.377   0.780  0.00  0.00    -0.206 OA
BRANCH  20  23
ATOM     23  N   UNL d   1       0.291   0.212  -0.981  0.00  0.00    -0.202 NA
ATOM     24  C   UNL d   1      -1.100  -0.305  -0.783  0.00  0.00     0.134 C 
ATOM     25  C   UNL d   1      -1.206  -1.804  -1.100  0.00  0.00     0.183 C 
ATOM     26  O   UNL d   1      -0.702  -2.107  -2.409  0.00  0.00    -0.389 OA
ATOM     27  C   UNL d   1       0.672  -1.707  -2.527  0.00  0.00     0.183 C 
ATOM     28  C   UNL d   1       0.806  -0.197  -2.325  0.00  0.00     0.134 C 
ENDBRANCH  20  23
ENDBRANCH   1  20
TORSDOF 4
