REMARK  9 active torsions:
REMARK  status: ('A' for Active; 'I' for Inactive)
REMARK    1  A    between atoms: C_4  and  C_1 
REMARK    2  A    between atoms: C_5  and  C_1 
REMARK    3  A    between atoms: N_6  and  N_2 
REMARK    4  A    between atoms: C_8  and  C_4 
REMARK    5  A    between atoms: O_14  and  C_5 
REMARK    6  A    between atoms: C_7  and  N_6 
REMARK    7  A    between atoms: S_10  and  C_8 
REMARK    8  A    between atoms: C_13  and  S_10 
REMARK    9  A    between atoms: C_24  and  O_14 
ROOT
ATOM      1  C   UNL d   1       1.148   0.103  -0.041  0.00  0.00     0.170 C 
ATOM      2  N   UNL d   1       0.361  -0.741   0.577  0.00  0.00    -0.292 N 
ATOM      3  HN  UNL d   1      -0.650  -0.614   0.597  1.00  0.00     0.187 HD
ENDROOT
BRANCH   1   4
ATOM      4  C   UNL d   1       0.509   1.276  -0.747  0.00  0.00     0.193 C 
ATOM      5  O   UNL d   1       1.096   1.760  -1.710  0.00  0.00    -0.290 OA
BRANCH   4   6
ATOM      6  C   UNL d   1      -0.856   1.730  -0.305  0.00  0.00     0.165 C 
BRANCH   6   7
ATOM      7  S   UNL d   1      -0.918   2.298   1.421  0.00  0.00    -0.122 SA
BRANCH   7   8
ATOM      8  C   UNL d   1       0.164   3.717   1.481  0.00  0.00     0.001 A 
ATOM      9  C   UNL d   1       0.482   4.536   0.394  0.00  0.00     0.020 A 
ATOM     10  C   UNL d   1       1.342   5.632   0.557  0.00  0.00     0.025 A 
ATOM     11  C   UNL d   1       1.877   5.920   1.811  0.00  0.00     0.034 A 
ATOM     12  C   UNL d   1       1.546   5.133   2.908  0.00  0.00     0.025 A 
ATOM     13 CL   UNL d   1       2.945   7.253   2.005  0.00  0.00    -0.084 Cl
ATOM     14  C   UNL d   1       0.691   4.041   2.742  0.00  0.00     0.020 A 
ENDBRANCH   7   8
ENDBRANCH   6   7
ENDBRANCH   4   6
ENDBRANCH   1   4
BRANCH   1  15
ATOM     15  C   UNL d   1       2.652  -0.065  -0.061  0.00  0.00     0.315 C 
ATOM     16  O   UNL d   1       3.186  -1.139  -0.267  0.00  0.00    -0.257 OA
BRANCH  15  17
ATOM     17  O   UNL d   1       3.219   1.093   0.336  0.00  0.00    -0.317 OA
BRANCH  17  18
ATOM     18  C   UNL d   1       4.556   0.982   0.837  0.00  0.00     0.175 C 
ATOM     19  C   UNL d   1       4.460   1.054   2.349  0.00  0.00     0.034 C 
ENDBRANCH  17  18
ENDBRANCH  15  17
ENDBRANCH   1  15
BRANCH   2  20
ATOM     20  N   UNL d   1       0.964  -1.802   1.196  0.00  0.00    -0.298 N 
ATOM     21  H   UNL d   1       1.746  -2.276   0.716  0.00  0.00     0.187 HD
BRANCH  20  22
ATOM     22  C   UNL d   1       0.139  -2.725   1.886  0.00  0.00     0.069 A 
ATOM     23  C   UNL d   1       0.547  -4.058   2.083  0.00  0.00     0.062 A 
ATOM     24 CL   UNL d   1       2.044  -4.630   1.426  0.00  0.00    -0.082 Cl
ATOM     25  C   UNL d   1      -0.248  -4.962   2.793  0.00  0.00     0.026 A 
ATOM     26  C   UNL d   1      -1.456  -4.538   3.345  0.00  0.00     0.002 A 
ATOM     27  C   UNL d   1      -1.861  -3.214   3.192  0.00  0.00     0.002 A 
ATOM     28  C   UNL d   1      -1.067  -2.315   2.473  0.00  0.00     0.033 A 
ENDBRANCH  20  22
ENDBRANCH   2  20
TORSDOF 9
