REMARK  8 active torsions:
REMARK  status: ('A' for Active; 'I' for Inactive)
REMARK    1  A    between atoms: C_3  and  C_1 
REMARK    2  A    between atoms: C_6  and  C_2 
REMARK    3  A    between atoms: C_7  and  C_3 
REMARK    4  A    between atoms: C_8  and  C_15 
REMARK    5  A    between atoms: O_19  and  C_8 
REMARK    6  A    between atoms: O_10  and  C_9 
REMARK    7  A    between atoms: C_15  and  O_10 
REMARK    8  A    between atoms: C_23  and  O_19 
ROOT
ATOM      1  C   UNL d   1      -0.651  -0.546   1.380  0.00  0.00     0.096 C 
ATOM      2  C   UNL d   1       0.461  -1.065   0.813  0.00  0.00     0.041 C 
ATOM      3  C   UNL d   1      -1.252   0.607   0.787  0.00  0.00     0.103 C 
ATOM      4  N   UNL d   1      -1.764   1.515   0.280  0.00  0.00    -0.191 NA
ENDROOT
BRANCH   1   5
ATOM      5  C   UNL d   1      -1.242  -1.125   2.631  0.00  0.00     0.202 C 
ATOM      6  O   UNL d   1      -0.566  -1.770   3.430  0.00  0.00    -0.286 OA
BRANCH   5   7
ATOM      7  C   UNL d   1      -2.659  -0.872   3.001  0.00  0.00     0.016 A 
ATOM      8  C   UNL d   1      -3.723  -0.886   2.091  0.00  0.00     0.017 A 
ATOM      9  C   UNL d   1      -5.036  -0.700   2.550  0.00  0.00     0.025 A 
ATOM     10  C   UNL d   1      -5.284  -0.516   3.911  0.00  0.00     0.034 A 
ATOM     11  C   UNL d   1      -4.235  -0.516   4.824  0.00  0.00     0.025 A 
ATOM     12 CL   UNL d   1      -6.897  -0.307   4.472  0.00  0.00    -0.084 Cl
ATOM     13  C   UNL d   1      -2.927  -0.697   4.370  0.00  0.00     0.017 A 
ENDBRANCH   5   7
ENDBRANCH   1   5
BRANCH   2  14
ATOM     14  C   UNL d   1       1.140  -2.324   1.174  0.00  0.00    -0.001 A 
ATOM     15  C   UNL d   1       2.191  -2.427   2.107  0.00  0.00     0.079 A 
ATOM     16  C   UNL d   1       2.776  -3.678   2.344  0.00  0.00     0.037 A 
ATOM     17  C   UNL d   1       2.306  -4.822   1.697  0.00  0.00     0.003 A 
ATOM     18  C   UNL d   1       1.259  -4.727   0.789  0.00  0.00     0.001 A 
ATOM     19  C   UNL d   1       0.683  -3.485   0.524  0.00  0.00     0.014 A 
BRANCH  15  20
ATOM     20  O   UNL d   1       2.650  -1.283   2.716  0.00  0.00    -0.341 OA
BRANCH  20  21
ATOM     21  C   UNL d   1       3.018  -1.431   4.091  0.00  0.00     0.286 C 
BRANCH  21  22
ATOM     22  C   UNL d   1       4.497  -1.716   4.389  0.00  0.00     0.283 C 
ATOM     23  O   UNL d   1       5.392  -1.804   3.559  0.00  0.00    -0.263 OA
BRANCH  22  24
ATOM     24  O   UNL d   1       4.675  -1.855   5.740  0.00  0.00    -0.320 OA
BRANCH  24  25
ATOM     25  C   UNL d   1       6.032  -1.998   6.198  0.00  0.00     0.174 C 
ATOM     26  C   UNL d   1       6.456  -3.455   6.232  0.00  0.00     0.034 C 
ENDBRANCH  24  25
ENDBRANCH  22  24
ENDBRANCH  21  22
ENDBRANCH  20  21
ENDBRANCH  15  20
ENDBRANCH   2  14
TORSDOF 8
