REMARK  5 active torsions:
REMARK  status: ('A' for Active; 'I' for Inactive)
REMARK    1  A    between atoms: O_2  and  C_1 
REMARK    2  A    between atoms: C_6  and  O_2 
REMARK    3  A    between atoms: N_3  and  C_5 
REMARK       I    between atoms: C_4  and  N_3 
REMARK    4  A    between atoms: C_7  and  C_4 
REMARK    5  A    between atoms: C_13  and  C_10 
ROOT
ATOM      1  C   UNL d   1      -0.708   1.272   0.229  0.00  0.00     0.175 A 
ATOM      2  C   UNL d   1       0.672   1.095   0.051  0.00  0.00     0.087 A 
ATOM      3  N   UNL d   1      -1.591   0.242   0.187  0.00  0.00    -0.345 N 
ATOM      4  HN  UNL d   1      -2.580   0.384   0.391  1.00  0.00     0.167 HD
ATOM      5  C   UNL d   1       1.116  -0.165  -0.358  0.00  0.00     0.035 A 
ATOM      6  C   UNL d   1      -1.109  -0.976  -0.136  0.00  0.00     0.090 A 
ATOM      7  C   UNL d   1       0.217  -1.223  -0.437  0.00  0.00     0.019 A 
ENDROOT
BRANCH   2   8
ATOM      8  N   UNL d   1       1.657   2.088   0.177  0.00  0.00    -0.320 N 
ATOM      9  C   UNL d   1       1.878   3.011   1.155  0.00  0.00     0.245 C 
ATOM     10  O   UNL d   1       2.762   3.849   0.980  0.00  0.00    -0.268 OA
ATOM     11  H   UNL d   1       2.424   2.063  -0.486  0.00  0.00     0.169 HD
BRANCH   9  12
ATOM     12  C   UNL d   1       1.181   2.879   2.465  0.00  0.00     0.075 C 
ATOM     13  C   UNL d   1       1.715   3.519   3.517  0.00  0.00     0.017 C 
BRANCH  13  14
ATOM     14  C   UNL d   1       1.211   3.502   4.896  0.00  0.00    -0.036 A 
ATOM     15  C   UNL d   1       2.136   3.610   5.946  0.00  0.00     0.011 A 
ATOM     16  C   UNL d   1       1.707   3.708   7.271  0.00  0.00     0.001 A 
ATOM     17  C   UNL d   1       0.346   3.704   7.562  0.00  0.00     0.000 A 
ATOM     18  C   UNL d   1      -0.584   3.586   6.530  0.00  0.00     0.001 A 
ATOM     19  C   UNL d   1      -0.154   3.484   5.202  0.00  0.00     0.011 A 
ENDBRANCH  13  14
ENDBRANCH   9  12
ENDBRANCH   2   8
BRANCH   1  20
ATOM     20  O   UNL d   1      -1.310   2.484   0.473  0.00  0.00    -0.288 OA
BRANCH  20  21
ATOM     21  C   UNL d   1      -1.040   3.567  -0.335  0.00  0.00     0.116 A 
ATOM     22  C   UNL d   1      -0.559   3.533  -1.647  0.00  0.00     0.150 A 
ATOM     23  F   UNL d   1      -0.376   2.375  -2.298  0.00  0.00    -0.203 F 
ATOM     24  C   UNL d   1      -0.233   4.712  -2.317  0.00  0.00     0.045 A 
ATOM     25  C   UNL d   1      -0.431   5.944  -1.696  0.00  0.00     0.003 A 
ATOM     26  C   UNL d   1      -0.981   5.993  -0.415  0.00  0.00     0.003 A 
ATOM     27  C   UNL d   1      -1.288   4.809   0.259  0.00  0.00     0.040 A 
ENDBRANCH  20  21
ENDBRANCH   1  20
TORSDOF 5
