REMARK  6 active torsions:
REMARK  status: ('A' for Active; 'I' for Inactive)
REMARK    1  A    between atoms: C_14  and  C_4 
REMARK    2  A    between atoms: S_7  and  C_20 
REMARK    3  A    between atoms: C_19  and  S_7 
REMARK    4  A    between atoms: S_25  and  C_13 
REMARK    5  A    between atoms: C_20  and  C_28 
REMARK    6  A    between atoms: C_28  and  S_25 
ROOT
ATOM      1  C   UNL d   1       5.821  -2.872  -0.035  0.00  0.00     0.143 A 
ATOM      2  C   UNL d   1       3.469  -1.497   0.042  0.00  0.00     0.008 A 
ATOM      3  N   UNL d   1       4.984  -2.994  -1.079  0.00  0.00    -0.346 N 
ATOM      4  HN  UNL d   1       5.215  -3.578  -1.883  1.00  0.00     0.167 HD
ATOM      5  N   UNL d   1       5.583  -2.111   1.046  0.00  0.00    -0.346 N 
ATOM      6  HN  UNL d   1       6.249  -2.043   1.815  1.00  0.00     0.167 HD
ATOM      7  C   UNL d   1       3.825  -2.307  -1.015  0.00  0.00     0.104 A 
ATOM      8  C   UNL d   1       4.407  -1.437   1.056  0.00  0.00     0.104 A 
ENDROOT
BRANCH   1   9
ATOM      9  S   UNL d   1       7.366  -3.732  -0.181  0.00  0.00    -0.093 SA
BRANCH   9  10
ATOM     10  C   UNL d   1       7.732  -4.132   1.564  0.00  0.00     0.097 C 
BRANCH  10  11
ATOM     11  C   UNL d   1       8.974  -5.011   1.586  0.00  0.00     0.156 C 
BRANCH  11  12
ATOM     12  S   UNL d   1       9.443  -5.421   3.252  0.00  0.00     0.176 S 
ATOM     13  O   UNL d   1       9.808  -4.198   3.941  0.00  0.00    -0.223 OA
ATOM     14  O   UNL d   1       8.446  -6.318   3.802  0.00  0.00    -0.223 OA
BRANCH  12  15
ATOM     15  C   UNL d   1      10.942  -6.367   3.030  0.00  0.00     0.059 A 
ATOM     16  C   UNL d   1      12.180  -5.714   3.047  0.00  0.00     0.025 A 
ATOM     17  C   UNL d   1      13.352  -6.457   2.875  0.00  0.00     0.025 A 
ATOM     18  C   UNL d   1      13.282  -7.839   2.699  0.00  0.00     0.034 A 
ATOM     19  C   UNL d   1      12.046  -8.491   2.704  0.00  0.00     0.025 A 
ATOM     20 CL   UNL d   1      14.724  -8.747   2.476  0.00  0.00    -0.084 Cl
ATOM     21  C   UNL d   1      10.869  -7.755   2.877  0.00  0.00     0.025 A 
ENDBRANCH  12  15
ENDBRANCH  11  12
ENDBRANCH  10  11
ENDBRANCH   9  10
ENDBRANCH   1   9
BRANCH   2  22
ATOM     22  C   UNL d   1       2.185  -0.800   0.081  0.00  0.00     0.017 A 
ATOM     23  C   UNL d   1       1.055  -1.324   0.611  0.00  0.00     0.045 A 
ATOM     24  N   UNL d   1      -0.141  -0.583   0.536  0.00  0.00    -0.243 N 
ATOM     25  C   UNL d   1       1.003  -2.676   1.268  0.00  0.00     0.071 C 
ATOM     26  C   UNL d   1      -0.171   0.676  -0.078  0.00  0.00     0.129 A 
ATOM     27  N   UNL d   1      -1.372  -0.932   0.992  0.00  0.00    -0.297 N 
ATOM     28  N   UNL d   1       0.941   1.253  -0.625  0.00  0.00    -0.350 N 
ATOM     29  C   UNL d   1      -1.471   1.113   0.005  0.00  0.00     0.076 A 
ATOM     30  C   UNL d   1       2.032   0.553  -0.545  0.00  0.00     0.104 A 
ATOM     31  HN  UNL d   1       0.915   2.172  -1.066  1.00  0.00     0.166 HD
ATOM     32  C   UNL d   1      -2.171   0.088   0.671  0.00  0.00     0.026 A 
ATOM     33  C   UNL d   1      -3.614   0.053   1.015  0.00  0.00     0.070 C 
ATOM     34  HN  UNL d   1      -1.631  -1.792   1.477  1.00  0.00     0.187 HD
ENDBRANCH   2  22
TORSDOF 6
