REMARK  5 active torsions:
REMARK  status: ('A' for Active; 'I' for Inactive)
REMARK    1  A    between atoms: C_3  and  S_1 
REMARK    2  A    between atoms: C_4  and  S_1 
REMARK    3  A    between atoms: C_2  and  C_5 
REMARK    4  A    between atoms: C_8  and  C_3 
REMARK       I    between atoms: N_15  and  C_8 
REMARK    5  A    between atoms: N_19  and  N_15 
ROOT
ATOM      1  C   UNL d   1       0.375   0.147   1.603  0.00  0.00     0.128 A 
ATOM      2  C   UNL d   1      -0.454   0.063   4.201  0.00  0.00     0.063 A 
ATOM      3  N   UNL d   1       0.180  -1.079   2.155  0.00  0.00    -0.356 N 
ATOM      4  HN  UNL d   1       0.331  -1.941   1.630  1.00  0.00     0.166 HD
ATOM      5  C   UNL d   1      -0.228  -1.085   3.447  0.00  0.00     0.105 A 
ATOM      6  C   UNL d   1      -0.250   1.302   3.580  0.00  0.00     0.020 A 
ATOM      7  C   UNL d   1       0.177   1.353   2.257  0.00  0.00     0.042 A 
ENDROOT
BRANCH   1   8
ATOM      8  S   UNL d   1       0.985   0.117  -0.069  0.00  0.00     0.199 S 
ATOM      9  O   UNL d   1       1.024   1.485  -0.563  0.00  0.00    -0.221 OA
ATOM     10  O   UNL d   1       2.215  -0.665  -0.073  0.00  0.00    -0.221 OA
BRANCH   8  11
ATOM     11  C   UNL d   1      -0.197  -0.750  -1.034  0.00  0.00     0.251 C 
BRANCH  11  12
ATOM     12  C   UNL d   1      -1.522  -0.059  -0.979  0.00  0.00     0.245 C 
ATOM     13  O   UNL d   1      -2.170   0.074   0.059  0.00  0.00    -0.271 OA
ATOM     14  N   UNL d   1      -2.006   0.369  -2.213  0.00  0.00    -0.293 N 
ATOM     15  H   UNL d   1      -1.374   0.473  -3.008  0.00  0.00     0.183 HD
BRANCH  14  16
ATOM     16  N   UNL d   1      -3.226   1.083  -2.253  0.00  0.00    -0.247 NA
ATOM     17  H   UNL d   1      -3.571   1.154  -1.285  0.00  0.00     0.143 HD
ATOM     18  H   UNL d   1      -3.925   0.505  -2.728  0.00  0.00     0.143 HD
ENDBRANCH  14  16
ENDBRANCH  11  12
ENDBRANCH   8  11
ENDBRANCH   1   8
BRANCH   2  19
ATOM     19  C   UNL d   1      -0.892  -0.022   5.633  0.00  0.00     0.418 C 
ATOM     20  F   UNL d   1      -1.026  -1.297   6.090  0.00  0.00    -0.166 F 
ATOM     21  F   UNL d   1      -0.017   0.587   6.480  0.00  0.00    -0.166 F 
ATOM     22  F   UNL d   1      -2.095   0.581   5.847  0.00  0.00    -0.166 F 
ENDBRANCH   2  19
TORSDOF 5
