REMARK  4 active torsions:
REMARK  status: ('A' for Active; 'I' for Inactive)
REMARK    1  A    between atoms: C_7  and  C_2 
REMARK    2  A    between atoms: O_11  and  C_7 
REMARK    3  A    between atoms: O_13  and  C_8 
REMARK    4  A    between atoms: C_16  and  O_11 
ROOT
ATOM      1  C   UNL d   1      -1.158   1.054  -0.046  0.00  0.00     0.190 A 
ATOM      2  C   UNL d   1      -2.484  -0.966  -0.054  0.00  0.00     0.154 A 
ATOM      3  C   UNL d   1       0.042   0.206  -0.041  0.00  0.00     0.081 A 
ATOM      4  C   UNL d   1      -2.460   0.373  -0.047  0.00  0.00     0.099 A 
ATOM      5  O   UNL d   1      -1.359  -1.775  -0.079  0.00  0.00    -0.303 OA
ATOM      6  C   UNL d   1      -0.127  -1.176  -0.055  0.00  0.00     0.093 A 
ATOM      7  C   UNL d   1       1.328   0.751  -0.014  0.00  0.00     0.082 A 
ATOM      8  O   UNL d   1      -1.072   2.275  -0.029  0.00  0.00    -0.287 OA
ATOM      9  C   UNL d   1       0.985  -2.019  -0.042  0.00  0.00     0.038 A 
ATOM     10  C   UNL d   1       2.269  -1.474  -0.019  0.00  0.00     0.006 A 
ATOM     11  C   UNL d   1       2.440  -0.087  -0.006  0.00  0.00     0.037 A 
ENDROOT
BRANCH   2  12
ATOM     12  C   UNL d   1      -3.814  -1.627   0.056  0.00  0.00     0.317 C 
ATOM     13  O   UNL d   1      -4.877  -1.038   0.155  0.00  0.00    -0.257 OA
BRANCH  12  14
ATOM     14  O   UNL d   1      -3.625  -2.969   0.151  0.00  0.00    -0.316 OA
BRANCH  14  15
ATOM     15  C   UNL d   1      -4.715  -3.711   0.711  0.00  0.00     0.175 C 
ATOM     16  C   UNL d   1      -4.540  -3.732   2.219  0.00  0.00     0.034 C 
ENDBRANCH  14  15
ENDBRANCH  12  14
ENDBRANCH   2  12
BRANCH   7  17
ATOM     17  O   UNL d   1       1.567   2.098   0.008  0.00  0.00    -0.360 OA
ATOM     18  H   UNL d   1       0.701   2.565   0.006  0.00  0.00     0.217 HD
ENDBRANCH   7  17
TORSDOF 4
