REMARK  7 active torsions:
REMARK  status: ('A' for Active; 'I' for Inactive)
REMARK    1  A    between atoms: N_2  and  C_1 
REMARK    2  A    between atoms: C_3  and  C_6 
REMARK    3  A    between atoms: S_7  and  C_4 
REMARK    4  A    between atoms: C_16  and  S_7 
REMARK    5  A    between atoms: S_12  and  C_19 
REMARK    6  A    between atoms: C_17  and  S_12 
REMARK    7  A    between atoms: C_19  and  C_20 
ROOT
ATOM      1  C   UNL d   1       2.883  -3.045   0.002  0.00  0.00     0.005 A 
ATOM      2  C   UNL d   1       5.701  -3.070   0.173  0.00  0.00    -0.049 A 
ATOM      3  C   UNL d   1       3.526  -2.581   1.152  0.00  0.00     0.019 A 
ATOM      4  C   UNL d   1       3.648  -3.591  -1.031  0.00  0.00     0.019 A 
ATOM      5  C   UNL d   1       5.043  -3.610  -0.944  0.00  0.00     0.009 A 
ATOM      6  C   UNL d   1       4.923  -2.589   1.236  0.00  0.00     0.009 A 
ENDROOT
BRANCH   1   7
ATOM      7  S   UNL d   1       1.108  -2.991  -0.112  0.00  0.00    -0.088 SA
BRANCH   7   8
ATOM      8  C   UNL d   1       0.834  -1.469  -1.016  0.00  0.00     0.038 A 
ATOM      9  C   UNL d   1       0.565  -0.218  -0.444  0.00  0.00     0.120 A 
ATOM     10  C   UNL d   1       0.249   0.912  -1.221  0.00  0.00     0.053 A 
ATOM     11  C   UNL d   1       0.201   0.811  -2.618  0.00  0.00     0.050 A 
ATOM     12  C   UNL d   1       0.500  -0.426  -3.207  0.00  0.00     0.017 A 
ATOM     13  C   UNL d   1       0.804  -1.546  -2.418  0.00  0.00     0.022 A 
BRANCH   9  14
ATOM     14  N   UNL d   1       0.582  -0.029   0.997  0.00  0.00    -0.114 N 
ATOM     15  O   UNL d   1      -0.213  -0.687   1.675  0.00  0.00    -0.532 OA
ATOM     16  O   UNL d   1       1.351   0.841   1.432  0.00  0.00    -0.532 OA
ENDBRANCH   9  14
BRANCH  11  17
ATOM     17  C   UNL d   1      -0.179   1.994  -3.481  0.00  0.00     0.417 C 
ATOM     18  F   UNL d   1      -0.507   3.103  -2.762  0.00  0.00    -0.166 F 
ATOM     19  F   UNL d   1       0.821   2.370  -4.321  0.00  0.00    -0.166 F 
ATOM     20  F   UNL d   1      -1.256   1.731  -4.271  0.00  0.00    -0.166 F 
ENDBRANCH  11  17
ENDBRANCH   7   8
ENDBRANCH   1   7
BRANCH   2  21
ATOM     21  C   UNL d   1       7.214  -2.972   0.215  0.00  0.00     0.117 C 
BRANCH  21  22
ATOM     22  S   UNL d   1       7.812  -1.871  -1.126  0.00  0.00    -0.125 SA
BRANCH  22  23
ATOM     23  C   UNL d   1       9.579  -1.817  -0.893  0.00  0.00     0.001 A 
ATOM     24  C   UNL d   1      10.372  -1.705  -2.045  0.00  0.00     0.020 A 
ATOM     25  C   UNL d   1      11.755  -1.519  -1.952  0.00  0.00     0.025 A 
ATOM     26  C   UNL d   1      12.354  -1.441  -0.700  0.00  0.00     0.034 A 
ATOM     27  C   UNL d   1      11.584  -1.567   0.454  0.00  0.00     0.025 A 
ATOM     28 CL   UNL d   1      14.046  -1.159  -0.577  0.00  0.00    -0.084 Cl
ATOM     29  C   UNL d   1      10.199  -1.752   0.358  0.00  0.00     0.020 A 
ENDBRANCH  22  23
ENDBRANCH  21  22
ENDBRANCH   2  21
TORSDOF 7
