REMARK  8 active torsions:
REMARK  status: ('A' for Active; 'I' for Inactive)
REMARK    1  A    between atoms: C_2  and  S_1 
REMARK    2  A    between atoms: C_12  and  S_1 
REMARK    3  A    between atoms: C_5  and  S_17 
REMARK    4  A    between atoms: O_22  and  C_7 
REMARK    5  A    between atoms: C_20  and  C_12 
REMARK    6  A    between atoms: C_25  and  C_16 
REMARK    7  A    between atoms: S_17  and  C_20 
REMARK    8  A    between atoms: O_24  and  C_25 
ROOT
ATOM      1  S   UNL d   1       0.259  -1.276   4.240  0.00  0.00    -0.093 SA
ENDROOT
BRANCH   1   2
ATOM      2  C   UNL d   1       0.824  -2.871   4.797  0.00  0.00     0.146 A 
ATOM      3  N   UNL d   1       0.590  -3.167   6.084  0.00  0.00    -0.318 N 
ATOM      4  C   UNL d   1       0.999  -4.378   6.467  0.00  0.00     0.143 A 
ATOM      5  HN  UNL d   1       0.133  -2.516   6.723  1.00  0.00     0.170 HD
ATOM      6  C   UNL d   1       1.617  -5.302   5.671  0.00  0.00     0.083 A 
ATOM      7  C   UNL d   1       1.820  -4.904   4.367  0.00  0.00     0.039 A 
ATOM      8  N   UNL d   1       1.437  -3.684   3.920  0.00  0.00    -0.338 N 
ATOM      9  HN  UNL d   1       1.608  -3.394   2.957  1.00  0.00     0.168 HD
BRANCH   4  10
ATOM     10  O   UNL d   1       0.757  -4.662   7.772  0.00  0.00    -0.346 OA
ATOM     11  H   UNL d   1       0.312  -3.843   8.056  0.00  0.00     0.219 HD
ENDBRANCH   4  10
BRANCH   7  12
ATOM     12  C   UNL d   1       2.487  -5.835   3.385  0.00  0.00     0.224 C 
BRANCH  12  13
ATOM     13  O   UNL d   1       1.718  -7.033   3.264  0.00  0.00    -0.390 OA
ATOM     14  C   UNL d   1       2.277  -7.918   2.303  0.00  0.00     0.201 C 
ENDBRANCH  12  13
ENDBRANCH   7  12
ENDBRANCH   1   2
BRANCH   1  15
ATOM     15  C   UNL d   1       0.777  -1.331   2.490  0.00  0.00     0.097 C 
BRANCH  15  16
ATOM     16  C   UNL d   1       0.291  -0.084   1.766  0.00  0.00     0.156 C 
BRANCH  16  17
ATOM     17  S   UNL d   1       0.812  -0.144   0.063  0.00  0.00     0.177 S 
ATOM     18  O   UNL d   1       2.263  -0.059   0.072  0.00  0.00    -0.223 OA
ATOM     19  O   UNL d   1       0.158  -1.252  -0.606  0.00  0.00    -0.223 OA
BRANCH  17  20
ATOM     20  C   UNL d   1       0.220   1.348  -0.709  0.00  0.00     0.081 A 
ATOM     21  C   UNL d   1      -1.141   1.647  -0.819  0.00  0.00     0.057 A 
ATOM     22  C   UNL d   1      -1.542   2.831  -1.455  0.00  0.00     0.049 A 
ATOM     23 CL   UNL d   1      -2.410   0.632  -0.241  0.00  0.00    -0.083 Cl
ATOM     24  C   UNL d   1      -0.592   3.690  -2.004  0.00  0.00     0.035 A 
ATOM     25  C   UNL d   1       0.762   3.382  -1.929  0.00  0.00     0.025 A 
ATOM     26 CL   UNL d   1      -1.098   5.134  -2.790  0.00  0.00    -0.084 Cl
ATOM     27  C   UNL d   1       1.170   2.214  -1.280  0.00  0.00     0.027 A 
ENDBRANCH  17  20
ENDBRANCH  16  17
ENDBRANCH  15  16
ENDBRANCH   1  15
TORSDOF 8
