REMARK  5 active torsions:
REMARK  status: ('A' for Active; 'I' for Inactive)
REMARK    1  A    between atoms: O_2  and  C_1 
REMARK    2  A    between atoms: C_4  and  O_2 
REMARK    3  A    between atoms: N_3  and  C_6 
REMARK       I    between atoms: C_5  and  N_3 
REMARK    4  A    between atoms: C_8  and  C_5 
REMARK    5  A    between atoms: C_17  and  C_12 
ROOT
ATOM      1  C   UNL d   1      -0.802   1.247   0.269  0.00  0.00     0.175 A 
ATOM      2  C   UNL d   1       0.561   1.195  -0.036  0.00  0.00     0.087 A 
ATOM      3  N   UNL d   1      -1.613   0.159   0.219  0.00  0.00    -0.345 N 
ATOM      4  HN  UNL d   1      -2.610   0.231   0.421  1.00  0.00     0.167 HD
ATOM      5  C   UNL d   1       1.084  -0.019  -0.484  0.00  0.00     0.035 A 
ATOM      6  C   UNL d   1      -1.046  -1.019  -0.110  0.00  0.00     0.090 A 
ATOM      7  C   UNL d   1       0.279  -1.153  -0.487  0.00  0.00     0.019 A 
ENDROOT
BRANCH   2   8
ATOM      8  N   UNL d   1       1.431   2.292   0.027  0.00  0.00    -0.320 N 
ATOM      9  C   UNL d   1       1.841   2.983   1.138  0.00  0.00     0.245 C 
ATOM     10  O   UNL d   1       2.767   3.775   1.002  0.00  0.00    -0.268 OA
ATOM     11  H   UNL d   1       2.154   2.351  -0.681  0.00  0.00     0.169 HD
BRANCH   9  12
ATOM     12  C   UNL d   1       1.247   2.716   2.481  0.00  0.00     0.075 C 
ATOM     13  C   UNL d   1       1.788   3.349   3.538  0.00  0.00     0.017 C 
BRANCH  13  14
ATOM     14  C   UNL d   1       1.299   3.331   4.926  0.00  0.00    -0.036 A 
ATOM     15  C   UNL d   1       2.222   3.464   5.975  0.00  0.00     0.011 A 
ATOM     16  C   UNL d   1       1.789   3.642   7.292  0.00  0.00     0.001 A 
ATOM     17  C   UNL d   1       0.427   3.696   7.576  0.00  0.00     0.000 A 
ATOM     18  C   UNL d   1      -0.500   3.546   6.545  0.00  0.00     0.001 A 
ATOM     19  C   UNL d   1      -0.067   3.362   5.228  0.00  0.00     0.011 A 
ENDBRANCH  13  14
ENDBRANCH   9  12
ENDBRANCH   2   8
BRANCH   1  20
ATOM     20  O   UNL d   1      -1.366   2.500   0.515  0.00  0.00    -0.288 OA
BRANCH  20  21
ATOM     21  C   UNL d   1      -2.628   2.507   1.061  0.00  0.00     0.116 A 
ATOM     22  C   UNL d   1      -2.922   1.826   2.250  0.00  0.00     0.153 A 
ATOM     23  C   UNL d   1      -4.206   1.824   2.769  0.00  0.00     0.087 A 
ATOM     24  F   UNL d   1      -1.957   1.171   2.912  0.00  0.00    -0.203 F 
ATOM     25  C   UNL d   1      -5.193   2.551   2.119  0.00  0.00     0.119 A 
ATOM     26  C   UNL d   1      -4.912   3.284   0.967  0.00  0.00     0.045 A 
ATOM     27  F   UNL d   1      -6.436   2.559   2.617  0.00  0.00    -0.206 F 
ATOM     28  C   UNL d   1      -3.621   3.264   0.435  0.00  0.00     0.043 A 
ENDBRANCH  20  21
ENDBRANCH   1  20
TORSDOF 5
