REMARK  5 active torsions:
REMARK  status: ('A' for Active; 'I' for Inactive)
REMARK    1  A    between atoms: C_10  and  N_3 
REMARK    2  A    between atoms: C_12  and  C_4 
REMARK    3  A    between atoms: C_9  and  C_13 
REMARK    4  A    between atoms: C_11  and  C_10 
REMARK       I    between atoms: N_15  and  C_11 
REMARK    5  A    between atoms: C_22  and  N_15 
ROOT
ATOM      1  N   UNL d   1      -0.385  -0.621   0.824  0.00  0.00    -0.265 N 
ATOM      2  HN  UNL d   1      -0.662  -1.507   1.245  1.00  0.00     0.190 HD
ATOM      3  N   UNL d   1       0.842  -0.174   0.462  0.00  0.00    -0.209 N 
ATOM      4  C   UNL d   1      -1.137   0.445   0.465  0.00  0.00     0.147 A 
ATOM      5  N   UNL d   1      -0.389   1.467  -0.064  0.00  0.00    -0.268 N 
ATOM      6  HN  UNL d   1      -0.738   2.367  -0.394  1.00  0.00     0.190 HD
ATOM      7  N   UNL d   1       0.867   1.065  -0.065  0.00  0.00    -0.224 N 
ATOM      8  HN  UNL d   1       1.682   1.581  -0.395  1.00  0.00     0.210 HD
ENDROOT
BRANCH   3   9
ATOM      9  C   UNL d   1       2.003  -1.010   0.268  0.00  0.00     0.274 C 
BRANCH   9  10
ATOM     10  C   UNL d   1       2.182  -2.287   1.038  0.00  0.00     0.243 C 
ATOM     11  N   UNL d   1       1.171  -2.784   1.823  0.00  0.00    -0.324 N 
ATOM     12  H   UNL d   1       0.254  -2.340   1.756  0.00  0.00     0.169 HD
ATOM     13  O   UNL d   1       3.269  -2.865   0.887  0.00  0.00    -0.271 OA
BRANCH  11  14
ATOM     14  C   UNL d   1       1.269  -3.953   2.633  0.00  0.00     0.050 A 
ATOM     15  C   UNL d   1       2.462  -4.625   2.919  0.00  0.00     0.117 A 
ATOM     16  N   UNL d   1       2.562  -5.737   3.693  0.00  0.00    -0.373 N 
ATOM     17  C   UNL d   1       1.418  -6.220   4.209  0.00  0.00     0.088 A 
ATOM     18  HN  UNL d   1       3.460  -6.184   3.874  1.00  0.00     0.164 HD
ATOM     19  C   UNL d   1       0.181  -5.633   3.996  0.00  0.00     0.019 A 
ATOM     20  C   UNL d   1       0.111  -4.484   3.204  0.00  0.00     0.032 A 
ENDBRANCH  11  14
ENDBRANCH   9  10
ENDBRANCH   3   9
BRANCH   4  21
ATOM     21  C   UNL d   1      -2.594   0.502   0.486  0.00  0.00     0.011 A 
ATOM     22  C   UNL d   1      -3.346  -0.488   1.130  0.00  0.00     0.031 A 
ATOM     23  C   UNL d   1      -4.748  -0.510   1.024  0.00  0.00     0.048 A 
ATOM     24  C   UNL d   1      -5.395   0.494   0.288  0.00  0.00     0.016 A 
ATOM     25  C   UNL d   1      -4.659   1.510  -0.318  0.00  0.00     0.002 A 
ATOM     26  C   UNL d   1      -3.267   1.515  -0.216  0.00  0.00     0.015 A 
BRANCH  23  27
ATOM     27  C   UNL d   1      -5.553  -1.624   1.646  0.00  0.00     0.417 C 
ATOM     28  F   UNL d   1      -4.796  -2.518   2.342  0.00  0.00    -0.166 F 
ATOM     29  F   UNL d   1      -6.493  -1.169   2.519  0.00  0.00    -0.166 F 
ATOM     30  F   UNL d   1      -6.227  -2.354   0.714  0.00  0.00    -0.166 F 
ENDBRANCH  23  27
ENDBRANCH   4  21
TORSDOF 5
