REMARK  3 active torsions:
REMARK  status: ('A' for Active; 'I' for Inactive)
REMARK    1  A    between atoms: C_4  and  C_2 
REMARK    2  A    between atoms: C_7  and  C_3 
REMARK    3  A    between atoms: O_13  and  C_7 
ROOT
ATOM      1  S   UNL d   1      -1.046   0.015   0.022  0.00  0.00    -0.082 SA
ATOM      2  C   UNL d   1       0.141   1.255  -0.026  0.00  0.00     0.023 A 
ATOM      3  C   UNL d   1       0.122  -1.234   0.022  0.00  0.00     0.079 A 
ATOM      4  C   UNL d   1       1.401  -0.715   0.013  0.00  0.00     0.027 A 
ATOM      5  C   UNL d   1       1.412   0.712  -0.016  0.00  0.00     0.022 A 
ENDROOT
BRANCH   2   6
ATOM      6  C   UNL d   1      -0.235   2.650  -0.087  0.00  0.00     0.021 A 
ATOM      7  S   UNL d   1       0.784   3.824  -0.824  0.00  0.00    -0.101 SA
ATOM      8  C   UNL d   1      -0.338   5.082  -0.550  0.00  0.00     0.050 A 
ATOM      9  C   UNL d   1      -1.460   4.637   0.109  0.00  0.00     0.008 A 
ATOM     10  C   UNL d   1      -1.398   3.239   0.379  0.00  0.00     0.021 A 
ENDBRANCH   2   6
BRANCH   3  11
ATOM     11  C   UNL d   1      -0.246  -2.639   0.032  0.00  0.00     0.183 C 
ATOM     12  O   UNL d   1       0.545  -3.571   0.041  0.00  0.00    -0.646 OA
BRANCH  11  13
ATOM     13  O   UNL d   1      -1.589  -2.843   0.031  0.00  0.00    -0.772 OA
ATOM     14  H   UNL d   1      -2.080  -1.999   0.018  0.00  0.00     0.167 HD
ENDBRANCH  11  13
ENDBRANCH   3  11
TORSDOF 3
