REMARK  2 active torsions:
REMARK  status: ('A' for Active; 'I' for Inactive)
REMARK    1  A    between atoms: C_10  and  C_2 
REMARK    2  A    between atoms: C_12  and  C_7 
ROOT
ATOM      1  N   UNL d   1      -0.240  -0.628   0.067  0.00  0.00    -0.235 N 
ATOM      2  C   UNL d   1       0.930  -1.384   0.068  0.00  0.00     0.143 A 
ATOM      3  C   UNL d   1      -0.167   0.772  -0.001  0.00  0.00     0.130 A 
ATOM      4  N   UNL d   1      -1.531  -1.039   0.119  0.00  0.00    -0.291 N 
ATOM      5  HN  UNL d   1      -1.871  -1.996   0.214  1.00  0.00     0.187 HD
ATOM      6  C   UNL d   1      -1.462   1.225  -0.056  0.00  0.00     0.082 A 
ATOM      7  C   UNL d   1      -2.266   0.075   0.020  0.00  0.00     0.069 A 
ATOM      8  N   UNL d   1       1.014   1.452  -0.021  0.00  0.00    -0.345 N 
ATOM      9  HN  UNL d   1       1.046   2.471  -0.050  1.00  0.00     0.167 HD
ATOM     10  C   UNL d   1       2.123  -0.756   0.029  0.00  0.00     0.061 A 
ATOM     11  C   UNL d   1       2.097   0.735   0.000  0.00  0.00     0.009 A 
ATOM     12  C   UNL d   1       3.430   1.439  -0.007  0.00  0.00     0.068 C 
ENDROOT
BRANCH   7  13
ATOM     13  C   UNL d   1      -3.767   0.048  -0.004  0.00  0.00     0.033 A 
ATOM     14  S   UNL d   1      -4.746   1.429  -0.250  0.00  0.00    -0.100 SA
ATOM     15  C   UNL d   1      -6.184   0.510  -0.152  0.00  0.00     0.050 A 
ATOM     16  C   UNL d   1      -5.927  -0.823   0.084  0.00  0.00     0.008 A 
ATOM     17  C   UNL d   1      -4.528  -1.091   0.164  0.00  0.00     0.021 A 
ENDBRANCH   7  13
BRANCH   2  18
ATOM     18  C   UNL d   1       0.845  -2.864   0.088  0.00  0.00     0.434 C 
ATOM     19  F   UNL d   1      -0.392  -3.408   0.058  0.00  0.00    -0.165 F 
ATOM     20  F   UNL d   1       1.517  -3.392  -0.975  0.00  0.00    -0.165 F 
ATOM     21  F   UNL d   1       1.461  -3.365   1.194  0.00  0.00    -0.165 F 
ENDBRANCH   2  18
TORSDOF 2
