REMARK  2 active torsions:
REMARK  status: ('A' for Active; 'I' for Inactive)
REMARK    1  A    between atoms: C_2  and  S_1 
REMARK    2  A    between atoms: N_7  and  S_1 
ROOT
ATOM      1  C   UNL d   1       1.851  -0.932  -5.485  0.00  0.00     0.147 A 
ATOM      2  N   UNL d   1       2.103  -1.886  -6.358  0.00  0.00    -0.336 N 
ATOM      3  HN  UNL d   1       1.595  -2.770  -6.404  1.00  0.00     0.168 HD
ATOM      4  S   UNL d   1       2.941   0.411  -5.601  0.00  0.00    -0.052 SA
ATOM      5  N   UNL d   1       0.584  -0.488  -1.556  0.00  0.00    -0.205 NA
ATOM      6  N   UNL d   1       0.857  -0.998  -4.552  0.00  0.00    -0.360 N 
ATOM      7  C   UNL d   1       3.750  -0.319  -6.925  0.00  0.00     0.036 A 
ATOM      8  C   UNL d   1       3.142  -1.540  -7.204  0.00  0.00     0.051 A 
ATOM      9  C   UNL d   1       0.805   0.566  -2.616  0.00  0.00     0.127 C 
ATOM     10  C   UNL d   1       4.840   0.165  -7.670  0.00  0.00     0.045 A 
ATOM     11  C   UNL d   1       0.223   0.191  -3.984  0.00  0.00     0.140 C 
ATOM     12  C   UNL d   1       3.621  -2.299  -8.293  0.00  0.00     0.032 A 
ATOM     13  C   UNL d   1       5.294  -0.609  -8.739  0.00  0.00     0.035 A 
ATOM     14  C   UNL d   1       0.503  -2.704  -2.787  0.00  0.00     0.035 C 
ATOM     15  C   UNL d   1       1.315  -1.766  -1.899  0.00  0.00     0.109 C 
ATOM     16  C   UNL d   1       0.232  -2.271  -4.229  0.00  0.00     0.126 C 
ATOM     17  C   UNL d   1       4.692  -1.823  -9.057  0.00  0.00     0.026 A 
ATOM     18 CL   UNL d   1       6.619  -0.043  -9.682  0.00  0.00    -0.084 Cl
ENDROOT
BRANCH   5  19
ATOM     19  S   UNL d   1       1.055   0.064   0.020  0.00  0.00     0.245 S 
ATOM     20  O   UNL d   1       0.812  -0.980   0.984  0.00  0.00    -0.206 OA
ATOM     21  O   UNL d   1       2.380   0.634  -0.128  0.00  0.00    -0.206 OA
BRANCH  19  22
ATOM     22  C   UNL d   1      -0.052   1.400   0.414  0.00  0.00     0.098 A 
ATOM     23  C   UNL d   1       0.504   2.674   0.630  0.00  0.00     0.052 A 
ATOM     24  C   UNL d   1      -0.302   3.732   1.059  0.00  0.00     0.057 A 
ATOM     25 CL   UNL d   1       0.451   5.266   1.306  0.00  0.00    -0.083 Cl
ATOM     26  C   UNL d   1      -1.665   3.520   1.280  0.00  0.00     0.057 A 
ATOM     27  C   UNL d   1      -2.217   2.253   1.061  0.00  0.00     0.051 A 
ATOM     28 CL   UNL d   1      -2.720   4.774   1.826  0.00  0.00    -0.082 Cl
ATOM     29  C   UNL d   1      -1.415   1.188   0.625  0.00  0.00     0.058 A 
ATOM     30 CL   UNL d   1      -2.208  -0.321   0.363  0.00  0.00    -0.083 Cl
ENDBRANCH  19  22
ENDBRANCH   5  19
TORSDOF 2
