REMARK  3 active torsions:
REMARK  status: ('A' for Active; 'I' for Inactive)
REMARK       I    between atoms: N_2  and  C_4 
REMARK       I    between atoms: C_3  and  N_2 
REMARK       I    between atoms: N_9  and  C_3 
REMARK    1  A    between atoms: C_4  and  C_11 
REMARK    2  A    between atoms: N_6  and  C_5 
REMARK    3  A    between atoms: C_18  and  N_9 
ROOT
ATOM      1  C   UNL d   1       2.041   0.869  -1.468  0.00  0.00     0.092 A 
ATOM      2  C   UNL d   1       0.900   1.381  -0.809  0.00  0.00     0.052 A 
ATOM      3  C   UNL d   1       3.111   1.746  -1.848  0.00  0.00     0.103 C 
ATOM      4  N   UNL d   1       3.972   2.449  -2.175  0.00  0.00    -0.191 NA
ATOM      5  C   UNL d   1       2.160  -0.515  -1.679  0.00  0.00     0.057 A 
ATOM      6 CL   UNL d   1       3.564  -1.218  -2.413  0.00  0.00    -0.083 Cl
ATOM      7  C   UNL d   1      -0.116   0.476  -0.441  0.00  0.00     0.031 A 
ATOM      8  C   UNL d   1       0.009  -0.896  -0.657  0.00  0.00     0.004 A 
ATOM      9  C   UNL d   1       1.156  -1.393  -1.264  0.00  0.00     0.025 A 
ENDROOT
BRANCH   2  10
ATOM     10  N   UNL d   1       0.822   2.707  -0.398  0.00  0.00    -0.380 N 
ATOM     11  C   UNL d   1       0.399   2.981   0.967  0.00  0.00     0.124 C 
ATOM     12  C   UNL d   1       1.341   4.050   1.499  0.00  0.00     0.034 C 
ATOM     13  C   UNL d   1       1.216   5.338   0.673  0.00  0.00     0.081 C 
ATOM     14  C   UNL d   1       1.357   5.056  -0.841  0.00  0.00     0.034 C 
ATOM     15  C   UNL d   1       0.622   3.805  -1.347  0.00  0.00     0.124 C 
BRANCH  13  16
ATOM     16  C   UNL d   1      -0.075   6.071   1.039  0.00  0.00     0.229 C 
ATOM     17  N   UNL d   1      -0.278   6.456   2.353  0.00  0.00    -0.279 N 
ATOM     18  C   UNL d   1       0.682   6.704   3.327  0.00  0.00     0.327 C 
ATOM     19  H   UNL d   1      -1.158   6.934   2.465  0.00  0.00     0.173 HD
ATOM     20  N   UNL d   1       0.107   7.042   4.541  0.00  0.00    -0.309 N 
ATOM     21  O   UNL d   1       1.883   6.606   3.123  0.00  0.00    -0.247 OA
ATOM     22  H   UNL d   1      -0.901   7.057   4.588  0.00  0.00     0.170 HD
ATOM     23  O   UNL d   1      -0.952   6.329   0.213  0.00  0.00    -0.273 OA
BRANCH  20  24
ATOM     24  C   UNL d   1       0.792   7.410   5.723  0.00  0.00     0.036 A 
ATOM     25  C   UNL d   1       2.183   7.374   5.865  0.00  0.00     0.031 A 
ATOM     26  C   UNL d   1       2.797   7.825   7.039  0.00  0.00     0.026 A 
ATOM     27  C   UNL d   1       2.019   8.310   8.084  0.00  0.00     0.034 A 
ATOM     28  C   UNL d   1       0.631   8.321   7.975  0.00  0.00     0.026 A 
ATOM     29 CL   UNL d   1       2.775   8.908   9.508  0.00  0.00    -0.084 Cl
ATOM     30  C   UNL d   1       0.020   7.863   6.802  0.00  0.00     0.031 A 
ENDBRANCH  20  24
ENDBRANCH  13  16
ENDBRANCH   2  10
TORSDOF 3
