REMARK  8 active torsions:
REMARK  status: ('A' for Active; 'I' for Inactive)
REMARK    1  A    between atoms: N_9  and  C_1 
REMARK    2  A    between atoms: S_4  and  C_2 
REMARK    3  A    between atoms: C_8  and  C_3 
REMARK    4  A    between atoms: C_18  and  S_4 
REMARK    5  A    between atoms: C_7  and  C_16 
REMARK    6  A    between atoms: O_19  and  C_8 
REMARK    7  A    between atoms: N_10  and  N_9 
REMARK    8  A    between atoms: C_26  and  C_18 
ROOT
ATOM      1  C   UNL d   1       0.149   2.811  -0.005  0.00  0.00     0.093 A 
ATOM      2  C   UNL d   1      -1.180   3.350  -0.067  0.00  0.00     0.095 A 
ATOM      3  C   UNL d   1       0.127   1.427   0.112  0.00  0.00     0.109 A 
ATOM      4  S   UNL d   1      -1.482   0.823   0.203  0.00  0.00    -0.092 SA
ATOM      5  C   UNL d   1      -2.152   2.375   0.006  0.00  0.00     0.076 A 
ENDROOT
BRANCH   1   6
ATOM      6  N   UNL d   1       1.273   3.585  -0.062  0.00  0.00    -0.298 N 
ATOM      7  H   UNL d   1       1.151   4.602  -0.187  0.00  0.00     0.187 HD
BRANCH   6   8
ATOM      8  N   UNL d   1       2.454   3.188   0.464  0.00  0.00    -0.310 N 
ATOM      9  C   UNL d   1       3.556   3.546  -0.133  0.00  0.00     0.123 C 
ATOM     10  HN  UNL d   1       2.483   2.621   1.312  1.00  0.00     0.186 HD
BRANCH   9  11
ATOM     11  C   UNL d   1       3.786   4.273  -1.401  0.00  0.00     0.041 A 
ATOM     12  C   UNL d   1       3.001   4.064  -2.538  0.00  0.00     0.129 A 
ATOM     13  F   UNL d   1       1.986   3.191  -2.546  0.00  0.00    -0.205 F 
ATOM     14  C   UNL d   1       3.285   4.709  -3.744  0.00  0.00     0.043 A 
ATOM     15  C   UNL d   1       4.385   5.554  -3.844  0.00  0.00     0.005 A 
ATOM     16  C   UNL d   1       5.199   5.752  -2.730  0.00  0.00     0.025 A 
ATOM     17  C   UNL d   1       4.904   5.117  -1.515  0.00  0.00     0.048 A 
ATOM     18 CL   UNL d   1       5.975   5.437  -0.193  0.00  0.00    -0.083 Cl
ENDBRANCH   9  11
ENDBRANCH   6   8
ENDBRANCH   1   6
BRANCH   2  19
ATOM     19  S   UNL d   1      -1.592   5.031  -0.203  0.00  0.00     0.178 S 
ATOM     20  O   UNL d   1      -0.327   5.741  -0.206  0.00  0.00    -0.223 OA
ATOM     21  O   UNL d   1      -2.508   5.079  -1.321  0.00  0.00    -0.223 OA
BRANCH  19  22
ATOM     22  C   UNL d   1      -2.478   5.386   1.310  0.00  0.00     0.145 C 
BRANCH  22  23
ATOM     23  C   UNL d   1      -2.950   6.836   1.342  0.00  0.00     0.011 C 
ATOM     24  C   UNL d   1      -3.764   7.136   2.592  0.00  0.00     0.006 C 
ENDBRANCH  22  23
ENDBRANCH  19  22
ENDBRANCH   2  19
BRANCH   3  25
ATOM     25  C   UNL d   1       1.193   0.445   0.173  0.00  0.00     0.302 C 
ATOM     26  O   UNL d   1       1.210  -0.539   0.909  0.00  0.00    -0.259 OA
BRANCH  25  27
ATOM     27  O   UNL d   1       2.146   0.695  -0.772  0.00  0.00    -0.322 OA
ATOM     28  C   UNL d   1       3.267  -0.186  -0.713  0.00  0.00     0.213 C 
ENDBRANCH  25  27
ENDBRANCH   3  25
TORSDOF 8
