REMARK  6 active torsions:
REMARK  status: ('A' for Active; 'I' for Inactive)
REMARK    1  A    between atoms: C_7  and  C_1 
REMARK    2  A    between atoms: N_10  and  C_2 
REMARK    3  A    between atoms: C_6  and  C_3 
REMARK    4  A    between atoms: N_4  and  N_10 
REMARK    5  A    between atoms: C_8  and  C_6 
REMARK    6  A    between atoms: O_19  and  C_7 
ROOT
ATOM      1  C   UNL d   1       3.796   3.466   0.700  0.00  0.00     0.175 C 
ATOM      2  N   UNL d   1       2.745   2.904   0.183  0.00  0.00    -0.287 N 
ATOM      3  HN  UNL d   1       2.003   3.476  -0.219  1.00  0.00     0.188 HD
ATOM      4  C   UNL d   1       3.715   4.906   0.620  0.00  0.00     0.123 C 
ATOM      5  N   UNL d   1       3.689   6.066   0.610  0.00  0.00    -0.190 NA
ENDROOT
BRANCH   1   6
ATOM      6  C   UNL d   1       4.949   2.764   1.361  0.00  0.00     0.192 C 
ATOM      7  O   UNL d   1       5.358   1.690   0.942  0.00  0.00    -0.290 OA
BRANCH   6   8
ATOM      8  C   UNL d   1       5.495   3.432   2.576  0.00  0.00     0.063 A 
ATOM      9  C   UNL d   1       6.739   2.920   3.265  0.00  0.00     0.013 A 
ATOM     10  C   UNL d   1       5.397   2.721   3.906  0.00  0.00     0.013 A 
ENDBRANCH   6   8
ENDBRANCH   1   6
BRANCH   2  11
ATOM     11  N   UNL d   1       2.639   1.537   0.181  0.00  0.00    -0.298 N 
ATOM     12  H   UNL d   1       3.499   0.967   0.141  0.00  0.00     0.187 HD
BRANCH  11  13
ATOM     13  C   UNL d   1       1.419   0.935   0.065  0.00  0.00     0.071 A 
ATOM     14  C   UNL d   1       1.177  -0.422  -0.086  0.00  0.00     0.108 A 
ATOM     15  S   UNL d   1      -0.523  -0.740  -0.139  0.00  0.00    -0.094 SA
ATOM     16  C   UNL d   1      -0.921   0.904   0.034  0.00  0.00     0.053 A 
ATOM     17  C   UNL d   1       0.201   1.690   0.119  0.00  0.00     0.039 A 
BRANCH  14  18
ATOM     18  C   UNL d   1       2.053  -1.575  -0.197  0.00  0.00     0.302 C 
ATOM     19  O   UNL d   1       1.695  -2.746  -0.279  0.00  0.00    -0.259 OA
BRANCH  18  20
ATOM     20  O   UNL d   1       3.368  -1.194  -0.194  0.00  0.00    -0.322 OA
ATOM     21  C   UNL d   1       4.269  -2.301  -0.295  0.00  0.00     0.213 C 
ENDBRANCH  18  20
ENDBRANCH  14  18
ENDBRANCH  11  13
ENDBRANCH   2  11
TORSDOF 6
