REMARK  7 active torsions:
REMARK  status: ('A' for Active; 'I' for Inactive)
REMARK    1  A    between atoms: C_8  and  C_1 
REMARK    2  A    between atoms: O_9  and  C_4 
REMARK    3  A    between atoms: C_13  and  C_6 
REMARK    4  A    between atoms: C_7  and  C_10 
REMARK    5  A    between atoms: O_15  and  C_8 
REMARK    6  A    between atoms: C_10  and  O_9 
REMARK    7  A    between atoms: C_23  and  O_15 
ROOT
ATOM      1  C   UNL d   1      -0.004   1.406  -0.023  0.00  0.00     0.133 A 
ATOM      2  N   UNL d   1       1.392  -0.465  -0.185  0.00  0.00    -0.329 N 
ATOM      3  HN  UNL d   1       2.270  -0.976  -0.276  1.00  0.00     0.168 HD
ATOM      4  C   UNL d   1       1.300   0.926  -0.167  0.00  0.00     0.167 A 
ATOM      5  S   UNL d   1      -1.089   0.059  -0.002  0.00  0.00    -0.061 SA
ATOM      6  C   UNL d   1       0.215  -1.042  -0.072  0.00  0.00     0.087 A 
ENDROOT
BRANCH   4   7
ATOM      7  O   UNL d   1       2.474   1.621  -0.234  0.00  0.00    -0.330 OA
BRANCH   7   8
ATOM      8  C   UNL d   1       2.423   2.937  -0.761  0.00  0.00     0.219 C 
BRANCH   8   9
ATOM      9  C   UNL d   1       3.758   3.354  -1.341  0.00  0.00     0.009 A 
ATOM     10  C   UNL d   1       4.107   3.022  -2.662  0.00  0.00     0.044 A 
ATOM     11 CL   UNL d   1       3.092   2.034  -3.656  0.00  0.00    -0.084 Cl
ATOM     12  C   UNL d   1       5.291   3.500  -3.240  0.00  0.00     0.024 A 
ATOM     13  C   UNL d   1       6.154   4.309  -2.508  0.00  0.00     0.003 A 
ATOM     14  C   UNL d   1       5.848   4.617  -1.187  0.00  0.00     0.024 A 
ATOM     15  C   UNL d   1       4.669   4.136  -0.604  0.00  0.00     0.044 A 
ATOM     16 CL   UNL d   1       4.399   4.573   1.050  0.00  0.00    -0.084 Cl
ENDBRANCH   8   9
ENDBRANCH   7   8
ENDBRANCH   4   7
BRANCH   1  17
ATOM     17  C   UNL d   1      -0.561   2.734   0.145  0.00  0.00     0.304 C 
ATOM     18  O   UNL d   1       0.051   3.739   0.486  0.00  0.00    -0.259 OA
BRANCH  17  19
ATOM     19  O   UNL d   1      -1.897   2.756  -0.150  0.00  0.00    -0.317 OA
BRANCH  19  20
ATOM     20  C   UNL d   1      -2.545   4.035  -0.069  0.00  0.00     0.174 C 
ATOM     21  C   UNL d   1      -2.486   4.715  -1.423  0.00  0.00     0.034 C 
ENDBRANCH  19  20
ENDBRANCH  17  19
ENDBRANCH   1  17
BRANCH   6  22
ATOM     22  C   UNL d   1      -0.023  -2.499  -0.052  0.00  0.00    -0.002 A 
ATOM     23  C   UNL d   1       0.920  -3.362  -0.631  0.00  0.00     0.014 A 
ATOM     24  C   UNL d   1       0.714  -4.746  -0.651  0.00  0.00     0.001 A 
ATOM     25  C   UNL d   1      -0.434  -5.291  -0.081  0.00  0.00     0.000 A 
ATOM     26  C   UNL d   1      -1.372  -4.457   0.516  0.00  0.00     0.001 A 
ATOM     27  C   UNL d   1      -1.167  -3.073   0.534  0.00  0.00     0.014 A 
ENDBRANCH   6  22
TORSDOF 7
