REMARK  3 active torsions:
REMARK  status: ('A' for Active; 'I' for Inactive)
REMARK    1  A    between atoms: C_3  and  C_1 
REMARK    2  A    between atoms: C_2  and  S_5 
REMARK    3  A    between atoms: S_5  and  C_3 
ROOT
ATOM      1  C   UNL d   1      -0.251   0.659   0.028  0.00  0.00    -0.005 A 
ATOM      2  C   UNL d   1      -1.107  -0.201  -0.691  0.00  0.00     0.042 A 
ATOM      3  C   UNL d   1       0.761   0.037   0.800  0.00  0.00     0.042 A 
ATOM      4 CL   UNL d   1      -2.274   0.353  -1.842  0.00  0.00    -0.084 Cl
ATOM      5 CL   UNL d   1       1.988   0.935   1.635  0.00  0.00    -0.084 Cl
ATOM      6  C   UNL d   1      -0.033  -2.177   0.230  0.00  0.00     0.003 A 
ATOM      7  C   UNL d   1      -1.011  -1.597  -0.567  0.00  0.00     0.024 A 
ATOM      8  C   UNL d   1       0.864  -1.358   0.900  0.00  0.00     0.024 A 
ENDROOT
BRANCH   1   9
ATOM      9  C   UNL d   1      -0.281   2.172  -0.086  0.00  0.00     0.122 C 
BRANCH   9  10
ATOM     10  S   UNL d   1      -1.856   3.062  -0.014  0.00  0.00    -0.118 SA
BRANCH  10  11
ATOM     11  C   UNL d   1      -2.690   2.419   1.387  0.00  0.00     0.041 A 
ATOM     12  S   UNL d   1      -1.950   2.046   2.882  0.00  0.00    -0.095 SA
ATOM     13  C   UNL d   1      -3.446   1.587   3.580  0.00  0.00     0.051 A 
ATOM     14  C   UNL d   1      -4.493   1.733   2.701  0.00  0.00     0.009 A 
ATOM     15  C   UNL d   1      -4.055   2.218   1.435  0.00  0.00     0.026 A 
ENDBRANCH  10  11
ENDBRANCH   9  10
ENDBRANCH   1   9
TORSDOF 3
