REMARK  6 active torsions:
REMARK  status: ('A' for Active; 'I' for Inactive)
REMARK    1  A    between atoms: N_7  and  C_1 
REMARK    2  A    between atoms: N_12  and  C_2 
REMARK    3  A    between atoms: C_11  and  N_7 
REMARK    4  A    between atoms: S_8  and  C_9 
REMARK    5  A    between atoms: C_13  and  S_8 
REMARK    6  A    between atoms: C_10  and  C_11 
ROOT
ATOM      1  C   UNL d   1       0.637  -0.952  -1.061  0.00  0.00     0.142 C 
ATOM      2  C   UNL d   1       1.899  -1.037  -1.547  0.00  0.00     0.125 C 
ATOM      3  C   UNL d   1      -0.299  -0.108  -1.752  0.00  0.00     0.120 C 
ATOM      4  C   UNL d   1       2.858  -1.878  -0.887  0.00  0.00     0.114 C 
ATOM      5  N   UNL d   1      -1.058   0.566  -2.317  0.00  0.00    -0.190 NA
ATOM      6  N   UNL d   1       3.637  -2.562  -0.366  0.00  0.00    -0.190 NA
ENDROOT
BRANCH   1   7
ATOM      7  N   UNL d   1       0.115  -1.628   0.047  0.00  0.00    -0.375 N 
ATOM      8  H   UNL d   1       0.819  -2.090   0.625  0.00  0.00     0.160 HD
BRANCH   7   9
ATOM      9  C   UNL d   1      -1.032  -1.190   0.835  0.00  0.00     0.160 C 
BRANCH   9  10
ATOM     10  C   UNL d   1      -1.497  -2.298   1.753  0.00  0.00    -0.023 A 
ATOM     11  C   UNL d   1      -0.814  -2.658   2.933  0.00  0.00     0.013 A 
ATOM     12  C   UNL d   1      -1.324  -3.693   3.735  0.00  0.00     0.019 A 
ATOM     13  C   UNL d   1      -2.484  -4.378   3.372  0.00  0.00     0.001 A 
ATOM     14  C   UNL d   1      -3.145  -4.046   2.195  0.00  0.00     0.001 A 
ATOM     15  C   UNL d   1      -2.657  -3.014   1.395  0.00  0.00     0.010 A 
BRANCH  11  16
ATOM     16  S   UNL d   1       0.790  -2.007   3.368  0.00  0.00    -0.090 SA
BRANCH  16  17
ATOM     17  C   UNL d   1       0.518  -0.532   4.327  0.00  0.00     0.005 A 
ATOM     18  C   UNL d   1      -0.730   0.038   4.606  0.00  0.00     0.020 A 
ATOM     19  C   UNL d   1      -0.818   1.231   5.339  0.00  0.00     0.025 A 
ATOM     20  C   UNL d   1       0.339   1.855   5.802  0.00  0.00     0.034 A 
ATOM     21  C   UNL d   1       1.585   1.294   5.549  0.00  0.00     0.025 A 
ATOM     22 CL   UNL d   1       0.230   3.328   6.685  0.00  0.00    -0.084 Cl
ATOM     23  C   UNL d   1       1.669   0.107   4.816  0.00  0.00     0.020 A 
ENDBRANCH  16  17
ENDBRANCH  11  16
ENDBRANCH   9  10
ENDBRANCH   7   9
ENDBRANCH   1   7
BRANCH   2  24
ATOM     24  N   UNL d   1       2.421  -0.376  -2.655  0.00  0.00    -0.291 NA
ATOM     25  H   UNL d   1       1.732  -0.039  -3.326  0.00  0.00     0.125 HD
ATOM     26  H   UNL d   1       3.197  -0.861  -3.105  0.00  0.00     0.125 HD
ENDBRANCH   2  24
TORSDOF 6
