REMARK  5 active torsions:
REMARK  status: ('A' for Active; 'I' for Inactive)
REMARK    1  A    between atoms: C_2  and  C_1 
REMARK    2  A    between atoms: C_19  and  N_3 
REMARK    3  A    between atoms: S_16  and  C_9 
REMARK    4  A    between atoms: C_13  and  C_15 
REMARK    5  A    between atoms: C_15  and  S_16 
ROOT
ATOM      1  C   UNL d   1      -1.007  -2.562  -0.006  0.00  0.00     0.193 A 
ATOM      2  O   UNL d   1      -1.997  -3.002  -0.852  0.00  0.00    -0.266 OA
ATOM      3  N   UNL d   1      -0.578  -3.526   0.785  0.00  0.00    -0.275 N 
ATOM      4  HN  UNL d   1       0.146  -3.450   1.499  1.00  0.00     0.189 HD
ATOM      5  C   UNL d   1      -2.117  -4.321  -0.510  0.00  0.00     0.204 A 
ATOM      6  N   UNL d   1      -1.296  -4.659   0.462  0.00  0.00    -0.272 N 
ATOM      7  HN  UNL d   1      -1.207  -5.579   0.893  1.00  0.00     0.189 HD
ENDROOT
BRANCH   5   8
ATOM      8  S   UNL d   1      -3.228  -5.395  -1.304  0.00  0.00    -0.080 SA
BRANCH   8   9
ATOM      9  C   UNL d   1      -3.020  -6.884  -0.284  0.00  0.00     0.125 C 
BRANCH   9  10
ATOM     10  C   UNL d   1      -3.869  -8.035  -0.780  0.00  0.00    -0.005 A 
ATOM     11  C   UNL d   1      -3.377  -8.948  -1.732  0.00  0.00     0.042 A 
ATOM     12 CL   UNL d   1      -1.793  -8.807  -2.414  0.00  0.00    -0.084 Cl
ATOM     13  C   UNL d   1      -4.157 -10.026  -2.176  0.00  0.00     0.024 A 
ATOM     14  C   UNL d   1      -5.446 -10.209  -1.688  0.00  0.00     0.003 A 
ATOM     15  C   UNL d   1      -5.962  -9.306  -0.763  0.00  0.00     0.024 A 
ATOM     16  C   UNL d   1      -5.185  -8.229  -0.316  0.00  0.00     0.042 A 
ATOM     17 CL   UNL d   1      -5.926  -7.160   0.825  0.00  0.00    -0.084 Cl
ENDBRANCH   9  10
ENDBRANCH   8   9
ENDBRANCH   5   8
BRANCH   1  18
ATOM     18  C   UNL d   1      -0.537  -1.217   0.007  0.00  0.00     0.105 A 
ATOM     19  N   UNL d   1       0.649  -0.775   0.540  0.00  0.00    -0.288 N 
ATOM     20  N   UNL d   1       0.815   0.562   0.421  0.00  0.00    -0.303 N 
ATOM     21  C   UNL d   1      -0.275   0.978  -0.231  0.00  0.00     0.024 A 
ATOM     22  HN  UNL d   1       1.596   1.127   0.754  1.00  0.00     0.186 HD
ATOM     23  C   UNL d   1      -1.146  -0.094  -0.518  0.00  0.00     0.061 A 
ATOM     24  C   UNL d   1      -0.445   2.410  -0.574  0.00  0.00     0.070 C 
BRANCH  19  25
ATOM     25  C   UNL d   1       1.750  -1.551   1.082  0.00  0.00     0.145 C 
ATOM     26  C   UNL d   1       1.686  -1.700   2.591  0.00  0.00     0.028 C 
ENDBRANCH  19  25
ENDBRANCH   1  18
TORSDOF 5
