REMARK  4 active torsions:
REMARK  status: ('A' for Active; 'I' for Inactive)
REMARK    1  A    between atoms: C_6  and  C_3 
REMARK    2  A    between atoms: O_10  and  C_9 
REMARK    3  A    between atoms: C_11  and  O_10 
REMARK    4  A    between atoms: C_16  and  C_11 
ROOT
ATOM      1  C   UNL d   1       1.275  -2.875  -0.350  0.00  0.00    -0.006 C 
ATOM      2  C   UNL d   1       1.619  -5.670  -0.363  0.00  0.00     0.091 C 
ATOM      3  C   UNL d   1       2.413  -4.873   0.481  0.00  0.00    -0.027 C 
ATOM      4  C   UNL d   1       0.750  -5.079  -1.294  0.00  0.00    -0.027 C 
ATOM      5  C   UNL d   1       2.203  -3.487   0.505  0.00  0.00     0.023 C 
ATOM      6  C   UNL d   1       0.603  -3.673  -1.284  0.00  0.00     0.023 C 
ATOM      7  C   UNL d   1       3.480  -5.462   1.358  0.00  0.00     0.051 C 
ATOM      8  C   UNL d   1      -0.037  -5.860  -2.307  0.00  0.00     0.051 C 
ENDROOT
BRANCH   1   9
ATOM      9  C   UNL d   1       1.141  -1.377  -0.270  0.00  0.00     0.070 A 
ATOM     10  N   UNL d   1       2.236  -0.733   0.020  0.00  0.00    -0.294 N 
ATOM     11  N   UNL d   1       2.237   0.631   0.106  0.00  0.00    -0.261 N 
ATOM     12  HN  UNL d   1       3.099  -1.251   0.185  1.00  0.00     0.187 HD
ATOM     13  C   UNL d   1       1.144   1.433  -0.168  0.00  0.00     0.272 A 
ATOM     14  C   UNL d   1       3.485   1.256   0.499  0.00  0.00     0.181 C 
ATOM     15  C   UNL d   1      -0.114   0.735  -0.483  0.00  0.00     0.046 A 
ATOM     16  O   UNL d   1       1.167   2.665  -0.133  0.00  0.00    -0.266 OA
ATOM     17  C   UNL d   1      -1.274   1.490  -0.710  0.00  0.00     0.018 A 
ATOM     18  C   UNL d   1      -0.151  -0.662  -0.482  0.00  0.00     0.009 A 
ATOM     19  C   UNL d   1      -2.490   0.850  -0.926  0.00  0.00     0.001 A 
ATOM     20  C   UNL d   1      -2.551  -0.539  -0.876  0.00  0.00     0.001 A 
ATOM     21  C   UNL d   1      -1.394  -1.291  -0.635  0.00  0.00     0.015 A 
ENDBRANCH   1   9
BRANCH   2  22
ATOM     22  O   UNL d   1       1.832  -7.065  -0.274  0.00  0.00    -0.274 OA
BRANCH  22  23
ATOM     23  C   UNL d   1       0.772  -7.843   0.172  0.00  0.00     0.298 C 
ATOM     24  O   UNL d   1      -0.416  -7.559   0.145  0.00  0.00    -0.259 OA
BRANCH  23  25
ATOM     25  C   UNL d   1       1.276  -9.125   0.742  0.00  0.00     0.040 A 
ATOM     26  C   UNL d   1       0.414 -10.229   0.788  0.00  0.00     0.018 A 
ATOM     27  C   UNL d   1       0.788 -11.390   1.476  0.00  0.00     0.007 A 
ATOM     28  C   UNL d   1       2.023 -11.460   2.134  0.00  0.00    -0.062 A 
ATOM     29  C   UNL d   1       2.894 -10.368   2.058  0.00  0.00     0.007 A 
ATOM     30  C   UNL d   1       2.361 -12.651   2.984  0.00  0.00     0.048 C 
ATOM     31  C   UNL d   1       2.529  -9.212   1.359  0.00  0.00     0.018 A 
ENDBRANCH  23  25
ENDBRANCH  22  23
ENDBRANCH   2  22
TORSDOF 4
