REMARK  4 active torsions:
REMARK  status: ('A' for Active; 'I' for Inactive)
REMARK    1  A    between atoms: C_2  and  C_1 
REMARK    2  A    between atoms: O_13  and  C_2 
REMARK    3  A    between atoms: N_4  and  O_13 
REMARK    4  A    between atoms: C_16  and  C_15 
ROOT
ATOM      1  N   UNL d   1      -1.755  -3.770   0.077  0.00  0.00    -0.268 N 
ATOM      2  HN  UNL d   1      -1.228  -4.612   0.307  1.00  0.00     0.194 HD
ATOM      3  C   UNL d   1      -3.031  -3.731  -0.133  0.00  0.00     0.126 C 
ENDROOT
BRANCH   1   4
ATOM      4  O   UNL d   1      -1.197  -2.481  -0.058  0.00  0.00    -0.195 OA
BRANCH   4   5
ATOM      5  C   UNL d   1       0.135  -2.529   0.247  0.00  0.00     0.316 C 
ATOM      6  O   UNL d   1       0.786  -3.520   0.551  0.00  0.00    -0.257 OA
BRANCH   5   7
ATOM      7  C   UNL d   1       0.795  -1.206   0.069  0.00  0.00     0.058 A 
ATOM      8  C   UNL d   1       0.221   0.048   0.324  0.00  0.00     0.027 A 
ATOM      9 BR   UNL d   1      -1.550   0.313   0.962  0.00  0.00    -0.050 Br
ATOM     10  C   UNL d   1       0.990   1.213   0.161  0.00  0.00     0.020 A 
ATOM     11  C   UNL d   1       2.323   1.140  -0.245  0.00  0.00     0.001 A 
ATOM     12  C   UNL d   1       2.902  -0.098  -0.495  0.00  0.00     0.001 A 
ATOM     13  C   UNL d   1       2.144  -1.260  -0.338  0.00  0.00     0.019 A 
ENDBRANCH   5   7
ENDBRANCH   4   5
ENDBRANCH   1   4
BRANCH   3  14
ATOM     14  C   UNL d   1      -3.854  -4.959  -0.086  0.00  0.00    -0.016 A 
ATOM     15  C   UNL d   1      -5.224  -4.873  -0.359  0.00  0.00     0.052 A 
ATOM     16  C   UNL d   1      -5.946  -6.050  -0.360  0.00  0.00     0.105 A 
ATOM     17  O   UNL d   1      -7.274  -6.168  -0.631  0.00  0.00    -0.323 OA
ATOM     18  C   UNL d   1      -5.360  -7.266  -0.090  0.00  0.00     0.105 A 
ATOM     19  C   UNL d   1      -7.439  -7.602  -0.570  0.00  0.00     0.352 A 
ATOM     20  O   UNL d   1      -6.244  -8.297  -0.158  0.00  0.00    -0.323 OA
ATOM     21  C   UNL d   1      -4.018  -7.377   0.203  0.00  0.00     0.040 A 
ATOM     22  C   UNL d   1      -3.255  -6.205   0.200  0.00  0.00     0.016 A 
ENDBRANCH   3  14
TORSDOF 4
