REMARK  5 active torsions:
REMARK  status: ('A' for Active; 'I' for Inactive)
REMARK    1  A    between atoms: C_3  and  C_1 
REMARK    2  A    between atoms: C_2  and  S_4 
REMARK    3  A    between atoms: O_8  and  C_2 
REMARK    4  A    between atoms: S_4  and  C_3 
REMARK    5  A    between atoms: C_14  and  O_8 
ROOT
ATOM      1  C   UNL d   1      -0.374   0.885   0.083  0.00  0.00     0.012 A 
ATOM      2  C   UNL d   1      -0.484   0.164  -1.111  0.00  0.00     0.125 A 
ATOM      3  C   UNL d   1      -0.519   0.176   1.287  0.00  0.00     0.044 A 
ATOM      4  F   UNL d   1      -0.363   0.799  -2.286  0.00  0.00    -0.205 F 
ATOM      5 CL   UNL d   1      -0.433   0.959   2.825  0.00  0.00    -0.084 Cl
ATOM      6  C   UNL d   1      -0.833  -1.903   0.076  0.00  0.00     0.005 A 
ATOM      7  C   UNL d   1      -0.708  -1.212  -1.126  0.00  0.00     0.043 A 
ATOM      8  C   UNL d   1      -0.744  -1.206   1.281  0.00  0.00     0.024 A 
ENDROOT
BRANCH   1   9
ATOM      9  C   UNL d   1      -0.120   2.370   0.024  0.00  0.00     0.125 C 
BRANCH   9  10
ATOM     10  S   UNL d   1      -1.667   3.309  -0.026  0.00  0.00    -0.089 SA
BRANCH  10  11
ATOM     11  C   UNL d   1      -1.156   4.989   0.133  0.00  0.00     0.175 C 
ATOM     12  S   UNL d   1       0.414   5.567   0.074  0.00  0.00    -0.045 SA
BRANCH  11  13
ATOM     13  O   UNL d   1      -2.214   5.839   0.271  0.00  0.00    -0.336 OA
BRANCH  13  14
ATOM     14  C   UNL d   1      -2.098   7.200   0.746  0.00  0.00     0.172 C 
ATOM     15  C   UNL d   1      -3.486   7.638   1.173  0.00  0.00     0.034 C 
ENDBRANCH  13  14
ENDBRANCH  11  13
ENDBRANCH  10  11
ENDBRANCH   9  10
ENDBRANCH   1   9
TORSDOF 5
