REMARK  1 active torsions:
REMARK  status: ('A' for Active; 'I' for Inactive)
REMARK    1  A    between atoms: C_10  and  C_3 
ROOT
ATOM      1  N   UNL d   1       4.582  -5.771  -0.105  0.00  0.00    -0.327 N 
ATOM      2  C   UNL d   1       3.731  -4.663  -0.074  0.00  0.00     0.041 A 
ATOM      3  C   UNL d   1       5.350  -6.173   0.956  0.00  0.00     0.222 C 
ATOM      4  C   UNL d   1       2.043  -2.425  -0.014  0.00  0.00    -0.008 A 
ATOM      5  C   UNL d   1       3.800  -3.772   1.001  0.00  0.00    -0.030 A 
ATOM      6  C   UNL d   1       2.963  -2.649   1.022  0.00  0.00     0.023 A 
ATOM      7  C   UNL d   1       2.832  -4.447  -1.117  0.00  0.00     0.031 A 
ATOM      8  O   UNL d   1       6.118  -7.126   0.859  0.00  0.00    -0.273 OA
ATOM      9  C   UNL d   1       1.979  -3.340  -1.075  0.00  0.00     0.016 A 
ATOM     10  C   UNL d   1       4.841  -3.986   2.064  0.00  0.00     0.050 C 
ATOM     11  C   UNL d   1       5.096  -5.469   2.270  0.00  0.00     0.108 C 
ATOM     12  H   UNL d   1       4.652  -6.336  -0.941  0.00  0.00     0.169 HD
ENDROOT
BRANCH   4  13
ATOM     13  C   UNL d   1       1.157  -1.267  -0.003  0.00  0.00     0.049 A 
ATOM     14  N   UNL d   1      -0.104  -1.318  -0.578  0.00  0.00    -0.353 N 
ATOM     15  C   UNL d   1      -0.715  -0.163  -0.425  0.00  0.00     0.047 A 
ATOM     16  HN  UNL d   1      -0.499  -2.131  -1.050  1.00  0.00     0.166 HD
ATOM     17  S   UNL d   1       0.194   1.057   0.373  0.00  0.00    -0.087 SA
ATOM     18  C   UNL d   1      -2.097   0.131  -0.889  0.00  0.00     0.076 C 
ATOM     19  C   UNL d   1       1.494  -0.045   0.546  0.00  0.00     0.081 A 
ENDBRANCH   4  13
TORSDOF 1
