REMARK  4 active torsions:
REMARK  status: ('A' for Active; 'I' for Inactive)
REMARK    1  A    between atoms: C_11  and  C_29 
REMARK    2  A    between atoms: C_28  and  N_13 
REMARK    3  A    between atoms: C_30  and  C_28 
REMARK    4  A    between atoms: C_29  and  C_30 
ROOT
ATOM      1  C   UNL d   1       2.752  -1.134  -0.094  0.00  0.00     0.148 A 
ATOM      2  N   UNL d   1       2.261  -0.474   0.933  0.00  0.00    -0.335 N 
ATOM      3  HN  UNL d   1       2.721  -0.399   1.840  1.00  0.00     0.168 HD
ATOM      4  S   UNL d   1       1.785  -1.006  -1.524  0.00  0.00    -0.052 SA
ATOM      5  N   UNL d   1       3.917  -1.834  -0.039  0.00  0.00    -0.358 N 
ATOM      6  C   UNL d   1       1.045   0.105   0.628  0.00  0.00     0.053 A 
ATOM      7  C   UNL d   1       0.618  -0.075  -0.685  0.00  0.00     0.035 A 
ATOM      8  N   UNL d   1       5.743  -3.996   0.764  0.00  0.00     0.091 N 
ATOM      9  C   UNL d   1       0.233   0.835   1.518  0.00  0.00     0.054 A 
ATOM     10  C   UNL d   1       4.292  -2.861  -1.012  0.00  0.00     0.155 C 
ATOM     11  C   UNL d   1       4.832  -1.636   1.092  0.00  0.00     0.155 C 
ATOM     12  C   UNL d   1      -0.595   0.454  -1.155  0.00  0.00     0.023 A 
ATOM     13  C   UNL d   1      -0.979   1.357   1.060  0.00  0.00     0.036 A 
ATOM     14  C   UNL d   1       4.723  -4.167  -0.298  0.00  0.00     0.292 C 
ATOM     15  C   UNL d   1       5.221  -2.990   1.723  0.00  0.00     0.292 C 
ATOM     16  C   UNL d   1      -1.388   1.172  -0.257  0.00  0.00     0.025 A 
ATOM     17 CL   UNL d   1      -1.983   2.239   2.144  0.00  0.00    -0.084 Cl
ENDROOT
BRANCH   8  18
ATOM     18  C   UNL d   1       7.042  -3.628   0.178  0.00  0.00     0.273 C 
BRANCH  18  19
ATOM     19  C   UNL d   1       8.183  -3.493   1.188  0.00  0.00     0.035 C 
BRANCH  19  20
ATOM     20  C   UNL d   1       8.430  -4.775   1.986  0.00  0.00     0.042 C 
BRANCH  20  21
ATOM     21  C   UNL d   1       9.514  -4.572   2.995  0.00  0.00    -0.030 A 
ATOM     22  C   UNL d   1       9.350  -4.166   4.358  0.00  0.00     0.001 A 
ATOM     23  C   UNL d   1      10.624  -4.044   4.913  0.00  0.00     0.043 A 
ATOM     24  C   UNL d   1       8.232  -3.875   5.165  0.00  0.00     0.056 A 
ATOM     25  C   UNL d   1      10.843  -3.637   6.236  0.00  0.00     0.033 A 
ATOM     26  N   UNL d   1      11.527  -4.385   3.932  0.00  0.00    -0.365 N 
ATOM     27  C   UNL d   1       9.717  -3.354   7.016  0.00  0.00     0.044 A 
ATOM     28  C   UNL d   1       8.441  -3.475   6.483  0.00  0.00     0.117 A 
ATOM     29  F   UNL d   1       7.382  -3.198   7.257  0.00  0.00    -0.206 F 
ATOM     30  C   UNL d   1      10.871  -4.704   2.774  0.00  0.00     0.096 A 
ATOM     31  H   UNL d   1      12.530  -4.386   4.051  0.00  0.00     0.165 HD
ENDBRANCH  20  21
ENDBRANCH  19  20
ENDBRANCH  18  19
ENDBRANCH   8  18
TORSDOF 4
