REMARK  8 active torsions:
REMARK  status: ('A' for Active; 'I' for Inactive)
REMARK    1  A    between atoms: S_7  and  C_1 
REMARK    2  A    between atoms: N_15  and  C_1 
REMARK    3  A    between atoms: C_2  and  S_6 
REMARK    4  A    between atoms: N_14  and  C_2 
REMARK    5  A    between atoms: C_4  and  C_13 
REMARK    6  A    between atoms: C_12  and  C_5 
REMARK    7  A    between atoms: S_6  and  C_12 
REMARK    8  A    between atoms: C_13  and  S_7 
ROOT
ATOM      1  C   UNL d   1       0.371   1.862  -4.609  0.00  0.00     0.130 A 
ATOM      2  C   UNL d   1       0.497   0.526  -4.193  0.00  0.00    -0.009 A 
ATOM      3  C   UNL d   1      -0.290   2.213  -5.798  0.00  0.00    -0.009 A 
ATOM      4  F   UNL d   1       0.892   2.832  -3.844  0.00  0.00    -0.205 F 
ATOM      5  C   UNL d   1      -0.809   1.184  -6.599  0.00  0.00     0.011 A 
ATOM      6  C   UNL d   1      -0.106  -0.466  -4.982  0.00  0.00     0.011 A 
ATOM      7  C   UNL d   1      -0.734  -0.143  -6.185  0.00  0.00     0.001 A 
ENDROOT
BRANCH   2   8
ATOM      8  C   UNL d   1       1.197   0.211  -2.885  0.00  0.00     0.123 C 
BRANCH   8   9
ATOM      9  S   UNL d   1       2.058  -1.398  -2.875  0.00  0.00    -0.096 SA
BRANCH   9  10
ATOM     10  C   UNL d   1       2.774  -1.357  -1.304  0.00  0.00     0.110 C 
ATOM     11  N   UNL d   1       4.050  -1.441  -1.207  0.00  0.00    -0.385 N 
ATOM     12  H   UNL d   1       4.418  -1.501  -2.164  0.00  0.00     0.157 HD
ATOM     13  HN  UNL d   1       4.595  -1.447  -0.345  1.00  0.00     0.157 HD
BRANCH  10  14
ATOM     14  N   UNL d   1       1.971  -1.314  -0.223  0.00  0.00    -0.283 NA
ATOM     15  H   UNL d   1       1.091  -1.803  -0.337  0.00  0.00     0.126 HD
ATOM     16  H   UNL d   1       2.473  -1.599   0.611  0.00  0.00     0.126 HD
ENDBRANCH  10  14
ENDBRANCH   9  10
ENDBRANCH   8   9
ENDBRANCH   2   8
BRANCH   3  17
ATOM     17  C   UNL d   1      -0.425   3.658  -6.222  0.00  0.00     0.123 C 
BRANCH  17  18
ATOM     18  S   UNL d   1      -2.170   4.115  -6.496  0.00  0.00    -0.096 SA
BRANCH  18  19
ATOM     19  C   UNL d   1      -1.986   5.767  -6.970  0.00  0.00     0.110 C 
ATOM     20  N   UNL d   1      -1.371   6.082  -8.051  0.00  0.00    -0.385 N 
ATOM     21  H   UNL d   1      -1.056   5.221  -8.507  0.00  0.00     0.157 HD
ATOM     22  HN  UNL d   1      -1.222   7.029  -8.398  1.00  0.00     0.157 HD
BRANCH  19  23
ATOM     23  N   UNL d   1      -2.590   6.681  -6.186  0.00  0.00    -0.283 NA
ATOM     24  H   UNL d   1      -3.391   6.328  -5.679  0.00  0.00     0.126 HD
ATOM     25  H   UNL d   1      -2.766   7.548  -6.679  0.00  0.00     0.126 HD
ENDBRANCH  19  23
ENDBRANCH  18  19
ENDBRANCH  17  18
ENDBRANCH   3  17
TORSDOF 8
