REMARK  5 active torsions:
REMARK  status: ('A' for Active; 'I' for Inactive)
REMARK    1  A    between atoms: C_2  and  S_1 
REMARK    2  A    between atoms: N_3  and  S_1 
REMARK       I    between atoms: C_6  and  N_11 
REMARK    3  A    between atoms: C_12  and  C_6 
REMARK    4  A    between atoms: C_15  and  C_7 
REMARK    5  A    between atoms: N_11  and  C_15 
ROOT
ATOM      1  C   UNL d   1       0.219   1.641  -0.112  0.00  0.00     0.115 A 
ATOM      2  S   UNL d   1       1.201   3.033   0.024  0.00  0.00    -0.080 SA
ATOM      3  C   UNL d   1      -1.104   1.977  -0.326  0.00  0.00     0.033 A 
ATOM      4  C   UNL d   1      -0.136   4.088  -0.176  0.00  0.00     0.002 A 
ATOM      5  C   UNL d   1      -1.311   3.384  -0.355  0.00  0.00     0.018 A 
ENDROOT
BRANCH   4   6
ATOM      6  C   UNL d   1       0.051   5.572  -0.149  0.00  0.00     0.169 C 
BRANCH   6   7
ATOM      7  N   UNL d   1      -0.074   6.023   1.218  0.00  0.00    -0.352 N 
ATOM      8  C   UNL d   1      -0.450   7.319   1.494  0.00  0.00     0.251 C 
ATOM      9  O   UNL d   1      -0.706   8.147   0.627  0.00  0.00    -0.268 OA
ATOM     10  H   UNL d   1       0.395   5.484   1.933  0.00  0.00     0.163 HD
BRANCH   8  11
ATOM     11  C   UNL d   1      -0.530   7.698   2.933  0.00  0.00     0.032 A 
ATOM     12  C   UNL d   1      -0.360   9.045   3.283  0.00  0.00     0.018 A 
ATOM     13  C   UNL d   1      -0.495   9.450   4.614  0.00  0.00     0.025 A 
ATOM     14  C   UNL d   1      -0.810   8.510   5.593  0.00  0.00     0.034 A 
ATOM     15  C   UNL d   1      -0.982   7.168   5.256  0.00  0.00     0.025 A 
ATOM     16 CL   UNL d   1      -1.013   9.012   7.226  0.00  0.00    -0.084 Cl
ATOM     17  C   UNL d   1      -0.842   6.758   3.925  0.00  0.00     0.018 A 
ENDBRANCH   8  11
ENDBRANCH   6   7
ENDBRANCH   4   6
BRANCH   1  18
ATOM     18  S   UNL d   1       1.008   0.048   0.043  0.00  0.00     0.250 S 
ATOM     19  O   UNL d   1      -0.090  -0.837   0.382  0.00  0.00    -0.205 OA
ATOM     20  O   UNL d   1       2.129   0.223   0.938  0.00  0.00    -0.205 OA
BRANCH  18  21
ATOM     21  N   UNL d   1       1.574  -0.389  -1.505  0.00  0.00    -0.202 NA
ATOM     22  C   UNL d   1       2.942   0.096  -1.875  0.00  0.00     0.134 C 
ATOM     23  C   UNL d   1       4.034  -0.796  -1.258  0.00  0.00     0.183 C 
ATOM     24  O   UNL d   1       3.846  -2.179  -1.600  0.00  0.00    -0.389 OA
ATOM     25  C   UNL d   1       2.556  -2.646  -1.172  0.00  0.00     0.183 C 
ATOM     26  C   UNL d   1       1.448  -1.839  -1.851  0.00  0.00     0.134 C 
ENDBRANCH  18  21
ENDBRANCH   1  18
TORSDOF 5
