REMARK  5 active torsions:
REMARK  status: ('A' for Active; 'I' for Inactive)
REMARK    1  A    between atoms: C_5  and  C_1 
REMARK    2  A    between atoms: N_9  and  C_2 
REMARK    3  A    between atoms: N_8  and  C_3 
REMARK       I    between atoms: C_4  and  N_6 
REMARK    4  A    between atoms: C_7  and  C_4 
REMARK    5  A    between atoms: N_6  and  C_5 
ROOT
ATOM      1  C   UNL d   1       1.453  -0.254  -0.035  0.00  0.00     0.013 A 
ATOM      2  C   UNL d   1       0.572  -1.363  -0.234  0.00  0.00     0.039 A 
ATOM      3  C   UNL d   1       0.966   1.088  -0.129  0.00  0.00     0.039 A 
ATOM      4  C   UNL d   1      -0.790  -1.090  -0.454  0.00  0.00     0.030 A 
ATOM      5  C   UNL d   1      -0.409   1.285  -0.341  0.00  0.00     0.030 A 
ATOM      6  C   UNL d   1      -1.280   0.212  -0.486  0.00  0.00     0.005 A 
ENDROOT
BRANCH   1   7
ATOM      7  C   UNL d   1       2.866  -0.499   0.479  0.00  0.00     0.166 C 
BRANCH   7   8
ATOM      8  N   UNL d   1       3.890  -0.560  -0.551  0.00  0.00    -0.356 N 
ATOM      9  C   UNL d   1       5.158  -1.009  -0.252  0.00  0.00     0.225 C 
ATOM     10  O   UNL d   1       5.441  -1.470   0.849  0.00  0.00    -0.273 OA
ATOM     11  H   UNL d   1       3.695  -0.114  -1.429  0.00  0.00     0.162 HD
BRANCH   9  12
ATOM     12  C   UNL d   1       6.215  -0.831  -1.362  0.00  0.00     0.030 C 
ATOM     13  C   UNL d   1       6.563   0.660  -1.492  0.00  0.00     0.024 C 
ATOM     14  C   UNL d   1       7.487  -1.604  -0.967  0.00  0.00     0.024 C 
ATOM     15  C   UNL d   1       5.720  -1.370  -2.712  0.00  0.00     0.024 C 
ENDBRANCH   9  12
ENDBRANCH   7   8
ENDBRANCH   1   7
BRANCH   2  16
ATOM     16  N   UNL d   1       1.026  -2.687  -0.156  0.00  0.00    -0.389 N 
ATOM     17  C   UNL d   1       0.119  -3.748   0.272  0.00  0.00     0.149 C 
ATOM     18  C   UNL d   1       2.026  -3.092  -1.144  0.00  0.00     0.149 C 
ENDBRANCH   2  16
BRANCH   3  19
ATOM     19  N   UNL d   1       1.839   2.186   0.017  0.00  0.00    -0.389 N 
ATOM     20  C   UNL d   1       1.302   3.406   0.624  0.00  0.00     0.149 C 
ATOM     21  C   UNL d   1       2.676   2.431  -1.159  0.00  0.00     0.149 C 
ENDBRANCH   3  19
TORSDOF 5
