REMARK  4 active torsions:
REMARK  status: ('A' for Active; 'I' for Inactive)
REMARK    1  A    between atoms: S_9  and  C_1 
REMARK       I    between atoms: C_6  and  N_7 
REMARK    2  A    between atoms: C_15  and  C_6 
REMARK    3  A    between atoms: N_7  and  C_11 
REMARK    4  A    between atoms: C_12  and  S_9 
ROOT
ATOM      1  N   UNL d   1       1.255   1.639   6.221  0.00  0.00    -0.191 NA
ATOM      2  C   UNL d   1       0.320   1.291   5.619  0.00  0.00     0.099 C 
ATOM      3  C   UNL d   1      -2.841   0.077   3.069  0.00  0.00     0.032 A 
ATOM      4  C   UNL d   1      -1.934  -0.869   3.568  0.00  0.00     0.018 A 
ATOM      5  C   UNL d   1      -2.761   1.404   3.526  0.00  0.00     0.018 A 
ATOM      6  C   UNL d   1      -0.801   0.867   4.838  0.00  0.00     0.044 A 
ATOM      7  C   UNL d   1      -1.745   1.797   4.401  0.00  0.00     0.024 A 
ATOM      8  C   UNL d   1      -0.919  -0.474   4.450  0.00  0.00     0.024 A 
ENDROOT
BRANCH   3   9
ATOM      9  C   UNL d   1      -3.819  -0.233   1.976  0.00  0.00     0.256 C 
ATOM     10  N   UNL d   1      -4.109  -1.569   1.778  0.00  0.00    -0.322 N 
ATOM     11  H   UNL d   1      -3.944  -2.172   2.572  0.00  0.00     0.169 HD
ATOM     12  O   UNL d   1      -4.317   0.709   1.371  0.00  0.00    -0.267 OA
BRANCH  10  13
ATOM     13  C   UNL d   1      -4.954  -2.119   0.776  0.00  0.00     0.052 C 
ATOM     14  C   UNL d   1      -5.195  -1.609  -0.518  0.00  0.00     0.034 C 
ATOM     15  C   UNL d   1      -6.242  -2.173  -1.279  0.00  0.00     0.021 C 
ATOM     16  C   UNL d   1      -6.948  -3.290  -0.838  0.00  0.00     0.002 C 
ATOM     17  C   UNL d   1      -6.596  -3.888   0.362  0.00  0.00     0.002 C 
ATOM     18  C   UNL d   1      -5.610  -3.307   1.160  0.00  0.00     0.031 C 
BRANCH  14  19
ATOM     19  S   UNL d   1      -4.259  -0.368  -1.412  0.00  0.00    -0.063 SA
BRANCH  19  20
ATOM     20  C   UNL d   1      -2.607  -0.879  -1.125  0.00  0.00     0.118 A 
ATOM     21  N   UNL d   1      -2.248  -2.124  -0.894  0.00  0.00    -0.344 N 
ATOM     22  C   UNL d   1      -0.895  -2.174  -0.601  0.00  0.00     0.050 A 
ATOM     23  HN  UNL d   1      -2.873  -2.930  -0.925  1.00  0.00     0.167 HD
ATOM     24  C   UNL d   1      -0.168  -3.324  -0.223  0.00  0.00     0.032 A 
ATOM     25  C   UNL d   1      -0.222  -0.953  -0.668  0.00  0.00     0.035 A 
ATOM     26  C   UNL d   1       1.185  -3.211   0.119  0.00  0.00     0.026 A 
ATOM     27  C   UNL d   1       1.821  -1.975   0.062  0.00  0.00     0.035 A 
ATOM     28  C   UNL d   1       1.141  -0.829  -0.354  0.00  0.00     0.045 A 
ATOM     29 CL   UNL d   1       3.473  -1.847   0.534  0.00  0.00    -0.084 Cl
ATOM     30  S   UNL d   1      -1.329   0.266  -1.159  0.00  0.00    -0.063 SA
ENDBRANCH  19  20
ENDBRANCH  14  19
ENDBRANCH  10  13
ENDBRANCH   3   9
TORSDOF 4
