REMARK  6 active torsions:
REMARK  status: ('A' for Active; 'I' for Inactive)
REMARK    1  A    between atoms: C_18  and  C_6 
REMARK    2  A    between atoms: O_17  and  N_9 
REMARK    3  A    between atoms: C_11  and  C_15 
REMARK    4  A    between atoms: O_14  and  C_13 
REMARK    5  A    between atoms: C_15  and  O_14 
REMARK    6  A    between atoms: C_20  and  C_18 
ROOT
ATOM      1  C   UNL d   1      12.519   0.363  -0.048  0.00  0.00     0.092 A 
ATOM      2  C   UNL d   1      12.616   1.749  -0.111  0.00  0.00     0.048 A 
ATOM      3  C   UNL d   1      13.948   2.370  -0.138  0.00  0.00     0.187 A 
ATOM      4  C   UNL d   1      15.094   1.450  -0.069  0.00  0.00     0.088 A 
ATOM      5  O   UNL d   1      13.622  -0.457   0.009  0.00  0.00    -0.314 OA
ATOM      6  C   UNL d   1      14.883   0.128   0.001  0.00  0.00     0.057 A 
ATOM      7  C   UNL d   1      11.259  -0.242  -0.033  0.00  0.00     0.075 A 
ATOM      8  C   UNL d   1      11.465   2.539  -0.140  0.00  0.00     0.021 A 
ATOM      9  O   UNL d   1      14.109   3.578  -0.212  0.00  0.00    -0.287 OA
ATOM     10  C   UNL d   1      10.097   0.539  -0.087  0.00  0.00     0.071 A 
ATOM     11  C   UNL d   1      10.205   1.932  -0.123  0.00  0.00     0.038 A 
ENDROOT
BRANCH  10  12
ATOM     12  O   UNL d   1       8.915  -0.155  -0.050  0.00  0.00    -0.345 OA
BRANCH  12  13
ATOM     13  C   UNL d   1       7.804   0.476  -0.680  0.00  0.00     0.229 C 
BRANCH  13  14
ATOM     14  C   UNL d   1       6.575  -0.422  -0.584  0.00  0.00     0.030 C 
ATOM     15  N   UNL d   1       5.513   0.064  -0.009  0.00  0.00    -0.276 N 
ATOM     16  HN  UNL d   1       5.463   0.998   0.397  1.00  0.00     0.193 HD
ATOM     17  C   UNL d   1       6.677  -1.795  -1.209  0.00  0.00     0.068 C 
BRANCH  15  18
ATOM     18  O   UNL d   1       4.448  -0.843  -0.011  0.00  0.00    -0.290 OA
ATOM     19  H   UNL d   1       3.749  -0.351   0.460  0.00  0.00     0.244 HD
ENDBRANCH  15  18
ENDBRANCH  13  14
ENDBRANCH  12  13
ENDBRANCH  10  12
BRANCH   6  20
ATOM     20  C   UNL d   1      16.027  -0.850   0.108  0.00  0.00     0.065 C 
BRANCH  20  21
ATOM     21  C   UNL d   1      16.094  -1.875  -1.028  0.00  0.00     0.002 C 
ATOM     22  C   UNL d   1      16.294  -1.249  -2.400  0.00  0.00     0.005 C 
ENDBRANCH  20  21
ENDBRANCH   6  20
TORSDOF 6
