REMARK  3 active torsions:
REMARK  status: ('A' for Active; 'I' for Inactive)
REMARK    1  A    between atoms: C_7  and  N_1 
REMARK    2  A    between atoms: O_10  and  N_3 
REMARK    3  A    between atoms: C_11  and  C_7 
ROOT
ATOM      1  N   UNL d   1       2.122   0.424  -0.039  0.00  0.00     0.093 N 
ATOM      2  C   UNL d   1      -0.620  -0.255   0.368  0.00  0.00     0.013 C 
ATOM      3  N   UNL d   1      -1.807  -0.584  -0.049  0.00  0.00    -0.277 N 
ATOM      4  HN  UNL d   1      -2.097  -1.539  -0.257  1.00  0.00     0.193 HD
ATOM      5  C   UNL d   1      -0.146   1.137   0.694  0.00  0.00     0.084 C 
ATOM      6  C   UNL d   1       0.422  -1.331   0.527  0.00  0.00     0.084 C 
ATOM      7  C   UNL d   1       1.045   1.423  -0.215  0.00  0.00     0.278 C 
ATOM      8  C   UNL d   1       1.630  -0.942  -0.324  0.00  0.00     0.278 C 
ENDROOT
BRANCH   1   9
ATOM      9  C   UNL d   1       3.269   0.719  -0.927  0.00  0.00     0.311 C 
BRANCH   9  10
ATOM     10  C   UNL d   1       3.916   2.064  -0.671  0.00  0.00    -0.030 A 
ATOM     11  C   UNL d   1       4.463   2.369   0.584  0.00  0.00     0.009 A 
ATOM     12  C   UNL d   1       5.030   3.622   0.824  0.00  0.00     0.001 A 
ATOM     13  C   UNL d   1       5.063   4.579  -0.188  0.00  0.00     0.000 A 
ATOM     14  C   UNL d   1       4.535   4.284  -1.443  0.00  0.00     0.001 A 
ATOM     15  C   UNL d   1       3.966   3.033  -1.685  0.00  0.00     0.009 A 
ENDBRANCH   9  10
ENDBRANCH   1   9
BRANCH   3  16
ATOM     16  O   UNL d   1      -2.636   0.533  -0.176  0.00  0.00    -0.290 OA
ATOM     17  H   UNL d   1      -3.469   0.141  -0.502  0.00  0.00     0.244 HD
ENDBRANCH   3  16
TORSDOF 3
