REMARK  5 active torsions:
REMARK  status: ('A' for Active; 'I' for Inactive)
REMARK    1  A    between atoms: C_3  and  C_1 
REMARK    2  A    between atoms: N_8  and  C_1 
REMARK    3  A    between atoms: C_4  and  C_2 
REMARK    4  A    between atoms: C_5  and  C_2 
REMARK    5  A    between atoms: O_11  and  C_4 
ROOT
ATOM      1  C   UNL d   1       1.014   0.165   0.028  0.00  0.00     0.041 C 
ATOM      2  C   UNL d   1       0.330   0.660  -1.040  0.00  0.00     0.106 C 
ENDROOT
BRANCH   1   3
ATOM      3  C   UNL d   1       2.501   0.198   0.099  0.00  0.00     0.046 A 
ATOM      4  C   UNL d   1       3.210   1.277   0.658  0.00  0.00     0.049 A 
ATOM      5 CL   UNL d   1       2.403   2.668   1.302  0.00  0.00    -0.083 Cl
ATOM      6  C   UNL d   1       4.610   1.258   0.714  0.00  0.00     0.025 A 
ATOM      7  C   UNL d   1       5.319   0.161   0.229  0.00  0.00     0.005 A 
ATOM      8  C   UNL d   1       4.631  -0.921  -0.315  0.00  0.00     0.043 A 
ATOM      9  C   UNL d   1       3.238  -0.893  -0.379  0.00  0.00     0.130 A 
ATOM     10  F   UNL d   1       2.604  -1.958  -0.896  0.00  0.00    -0.205 F 
ENDBRANCH   1   3
BRANCH   1  11
ATOM     11  N   UNL d   1       0.463  -0.407   1.175  0.00  0.00    -0.301 NA
ATOM     12  H   UNL d   1      -0.501  -0.714   1.043  0.00  0.00     0.124 HD
ATOM     13  H   UNL d   1       1.035  -1.150   1.568  0.00  0.00     0.124 HD
ENDBRANCH   1  11
BRANCH   2  14
ATOM     14  C   UNL d   1      -1.165   0.678  -1.050  0.00  0.00     0.298 C 
ATOM     15  O   UNL d   1      -1.821   1.474  -1.707  0.00  0.00    -0.259 OA
BRANCH  14  16
ATOM     16  O   UNL d   1      -1.709  -0.313  -0.290  0.00  0.00    -0.322 OA
ATOM     17  C   UNL d   1      -3.140  -0.318  -0.257  0.00  0.00     0.213 C 
ENDBRANCH  14  16
ENDBRANCH   2  14
BRANCH   2  18
ATOM     18  C   UNL d   1       1.043   1.265  -2.235  0.00  0.00     0.163 C 
ATOM     19  O   UNL d   1       2.203   1.674  -2.174  0.00  0.00    -0.293 OA
ATOM     20  C   UNL d   1       0.316   1.372  -3.555  0.00  0.00     0.097 C 
ENDBRANCH   2  18
TORSDOF 5
