REMARK  2 active torsions:
REMARK  status: ('A' for Active; 'I' for Inactive)
REMARK    1  A    between atoms: C_5  and  C_1 
REMARK    2  A    between atoms: C_12  and  C_4 
ROOT
ATOM      1  C   UNL d   1      -0.033  -1.293   0.006  0.00  0.00     0.053 A 
ATOM      2  N   UNL d   1      -1.342   0.564  -0.028  0.00  0.00    -0.259 N 
ATOM      3  HN  UNL d   1      -2.146   1.190  -0.077  1.00  0.00     0.195 HD
ATOM      4  C   UNL d   1      -1.370  -0.780  -0.016  0.00  0.00     0.080 A 
ATOM      5  O   UNL d   1      -0.018   0.931   0.039  0.00  0.00    -0.241 OA
ATOM      6  C   UNL d   1       0.768  -0.176   0.072  0.00  0.00     0.087 A 
ATOM      7  C   UNL d   1       2.222   0.073   0.093  0.00  0.00     0.080 C 
ENDROOT
BRANCH   1   8
ATOM      8  C   UNL d   1       0.442  -2.698  -0.038  0.00  0.00     0.064 A 
ATOM      9  N   UNL d   1      -0.214  -3.747  -0.623  0.00  0.00    -0.300 N 
ATOM     10  N   UNL d   1       0.402  -4.930  -0.453  0.00  0.00    -0.311 N 
ATOM     11  H   UNL d   1      -1.081  -3.726  -1.151  0.00  0.00     0.187 HD
ATOM     12  C   UNL d   1       1.502  -4.613   0.235  0.00  0.00     0.109 A 
ATOM     13  HN  UNL d   1       0.100  -5.850  -0.773  1.00  0.00     0.186 HD
ATOM     14  C   UNL d   1       1.596  -3.231   0.491  0.00  0.00     0.050 A 
ENDBRANCH   1   8
BRANCH   4  15
ATOM     15  C   UNL d   1      -2.652  -1.488   0.029  0.00  0.00    -0.007 A 
ATOM     16  C   UNL d   1      -3.766  -0.985  -0.657  0.00  0.00     0.014 A 
ATOM     17  C   UNL d   1      -4.990  -1.659  -0.621  0.00  0.00     0.001 A 
ATOM     18  C   UNL d   1      -5.112  -2.848   0.096  0.00  0.00     0.000 A 
ATOM     19  C   UNL d   1      -4.022  -3.348   0.801  0.00  0.00     0.001 A 
ATOM     20  C   UNL d   1      -2.806  -2.660   0.786  0.00  0.00     0.014 A 
ENDBRANCH   4  15
TORSDOF 2
