REMARK  1 active torsions:
REMARK  status: ('A' for Active; 'I' for Inactive)
REMARK    1  A    between atoms: C_2  and  C_1 
REMARK       I    between atoms: N_3  and  C_2 
ROOT
ATOM      1  C   UNL d   1      -1.512   0.312   0.081  0.00  0.00     0.042 C 
ATOM      2  C   UNL d   1      -0.734   1.013   1.224  0.00  0.00     0.024 C 
ATOM      3  C   UNL d   1      -0.958   0.650  -1.327  0.00  0.00     0.024 C 
ATOM      4  C   UNL d   1      -1.240  -1.222   0.264  0.00  0.00     0.024 C 
ATOM      5  C   UNL d   1       0.269  -1.539   0.170  0.00  0.00    -0.013 C 
ATOM      6  C   UNL d   1       0.557   0.406  -1.389  0.00  0.00    -0.013 C 
ATOM      7  C   UNL d   1       0.771   0.736   1.109  0.00  0.00    -0.013 C 
ATOM      8  C   UNL d   1       0.811  -1.094  -1.197  0.00  0.00     0.009 C 
ATOM      9  C   UNL d   1       1.017  -0.771   1.269  0.00  0.00     0.009 C 
ATOM     10  C   UNL d   1       1.259   1.201  -0.273  0.00  0.00     0.009 C 
ENDROOT
BRANCH   1  11
ATOM     11  C   UNL d   1      -3.030   0.594   0.204  0.00  0.00     0.228 C 
ATOM     12  N   UNL d   1      -3.530   1.895   0.102  0.00  0.00    -0.350 N 
ATOM     13  C   UNL d   1      -2.806   3.104  -0.328  0.00  0.00     0.136 C 
ATOM     14  C   UNL d   1      -4.989   2.073   0.206  0.00  0.00     0.136 C 
ATOM     15  C   UNL d   1      -3.006   4.315   0.586  0.00  0.00     0.093 C 
ATOM     16  S   UNL d   1      -4.750   4.786   0.747  0.00  0.00    -0.166 SA
ATOM     17  C   UNL d   1      -5.389   3.147   1.218  0.00  0.00     0.093 C 
ATOM     18  O   UNL d   1      -3.798  -0.349   0.449  0.00  0.00    -0.273 OA
ENDBRANCH   1  11
TORSDOF 1
