REMARK  7 active torsions:
REMARK  status: ('A' for Active; 'I' for Inactive)
REMARK    1  A    between atoms: C_3  and  N_1 
REMARK    2  A    between atoms: S_11  and  C_2 
REMARK    3  A    between atoms: O_17  and  C_4 
REMARK    4  A    between atoms: C_10  and  C_5 
REMARK    5  A    between atoms: C_12  and  S_11 
REMARK    6  A    between atoms: C_13  and  C_12 
REMARK    7  A    between atoms: C_21  and  C_18 
ROOT
ATOM      1  N   UNL d   1       0.704   0.189  -0.897  0.00  0.00    -0.254 N 
ATOM      2  C   UNL d   1       0.933  -1.148  -0.603  0.00  0.00     0.169 C 
ATOM      3  C   UNL d   1       0.077   0.659   0.256  0.00  0.00     0.245 C 
ATOM      4  N   UNL d   1       0.361  -1.472   0.536  0.00  0.00    -0.276 N 
ATOM      5  HN  UNL d   1       0.318  -2.406   0.944  1.00  0.00     0.189 HD
ATOM      6  N   UNL d   1      -0.167  -0.333   1.075  0.00  0.00    -0.263 N 
ATOM      7  HN  UNL d   1      -0.665  -0.266   1.963  1.00  0.00     0.190 HD
ENDROOT
BRANCH   1   8
ATOM      8  C   UNL d   1       1.157   0.944  -2.026  0.00  0.00     0.060 A 
ATOM      9  C   UNL d   1       1.065   0.476  -3.360  0.00  0.00     0.075 A 
ATOM     10  C   UNL d   1       1.716   1.213  -4.375  0.00  0.00     0.018 A 
ATOM     11  C   UNL d   1       2.357   2.419  -4.104  0.00  0.00     0.001 A 
ATOM     12  C   UNL d   1       2.363   2.917  -2.809  0.00  0.00     0.002 A 
ATOM     13  C   UNL d   1       1.784   2.180  -1.772  0.00  0.00     0.031 A 
BRANCH   9  14
ATOM     14  C   UNL d   1       0.245  -0.707  -3.853  0.00  0.00     0.419 C 
ATOM     15  F   UNL d   1      -0.600  -1.233  -2.930  0.00  0.00    -0.166 F 
ATOM     16  F   UNL d   1      -0.552  -0.358  -4.903  0.00  0.00    -0.166 F 
ATOM     17  F   UNL d   1       1.018  -1.725  -4.316  0.00  0.00    -0.166 F 
ENDBRANCH   9  14
ENDBRANCH   1   8
BRANCH   2  18
ATOM     18  S   UNL d   1       1.998  -2.176  -1.510  0.00  0.00    -0.087 SA
BRANCH  18  19
ATOM     19  C   UNL d   1       2.352  -3.503  -0.330  0.00  0.00     0.121 C 
BRANCH  19  20
ATOM     20  C   UNL d   1       3.267  -3.146   0.827  0.00  0.00    -0.042 A 
ATOM     21  C   UNL d   1       3.201  -3.834   2.064  0.00  0.00    -0.051 A 
ATOM     22  C   UNL d   1       4.094  -3.469   3.091  0.00  0.00     0.007 A 
ATOM     23  C   UNL d   1       5.042  -2.462   2.914  0.00  0.00     0.001 A 
ATOM     24  C   UNL d   1       5.139  -1.817   1.692  0.00  0.00     0.001 A 
ATOM     25  C   UNL d   1       4.273  -2.167   0.659  0.00  0.00     0.008 A 
BRANCH  21  26
ATOM     26  C   UNL d   1       2.272  -5.008   2.321  0.00  0.00     0.034 C 
ATOM     27  C   UNL d   1       1.359  -4.832   3.529  0.00  0.00     0.010 C 
ENDBRANCH  21  26
ENDBRANCH  19  20
ENDBRANCH  18  19
ENDBRANCH   2  18
BRANCH   3  28
ATOM     28  O   UNL d   1      -0.307   1.902   0.523  0.00  0.00    -0.331 OA
ATOM     29  H   UNL d   1      -0.193   2.463  -0.252  0.00  0.00     0.221 HD
ENDBRANCH   3  28
TORSDOF 7
