REMARK  6 active torsions:
REMARK  status: ('A' for Active; 'I' for Inactive)
REMARK    1  A    between atoms: C_7  and  C_3 
REMARK    2  A    between atoms: C_6  and  C_10 
REMARK       I    between atoms: C_10  and  N_18 
REMARK    3  A    between atoms: O_19  and  C_12 
REMARK    4  A    between atoms: C_15  and  C_26 
REMARK       I    between atoms: N_22  and  C_15 
REMARK    5  A    between atoms: N_18  and  N_22 
REMARK    6  A    between atoms: C_26  and  O_19 
ROOT
ATOM      1  C   UNL d   1       1.371  -2.849  -0.147  0.00  0.00    -0.006 A 
ATOM      2  C   UNL d   1       1.421  -5.684  -0.076  0.00  0.00     0.081 A 
ATOM      3  C   UNL d   1       0.851  -5.003  -1.171  0.00  0.00    -0.027 A 
ATOM      4  C   UNL d   1       2.031  -4.942   0.959  0.00  0.00    -0.027 A 
ATOM      5  C   UNL d   1       1.983  -3.531   0.907  0.00  0.00     0.023 A 
ATOM      6  C   UNL d   1       0.884  -3.593  -1.219  0.00  0.00     0.023 A 
ATOM      7  C   UNL d   1       0.135  -5.709  -2.291  0.00  0.00     0.051 C 
ATOM      8  C   UNL d   1       2.720  -5.539   2.155  0.00  0.00     0.051 C 
ENDROOT
BRANCH   2   9
ATOM      9  O   UNL d   1       1.221  -7.048  -0.066  0.00  0.00    -0.341 OA
BRANCH   9  10
ATOM     10  C   UNL d   1       2.355  -7.844   0.231  0.00  0.00     0.280 C 
BRANCH  10  11
ATOM     11  C   UNL d   1       2.220  -9.333  -0.077  0.00  0.00     0.260 C 
ATOM     12  N   UNL d   1       1.072  -9.747  -0.715  0.00  0.00    -0.265 N 
ATOM     13  H   UNL d   1       0.279  -9.136  -0.902  0.00  0.00     0.190 HD
ATOM     14  O   UNL d   1       3.096 -10.137   0.259  0.00  0.00    -0.269 OA
BRANCH  12  15
ATOM     15  N   UNL d   1       0.893 -11.131  -0.822  0.00  0.00    -0.263 N 
ATOM     16  C   UNL d   1      -0.182 -11.664  -1.494  0.00  0.00     0.271 C 
ATOM     17  O   UNL d   1      -1.105 -10.982  -1.935  0.00  0.00    -0.266 OA
ATOM     18  H   UNL d   1       1.684 -11.698  -0.508  0.00  0.00     0.190 HD
BRANCH  16  19
ATOM     19  C   UNL d   1      -0.221 -13.153  -1.595  0.00  0.00     0.055 A 
ATOM     20  C   UNL d   1       0.912 -13.973  -1.738  0.00  0.00     0.051 A 
ATOM     21  C   UNL d   1       0.777 -15.367  -1.759  0.00  0.00     0.048 A 
ATOM     22 CL   UNL d   1       2.515 -13.359  -1.940  0.00  0.00    -0.083 Cl
ATOM     23  C   UNL d   1      -0.484 -15.948  -1.656  0.00  0.00     0.035 A 
ATOM     24  C   UNL d   1      -1.619 -15.149  -1.547  0.00  0.00     0.025 A 
ATOM     25 CL   UNL d   1      -0.638 -17.661  -1.667  0.00  0.00    -0.084 Cl
ATOM     26  C   UNL d   1      -1.489 -13.759  -1.522  0.00  0.00     0.020 A 
ENDBRANCH  16  19
ENDBRANCH  12  15
ENDBRANCH  10  11
ENDBRANCH   9  10
ENDBRANCH   2   9
BRANCH   1  27
ATOM     27  C   UNL d   1       1.284  -1.349  -0.082  0.00  0.00     0.070 C 
ATOM     28  N   UNL d   1       2.292  -0.739   0.472  0.00  0.00    -0.294 N 
ATOM     29  N   UNL d   1       2.312   0.628   0.540  0.00  0.00    -0.261 N 
ATOM     30  HN  UNL d   1       3.068  -1.279   0.855  1.00  0.00     0.187 HD
ATOM     31  C   UNL d   1       1.355   1.457  -0.028  0.00  0.00     0.272 C 
ATOM     32  C   UNL d   1       3.452   1.234   1.200  0.00  0.00     0.181 C 
ATOM     33  C   UNL d   1       0.202   0.787  -0.650  0.00  0.00     0.046 A 
ATOM     34  O   UNL d   1       1.410   2.685  -0.010  0.00  0.00    -0.266 OA
ATOM     35  C   UNL d   1      -0.820   1.562  -1.223  0.00  0.00     0.018 A 
ATOM     36  C   UNL d   1       0.107  -0.601  -0.611  0.00  0.00     0.009 A 
ATOM     37  C   UNL d   1      -1.957   0.946  -1.740  0.00  0.00     0.001 A 
ATOM     38  C   UNL d   1      -2.097  -0.433  -1.634  0.00  0.00     0.001 A 
ATOM     39  C   UNL d   1      -1.084  -1.200  -1.048  0.00  0.00     0.015 A 
ENDBRANCH   1  27
TORSDOF 6
