REMARK  2 active torsions:
REMARK  status: ('A' for Active; 'I' for Inactive)
REMARK    1  A    between atoms: C_7  and  C_1 
REMARK    2  A    between atoms: O_13  and  C_10 
ROOT
ATOM      1  C   UNL d   1      -1.991  -0.887   0.001  0.00  0.00     0.085 A 
ATOM      2  N   UNL d   1      -1.351  -0.713   1.139  0.00  0.00    -0.349 N 
ATOM      3  HN  UNL d   1      -1.747  -0.887   2.063  1.00  0.00     0.166 HD
ATOM      4  S   UNL d   1      -1.075  -0.515  -1.411  0.00  0.00    -0.070 SA
ATOM      5  C   UNL d   1      -0.063  -0.259   0.905  0.00  0.00     0.050 A 
ATOM      6  C   UNL d   1       0.278  -0.101  -0.438  0.00  0.00     0.033 A 
ATOM      7  C   UNL d   1       0.905   0.035   1.887  0.00  0.00     0.031 A 
ATOM      8  C   UNL d   1       1.555   0.330  -0.837  0.00  0.00     0.021 A 
ATOM      9  C   UNL d   1       2.180   0.463   1.502  0.00  0.00     0.002 A 
ATOM     10  C   UNL d   1       2.499   0.605   0.156  0.00  0.00     0.002 A 
ENDROOT
BRANCH   1  11
ATOM     11  C   UNL d   1      -3.355  -1.433  -0.107  0.00  0.00    -0.002 A 
ATOM     12  C   UNL d   1      -4.230  -1.095  -1.151  0.00  0.00     0.017 A 
ATOM     13  C   UNL d   1      -5.509  -1.663  -1.237  0.00  0.00     0.037 A 
ATOM     14  C   UNL d   1      -5.936  -2.573  -0.273  0.00  0.00     0.068 A 
ATOM     15  C   UNL d   1      -5.077  -2.916   0.770  0.00  0.00     0.037 A 
ATOM     16  C   UNL d   1      -3.807  -2.340   0.863  0.00  0.00     0.017 A 
BRANCH  14  17
ATOM     17  O   UNL d   1      -7.141  -3.217  -0.273  0.00  0.00    -0.356 OA
ATOM     18  C   UNL d   1      -8.207  -2.532  -0.919  0.00  0.00     0.210 C 
ENDBRANCH  14  17
ENDBRANCH   1  11
TORSDOF 2
