REMARK  5 active torsions:
REMARK  status: ('A' for Active; 'I' for Inactive)
REMARK    1  A    between atoms: N_4  and  C_1 
REMARK    2  A    between atoms: C_2  and  C_3 
REMARK       I    between atoms: N_6  and  C_2 
REMARK    3  A    between atoms: O_19  and  C_5 
REMARK       I    between atoms: C_7  and  N_6 
REMARK       I    between atoms: N_8  and  C_7 
REMARK    4  A    between atoms: C_9  and  N_8 
REMARK    5  A    between atoms: O_20  and  C_11 
ROOT
ATOM      1  C   UNL d   1      -2.030  -1.820   1.032  0.00  0.00     0.244 C 
ATOM      2  N   UNL d   1      -2.607  -1.130   2.075  0.00  0.00    -0.175 NA
ATOM      3  C   UNL d   1      -3.668  -0.314   1.736  0.00  0.00     0.305 C 
ATOM      4  N   UNL d   1      -3.302   0.936   1.295  0.00  0.00    -0.312 N 
ATOM      5  O   UNL d   1      -2.664  -2.693   0.443  0.00  0.00    -0.273 OA
ATOM      6  O   UNL d   1      -4.804  -0.743   1.891  0.00  0.00    -0.253 OA
ATOM      7  H   UNL d   1      -3.151  -1.867   2.522  0.00  0.00     0.141 HD
ATOM      8  H   UNL d   1      -2.320   1.002   1.065  0.00  0.00     0.170 HD
ENDROOT
BRANCH   1   9
ATOM      9  C   UNL d   1      -0.570  -1.632   0.730  0.00  0.00     0.096 C 
ATOM     10  C   UNL d   1       0.040  -0.368   0.695  0.00  0.00     0.119 C 
ATOM     11  C   UNL d   1       1.248  -0.220  -0.003  0.00  0.00     0.137 C 
ATOM     12  C   UNL d   1       1.937  -1.323  -0.516  0.00  0.00     0.042 C 
ATOM     13  C   UNL d   1       1.417  -2.597  -0.315  0.00  0.00     0.040 C 
ATOM     14  C   UNL d   1       0.181  -2.767   0.323  0.00  0.00     0.086 C 
BRANCH  10  15
ATOM     15  O   UNL d   1      -0.550   0.689   1.333  0.00  0.00    -0.352 OA
ATOM     16  C   UNL d   1       0.220   1.127   2.466  0.00  0.00     0.210 C 
ENDBRANCH  10  15
BRANCH  11  17
ATOM     17  N   UNL d   1       1.795   1.103  -0.274  0.00  0.00    -0.113 N 
ATOM     18  O   UNL d   1       1.025   1.960  -0.725  0.00  0.00    -0.532 OA
ATOM     19  O   UNL d   1       3.000   1.265  -0.047  0.00  0.00    -0.532 OA
ENDBRANCH  11  17
BRANCH  14  20
ATOM     20  O   UNL d   1      -0.362  -3.997   0.575  0.00  0.00    -0.355 OA
ATOM     21  C   UNL d   1       0.471  -5.141   0.716  0.00  0.00     0.210 C 
ENDBRANCH  14  20
ENDBRANCH   1   9
BRANCH   4  22
ATOM     22  C   UNL d   1      -4.161   1.917   0.731  0.00  0.00     0.047 A 
ATOM     23  C   UNL d   1      -5.457   2.194   1.222  0.00  0.00    -0.035 A 
ATOM     24  C   UNL d   1      -6.295   3.080   0.513  0.00  0.00     0.009 A 
ATOM     25  C   UNL d   1      -6.019   1.671   2.518  0.00  0.00     0.050 C 
ATOM     26  C   UNL d   1      -5.843   3.752  -0.614  0.00  0.00     0.001 A 
ATOM     27  C   UNL d   1      -4.535   3.568  -1.035  0.00  0.00     0.009 A 
ATOM     28  C   UNL d   1      -3.682   2.660  -0.378  0.00  0.00    -0.035 A 
ATOM     29  C   UNL d   1      -2.283   2.574  -0.935  0.00  0.00     0.050 C 
ENDBRANCH   4  22
TORSDOF 5
