REMARK  4 active torsions:
REMARK  status: ('A' for Active; 'I' for Inactive)
REMARK    1  A    between atoms: C_2  and  C_1 
REMARK    2  A    between atoms: O_15  and  C_1 
REMARK    3  A    between atoms: N_5  and  O_15 
REMARK    4  A    between atoms: C_19  and  C_18 
ROOT
ATOM      1  N   UNL d   1       3.265   0.077   1.343  0.00  0.00    -0.268 N 
ATOM      2  HN  UNL d   1       2.973  -0.010   2.317  1.00  0.00     0.194 HD
ATOM      3  C   UNL d   1       4.264   0.784   0.920  0.00  0.00     0.126 C 
ENDROOT
BRANCH   1   4
ATOM      4  O   UNL d   1       2.646  -0.552   0.243  0.00  0.00    -0.195 OA
BRANCH   4   5
ATOM      5  C   UNL d   1       1.558  -1.298   0.652  0.00  0.00     0.322 C 
ATOM      6  O   UNL d   1       1.208  -1.469   1.815  0.00  0.00    -0.257 OA
BRANCH   5   7
ATOM      7  C   UNL d   1       0.858  -1.867  -0.494  0.00  0.00     0.082 A 
ATOM      8  S   UNL d   1       1.331  -1.565  -2.117  0.00  0.00    -0.096 SA
ATOM      9  C   UNL d   1       0.066  -2.529  -2.745  0.00  0.00     0.050 A 
ATOM     10  C   UNL d   1      -0.710  -3.075  -1.747  0.00  0.00     0.009 A 
ATOM     11  C   UNL d   1      -0.255  -2.691  -0.453  0.00  0.00     0.026 A 
ENDBRANCH   5   7
ENDBRANCH   4   5
ENDBRANCH   1   4
BRANCH   3  12
ATOM     12  C   UNL d   1       5.077   1.614   1.830  0.00  0.00    -0.016 A 
ATOM     13  C   UNL d   1       6.115   2.383   1.291  0.00  0.00     0.052 A 
ATOM     14  C   UNL d   1       6.793   3.222   2.152  0.00  0.00     0.105 A 
ATOM     15  O   UNL d   1       7.797   4.073   1.804  0.00  0.00    -0.323 OA
ATOM     16  C   UNL d   1       6.488   3.295   3.492  0.00  0.00     0.105 A 
ATOM     17  C   UNL d   1       8.026   4.749   3.059  0.00  0.00     0.352 A 
ATOM     18  O   UNL d   1       7.255   4.204   4.150  0.00  0.00    -0.323 OA
ATOM     19  C   UNL d   1       5.492   2.524   4.053  0.00  0.00     0.040 A 
ATOM     20  C   UNL d   1       4.775   1.673   3.207  0.00  0.00     0.016 A 
ENDBRANCH   3  12
TORSDOF 4
