REMARK  11 active torsions:
REMARK  status: ('A' for Active; 'I' for Inactive)
REMARK       I    between atoms: N_7  and  C_1 
REMARK       I    between atoms: N_10  and  C_1 
REMARK    1  A    between atoms: C_9  and  C_2 
REMARK    2  A    between atoms: C_4  and  C_22 
REMARK    3  A    between atoms: C_11  and  N_7 
REMARK    4  A    between atoms: N_13  and  C_9 
REMARK    5  A    between atoms: C_23  and  N_10 
REMARK    6  A    between atoms: O_12  and  C_14 
REMARK    7  A    between atoms: C_15  and  O_12 
REMARK    8  A    between atoms: C_21  and  C_15 
REMARK    9  A    between atoms: S_16  and  C_24 
REMARK   10  A    between atoms: C_22  and  S_16 
REMARK   11  A    between atoms: C_24  and  C_23 
ROOT
ATOM      1  C   UNL d   1       1.011  -0.148   0.065  0.00  0.00     0.320 C 
ATOM      2  N   UNL d   1       0.258   0.960  -0.264  0.00  0.00    -0.309 N 
ATOM      3  O   UNL d   1       0.592  -1.233   0.440  0.00  0.00    -0.247 OA
ATOM      4  N   UNL d   1       2.363   0.081  -0.102  0.00  0.00    -0.342 N 
ATOM      5  H   UNL d   1       0.769   1.769  -0.584  0.00  0.00     0.170 HD
ATOM      6  H   UNL d   1       2.682   1.037  -0.054  0.00  0.00     0.164 HD
ENDROOT
BRANCH   2   7
ATOM      7  C   UNL d   1      -1.152   1.044  -0.300  0.00  0.00     0.036 A 
ATOM      8  C   UNL d   1      -1.994  -0.008   0.060  0.00  0.00     0.032 A 
ATOM      9  C   UNL d   1      -3.379   0.091  -0.099  0.00  0.00     0.039 A 
ATOM     10  C   UNL d   1      -3.944   1.250  -0.623  0.00  0.00     0.069 A 
ATOM     11  C   UNL d   1      -3.121   2.340  -0.906  0.00  0.00     0.039 A 
ATOM     12  C   UNL d   1      -1.731   2.236  -0.751  0.00  0.00     0.032 A 
BRANCH  10  13
ATOM     13  O   UNL d   1      -5.283   1.419  -0.857  0.00  0.00    -0.347 OA
BRANCH  13  14
ATOM     14  C   UNL d   1      -5.948   0.239  -1.326  0.00  0.00     0.214 C 
BRANCH  14  15
ATOM     15  C   UNL d   1      -7.380   0.564  -1.682  0.00  0.00    -0.034 A 
ATOM     16  C   UNL d   1      -7.877   0.318  -2.968  0.00  0.00     0.009 A 
ATOM     17  C   UNL d   1      -9.221   0.560  -3.265  0.00  0.00     0.001 A 
ATOM     18  C   UNL d   1     -10.076   1.045  -2.279  0.00  0.00     0.000 A 
ATOM     19  C   UNL d   1      -9.593   1.297  -0.999  0.00  0.00     0.001 A 
ATOM     20  C   UNL d   1      -8.250   1.058  -0.699  0.00  0.00     0.009 A 
ENDBRANCH  14  15
ENDBRANCH  13  14
ENDBRANCH  10  13
ENDBRANCH   2   7
BRANCH   4  21
ATOM     21  C   UNL d   1       3.298  -0.926   0.382  0.00  0.00     0.134 C 
BRANCH  21  22
ATOM     22  C   UNL d   1       4.755  -0.466   0.337  0.00  0.00     0.094 C 
BRANCH  22  23
ATOM     23  S   UNL d   1       4.975   0.994   1.420  0.00  0.00    -0.161 SA
BRANCH  23  24
ATOM     24  C   UNL d   1       6.769   1.247   1.246  0.00  0.00     0.139 C 
BRANCH  24  25
ATOM     25  C   UNL d   1       7.195   1.557  -0.141  0.00  0.00     0.062 A 
ATOM     26  O   UNL d   1       6.524   2.549  -0.796  0.00  0.00    -0.317 OA
ATOM     27  C   UNL d   1       7.069   2.646  -2.044  0.00  0.00     0.081 A 
ATOM     28  C   UNL d   1       8.111   1.755  -2.174  0.00  0.00     0.037 A 
ATOM     29  C   UNL d   1       8.186   1.044  -0.953  0.00  0.00     0.036 A 
BRANCH  27  30
ATOM     30  C   UNL d   1       6.435   3.625  -2.974  0.00  0.00     0.335 C 
BRANCH  30  31
ATOM     31  N   UNL d   1       6.005   2.985  -4.234  0.00  0.00     0.086 N 
ATOM     32  C   UNL d   1       4.926   2.019  -4.003  0.00  0.00     0.309 C 
ATOM     33  C   UNL d   1       5.558   4.003  -5.186  0.00  0.00     0.309 C 
ENDBRANCH  30  31
ENDBRANCH  27  30
ENDBRANCH  24  25
ENDBRANCH  23  24
ENDBRANCH  22  23
ENDBRANCH  21  22
ENDBRANCH   4  21
TORSDOF 11
