REMARK  3 active torsions:
REMARK  status: ('A' for Active; 'I' for Inactive)
REMARK    1  A    between atoms: C_7  and  N_1 
REMARK    2  A    between atoms: O_19  and  C_14 
REMARK    3  A    between atoms: O_20  and  C_15 
ROOT
ATOM      1  N   UNL d   1       1.837  -0.708  -0.004  0.00  0.00    -0.248 N 
ATOM      2  C   UNL d   1       0.579  -1.316  -0.152  0.00  0.00     0.265 A 
ATOM      3  C   UNL d   1       2.059   0.669   0.130  0.00  0.00     0.235 A 
ATOM      4  C   UNL d   1      -0.617  -0.442  -0.099  0.00  0.00     0.042 A 
ATOM      5  C   UNL d   1      -0.482   0.935   0.014  0.00  0.00    -0.034 A 
ATOM      6  C   UNL d   1       0.859   1.581   0.116  0.00  0.00     0.143 A 
ATOM      7  O   UNL d   1       0.390  -2.525  -0.284  0.00  0.00    -0.267 OA
ATOM      8  O   UNL d   1       3.171   1.195   0.214  0.00  0.00    -0.272 OA
ATOM      9  C   UNL d   1      -1.896  -1.018  -0.144  0.00  0.00     0.054 A 
ATOM     10  C   UNL d   1      -1.634   1.736   0.031  0.00  0.00     0.011 A 
ATOM     11  C   UNL d   1      -3.044  -0.221  -0.105  0.00  0.00     0.069 A 
ATOM     12  C   UNL d   1      -2.905   1.162  -0.029  0.00  0.00     0.037 A 
ENDROOT
BRANCH   1  13
ATOM     13  C   UNL d   1       2.993  -1.564   0.003  0.00  0.00     0.045 A 
ATOM     14  C   UNL d   1       3.181  -2.528  -0.997  0.00  0.00     0.033 A 
ATOM     15  C   UNL d   1       4.317  -3.347  -0.999  0.00  0.00     0.039 A 
ATOM     16  C   UNL d   1       5.262  -3.236   0.019  0.00  0.00     0.068 A 
ATOM     17  C   UNL d   1       5.083  -2.277   1.016  0.00  0.00     0.039 A 
ATOM     18  C   UNL d   1       3.962  -1.442   1.006  0.00  0.00     0.033 A 
BRANCH  16  19
ATOM     19  O   UNL d   1       6.406  -3.976   0.127  0.00  0.00    -0.356 OA
ATOM     20  C   UNL d   1       6.392  -5.238  -0.530  0.00  0.00     0.210 C 
ENDBRANCH  16  19
ENDBRANCH   1  13
BRANCH  11  21
ATOM     21  O   UNL d   1      -4.224  -0.909  -0.147  0.00  0.00    -0.356 OA
ATOM     22  C   UNL d   1      -5.420  -0.141  -0.103  0.00  0.00     0.210 C 
ENDBRANCH  11  21
TORSDOF 3
