REMARK  8 active torsions:
REMARK  status: ('A' for Active; 'I' for Inactive)
REMARK    1  A    between atoms: N_8  and  S_1 
REMARK    2  A    between atoms: C_13  and  S_1 
REMARK    3  A    between atoms: N_2  and  C_14 
REMARK    4  A    between atoms: C_10  and  C_6 
REMARK    5  A    between atoms: N_20  and  C_11 
REMARK    6  A    between atoms: S_24  and  C_11 
REMARK    7  A    between atoms: N_18  and  N_20 
REMARK    8  A    between atoms: C_33  and  C_32 
ROOT
ATOM      1  C   UNL d   1       0.416  -1.706  -0.107  0.00  0.00     0.080 A 
ATOM      2  C   UNL d   1      -0.547  -4.331   0.012  0.00  0.00     0.057 A 
ATOM      3  C   UNL d   1       1.284  -2.776  -0.351  0.00  0.00     0.027 A 
ATOM      4  C   UNL d   1      -0.925  -1.940   0.209  0.00  0.00     0.027 A 
ATOM      5  C   UNL d   1      -1.406  -3.252   0.267  0.00  0.00     0.033 A 
ATOM      6  C   UNL d   1       0.805  -4.088  -0.278  0.00  0.00     0.033 A 
ENDROOT
BRANCH   1   7
ATOM      7  S   UNL d   1       1.058  -0.046  -0.036  0.00  0.00     0.264 S 
ATOM      8  O   UNL d   1       0.180   0.724   0.822  0.00  0.00    -0.200 OA
ATOM      9  O   UNL d   1       2.462  -0.147   0.321  0.00  0.00    -0.200 OA
BRANCH   7  10
ATOM     10  N   UNL d   1       0.935   0.516  -1.539  0.00  0.00    -0.259 N 
ATOM     11  C   UNL d   1       1.418   1.687  -1.795  0.00  0.00     0.168 C 
ATOM     12  HN  UNL d   1       0.488  -0.038  -2.270  1.00  0.00     0.181 HD
BRANCH  11  13
ATOM     13  N   UNL d   1       2.018   2.603  -0.937  0.00  0.00    -0.280 N 
ATOM     14  H   UNL d   1       2.038   2.342   0.048  0.00  0.00     0.189 HD
BRANCH  13  15
ATOM     15  N   UNL d   1       2.960   3.501  -1.352  0.00  0.00    -0.309 N 
ATOM     16  C   UNL d   1       3.461   4.284  -0.453  0.00  0.00     0.118 C 
ATOM     17  HN  UNL d   1       3.255   3.552  -2.327  1.00  0.00     0.186 HD
BRANCH  16  18
ATOM     18  C   UNL d   1       4.538   5.228  -0.818  0.00  0.00    -0.019 A 
ATOM     19  C   UNL d   1       5.078   5.201  -2.112  0.00  0.00     0.014 A 
ATOM     20  C   UNL d   1       6.116   6.066  -2.457  0.00  0.00     0.024 A 
ATOM     21  C   UNL d   1       6.610   6.960  -1.508  0.00  0.00     0.034 A 
ATOM     22  C   UNL d   1       6.073   6.995  -0.220  0.00  0.00     0.024 A 
ATOM     23 CL   UNL d   1       7.892   8.024  -1.931  0.00  0.00    -0.084 Cl
ATOM     24  C   UNL d   1       5.034   6.125   0.131  0.00  0.00     0.014 A 
ENDBRANCH  16  18
ENDBRANCH  13  15
ENDBRANCH  11  13
BRANCH  11  25
ATOM     25  S   UNL d   1       1.280   2.251  -3.485  0.00  0.00    -0.096 SA
ATOM     26  C   UNL d   1       0.685   0.785  -4.337  0.00  0.00     0.099 C 
ENDBRANCH  11  25
ENDBRANCH   7  10
ENDBRANCH   1   7
BRANCH   2  27
ATOM     27  N   UNL d   1      -1.011  -5.677   0.102  0.00  0.00    -0.255 N 
ATOM     28  C   UNL d   1      -2.287  -6.194  -0.101  0.00  0.00     0.076 C 
ATOM     29  C   UNL d   1      -2.255  -7.472   0.421  0.00  0.00     0.069 C 
ATOM     30  C   UNL d   1      -3.377  -5.542  -0.779  0.00  0.00     0.033 A 
ATOM     31  C   UNL d   1      -0.909  -7.714   0.790  0.00  0.00     0.135 C 
ATOM     32  N   UNL d   1      -0.140  -6.652   0.489  0.00  0.00    -0.289 N 
ATOM     33  HN  UNL d   1       0.877  -6.589   0.540  1.00  0.00     0.187 HD
ATOM     34  S   UNL d   1      -5.005  -5.776  -0.290  0.00  0.00    -0.100 SA
ATOM     35  C   UNL d   1      -3.307  -4.711  -1.883  0.00  0.00     0.021 A 
ATOM     36  C   UNL d   1      -5.596  -4.728  -1.505  0.00  0.00     0.050 A 
ATOM     37  C   UNL d   1      -4.582  -4.218  -2.283  0.00  0.00     0.008 A 
BRANCH  31  38
ATOM     38  C   UNL d   1      -0.376  -8.986   1.397  0.00  0.00     0.434 C 
ATOM     39  F   UNL d   1       0.950  -8.940   1.691  0.00  0.00    -0.165 F 
ATOM     40  F   UNL d   1      -1.022  -9.291   2.556  0.00  0.00    -0.165 F 
ATOM     41  F   UNL d   1      -0.558 -10.050   0.568  0.00  0.00    -0.165 F 
ENDBRANCH  31  38
ENDBRANCH   2  27
TORSDOF 8
