REMARK  3 active torsions:
REMARK  status: ('A' for Active; 'I' for Inactive)
REMARK    1  A    between atoms: C_11  and  N_1 
REMARK       I    between atoms: C_6  and  N_7 
REMARK    2  A    between atoms: C_8  and  C_6 
REMARK    3  A    between atoms: N_7  and  C_11 
ROOT
ATOM      1  C   UNL d   1      -2.832   3.842   0.071  0.00  0.00     0.254 C 
ATOM      2  N   UNL d   1      -2.178   2.658  -0.162  0.00  0.00    -0.339 N 
ATOM      3  O   UNL d   1      -4.024   3.872   0.360  0.00  0.00    -0.268 OA
ATOM      4  H   UNL d   1      -1.258   2.606  -0.579  0.00  0.00     0.164 HD
ENDROOT
BRANCH   2   5
ATOM      5  C   UNL d   1      -2.892   1.401  -0.081  0.00  0.00     0.274 C 
BRANCH   5   6
ATOM      6  N   UNL d   1      -2.050   0.231  -0.259  0.00  0.00    -0.269 N 
ATOM      7  N   UNL d   1      -0.899   0.296  -0.967  0.00  0.00    -0.292 N 
ATOM      8  C   UNL d   1      -0.477  -0.969  -0.885  0.00  0.00     0.198 A 
ATOM      9  HN  UNL d   1      -0.470   1.093  -1.437  1.00  0.00     0.188 HD
ATOM     10  N   UNL d   1      -1.277  -1.805  -0.157  0.00  0.00    -0.346 N 
ATOM     11  C   UNL d   1      -2.257  -1.020   0.228  0.00  0.00     0.203 A 
ATOM     12  HN  UNL d   1      -1.145  -2.798   0.038  1.00  0.00     0.167 HD
ENDBRANCH   5   6
ENDBRANCH   2   5
BRANCH   1  13
ATOM     13  C   UNL d   1      -2.050   5.100  -0.027  0.00  0.00     0.047 A 
ATOM     14  C   UNL d   1      -2.729   6.308   0.099  0.00  0.00     0.104 A 
ATOM     15  N   UNL d   1      -2.131   7.527   0.075  0.00  0.00    -0.374 N 
ATOM     16  C   UNL d   1      -0.790   7.541  -0.079  0.00  0.00     0.087 A 
ATOM     17  HN  UNL d   1      -2.668   8.389   0.167  1.00  0.00     0.164 HD
ATOM     18  C   UNL d   1      -0.023   6.395  -0.217  0.00  0.00     0.018 A 
ATOM     19  C   UNL d   1      -0.663   5.155  -0.191  0.00  0.00     0.020 A 
ENDBRANCH   1  13
TORSDOF 3
