REMARK  4 active torsions:
REMARK  status: ('A' for Active; 'I' for Inactive)
REMARK       I    between atoms: N_8  and  C_1 
REMARK    1  A    between atoms: O_10  and  C_1 
REMARK    2  A    between atoms: N_2  and  O_10 
REMARK    3  A    between atoms: C_4  and  C_7 
REMARK    4  A    between atoms: C_13  and  N_8 
ROOT
ATOM      1  N   UNL d   1      -0.988   0.491   0.993  0.00  0.00    -0.260 N 
ATOM      2  HN  UNL d   1      -1.446   0.140   0.153  1.00  0.00     0.194 HD
ATOM      3  C   UNL d   1      -1.575   1.180   1.942  0.00  0.00     0.039 C 
ATOM      4  C   UNL d   1      -3.085   1.276   1.870  0.00  0.00     0.071 C 
ENDROOT
BRANCH   1   5
ATOM      5  O   UNL d   1       0.368   0.311   1.312  0.00  0.00    -0.181 OA
BRANCH   5   6
ATOM      6  C   UNL d   1       1.164  -0.204   0.313  0.00  0.00     0.387 C 
ATOM      7  N   UNL d   1       0.524  -0.538  -0.861  0.00  0.00    -0.301 N 
ATOM      8  H   UNL d   1      -0.449  -0.247  -0.893  0.00  0.00     0.171 HD
ATOM      9  O   UNL d   1       2.367  -0.290   0.532  0.00  0.00    -0.236 OA
BRANCH   7  10
ATOM     10  C   UNL d   1       1.136  -1.122  -1.990  0.00  0.00     0.037 A 
ATOM     11  C   UNL d   1       2.414  -1.701  -1.935  0.00  0.00     0.036 A 
ATOM     12  C   UNL d   1       3.034  -2.239  -3.070  0.00  0.00    -0.060 A 
ATOM     13  C   UNL d   1       4.415  -2.819  -2.967  0.00  0.00     0.048 C 
ATOM     14  C   UNL d   1       2.359  -2.199  -4.289  0.00  0.00     0.007 A 
ATOM     15  C   UNL d   1       1.076  -1.659  -4.361  0.00  0.00     0.003 A 
ATOM     16  C   UNL d   1       0.459  -1.131  -3.213  0.00  0.00     0.029 A 
ENDBRANCH   7  10
ENDBRANCH   5   6
ENDBRANCH   1   5
BRANCH   3  17
ATOM     17  C   UNL d   1      -0.889   1.869   3.097  0.00  0.00    -0.011 A 
ATOM     18  C   UNL d   1       0.343   2.521   2.910  0.00  0.00     0.023 A 
ATOM     19  C   UNL d   1       0.970   3.098   4.002  0.00  0.00    -0.022 A 
ATOM     20  C   UNL d   1       2.267   3.807   4.079  0.00  0.00     0.068 C 
ATOM     21  C   UNL d   1       0.364   3.108   5.244  0.00  0.00     0.075 A 
ATOM     22  C   UNL d   1       2.394   3.929   5.600  0.00  0.00     0.180 C 
ATOM     23  O   UNL d   1       1.091   3.753   6.208  0.00  0.00    -0.350 OA
ATOM     24  C   UNL d   1      -0.868   2.524   5.455  0.00  0.00     0.038 A 
ATOM     25  C   UNL d   1      -1.489   1.879   4.376  0.00  0.00     0.016 A 
ENDBRANCH   3  17
TORSDOF 4
