REMARK  1 active torsions:
REMARK  status: ('A' for Active; 'I' for Inactive)
REMARK    1  A    between atoms: C_7  and  C_2 
ROOT
ATOM      1  C   UNL d   1       2.498  -0.765   0.036  0.00  0.00     0.119 A 
ATOM      2  C   UNL d   1       2.439   0.576  -0.044  0.00  0.00     0.112 A 
ATOM      3  C   UNL d   1       1.232  -1.532   0.110  0.00  0.00     0.209 A 
ATOM      4  O   UNL d   1       1.269   1.317  -0.057  0.00  0.00    -0.307 OA
ATOM      5  C   UNL d   1      -0.008  -0.745   0.046  0.00  0.00     0.050 A 
ATOM      6  C   UNL d   1       0.074   0.642  -0.029  0.00  0.00     0.090 A 
ATOM      7  O   UNL d   1       1.190  -2.754   0.211  0.00  0.00    -0.286 OA
ATOM      8 CL   UNL d   1       3.965  -1.677   0.037  0.00  0.00    -0.077 Cl
ATOM      9  C   UNL d   1      -1.253  -1.384   0.054  0.00  0.00     0.018 A 
ATOM     10  C   UNL d   1      -1.094   1.403  -0.086  0.00  0.00     0.038 A 
ATOM     11  C   UNL d   1      -2.420  -0.624  -0.012  0.00  0.00     0.001 A 
ATOM     12  C   UNL d   1      -2.340   0.769  -0.081  0.00  0.00     0.003 A 
ENDROOT
BRANCH   2  13
ATOM     13  C   UNL d   1       3.652   1.400  -0.156  0.00  0.00    -0.000 A 
ATOM     14  C   UNL d   1       4.153   1.737  -1.420  0.00  0.00     0.014 A 
ATOM     15  C   UNL d   1       5.361   2.426  -1.537  0.00  0.00     0.001 A 
ATOM     16  C   UNL d   1       6.071   2.789  -0.393  0.00  0.00     0.000 A 
ATOM     17  C   UNL d   1       5.567   2.477   0.869  0.00  0.00     0.001 A 
ATOM     18  C   UNL d   1       4.359   1.786   0.990  0.00  0.00     0.014 A 
ENDBRANCH   2  13
TORSDOF 1
