REMARK  4 active torsions:
REMARK  status: ('A' for Active; 'I' for Inactive)
REMARK    1  A    between atoms: C_5  and  C_1 
REMARK    2  A    between atoms: N_6  and  C_2 
REMARK       I    between atoms: C_7  and  N_6 
REMARK       I    between atoms: N_14  and  C_7 
REMARK    3  A    between atoms: C_10  and  C_11 
REMARK    4  A    between atoms: N_12  and  N_14 
ROOT
ATOM      1  N   UNL d   1       0.412  -2.420   0.232  0.00  0.00    -0.303 N 
ATOM      2  C   UNL d   1       1.549  -2.983  -0.342  0.00  0.00     0.341 C 
ATOM      3  N   UNL d   1       1.477  -4.403  -0.325  0.00  0.00    -0.247 N 
ATOM      4  O   UNL d   1       2.517  -2.339  -0.733  0.00  0.00    -0.245 OA
ATOM      5  C   UNL d   1       0.196  -5.088  -0.489  0.00  0.00     0.183 C 
ATOM      6  H   UNL d   1       0.049  -3.000   0.974  0.00  0.00     0.171 HD
ENDROOT
BRANCH   1   7
ATOM      7  C   UNL d   1       0.237  -1.056   0.445  0.00  0.00     0.097 A 
ATOM      8  C   UNL d   1      -0.314  -0.466   1.628  0.00  0.00     0.097 A 
ATOM      9  N   UNL d   1      -0.363   0.868   1.513  0.00  0.00    -0.258 N 
ATOM     10  O   UNL d   1       0.118   1.158   0.252  0.00  0.00    -0.240 OA
ATOM     11  HN  UNL d   1      -0.689   1.533   2.214  1.00  0.00     0.195 HD
ATOM     12  C   UNL d   1       0.473   0.010  -0.391  0.00  0.00     0.101 A 
ATOM     13  C   UNL d   1       0.912   0.184  -1.789  0.00  0.00     0.081 C 
BRANCH   8  14
ATOM     14  C   UNL d   1      -0.749  -1.147   2.846  0.00  0.00     0.038 A 
ATOM     15  C   UNL d   1       0.159  -1.905   3.614  0.00  0.00     0.048 A 
ATOM     16 CL   UNL d   1       1.847  -2.017   3.240  0.00  0.00    -0.083 Cl
ATOM     17  C   UNL d   1      -0.273  -2.623   4.737  0.00  0.00     0.025 A 
ATOM     18  C   UNL d   1      -1.606  -2.577   5.130  0.00  0.00     0.003 A 
ATOM     19  C   UNL d   1      -2.512  -1.815   4.398  0.00  0.00     0.025 A 
ATOM     20  C   UNL d   1      -2.093  -1.110   3.260  0.00  0.00     0.048 A 
ATOM     21 CL   UNL d   1      -3.322  -0.260   2.384  0.00  0.00    -0.083 Cl
ENDBRANCH   8  14
ENDBRANCH   1   7
BRANCH   3  22
ATOM     22  N   UNL d   1       2.554  -5.233  -0.523  0.00  0.00    -0.305 N 
ATOM     23  C   UNL d   1       3.745  -4.863  -0.173  0.00  0.00     0.122 C 
ATOM     24  HN  UNL d   1       2.415  -6.149  -0.949  1.00  0.00     0.186 HD
BRANCH  23  25
ATOM     25  C   UNL d   1       4.880  -5.807  -0.321  0.00  0.00     0.024 A 
ATOM     26  C   UNL d   1       4.970  -6.700  -1.403  0.00  0.00     0.047 A 
ATOM     27 CL   UNL d   1       3.907  -6.671  -2.769  0.00  0.00    -0.083 Cl
ATOM     28  C   UNL d   1       5.993  -7.659  -1.444  0.00  0.00     0.025 A 
ATOM     29  C   UNL d   1       6.939  -7.729  -0.426  0.00  0.00     0.003 A 
ATOM     30  C   UNL d   1       6.877  -6.828   0.635  0.00  0.00     0.025 A 
ATOM     31  C   UNL d   1       5.854  -5.871   0.690  0.00  0.00     0.047 A 
ATOM     32 CL   UNL d   1       5.834  -4.840   2.080  0.00  0.00    -0.083 Cl
ENDBRANCH  23  25
ENDBRANCH   3  22
TORSDOF 4
