REMARK  3 active torsions:
REMARK  status: ('A' for Active; 'I' for Inactive)
REMARK       I    between atoms: N_2  and  C_1 
REMARK       I    between atoms: N_4  and  C_1 
REMARK    1  A    between atoms: C_5  and  N_3 
REMARK    2  A    between atoms: C_12  and  N_4 
REMARK    3  A    between atoms: O_19  and  C_11 
ROOT
ATOM      1  C   UNL d   1       1.052   0.040  -0.302  0.00  0.00     0.323 C 
ATOM      2  N   UNL d   1       0.616  -1.245  -0.654  0.00  0.00    -0.331 N 
ATOM      3  N   UNL d   1      -0.340  -3.953  -0.741  0.00  0.00    -0.376 N 
ATOM      4  N   UNL d   1       0.390   1.081  -0.918  0.00  0.00    -0.309 N 
ATOM      5  O   UNL d   1       1.976   0.179   0.494  0.00  0.00    -0.247 OA
ATOM      6  C   UNL d   1       1.288  -2.323   0.090  0.00  0.00     0.147 C 
ATOM      7  C   UNL d   1      -0.758  -1.560  -1.082  0.00  0.00     0.147 C 
ATOM      8  C   UNL d   1       1.096  -3.738  -0.504  0.00  0.00     0.143 C 
ATOM      9  C   UNL d   1      -0.878  -2.968  -1.698  0.00  0.00     0.143 C 
ATOM     10  H   UNL d   1      -0.292   0.855  -1.603  0.00  0.00     0.170 HD
ENDROOT
BRANCH   4  11
ATOM     11  C   UNL d   1       0.646   2.461  -0.731  0.00  0.00     0.036 A 
ATOM     12  C   UNL d   1       1.645   2.975   0.101  0.00  0.00     0.031 A 
ATOM     13  C   UNL d   1       1.832   4.356   0.239  0.00  0.00     0.021 A 
ATOM     14  C   UNL d   1       1.014   5.233  -0.457  0.00  0.00     0.011 A 
ATOM     15  C   UNL d   1       0.018   4.747  -1.302  0.00  0.00     0.021 A 
ATOM     16 BR   UNL d   1       1.249   7.097  -0.254  0.00  0.00    -0.051 Br
ATOM     17  C   UNL d   1      -0.162   3.365  -1.440  0.00  0.00     0.031 A 
ENDBRANCH   4  11
BRANCH   3  18
ATOM     18  C   UNL d   1      -0.869  -5.241  -0.690  0.00  0.00     0.064 A 
ATOM     19  C   UNL d   1      -0.840  -6.062   0.464  0.00  0.00     0.094 A 
ATOM     20  C   UNL d   1      -1.509  -7.301   0.485  0.00  0.00     0.039 A 
ATOM     21  C   UNL d   1      -2.208  -7.763  -0.624  0.00  0.00     0.003 A 
ATOM     22  C   UNL d   1      -2.204  -7.008  -1.785  0.00  0.00     0.002 A 
ATOM     23  C   UNL d   1      -1.542  -5.775  -1.812  0.00  0.00     0.032 A 
BRANCH  19  24
ATOM     24  O   UNL d   1      -0.148  -5.833   1.627  0.00  0.00    -0.354 OA
ATOM     25  C   UNL d   1      -0.360  -4.582   2.260  0.00  0.00     0.210 C 
ENDBRANCH  19  24
ENDBRANCH   3  18
TORSDOF 3
