REMARK  3 active torsions:
REMARK  status: ('A' for Active; 'I' for Inactive)
REMARK    1  A    between atoms: C_2  and  S_1 
REMARK    2  A    between atoms: N_3  and  S_1 
REMARK    3  A    between atoms: C_8  and  N_6 
ROOT
ATOM      1  N   UNL d   1       0.619  -0.463   1.446  0.00  0.00    -0.203 NA
ATOM      2  N   UNL d   1       2.318  -2.225   2.986  0.00  0.00    -0.378 N 
ATOM      3  C   UNL d   1       1.513   0.077   2.534  0.00  0.00     0.127 C 
ATOM      4  C   UNL d   1       0.282  -1.905   1.702  0.00  0.00     0.127 C 
ATOM      5  C   UNL d   1       2.751  -0.825   2.801  0.00  0.00     0.138 C 
ATOM      6  C   UNL d   1       1.554  -2.760   1.853  0.00  0.00     0.138 C 
ENDROOT
BRANCH   1   7
ATOM      7  S   UNL d   1       1.056  -0.092  -0.155  0.00  0.00     0.245 S 
ATOM      8  O   UNL d   1       2.495   0.092  -0.180  0.00  0.00    -0.206 OA
ATOM      9  O   UNL d   1       0.431  -1.022  -1.063  0.00  0.00    -0.206 OA
BRANCH   7  10
ATOM     10  C   UNL d   1       0.310   1.500  -0.409  0.00  0.00     0.097 A 
ATOM     11  C   UNL d   1      -1.071   1.659  -0.527  0.00  0.00     0.058 A 
ATOM     12  C   UNL d   1      -1.596   2.933  -0.784  0.00  0.00     0.050 A 
ATOM     13 CL   UNL d   1      -2.216   0.379  -0.362  0.00  0.00    -0.083 Cl
ATOM     14  C   UNL d   1      -0.754   4.041  -0.930  0.00  0.00     0.041 A 
ATOM     15  C   UNL d   1       0.635   3.892  -0.832  0.00  0.00    -0.039 A 
ATOM     16 CL   UNL d   1      -1.498   5.571  -1.229  0.00  0.00    -0.084 Cl
ATOM     17  C   UNL d   1       1.154   2.611  -0.572  0.00  0.00     0.035 A 
ATOM     18  C   UNL d   1       1.618   5.014  -1.026  0.00  0.00     0.050 C 
ENDBRANCH   7  10
ENDBRANCH   1   7
BRANCH   2  19
ATOM     19  C   UNL d   1       3.161  -3.072   3.715  0.00  0.00     0.043 A 
ATOM     20  C   UNL d   1       3.857  -4.216   3.222  0.00  0.00     0.018 A 
ATOM     21  C   UNL d   1       4.572  -5.026   4.115  0.00  0.00     0.044 A 
ATOM     22  C   UNL d   1       4.046  -4.804   1.931  0.00  0.00     0.033 A 
ATOM     23  N   UNL d   1       5.136  -6.054   3.393  0.00  0.00    -0.365 N 
ATOM     24  C   UNL d   1       4.644  -4.776   5.489  0.00  0.00     0.030 A 
ATOM     25  C   UNL d   1       4.822  -5.932   2.070  0.00  0.00     0.089 A 
ATOM     26  H   UNL d   1       5.702  -6.789   3.794  0.00  0.00     0.165 HD
ATOM     27  C   UNL d   1       3.974  -3.658   5.972  0.00  0.00     0.005 A 
ATOM     28  C   UNL d   1       3.264  -2.829   5.106  0.00  0.00     0.030 A 
ENDBRANCH   2  19
TORSDOF 3
