REMARK  3 active torsions:
REMARK  status: ('A' for Active; 'I' for Inactive)
REMARK    1  A    between atoms: N_9  and  N_6 
REMARK    2  A    between atoms: C_8  and  C_14 
REMARK    3  A    between atoms: O_19  and  C_12 
ROOT
ATOM      1  C   UNL d   1      -1.223   0.903  -0.042  0.00  0.00     0.128 A 
ATOM      2  C   UNL d   1       0.284   0.660  -0.217  0.00  0.00     0.275 A 
ATOM      3  N   UNL d   1       0.406  -0.673  -0.544  0.00  0.00    -0.321 N 
ATOM      4  C   UNL d   1      -1.868  -0.396  -0.278  0.00  0.00     0.024 A 
ATOM      5  C   UNL d   1      -0.839  -1.292  -0.575  0.00  0.00     0.047 A 
ATOM      6  N   UNL d   1      -1.691   2.075   0.259  0.00  0.00    -0.295 N 
ATOM      7  HN  UNL d   1      -1.091   2.879   0.444  1.00  0.00     0.187 HD
ATOM      8  O   UNL d   1       1.167   1.479  -0.091  0.00  0.00    -0.266 OA
ATOM      9  C   UNL d   1      -3.185  -0.814  -0.225  0.00  0.00     0.016 A 
ATOM     10  C   UNL d   1      -1.084  -2.624  -0.843  0.00  0.00     0.030 A 
ATOM     11  C   UNL d   1      -3.453  -2.160  -0.492  0.00  0.00     0.001 A 
ATOM     12  C   UNL d   1      -2.413  -3.056  -0.800  0.00  0.00     0.002 A 
ATOM     13  H   UNL d   1       1.296  -1.114  -0.718  0.00  0.00     0.169 HD
ENDROOT
BRANCH   6  14
ATOM     14  N   UNL d   1      -3.072   2.146   0.309  0.00  0.00    -0.310 N 
ATOM     15  C   UNL d   1      -3.477   2.983   1.212  0.00  0.00     0.121 C 
ATOM     16  HN  UNL d   1      -3.694   1.606  -0.291  1.00  0.00     0.186 HD
BRANCH  15  17
ATOM     17  C   UNL d   1      -4.919   3.210   1.414  0.00  0.00     0.015 A 
ATOM     18  C   UNL d   1      -5.860   2.877   0.430  0.00  0.00     0.077 A 
ATOM     19  C   UNL d   1      -7.218   3.088   0.655  0.00  0.00     0.039 A 
ATOM     20  C   UNL d   1      -7.643   3.626   1.870  0.00  0.00     0.022 A 
ATOM     21  C   UNL d   1      -6.705   3.954   2.850  0.00  0.00     0.011 A 
ATOM     22  C   UNL d   1      -5.341   3.756   2.629  0.00  0.00     0.034 A 
ATOM     23 BR   UNL d   1      -7.292   4.664   4.502  0.00  0.00    -0.051 Br
BRANCH  18  24
ATOM     24  O   UNL d   1      -5.518   2.350  -0.785  0.00  0.00    -0.360 OA
ATOM     25  H   UNL d   1      -4.541   2.241  -0.801  0.00  0.00     0.217 HD
ENDBRANCH  18  24
ENDBRANCH  15  17
ENDBRANCH   6  14
TORSDOF 3
