REMARK  4 active torsions:
REMARK  status: ('A' for Active; 'I' for Inactive)
REMARK    1  A    between atoms: C_10  and  C_3 
REMARK       I    between atoms: C_9  and  N_8 
REMARK       I    between atoms: N_14  and  C_9 
REMARK    2  A    between atoms: C_11  and  O_15 
REMARK    3  A    between atoms: C_20  and  N_14 
REMARK    4  A    between atoms: O_15  and  C_21 
ROOT
ATOM      1  S   UNL d   1      -1.692   0.372  -0.120  0.00  0.00    -0.037 SA
ATOM      2  C   UNL d   1      -0.108   0.924   0.170  0.00  0.00     0.169 A 
ATOM      3  C   UNL d   1      -1.052  -1.217  -0.048  0.00  0.00     0.074 A 
ATOM      4  N   UNL d   1       0.245  -1.274   0.187  0.00  0.00    -0.296 N 
ATOM      5  HN  UNL d   1       0.771  -2.142   0.284  1.00  0.00     0.187 HD
ATOM      6  N   UNL d   1       0.806  -0.009   0.287  0.00  0.00    -0.279 N 
ATOM      7  HN  UNL d   1       1.800   0.171   0.432  1.00  0.00     0.189 HD
ATOM      8  N   UNL d   1       0.021   2.277   0.240  0.00  0.00    -0.287 N 
ATOM      9  C   UNL d   1       1.171   2.998   0.327  0.00  0.00     0.326 C 
ATOM     10  N   UNL d   1       2.358   2.320   0.259  0.00  0.00    -0.309 N 
ATOM     11  O   UNL d   1       1.043   4.221   0.407  0.00  0.00    -0.247 OA
ATOM     12  H   UNL d   1      -0.820   2.833   0.198  0.00  0.00     0.172 HD
ATOM     13  H   UNL d   1       2.295   1.306   0.255  0.00  0.00     0.170 HD
ENDROOT
BRANCH  10  14
ATOM     14  C   UNL d   1       3.653   2.871   0.135  0.00  0.00     0.036 A 
ATOM     15  C   UNL d   1       3.923   4.242   0.129  0.00  0.00     0.032 A 
ATOM     16  C   UNL d   1       5.228   4.725  -0.051  0.00  0.00     0.039 A 
ATOM     17  C   UNL d   1       6.289   3.840  -0.218  0.00  0.00     0.078 A 
ATOM     18  C   UNL d   1       6.025   2.468  -0.206  0.00  0.00     0.039 A 
ATOM     19  C   UNL d   1       4.722   1.986  -0.028  0.00  0.00     0.032 A 
BRANCH  17  20
ATOM     20  O   UNL d   1       7.602   4.167  -0.389  0.00  0.00    -0.255 OA
BRANCH  20  21
ATOM     21  C   UNL d   1       7.949   5.542  -0.409  0.00  0.00     0.530 C 
ATOM     22  F   UNL d   1       7.550   6.171   0.718  0.00  0.00    -0.144 F 
ATOM     23  F   UNL d   1       9.294   5.647  -0.488  0.00  0.00    -0.144 F 
ATOM     24  F   UNL d   1       7.416   6.161  -1.484  0.00  0.00    -0.144 F 
ENDBRANCH  20  21
ENDBRANCH  17  20
ENDBRANCH  10  14
BRANCH   3  25
ATOM     25  C   UNL d   1      -1.932  -2.453  -0.236  0.00  0.00     0.044 A 
ATOM     26  C   UNL d   1      -1.733  -3.627   0.700  0.00  0.00     0.012 A 
ATOM     27  C   UNL d   1      -1.288  -3.737  -0.719  0.00  0.00     0.012 A 
ENDBRANCH   3  25
TORSDOF 4
