REMARK  2 active torsions:
REMARK  status: ('A' for Active; 'I' for Inactive)
REMARK    1  A    between atoms: C_4  and  CA_3 
REMARK    2  A    between atoms: OXT_10  and  C_4 
ROOT
ATOM      1  N   UNL d   1      -1.236   1.392  -0.000  0.00  0.00    -0.350 N 
ATOM      2  HN  UNL d   1      -1.261   2.412  -0.001  1.00  0.00     0.166 HD
ATOM      3  CA  UNL d   1      -2.384   0.650   0.002  0.00  0.00     0.107 A 
ATOM      4  C   UNL d   1      -0.070   0.715  -0.002  0.00  0.00     0.043 A 
ATOM      5  C   UNL d   1      -2.429  -0.733   0.000  0.00  0.00     0.037 A 
ATOM      6  C   UNL d   1      -0.015  -0.698  -0.001  0.00  0.00    -0.009 A 
ATOM      7  C   UNL d   1      -1.218  -1.414  -0.001  0.00  0.00     0.016 A 
ATOM      8  C   UNL d   1       1.134   1.411  -0.005  0.00  0.00     0.030 A 
ATOM      9  C   UNL d   1       1.222  -1.364   0.001  0.00  0.00     0.013 A 
ATOM     10  C   UNL d   1       2.368   0.750  -0.004  0.00  0.00     0.002 A 
ATOM     11  C   UNL d   1       2.411  -0.639   0.000  0.00  0.00     0.001 A 
ENDROOT
BRANCH   3  12
ATOM     12  C   UNL d   1      -3.657   1.431   0.009  0.00  0.00     0.193 C 
ATOM     13  O   UNL d   1      -4.774   0.946   0.011  0.00  0.00    -0.645 OA
BRANCH  12  14
ATOM     14  OXT UNL d   1      -3.397   2.761   0.015  0.00  0.00    -0.772 OA
ATOM     15  HXT UNL d   1      -2.419   2.890   0.012  0.00  0.00     0.167 HD
ENDBRANCH  12  14
ENDBRANCH   3  12
TORSDOF 2
