REMARK  2 active torsions:
REMARK  status: ('A' for Active; 'I' for Inactive)
REMARK    1  A    between atoms: S_18  and  C_3 
REMARK    2  A    between atoms: C_6  and  C_4 
REMARK       I    between atoms: C_13  and  N_9 
ROOT
ATOM      1  C   UNL d   1       0.098  -0.732   0.057  0.00  0.00     0.041 A 
ATOM      2  C   UNL d   1       0.455   0.688   0.047  0.00  0.00    -0.022 A 
ATOM      3  C   UNL d   1       1.205  -1.557   0.030  0.00  0.00     0.056 A 
ATOM      4  C   UNL d   1       1.833   0.862   0.007  0.00  0.00     0.041 A 
ATOM      5  S   UNL d   1       2.647  -0.651   0.009  0.00  0.00    -0.080 SA
ATOM      6  C   UNL d   1      -1.299  -1.166   0.051  0.00  0.00     0.162 C 
ATOM      7  C   UNL d   1      -0.620   1.762   0.024  0.00  0.00     0.050 C 
ATOM      8  C   UNL d   1      -2.039   1.217   0.377  0.00  0.00    -0.037 C 
ATOM      9  C   UNL d   1      -2.298  -0.111  -0.363  0.00  0.00     0.093 C 
ATOM     10  O   UNL d   1      -1.677  -2.296   0.350  0.00  0.00    -0.292 OA
ATOM     11  C   UNL d   1      -3.124   2.216  -0.068  0.00  0.00     0.015 C 
ATOM     12  C   UNL d   1      -2.175   1.022   1.903  0.00  0.00     0.015 C 
ENDROOT
BRANCH   4  13
ATOM     13  C   UNL d   1       2.624   2.158  -0.041  0.00  0.00     0.067 A 
ATOM     14  N   UNL d   1       2.091   3.389   0.047  0.00  0.00    -0.291 N 
ATOM     15  N   UNL d   1       3.168   4.238   0.021  0.00  0.00    -0.235 N 
ATOM     16  HN  UNL d   1       1.104   3.637   0.117  1.00  0.00     0.187 HD
ATOM     17  C   UNL d   1       3.056   5.641   0.159  0.00  0.00     0.238 C 
ATOM     18  C   UNL d   1       4.349   3.553  -0.143  0.00  0.00     0.122 A 
ATOM     19  O   UNL d   1       4.070   6.324   0.123  0.00  0.00    -0.272 OA
ATOM     20  C   UNL d   1       1.683   6.197   0.354  0.00  0.00     0.119 C 
ATOM     21  C   UNL d   1       4.034   2.221  -0.178  0.00  0.00     0.051 A 
ENDBRANCH   4  13
BRANCH   3  22
ATOM     22  S   UNL d   1       1.292  -3.310  -0.130  0.00  0.00    -0.126 SA
ATOM     23  C   UNL d   1       0.800  -3.875   1.514  0.00  0.00     0.096 C 
ENDBRANCH   3  22
TORSDOF 2
