REMARK  3 active torsions:
REMARK  status: ('A' for Active; 'I' for Inactive)
REMARK    1  A    between atoms: N_3  and  C_1 
REMARK    2  A    between atoms: O_6  and  C_2 
REMARK    3  A    between atoms: C_10  and  O_6 
ROOT
ATOM      1  C   UNL d   1      -2.096   1.996   1.348  0.00  0.00     0.144 A 
ATOM      2  C   UNL d   1      -1.332   2.906   0.631  0.00  0.00     0.149 A 
ATOM      3  S   UNL d   1      -2.170   4.418   0.503  0.00  0.00    -0.074 SA
ATOM      4  C   UNL d   1      -3.274   2.597   1.914  0.00  0.00     0.046 A 
ATOM      5  C   UNL d   1      -3.407   3.919   1.561  0.00  0.00     0.055 A 
ENDROOT
BRANCH   2   6
ATOM      6  O   UNL d   1      -0.159   2.693   0.012  0.00  0.00    -0.301 OA
BRANCH   6   7
ATOM      7  C   UNL d   1       0.849   3.629   0.009  0.00  0.00     0.076 A 
ATOM      8  C   UNL d   1       1.118   4.470   1.096  0.00  0.00     0.039 A 
ATOM      9  C   UNL d   1       2.146   5.410   1.013  0.00  0.00     0.026 A 
ATOM     10  C   UNL d   1       2.928   5.481  -0.138  0.00  0.00     0.034 A 
ATOM     11  C   UNL d   1       2.698   4.612  -1.204  0.00  0.00     0.026 A 
ATOM     12 CL   UNL d   1       4.191   6.645  -0.239  0.00  0.00    -0.084 Cl
ATOM     13  C   UNL d   1       1.658   3.681  -1.128  0.00  0.00     0.039 A 
ENDBRANCH   6   7
ENDBRANCH   2   6
BRANCH   1  14
ATOM     14  N   UNL d   1      -1.737   0.610   1.544  0.00  0.00    -0.112 N 
ATOM     15  O   UNL d   1      -0.678   0.202   1.051  0.00  0.00    -0.532 OA
ATOM     16  O   UNL d   1      -2.531  -0.077   2.199  0.00  0.00    -0.532 OA
ENDBRANCH   1  14
TORSDOF 3
