REMARK  5 active torsions:
REMARK  status: ('A' for Active; 'I' for Inactive)
REMARK    1  A    between atoms: C_8  and  N_1 
REMARK    2  A    between atoms: C_9  and  C_4 
REMARK    3  A    between atoms: C_7  and  O_14 
REMARK       I    between atoms: N_12  and  C_7 
REMARK    4  A    between atoms: O_14  and  N_10 
REMARK    5  A    between atoms: C_15  and  N_12 
ROOT
ATOM      1  C   UNL d   1      -1.037   2.455   0.047  0.00  0.00     0.130 C 
ATOM      2  N   UNL d   1      -2.205   2.759  -0.410  0.00  0.00    -0.267 N 
ATOM      3  HN  UNL d   1      -2.871   2.101  -0.815  1.00  0.00     0.194 HD
ENDROOT
BRANCH   2   4
ATOM      4  O   UNL d   1      -2.412   4.145  -0.261  0.00  0.00    -0.181 OA
BRANCH   4   5
ATOM      5  C   UNL d   1      -3.615   4.487  -0.816  0.00  0.00     0.387 C 
ATOM      6  N   UNL d   1      -4.406   5.321  -0.056  0.00  0.00    -0.301 N 
ATOM      7  H   UNL d   1      -5.293   5.484  -0.521  0.00  0.00     0.171 HD
ATOM      8  O   UNL d   1      -4.019   4.092  -1.906  0.00  0.00    -0.236 OA
BRANCH   6   9
ATOM      9  C   UNL d   1      -4.239   5.869   1.228  0.00  0.00     0.037 A 
ATOM     10  C   UNL d   1      -3.075   5.773   1.997  0.00  0.00     0.031 A 
ATOM     11  C   UNL d   1      -2.997   6.392   3.252  0.00  0.00     0.026 A 
ATOM     12  C   UNL d   1      -4.082   7.106   3.747  0.00  0.00     0.034 A 
ATOM     13  C   UNL d   1      -5.257   7.187   3.010  0.00  0.00     0.026 A 
ATOM     14 CL   UNL d   1      -3.963   7.901   5.268  0.00  0.00    -0.084 Cl
ATOM     15  C   UNL d   1      -5.331   6.573   1.754  0.00  0.00     0.031 A 
ENDBRANCH   6   9
ENDBRANCH   4   5
ENDBRANCH   2   4
BRANCH   1  16
ATOM     16  C   UNL d   1      -0.623   1.073   0.159  0.00  0.00     0.029 C 
ATOM     17  C   UNL d   1      -1.380  -0.090   0.029  0.00  0.00     0.039 C 
ATOM     18  N   UNL d   1      -0.485  -1.139   0.160  0.00  0.00    -0.287 N 
ATOM     19  C   UNL d   1      -2.847  -0.253  -0.171  0.00  0.00     0.071 C 
ATOM     20  N   UNL d   1       0.734  -0.710   0.554  0.00  0.00    -0.301 N 
ATOM     21  C   UNL d   1       0.666   0.617   0.529  0.00  0.00     0.035 C 
ATOM     22  HN  UNL d   1       1.536  -1.282   0.815  1.00  0.00     0.187 HD
ATOM     23  C   UNL d   1       1.863   1.410   0.903  0.00  0.00     0.070 C 
BRANCH  18  24
ATOM     24  C   UNL d   1      -0.675  -2.603   0.035  0.00  0.00     0.043 C 
ATOM     25  C   UNL d   1      -1.281  -3.159   1.335  0.00  0.00     0.039 C 
ATOM     26  C   UNL d   1      -1.556  -2.998  -1.166  0.00  0.00     0.039 C 
ATOM     27  C   UNL d   1       0.691  -3.308  -0.195  0.00  0.00     0.039 C 
ENDBRANCH  18  24
ENDBRANCH   1  16
TORSDOF 5
