REMARK  6 active torsions:
REMARK  status: ('A' for Active; 'I' for Inactive)
REMARK    1  A    between atoms: C_8  and  C_1 
REMARK    2  A    between atoms: C_12  and  C_4 
REMARK    3  A    between atoms: O_14  and  C_8 
REMARK    4  A    between atoms: O_9  and  C_12 
REMARK    5  A    between atoms: C_11  and  O_9 
REMARK    6  A    between atoms: C_18  and  O_14 
ROOT
ATOM      1  C   UNL d   1      -0.054  -0.944   0.490  0.00  0.00     0.247 A 
ATOM      2  N   UNL d   1       0.218   0.240   0.999  0.00  0.00    -0.317 N 
ATOM      3  HN  UNL d   1       0.260   0.521   1.979  1.00  0.00     0.169 HD
ATOM      4  C   UNL d   1       0.429   1.002  -0.124  0.00  0.00     0.128 A 
ATOM      5  N   UNL d   1       0.316   0.339  -1.284  0.00  0.00    -0.244 N 
ATOM      6  HN  UNL d   1       0.431   0.696  -2.232  1.00  0.00     0.196 HD
ATOM      7  O   UNL d   1      -0.000  -0.964  -0.876  0.00  0.00    -0.212 OA
ENDROOT
BRANCH   4   8
ATOM      8  C   UNL d   1       0.652   2.474  -0.028  0.00  0.00     0.254 C 
BRANCH   8   9
ATOM      9  O   UNL d   1       2.037   2.783   0.115  0.00  0.00    -0.342 OA
BRANCH   9  10
ATOM     10  C   UNL d   1       2.431   4.093   0.172  0.00  0.00     0.090 A 
ATOM     11  C   UNL d   1       1.744   5.222   0.644  0.00  0.00     0.067 A 
ATOM     12 CL   UNL d   1       0.136   5.231   1.274  0.00  0.00    -0.081 Cl
ATOM     13  C   UNL d   1       2.388   6.470   0.674  0.00  0.00     0.026 A 
ATOM     14  C   UNL d   1       3.704   6.611   0.241  0.00  0.00     0.002 A 
ATOM     15  C   UNL d   1       4.391   5.500  -0.230  0.00  0.00     0.003 A 
ATOM     16  C   UNL d   1       3.760   4.255  -0.258  0.00  0.00     0.038 A 
ENDBRANCH   9  10
ENDBRANCH   8   9
ENDBRANCH   4   8
BRANCH   1  17
ATOM     17  C   UNL d   1      -0.496  -2.123   1.194  0.00  0.00     0.337 C 
ATOM     18  O   UNL d   1      -0.849  -3.178   0.682  0.00  0.00    -0.255 OA
BRANCH  17  19
ATOM     19  O   UNL d   1      -0.563  -1.855   2.534  0.00  0.00    -0.315 OA
BRANCH  19  20
ATOM     20  C   UNL d   1      -1.368  -2.748   3.312  0.00  0.00     0.175 C 
ATOM     21  C   UNL d   1      -2.797  -2.236   3.289  0.00  0.00     0.034 C 
ENDBRANCH  19  20
ENDBRANCH  17  19
ENDBRANCH   1  17
TORSDOF 6
