REMARK  2 active torsions:
REMARK  status: ('A' for Active; 'I' for Inactive)
REMARK       I    between atoms: C_3  and  N_5 
REMARK    1  A    between atoms: C_6  and  C_3 
REMARK    2  A    between atoms: N_5  and  C_4 
ROOT
ATOM      1  C   UNL d   1       0.999  -0.455  -0.700  0.00  0.00     0.084 A 
ATOM      2  C   UNL d   1      -0.278   0.122  -0.539  0.00  0.00     0.079 A 
ATOM      3  C   UNL d   1       1.207  -1.810  -0.354  0.00  0.00     0.058 A 
ATOM      4  C   UNL d   1      -1.343  -0.669  -0.079  0.00  0.00     0.057 A 
ATOM      5  C   UNL d   1       0.116  -2.594   0.043  0.00  0.00     0.033 A 
ATOM      6  C   UNL d   1      -1.148  -2.025   0.190  0.00  0.00     0.028 A 
ATOM      7 CL   UNL d   1       2.251   0.443  -1.515  0.00  0.00    -0.080 Cl
ATOM      8 CL   UNL d   1      -0.553   1.797  -0.924  0.00  0.00    -0.081 Cl
ATOM      9 CL   UNL d   1      -2.941  -0.047   0.153  0.00  0.00    -0.082 Cl
ENDROOT
BRANCH   3  10
ATOM     10  N   UNL d   1       2.454  -2.478  -0.399  0.00  0.00    -0.323 N 
ATOM     11  C   UNL d   1       3.634  -1.959   0.138  0.00  0.00     0.255 C 
ATOM     12  O   UNL d   1       3.713  -0.883   0.727  0.00  0.00    -0.270 OA
ATOM     13  H   UNL d   1       2.429  -3.494  -0.423  0.00  0.00     0.169 HD
BRANCH  11  14
ATOM     14  C   UNL d   1       4.849  -2.879   0.007  0.00  0.00     0.270 C 
ATOM     15 CL   UNL d   1       4.418  -4.514   0.575  0.00  0.00    -0.098 Cl
ATOM     16 CL   UNL d   1       5.368  -2.931  -1.687  0.00  0.00    -0.098 Cl
ENDBRANCH  11  14
ENDBRANCH   3  10
TORSDOF 2
