REMARK  2 active torsions:
REMARK  status: ('A' for Active; 'I' for Inactive)
REMARK    1  A    between atoms: C_2  and  C_1 
REMARK       I    between atoms: C_8  and  N_5 
REMARK       I    between atoms: N_14  and  C_8 
REMARK    2  A    between atoms: C_16  and  N_14 
ROOT
ATOM      1  C   UNL d   1      -1.585  -2.454   0.090  0.00  0.00     0.069 A 
ATOM      2  N   UNL d   1      -2.786  -2.769  -0.435  0.00  0.00    -0.289 N 
ATOM      3  HN  UNL d   1      -3.486  -2.140  -0.827  1.00  0.00     0.188 HD
ATOM      4  N   UNL d   1      -2.846  -4.139  -0.320  0.00  0.00    -0.216 N 
ATOM      5  C   UNL d   1      -3.936  -4.919  -0.773  0.00  0.00     0.345 C 
ATOM      6  C   UNL d   1      -0.937  -3.590   0.633  0.00  0.00     0.052 A 
ATOM      7  C   UNL d   1      -1.735  -4.649   0.312  0.00  0.00     0.124 A 
ATOM      8  N   UNL d   1      -5.074  -4.165  -0.982  0.00  0.00    -0.307 N 
ATOM      9  O   UNL d   1      -3.788  -6.133  -0.826  0.00  0.00    -0.245 OA
ATOM     10  H   UNL d   1      -4.991  -3.170  -0.785  0.00  0.00     0.170 HD
ENDROOT
BRANCH   1  11
ATOM     11  C   UNL d   1      -0.960  -1.084   0.087  0.00  0.00     0.057 A 
ATOM     12  C   UNL d   1      -1.368   0.044  -0.606  0.00  0.00     0.025 A 
ATOM     13  N   UNL d   1      -0.531   1.152  -0.457  0.00  0.00    -0.357 N 
ATOM     14  C   UNL d   1      -2.526   0.191  -1.525  0.00  0.00     0.070 C 
ATOM     15  C   UNL d   1       0.490   0.857   0.316  0.00  0.00     0.048 A 
ATOM     16  HN  UNL d   1      -0.689   2.063  -0.888  1.00  0.00     0.166 HD
ATOM     17  S   UNL d   1       0.491  -0.731   0.945  0.00  0.00    -0.073 SA
ATOM     18  C   UNL d   1       1.605   1.792   0.639  0.00  0.00     0.076 C 
ENDBRANCH   1  11
BRANCH   8  19
ATOM     19  C   UNL d   1      -6.364  -4.721  -1.165  0.00  0.00     0.036 A 
ATOM     20  C   UNL d   1      -6.579  -6.068  -1.489  0.00  0.00     0.031 A 
ATOM     21  C   UNL d   1      -7.871  -6.598  -1.558  0.00  0.00     0.026 A 
ATOM     22  C   UNL d   1      -8.965  -5.780  -1.312  0.00  0.00     0.034 A 
ATOM     23  C   UNL d   1      -8.774  -4.431  -1.023  0.00  0.00     0.026 A 
ATOM     24 CL   UNL d   1     -10.553  -6.441  -1.348  0.00  0.00    -0.084 Cl
ATOM     25  C   UNL d   1      -7.478  -3.899  -0.960  0.00  0.00     0.031 A 
ENDBRANCH   8  19
TORSDOF 2
