REMARK  3 active torsions:
REMARK  status: ('A' for Active; 'I' for Inactive)
REMARK    1  A    between atoms: C_2  and  C_1 
REMARK       I    between atoms: N_5  and  C_2 
REMARK    2  A    between atoms: N_7  and  N_5 
REMARK    3  A    between atoms: C_9  and  N_7 
ROOT
ATOM      1  C   UNL d   1       0.142   2.623   0.307  0.00  0.00     0.274 C 
ATOM      2  N   UNL d   1       1.023   3.588  -0.174  0.00  0.00    -0.282 N 
ATOM      3  O   UNL d   1       0.574   1.527   0.670  0.00  0.00    -0.266 OA
ATOM      4  H   UNL d   1       0.710   4.428  -0.650  0.00  0.00     0.184 HD
ENDROOT
BRANCH   2   5
ATOM      5  N   UNL d   1       2.358   3.212  -0.363  0.00  0.00    -0.203 NA
ATOM      6  H   UNL d   1       2.583   2.394   0.222  0.00  0.00     0.153 HD
BRANCH   5   7
ATOM      7  C   UNL d   1       3.324   4.231  -0.171  0.00  0.00     0.033 A 
ATOM      8  C   UNL d   1       3.274   5.276   0.776  0.00  0.00    -0.038 A 
ATOM      9  C   UNL d   1       4.339   6.203   0.827  0.00  0.00     0.032 A 
ATOM     10  C   UNL d   1       2.152   5.509   1.750  0.00  0.00     0.050 C 
ATOM     11  C   UNL d   1       5.464   6.058   0.019  0.00  0.00     0.034 A 
ATOM     12  C   UNL d   1       5.559   4.984  -0.851  0.00  0.00     0.026 A 
ATOM     13 CL   UNL d   1       6.745   7.202   0.117  0.00  0.00    -0.084 Cl
ATOM     14  C   UNL d   1       4.500   4.080  -0.935  0.00  0.00     0.027 A 
ENDBRANCH   5   7
ENDBRANCH   2   5
BRANCH   1  15
ATOM     15  C   UNL d   1      -1.262   3.012   0.366  0.00  0.00     0.095 A 
ATOM     16  C   UNL d   1      -1.897   4.221   0.136  0.00  0.00     0.057 A 
ATOM     17  C   UNL d   1      -3.305   4.156   0.363  0.00  0.00     0.032 A 
ATOM     18 CL   UNL d   1      -1.177   5.702  -0.345  0.00  0.00    -0.083 Cl
ATOM     19  C   UNL d   1      -3.715   2.900   0.744  0.00  0.00     0.052 A 
ATOM     20  S   UNL d   1      -2.409   1.807   0.827  0.00  0.00    -0.095 SA
ENDBRANCH   1  15
TORSDOF 3
