REMARK  5 active torsions:
REMARK  status: ('A' for Active; 'I' for Inactive)
REMARK    1  A    between atoms: C_2  and  C_1 
REMARK    2  A    between atoms: C_5  and  C_3 
REMARK    3  A    between atoms: C_6  and  C_4 
REMARK    4  A    between atoms: O_9  and  C_5 
REMARK    5  A    between atoms: O_10  and  C_6 
ROOT
ATOM      1  C   UNL d   1       1.343  -0.519   0.386  0.00  0.00    -0.017 A 
ATOM      2  C   UNL d   1       0.683   0.656   0.834  0.00  0.00    -0.019 A 
ATOM      3  C   UNL d   1       0.551  -1.658   0.124  0.00  0.00     0.013 A 
ATOM      4  C   UNL d   1      -0.727   0.648   0.964  0.00  0.00     0.011 A 
ATOM      5  C   UNL d   1      -0.839  -1.638   0.240  0.00  0.00     0.001 A 
ATOM      6  C   UNL d   1      -1.480  -0.481   0.658  0.00  0.00     0.001 A 
ENDROOT
BRANCH   1   7
ATOM      7  C   UNL d   1       2.814  -0.622   0.211  0.00  0.00    -0.017 A 
ATOM      8  C   UNL d   1       3.444  -0.910  -1.029  0.00  0.00    -0.019 A 
ATOM      9  C   UNL d   1       4.856  -0.976  -1.087  0.00  0.00     0.011 A 
ATOM     10  C   UNL d   1       5.642  -0.764   0.042  0.00  0.00     0.001 A 
ATOM     11  C   UNL d   1       5.033  -0.508   1.261  0.00  0.00     0.001 A 
ATOM     12  C   UNL d   1       3.641  -0.455   1.343  0.00  0.00     0.013 A 
BRANCH   8  13
ATOM     13  C   UNL d   1       2.676  -1.195  -2.313  0.00  0.00     0.148 C 
ATOM     14  C   UNL d   1       2.732  -2.673  -2.693  0.00  0.00     0.044 C 
BRANCH  13  15
ATOM     15  O   UNL d   1       3.227  -0.445  -3.401  0.00  0.00    -0.391 OA
ATOM     16  H   UNL d   1       3.473   0.427  -3.044  0.00  0.00     0.210 HD
ENDBRANCH  13  15
ENDBRANCH   8  13
ENDBRANCH   1   7
BRANCH   2  17
ATOM     17  C   UNL d   1       1.415   1.931   1.228  0.00  0.00     0.148 C 
ATOM     18  C   UNL d   1       1.416   2.145   2.741  0.00  0.00     0.044 C 
BRANCH  17  19
ATOM     19  O   UNL d   1       0.790   3.071   0.630  0.00  0.00    -0.391 OA
ATOM     20  H   UNL d   1       0.503   2.800  -0.259  0.00  0.00     0.210 HD
ENDBRANCH  17  19
ENDBRANCH   2  17
TORSDOF 5
