REMARK  3 active torsions:
REMARK  status: ('A' for Active; 'I' for Inactive)
REMARK    1  A    between atoms: S_2  and  N_1 
REMARK    2  A    between atoms: N_5  and  C_9 
REMARK    3  A    between atoms: C_10  and  C_6 
ROOT
ATOM      1  N   UNL d   1      -0.307  -1.127  -0.018  0.00  0.00    -0.192 N 
ATOM      2  N   UNL d   1       0.989  -0.729  -0.040  0.00  0.00    -0.284 N 
ATOM      3  HN  UNL d   1       1.824  -1.315  -0.064  1.00  0.00     0.188 HD
ATOM      4  C   UNL d   1       0.925   0.614  -0.023  0.00  0.00     0.061 A 
ATOM      5  C   UNL d   1      -1.193  -0.084   0.007  0.00  0.00     0.131 A 
ATOM      6  C   UNL d   1      -0.427   1.057   0.013  0.00  0.00     0.052 A 
ENDROOT
BRANCH   4   7
ATOM      7  C   UNL d   1       2.137   1.434  -0.028  0.00  0.00    -0.006 A 
ATOM      8  C   UNL d   1       2.123   2.732  -0.557  0.00  0.00     0.049 A 
ATOM      9  C   UNL d   1       3.297   3.500  -0.551  0.00  0.00     0.103 A 
ATOM     10  C   UNL d   1       4.487   2.988  -0.018  0.00  0.00     0.036 A 
ATOM     11  C   UNL d   1       4.501   1.698   0.507  0.00  0.00     0.003 A 
ATOM     12  C   UNL d   1       3.335   0.927   0.500  0.00  0.00     0.014 A 
BRANCH   9  13
ATOM     13  N   UNL d   1       3.278   4.855  -1.116  0.00  0.00    -0.116 N 
ATOM     14  O   UNL d   1       2.204   5.273  -1.571  0.00  0.00    -0.532 OA
ATOM     15  O   UNL d   1       4.335   5.502  -1.102  0.00  0.00    -0.532 OA
ENDBRANCH   9  13
ENDBRANCH   4   7
BRANCH   1  16
ATOM     16  S   UNL d   1      -0.842  -2.763  -0.002  0.00  0.00     0.245 S 
ATOM     17  O   UNL d   1      -1.598  -2.885   1.232  0.00  0.00    -0.204 OA
ATOM     18  O   UNL d   1      -1.470  -2.957  -1.296  0.00  0.00    -0.204 OA
ATOM     19  C   UNL d   1       0.593  -3.797   0.106  0.00  0.00     0.188 C 
ENDBRANCH   1  16
TORSDOF 3
