REMARK  2 active torsions:
REMARK  status: ('A' for Active; 'I' for Inactive)
REMARK    1  A    between atoms: C_3  and  C_1 
REMARK    2  A    between atoms: C_5  and  C_2 
REMARK       I    between atoms: N_9  and  C_3 
ROOT
ATOM      1  C   UNL d   1       0.778   0.131  -0.728  0.00  0.00     0.112 C 
ATOM      2  C   UNL d   1       0.345  -1.120  -0.473  0.00  0.00     0.040 C 
ATOM      3  C   UNL d   1       1.903   0.401  -1.559  0.00  0.00     0.105 C 
ATOM      4  N   UNL d   1       2.817   0.681  -2.220  0.00  0.00    -0.191 NA
ENDROOT
BRANCH   1   5
ATOM      5  C   UNL d   1       0.028   1.257  -0.092  0.00  0.00     0.260 C 
ATOM      6  O   UNL d   1      -0.934   1.083   0.648  0.00  0.00    -0.267 OA
ATOM      7  N   UNL d   1       0.456   2.522  -0.365  0.00  0.00    -0.365 N 
ATOM      8  H   UNL d   1       1.238   2.755  -0.964  0.00  0.00     0.159 HD
ATOM      9  H   UNL d   1      -0.048   3.289   0.064  0.00  0.00     0.159 HD
ENDBRANCH   1   5
BRANCH   2  10
ATOM     10  C   UNL d   1       0.994  -2.327  -1.013  0.00  0.00    -0.024 A 
ATOM     11  C   UNL d   1       0.614  -2.908  -2.254  0.00  0.00    -0.016 A 
ATOM     12  C   UNL d   1       1.363  -4.009  -2.739  0.00  0.00    -0.025 A 
ATOM     13  C   UNL d   1      -0.469  -2.450  -3.042  0.00  0.00     0.013 A 
ATOM     14  C   UNL d   1       1.026  -4.604  -3.965  0.00  0.00     0.012 A 
ATOM     15  C   UNL d   1       2.446  -4.501  -1.996  0.00  0.00     0.012 A 
ATOM     16  C   UNL d   1      -0.048  -4.134  -4.718  0.00  0.00     0.001 A 
ATOM     17  C   UNL d   1      -0.795  -3.058  -4.257  0.00  0.00     0.001 A 
ATOM     18  C   UNL d   1       2.791  -3.935  -0.771  0.00  0.00     0.002 A 
ATOM     19  C   UNL d   1       2.067  -2.856  -0.279  0.00  0.00     0.012 A 
ENDBRANCH   2  10
TORSDOF 2
