REMARK  5 active torsions:
REMARK  status: ('A' for Active; 'I' for Inactive)
REMARK    1  A    between atoms: C_5  and  C_1 
REMARK       I    between atoms: N_7  and  C_1 
REMARK    2  A    between atoms: C_2  and  C_6 
REMARK       I    between atoms: N_8  and  C_2 
REMARK    3  A    between atoms: C_4  and  C_3 
REMARK    4  A    between atoms: C_13  and  N_7 
REMARK    5  A    between atoms: C_14  and  N_8 
ROOT
ATOM      1  C   UNL d   1       0.590  -0.320   2.396  0.00  0.00    -0.009 A 
ATOM      2  C   UNL d   1      -0.783  -0.016   2.557  0.00  0.00     0.043 A 
ATOM      3  C   UNL d   1       0.908  -1.560   1.788  0.00  0.00     0.013 A 
ATOM      4  C   UNL d   1      -1.770  -0.911   2.110  0.00  0.00     0.018 A 
ATOM      5  C   UNL d   1      -0.081  -2.456   1.370  0.00  0.00     0.001 A 
ATOM      6  C   UNL d   1      -1.422  -2.131   1.528  0.00  0.00     0.001 A 
ENDROOT
BRANCH   1   7
ATOM      7  C   UNL d   1       1.719   0.543   2.832  0.00  0.00    -0.009 A 
ATOM      8  C   UNL d   1       1.939   1.878   2.415  0.00  0.00     0.043 A 
ATOM      9  C   UNL d   1       3.046   2.601   2.906  0.00  0.00     0.018 A 
ATOM     10  C   UNL d   1       3.936   2.022   3.810  0.00  0.00     0.001 A 
ATOM     11  C   UNL d   1       3.739   0.713   4.226  0.00  0.00     0.001 A 
ATOM     12  C   UNL d   1       2.647  -0.012   3.745  0.00  0.00     0.013 A 
BRANCH   8  13
ATOM     13  C   UNL d   1       1.042   2.568   1.440  0.00  0.00     0.252 C 
ATOM     14  N   UNL d   1       0.764   3.894   1.731  0.00  0.00    -0.353 N 
ATOM     15  H   UNL d   1       1.025   4.208   2.658  0.00  0.00     0.163 HD
ATOM     16  O   UNL d   1       0.593   1.960   0.478  0.00  0.00    -0.268 OA
BRANCH  14  17
ATOM     17  C   UNL d   1      -0.347   4.611   1.111  0.00  0.00     0.076 C 
ATOM     18  C   UNL d   1      -0.525   5.972   1.789  0.00  0.00     0.032 C 
ATOM     19  C   UNL d   1      -0.159   4.816  -0.391  0.00  0.00     0.032 C 
ENDBRANCH  14  17
ENDBRANCH   8  13
ENDBRANCH   1   7
BRANCH   2  20
ATOM     20  C   UNL d   1      -1.292   1.244   3.168  0.00  0.00     0.252 C 
ATOM     21  N   UNL d   1      -0.675   1.660   4.329  0.00  0.00    -0.353 N 
ATOM     22  H   UNL d   1      -0.001   1.047   4.768  0.00  0.00     0.163 HD
ATOM     23  O   UNL d   1      -2.233   1.841   2.659  0.00  0.00    -0.268 OA
BRANCH  21  24
ATOM     24  C   UNL d   1      -0.953   2.956   4.926  0.00  0.00     0.076 C 
ATOM     25  C   UNL d   1      -2.323   3.003   5.596  0.00  0.00     0.032 C 
ATOM     26  C   UNL d   1       0.147   3.315   5.919  0.00  0.00     0.032 C 
ENDBRANCH  21  24
ENDBRANCH   2  20
TORSDOF 5
