REMARK  3 active torsions:
REMARK  status: ('A' for Active; 'I' for Inactive)
REMARK    1  A    between atoms: C_4  and  C_1 
REMARK    2  A    between atoms: N_3  and  C_2 
REMARK       I    between atoms: N_6  and  C_4 
REMARK       I    between atoms: C_9  and  N_6 
REMARK       I    between atoms: N_14  and  C_9 
REMARK    3  A    between atoms: C_15  and  N_14 
ROOT
ATOM      1  C   UNL d   1       2.242  -1.569   0.006  0.00  0.00     0.260 C 
ATOM      2  N   UNL d   1       2.267  -2.948  -0.046  0.00  0.00    -0.275 N 
ATOM      3  C   UNL d   1       1.279  -3.837   0.282  0.00  0.00     0.323 C 
ATOM      4  O   UNL d   1       1.232  -0.924   0.280  0.00  0.00    -0.267 OA
ATOM      5  O   UNL d   1       1.502  -5.041   0.184  0.00  0.00    -0.247 OA
ATOM      6  N   UNL d   1       0.103  -3.318   0.731  0.00  0.00    -0.343 N 
ATOM      7  H   UNL d   1       3.108  -3.427  -0.316  0.00  0.00     0.173 HD
ATOM      8  H   UNL d   1      -0.049  -2.322   0.593  0.00  0.00     0.164 HD
ENDROOT
BRANCH   1   9
ATOM      9  C   UNL d   1       3.505  -0.883  -0.314  0.00  0.00     0.042 A 
ATOM     10  C   UNL d   1       3.658   0.553  -0.261  0.00  0.00     0.061 A 
ATOM     11  C   UNL d   1       4.923   0.970  -0.608  0.00  0.00     0.144 A 
ATOM     12  S   UNL d   1       5.947  -0.324  -0.995  0.00  0.00    -0.077 SA
ATOM     13  C   UNL d   1       4.701  -1.468  -0.703  0.00  0.00     0.069 A 
BRANCH  11  14
ATOM     14  N   UNL d   1       5.397   2.330  -0.657  0.00  0.00    -0.108 N 
ATOM     15  O   UNL d   1       4.593   3.203  -0.306  0.00  0.00    -0.531 OA
ATOM     16  O   UNL d   1       6.555   2.534  -1.043  0.00  0.00    -0.531 OA
ENDBRANCH  11  14
ENDBRANCH   1   9
BRANCH   6  17
ATOM     17  C   UNL d   1      -1.016  -4.175   1.058  0.00  0.00     0.120 C 
ATOM     18  C   UNL d   1      -2.185  -3.401   1.634  0.00  0.00     0.026 C 
ENDBRANCH   6  17
TORSDOF 3
