REMARK  5 active torsions:
REMARK  status: ('A' for Active; 'I' for Inactive)
REMARK    1  A    between atoms: C_13  and  N_2 
REMARK       I    between atoms: C_3  and  N_11 
REMARK       I    between atoms: N_4  and  C_3 
REMARK    2  A    between atoms: C_5  and  N_4 
REMARK    3  A    between atoms: C_8  and  C_7 
REMARK    4  A    between atoms: N_11  and  C_15 
REMARK    5  A    between atoms: C_15  and  C_13 
ROOT
ATOM      1  C   UNL d   1      -3.618  -4.009  -0.634  0.00  0.00     0.320 C 
ATOM      2  N   UNL d   1      -4.554  -3.000  -0.743  0.00  0.00    -0.308 N 
ATOM      3  O   UNL d   1      -2.412  -3.889  -0.794  0.00  0.00    -0.247 OA
ATOM      4  N   UNL d   1      -4.200  -5.202  -0.275  0.00  0.00    -0.341 N 
ATOM      5  H   UNL d   1      -5.444  -3.165  -0.306  0.00  0.00     0.170 HD
ATOM      6  H   UNL d   1      -5.181  -5.235  -0.043  0.00  0.00     0.164 HD
ENDROOT
BRANCH   4   7
ATOM      7  C   UNL d   1      -3.405  -6.378   0.043  0.00  0.00     0.144 C 
BRANCH   7   8
ATOM      8  C   UNL d   1      -2.731  -6.296   1.423  0.00  0.00     0.147 C 
BRANCH   8   9
ATOM      9  N   UNL d   1      -3.675  -6.056   2.504  0.00  0.00    -0.331 N 
ATOM     10  C   UNL d   1      -4.683  -6.943   2.869  0.00  0.00     0.318 C 
ATOM     11  N   UNL d   1      -5.225  -6.490   4.062  0.00  0.00    -0.341 N 
ATOM     12  O   UNL d   1      -5.057  -7.934   2.264  0.00  0.00    -0.247 OA
ATOM     13  C   UNL d   1      -4.669  -5.213   4.418  0.00  0.00     0.144 C 
ATOM     14  H   UNL d   1      -6.076  -6.902   4.421  0.00  0.00     0.164 HD
ATOM     15  C   UNL d   1      -3.385  -5.160   3.602  0.00  0.00     0.147 C 
ENDBRANCH   8   9
ENDBRANCH   7   8
ENDBRANCH   4   7
BRANCH   2  16
ATOM     16  C   UNL d   1      -4.259  -1.673  -1.111  0.00  0.00     0.043 A 
ATOM     17  C   UNL d   1      -4.879  -0.569  -0.474  0.00  0.00    -0.024 A 
ATOM     18  C   UNL d   1      -4.718   0.691  -1.102  0.00  0.00     0.010 A 
ATOM     19  C   UNL d   1      -3.915   0.870  -2.232  0.00  0.00     0.001 A 
ATOM     20  C   UNL d   1      -3.245  -0.213  -2.780  0.00  0.00     0.002 A 
ATOM     21  C   UNL d   1      -3.422  -1.476  -2.225  0.00  0.00     0.030 A 
BRANCH  17  22
ATOM     22  C   UNL d   1      -5.633  -0.630   0.883  0.00  0.00    -0.022 C 
ATOM     23  C   UNL d   1      -5.146  -1.740   1.850  0.00  0.00     0.019 C 
ATOM     24  C   UNL d   1      -5.444   0.684   1.697  0.00  0.00     0.019 C 
ATOM     25  C   UNL d   1      -7.138  -0.815   0.620  0.00  0.00     0.019 C 
ENDBRANCH  17  22
ENDBRANCH   2  16
TORSDOF 5
