REMARK  4 active torsions:
REMARK  status: ('A' for Active; 'I' for Inactive)
REMARK    1  A    between atoms: C_5  and  C_1 
REMARK    2  A    between atoms: N_3  and  C_2 
REMARK       I    between atoms: C_4  and  N_3 
REMARK    3  A    between atoms: C_9  and  C_4 
REMARK    4  A    between atoms: O_14  and  C_5 
ROOT
ATOM      1  C   UNL d   1      -0.054   1.245   0.010  0.00  0.00     0.106 A 
ATOM      2  C   UNL d   1       1.193   0.674  -0.197  0.00  0.00     0.058 A 
ATOM      3  S   UNL d   1      -1.302   0.049   0.031  0.00  0.00    -0.094 SA
ATOM      4  C   UNL d   1       1.076  -0.742  -0.428  0.00  0.00     0.038 A 
ATOM      5  C   UNL d   1      -0.213  -1.205  -0.326  0.00  0.00     0.053 A 
ENDROOT
BRANCH   2   6
ATOM      6  N   UNL d   1       2.464   1.244  -0.205  0.00  0.00    -0.323 N 
ATOM      7  C   UNL d   1       2.851   2.480   0.293  0.00  0.00     0.255 C 
ATOM      8  O   UNL d   1       2.109   3.282   0.857  0.00  0.00    -0.270 OA
ATOM      9  H   UNL d   1       3.219   0.620  -0.474  0.00  0.00     0.169 HD
BRANCH   7  10
ATOM     10  C   UNL d   1       4.353   2.750   0.182  0.00  0.00     0.270 C 
ATOM     11 CL   UNL d   1       5.198   1.715   1.357  0.00  0.00    -0.098 Cl
ATOM     12 CL   UNL d   1       4.930   2.391  -1.464  0.00  0.00    -0.098 Cl
ENDBRANCH   7  10
ENDBRANCH   2   6
BRANCH   1  13
ATOM     13  C   UNL d   1      -0.513   2.610   0.168  0.00  0.00     0.302 C 
ATOM     14  O   UNL d   1      -1.323   2.992   1.006  0.00  0.00    -0.259 OA
BRANCH  13  15
ATOM     15  O   UNL d   1      -0.034   3.379  -0.854  0.00  0.00    -0.322 OA
ATOM     16  C   UNL d   1      -0.478   4.739  -0.862  0.00  0.00     0.213 C 
ENDBRANCH  13  15
ENDBRANCH   1  13
TORSDOF 4
