REMARK  11 active torsions:
REMARK  status: ('A' for Active; 'I' for Inactive)
REMARK    1  A    between atoms: O_9  and  C_1 
REMARK    2  A    between atoms: C_8  and  C_2 
REMARK    3  A    between atoms: O_15  and  C_7 
REMARK    4  A    between atoms: C_19  and  O_9 
REMARK    5  A    between atoms: O_17  and  C_10 
REMARK    6  A    between atoms: O_25  and  C_13 
REMARK    7  A    between atoms: O_18  and  C_14 
REMARK    8  A    between atoms: C_20  and  O_15 
REMARK    9  A    between atoms: C_21  and  O_17 
REMARK   10  A    between atoms: C_23  and  O_18 
REMARK   11  A    between atoms: C_24  and  O_25 
ROOT
ATOM      1  C   UNL d   1      -2.349  -0.367   0.228  0.00  0.00     0.164 C 
ATOM      2  C   UNL d   1      -1.810  -1.583   0.019  0.00  0.00     0.124 C 
ATOM      3  C   UNL d   1      -1.428   0.765   0.526  0.00  0.00     0.224 C 
ATOM      4  C   UNL d   1       0.001   0.533   0.238  0.00  0.00     0.085 A 
ATOM      5  O   UNL d   1      -0.451  -1.850   0.005  0.00  0.00    -0.306 OA
ATOM      6  C   UNL d   1       0.422  -0.788   0.057  0.00  0.00     0.096 A 
ATOM      7  C   UNL d   1       0.950   1.560   0.198  0.00  0.00     0.099 A 
ATOM      8  C   UNL d   1       1.788  -1.090  -0.057  0.00  0.00     0.075 A 
ATOM      9  C   UNL d   1       2.310   1.263   0.051  0.00  0.00     0.076 A 
ATOM     10  C   UNL d   1       2.728  -0.058  -0.024  0.00  0.00     0.084 A 
ATOM     11  O   UNL d   1      -1.838   1.795   1.048  0.00  0.00    -0.284 OA
ENDROOT
BRANCH   2  12
ATOM     12  C   UNL d   1      -2.650  -2.785  -0.133  0.00  0.00     0.004 A 
ATOM     13  C   UNL d   1      -3.144  -3.429   1.011  0.00  0.00     0.054 A 
ATOM     14  C   UNL d   1      -3.988  -4.540   0.896  0.00  0.00     0.114 A 
ATOM     15  C   UNL d   1      -4.273  -5.068  -0.365  0.00  0.00     0.113 A 
ATOM     16  C   UNL d   1      -3.792  -4.428  -1.513  0.00  0.00     0.041 A 
ATOM     17  C   UNL d   1      -2.987  -3.287  -1.397  0.00  0.00     0.017 A 
BRANCH  14  18
ATOM     18  O   UNL d   1      -4.551  -5.173   2.023  0.00  0.00    -0.276 OA
BRANCH  18  19
ATOM     19  C   UNL d   1      -4.822  -4.524   3.225  0.00  0.00     0.260 C 
ATOM     20  O   UNL d   1      -4.700  -3.329   3.454  0.00  0.00    -0.265 OA
ATOM     21  C   UNL d   1      -5.358  -5.515   4.215  0.00  0.00     0.126 C 
ENDBRANCH  18  19
ENDBRANCH  14  18
BRANCH  15  22
ATOM     22  O   UNL d   1      -5.124  -6.174  -0.599  0.00  0.00    -0.276 OA
BRANCH  22  23
ATOM     23  C   UNL d   1      -5.027  -7.375   0.111  0.00  0.00     0.260 C 
ATOM     24  O   UNL d   1      -4.283  -7.623   1.049  0.00  0.00    -0.265 OA
ATOM     25  C   UNL d   1      -6.010  -8.362  -0.457  0.00  0.00     0.126 C 
ENDBRANCH  22  23
ENDBRANCH  15  22
ENDBRANCH   2  12
BRANCH   1  26
ATOM     26  O   UNL d   1      -3.738  -0.160   0.297  0.00  0.00    -0.272 OA
BRANCH  26  27
ATOM     27  C   UNL d   1      -4.196   0.770  -0.600  0.00  0.00     0.260 C 
ATOM     28  O   UNL d   1      -3.535   1.354  -1.450  0.00  0.00    -0.265 OA
ATOM     29  C   UNL d   1      -5.679   0.947  -0.440  0.00  0.00     0.126 C 
ENDBRANCH  26  27
ENDBRANCH   1  26
BRANCH   7  30
ATOM     30  O   UNL d   1       0.587   2.893   0.454  0.00  0.00    -0.278 OA
BRANCH  30  31
ATOM     31  C   UNL d   1       1.175   3.874  -0.341  0.00  0.00     0.260 C 
ATOM     32  O   UNL d   1       1.633   3.719  -1.472  0.00  0.00    -0.265 OA
ATOM     33  C   UNL d   1       1.229   5.151   0.437  0.00  0.00     0.126 C 
ENDBRANCH  30  31
ENDBRANCH   7  30
BRANCH  10  34
ATOM     34  O   UNL d   1       4.093  -0.419  -0.103  0.00  0.00    -0.279 OA
BRANCH  34  35
ATOM     35  C   UNL d   1       5.077   0.359   0.525  0.00  0.00     0.260 C 
ATOM     36  O   UNL d   1       4.906   1.368   1.189  0.00  0.00    -0.265 OA
ATOM     37  C   UNL d   1       6.431  -0.240   0.283  0.00  0.00     0.126 C 
ENDBRANCH  34  35
ENDBRANCH  10  34
TORSDOF 11
