REMARK  4 active torsions:
REMARK  status: ('A' for Active; 'I' for Inactive)
REMARK    1  A    between atoms: C_6  and  C_3 
REMARK    2  A    between atoms: O_10  and  C_9 
REMARK    3  A    between atoms: C_11  and  O_10 
REMARK    4  A    between atoms: C_16  and  C_11 
ROOT
ATOM      1  C   UNL d   1       1.281  -2.849  -0.350  0.00  0.00    -0.006 C 
ATOM      2  C   UNL d   1       1.604  -5.662  -0.311  0.00  0.00     0.091 C 
ATOM      3  C   UNL d   1       2.441  -4.843   0.471  0.00  0.00    -0.027 C 
ATOM      4  C   UNL d   1       0.718  -5.080  -1.230  0.00  0.00    -0.027 C 
ATOM      5  C   UNL d   1       2.236  -3.453   0.477  0.00  0.00     0.023 C 
ATOM      6  C   UNL d   1       0.589  -3.668  -1.251  0.00  0.00     0.023 C 
ATOM      7  C   UNL d   1      -0.073  -5.854  -2.246  0.00  0.00     0.051 C 
ATOM      8  C   UNL d   1       3.572  -5.403   1.287  0.00  0.00     0.051 C 
ENDROOT
BRANCH   1   9
ATOM      9  C   UNL d   1       1.140  -1.347  -0.269  0.00  0.00     0.070 A 
ATOM     10  N   UNL d   1       2.228  -0.697   0.040  0.00  0.00    -0.294 N 
ATOM     11  N   UNL d   1       2.219   0.664   0.153  0.00  0.00    -0.261 N 
ATOM     12  HN  UNL d   1       3.095  -1.210   0.200  1.00  0.00     0.187 HD
ATOM     13  C   UNL d   1       1.115   1.467  -0.095  0.00  0.00     0.272 A 
ATOM     14  C   UNL d   1       3.459   1.294   0.566  0.00  0.00     0.181 C 
ATOM     15  C   UNL d   1      -0.125   0.762  -0.462  0.00  0.00     0.046 A 
ATOM     16  O   UNL d   1       1.120   2.692  -0.002  0.00  0.00    -0.266 OA
ATOM     17  C   UNL d   1      -1.283   1.514  -0.721  0.00  0.00     0.018 A 
ATOM     18  C   UNL d   1      -0.151  -0.634  -0.495  0.00  0.00     0.009 A 
ATOM     19  C   UNL d   1      -2.484   0.871  -1.002  0.00  0.00     0.001 A 
ATOM     20  C   UNL d   1      -2.536  -0.518  -0.979  0.00  0.00     0.001 A 
ATOM     21  C   UNL d   1      -1.385  -1.266  -0.701  0.00  0.00     0.015 A 
ENDBRANCH   1   9
BRANCH   2  22
ATOM     22  O   UNL d   1       1.816  -7.062  -0.179  0.00  0.00    -0.274 OA
BRANCH  22  23
ATOM     23  C   UNL d   1       0.779  -7.936   0.153  0.00  0.00     0.298 C 
ATOM     24  O   UNL d   1      -0.418  -7.730   0.057  0.00  0.00    -0.259 OA
BRANCH  23  25
ATOM     25  C   UNL d   1       1.336  -9.213   0.708  0.00  0.00     0.040 A 
ATOM     26  C   UNL d   1       0.534 -10.364   0.725  0.00  0.00     0.019 A 
ATOM     27  C   UNL d   1       0.961 -11.525   1.385  0.00  0.00     0.025 A 
ATOM     28  C   UNL d   1       2.194 -11.536   2.039  0.00  0.00     0.034 A 
ATOM     29  C   UNL d   1       3.015 -10.412   2.000  0.00  0.00     0.025 A 
ATOM     30 CL   UNL d   1       2.686 -12.926   2.925  0.00  0.00    -0.084 Cl
ATOM     31  C   UNL d   1       2.591  -9.255   1.332  0.00  0.00     0.019 A 
ENDBRANCH  23  25
ENDBRANCH  22  23
ENDBRANCH   2  22
TORSDOF 4
