REMARK  7 active torsions:
REMARK  status: ('A' for Active; 'I' for Inactive)
REMARK    1  A    between atoms: C_5  and  C_1 
REMARK    2  A    between atoms: O_19  and  C_5 
REMARK    3  A    between atoms: C_22  and  C_14 
REMARK    4  A    between atoms: C_17  and  O_21 
REMARK    5  A    between atoms: C_23  and  O_19 
REMARK    6  A    between atoms: O_21  and  C_22 
REMARK    7  A    between atoms: O_29  and  C_24 
ROOT
ATOM      1  C   UNL d   1       1.310   0.721  -0.122  0.00  0.00     0.116 A 
ATOM      2  N   UNL d   1       1.449  -0.633   0.188  0.00  0.00    -0.347 N 
ATOM      3  HN  UNL d   1       2.303  -1.065   0.539  1.00  0.00     0.166 HD
ATOM      4  C   UNL d   1       0.043   1.073  -0.558  0.00  0.00     0.087 A 
ATOM      5  C   UNL d   1       0.316  -1.273  -0.039  0.00  0.00     0.075 A 
ATOM      6  S   UNL d   1      -0.997  -0.284  -0.547  0.00  0.00    -0.084 SA
ENDROOT
BRANCH   5   7
ATOM      7  C   UNL d   1       0.155  -2.765   0.020  0.00  0.00     0.240 C 
BRANCH   7   8
ATOM      8  O   UNL d   1      -0.175  -3.128   1.363  0.00  0.00    -0.345 OA
BRANCH   8   9
ATOM      9  C   UNL d   1      -0.361  -4.475   1.585  0.00  0.00     0.071 A 
ATOM     10  C   UNL d   1      -1.237  -4.762   2.651  0.00  0.00     0.070 A 
ATOM     11  C   UNL d   1      -1.433  -6.134   2.908  0.00  0.00     0.087 A 
ATOM     12  N   UNL d   1      -2.202  -6.724   3.828  0.00  0.00    -0.239 N 
ATOM     13  C   UNL d   1      -0.765  -7.171   2.138  0.00  0.00     0.085 A 
ATOM     14  O   UNL d   1      -2.026  -8.088   3.648  0.00  0.00    -0.156 OA
ATOM     15  HN  UNL d   1      -2.795  -6.266   4.520  1.00  0.00     0.197 HD
ATOM     16  N   UNL d   1      -1.149  -8.363   2.613  0.00  0.00    -0.240 N 
ATOM     17  HN  UNL d   1      -0.856  -9.282   2.282  1.00  0.00     0.197 HD
ATOM     18  C   UNL d   1       0.120  -6.877   1.090  0.00  0.00     0.036 A 
ATOM     19  C   UNL d   1       0.301  -5.497   0.845  0.00  0.00     0.039 A 
ENDBRANCH   8   9
ENDBRANCH   7   8
ENDBRANCH   5   7
BRANCH   1  20
ATOM     20  C   UNL d   1       2.401   1.691  -0.012  0.00  0.00     0.315 C 
ATOM     21  O   UNL d   1       2.409   2.739  -0.652  0.00  0.00    -0.257 OA
BRANCH  20  22
ATOM     22  O   UNL d   1       3.359   1.312   0.931  0.00  0.00    -0.274 OA
BRANCH  22  23
ATOM     23  C   UNL d   1       4.277   2.286   1.366  0.00  0.00     0.079 A 
ATOM     24  C   UNL d   1       3.891   3.596   1.653  0.00  0.00     0.040 A 
ATOM     25  C   UNL d   1       4.834   4.520   2.110  0.00  0.00     0.039 A 
ATOM     26  C   UNL d   1       6.159   4.130   2.307  0.00  0.00     0.068 A 
ATOM     27  C   UNL d   1       6.524   2.800   2.067  0.00  0.00     0.039 A 
ATOM     28  C   UNL d   1       5.586   1.874   1.599  0.00  0.00     0.040 A 
BRANCH  26  29
ATOM     29  O   UNL d   1       7.173   4.942   2.736  0.00  0.00    -0.356 OA
ATOM     30  C   UNL d   1       6.872   6.328   2.860  0.00  0.00     0.210 C 
ENDBRANCH  26  29
ENDBRANCH  22  23
ENDBRANCH  20  22
ENDBRANCH   1  20
TORSDOF 7
