REMARK  5 active torsions:
REMARK  status: ('A' for Active; 'I' for Inactive)
REMARK    1  A    between atoms: N_3  and  S_1 
REMARK    2  A    between atoms: C_4  and  S_1 
REMARK    3  A    between atoms: C_2  and  C_8 
REMARK    4  A    between atoms: C_22  and  N_3 
REMARK    5  A    between atoms: C_23  and  C_22 
ROOT
ATOM      1  S   UNL d   1       1.103   0.117   0.024  0.00  0.00     0.241 S 
ATOM      2  O   UNL d   1       2.425   0.339  -0.521  0.00  0.00    -0.206 OA
ATOM      3  O   UNL d   1       0.795   0.341   1.411  0.00  0.00    -0.206 OA
ENDROOT
BRANCH   1   4
ATOM      4  N   UNL d   1       0.613  -1.449  -0.343  0.00  0.00    -0.211 NA
ATOM      5  H   UNL d   1      -0.390  -1.588  -0.218  0.00  0.00     0.140 HD
BRANCH   4   6
ATOM      6  C   UNL d   1       1.144  -2.036  -1.575  0.00  0.00     0.143 C 
BRANCH   6   7
ATOM      7  C   UNL d   1       0.855  -3.517  -1.650  0.00  0.00    -0.042 A 
ATOM      8  C   UNL d   1       1.210  -4.342  -0.568  0.00  0.00     0.048 A 
ATOM      9  C   UNL d   1       1.141  -5.703  -0.746  0.00  0.00     0.105 A 
ATOM     10  O   UNL d   1       1.564  -6.642   0.143  0.00  0.00    -0.323 OA
ATOM     11  C   UNL d   1       0.697  -6.261  -1.923  0.00  0.00     0.105 A 
ATOM     12  C   UNL d   1       1.597  -7.796  -0.720  0.00  0.00     0.352 C 
ATOM     13  O   UNL d   1       0.810  -7.618  -1.917  0.00  0.00    -0.323 OA
ATOM     14  C   UNL d   1       0.262  -5.487  -2.976  0.00  0.00     0.040 A 
ATOM     15  C   UNL d   1       0.357  -4.097  -2.840  0.00  0.00     0.011 A 
ENDBRANCH   6   7
ENDBRANCH   4   6
ENDBRANCH   1   4
BRANCH   1  16
ATOM     16  C   UNL d   1      -0.048   1.089  -0.928  0.00  0.00     0.074 A 
ATOM     17  C   UNL d   1      -1.236   1.517  -0.324  0.00  0.00     0.025 A 
ATOM     18  C   UNL d   1      -2.106   2.349  -1.030  0.00  0.00     0.018 A 
ATOM     19  C   UNL d   1      -1.793   2.763  -2.335  0.00  0.00     0.048 A 
ATOM     20  C   UNL d   1      -0.598   2.315  -2.928  0.00  0.00     0.018 A 
ATOM     21  C   UNL d   1       0.278   1.486  -2.225  0.00  0.00     0.025 A 
BRANCH  19  22
ATOM     22  C   UNL d   1      -2.701   3.702  -3.094  0.00  0.00     0.417 C 
ATOM     23  F   UNL d   1      -3.820   4.054  -2.404  0.00  0.00    -0.166 F 
ATOM     24  F   UNL d   1      -2.080   4.868  -3.423  0.00  0.00    -0.166 F 
ATOM     25  F   UNL d   1      -3.137   3.165  -4.266  0.00  0.00    -0.166 F 
ENDBRANCH  19  22
ENDBRANCH   1  16
TORSDOF 5
