REMARK  6 active torsions:
REMARK  status: ('A' for Active; 'I' for Inactive)
REMARK    1  A    between atoms: O_11  and  C_3 
REMARK    2  A    between atoms: C_14  and  C_4 
REMARK    3  A    between atoms: O_27  and  C_5 
REMARK    4  A    between atoms: C_8  and  C_12 
REMARK    5  A    between atoms: C_9  and  C_13 
REMARK    6  A    between atoms: C_16  and  O_11 
ROOT
ATOM      1  N   UNL d   1      -0.663   1.139  -0.172  0.00  0.00    -0.320 N 
ATOM      2  HN  UNL d   1      -1.127   2.037  -0.310  1.00  0.00     0.169 HD
ATOM      3  C   UNL d   1       1.371  -0.173  -0.004  0.00  0.00     0.148 A 
ATOM      4  C   UNL d   1      -1.347   0.002   0.013  0.00  0.00     0.117 A 
ATOM      5  C   UNL d   1       0.674   1.015  -0.164  0.00  0.00     0.178 A 
ATOM      6  N   UNL d   1      -0.772  -1.198   0.216  0.00  0.00    -0.343 N 
ATOM      7  HN  UNL d   1      -1.344  -2.031   0.352  1.00  0.00     0.167 HD
ATOM      8  C   UNL d   1       0.582  -1.280   0.238  0.00  0.00     0.045 A 
ATOM      9  C   UNL d   1       1.080  -2.660   0.529  0.00  0.00     0.071 C 
ENDROOT
BRANCH   3  10
ATOM     10  O   UNL d   1       2.740  -0.066   0.002  0.00  0.00    -0.304 OA
BRANCH  10  11
ATOM     11  C   UNL d   1       3.528  -1.042  -0.555  0.00  0.00     0.077 A 
ATOM     12  C   UNL d   1       3.146  -1.857  -1.622  0.00  0.00     0.053 A 
ATOM     13  C   UNL d   1       3.951  -2.943  -2.002  0.00  0.00     0.050 A 
ATOM     14  C   UNL d   1       5.206  -3.108  -1.393  0.00  0.00     0.016 A 
ATOM     15  C   UNL d   1       5.636  -2.219  -0.408  0.00  0.00     0.004 A 
ATOM     16  C   UNL d   1       4.792  -1.194   0.017  0.00  0.00     0.037 A 
BRANCH  13  17
ATOM     17  C   UNL d   1       3.452  -3.966  -2.993  0.00  0.00     0.417 C 
ATOM     18  F   UNL d   1       2.188  -3.717  -3.436  0.00  0.00    -0.166 F 
ATOM     19  F   UNL d   1       4.232  -4.051  -4.103  0.00  0.00    -0.166 F 
ATOM     20  F   UNL d   1       3.415  -5.218  -2.459  0.00  0.00    -0.166 F 
ENDBRANCH  13  17
ENDBRANCH  10  11
ENDBRANCH   3  10
BRANCH   5  21
ATOM     21  O   UNL d   1       1.344   2.206  -0.311  0.00  0.00    -0.344 OA
ATOM     22  H   UNL d   1       2.287   2.000  -0.205  0.00  0.00     0.219 HD
ENDBRANCH   5  21
BRANCH   4  23
ATOM     23  C   UNL d   1      -2.820   0.060   0.061  0.00  0.00     0.008 A 
ATOM     24  C   UNL d   1      -3.520   1.274  -0.068  0.00  0.00     0.016 A 
ATOM     25  C   UNL d   1      -4.916   1.328   0.032  0.00  0.00     0.017 A 
ATOM     26  C   UNL d   1      -5.659   0.163   0.262  0.00  0.00     0.048 A 
ATOM     27  C   UNL d   1      -4.980  -1.057   0.363  0.00  0.00     0.017 A 
ATOM     28  C   UNL d   1      -3.587  -1.104   0.263  0.00  0.00     0.016 A 
BRANCH  26  29
ATOM     29  C   UNL d   1      -7.160   0.201   0.415  0.00  0.00     0.417 C 
ATOM     30  F   UNL d   1      -7.687   1.453   0.329  0.00  0.00    -0.166 F 
ATOM     31  F   UNL d   1      -7.800  -0.541  -0.529  0.00  0.00    -0.166 F 
ATOM     32  F   UNL d   1      -7.569  -0.293   1.618  0.00  0.00    -0.166 F 
ENDBRANCH  26  29
ENDBRANCH   4  23
TORSDOF 6
