REMARK  2 active torsions:
REMARK  status: ('A' for Active; 'I' for Inactive)
REMARK    1  A    between atoms: N_2  and  S_1 
REMARK    2  A    between atoms: C_3  and  S_1 
ROOT
ATOM      1  N   UNL d   1       0.072   0.762   1.261  0.00  0.00    -0.297 N 
ATOM      2  C   UNL d   1      -0.331   2.707   2.655  0.00  0.00    -0.021 A 
ATOM      3  C   UNL d   1       0.056   2.250   1.265  0.00  0.00     0.126 C 
ATOM      4  C   UNL d   1      -0.968   1.877   3.561  0.00  0.00    -0.008 A 
ATOM      5  C   UNL d   1      -1.128   0.096   1.824  0.00  0.00     0.141 C 
ATOM      6  S   UNL d   1      -1.372   2.662   5.013  0.00  0.00    -0.106 SA
ATOM      7  C   UNL d   1      -1.260   0.428   3.321  0.00  0.00     0.067 C 
ATOM      8  C   UNL d   1      -0.154   4.018   3.201  0.00  0.00     0.017 A 
ATOM      9  C   UNL d   1      -0.693   4.134   4.464  0.00  0.00     0.051 A 
ATOM     10  C   UNL d   1      -0.931   2.819   0.243  0.00  0.00     0.038 C 
ENDROOT
BRANCH   1  11
ATOM     11  S   UNL d   1       0.992  -0.031   0.101  0.00  0.00     0.268 S 
ATOM     12  O   UNL d   1       0.807   0.621  -1.175  0.00  0.00    -0.200 OA
ATOM     13  O   UNL d   1       0.835  -1.462   0.249  0.00  0.00    -0.200 OA
BRANCH  11  14
ATOM     14  C   UNL d   1       2.697   0.284   0.506  0.00  0.00     0.121 A 
ATOM     15  S   UNL d   1       3.178  -0.146   2.094  0.00  0.00    -0.064 SA
ATOM     16  C   UNL d   1       4.732   0.470   1.836  0.00  0.00     0.075 A 
ATOM     17 CL   UNL d   1       5.881   0.435   3.111  0.00  0.00    -0.076 Cl
ATOM     18  C   UNL d   1       4.924   0.970   0.575  0.00  0.00     0.033 A 
ATOM     19  C   UNL d   1       3.736   0.854  -0.208  0.00  0.00     0.035 A 
ENDBRANCH  11  14
ENDBRANCH   1  11
TORSDOF 2
