REMARK  7 active torsions:
REMARK  status: ('A' for Active; 'I' for Inactive)
REMARK    1  A    between atoms: C_4  and  C_1 
REMARK    2  A    between atoms: N_8  and  C_2 
REMARK       I    between atoms: C_3  and  N_9 
REMARK    3  A    between atoms: C_12  and  C_3 
REMARK    4  A    between atoms: O_22  and  C_4 
REMARK    5  A    between atoms: N_5  and  N_8 
REMARK    6  A    between atoms: N_9  and  C_17 
REMARK    7  A    between atoms: C_14  and  C_13 
ROOT
ATOM      1  N   UNL d   1       2.549   3.208  -0.095  0.00  0.00    -0.304 N 
ATOM      2  HN  UNL d   1       2.720   2.206  -0.188  1.00  0.00     0.186 HD
ATOM      3  C   UNL d   1       3.574   4.009  -0.044  0.00  0.00     0.032 C 
ATOM      4  C   UNL d   1       3.519   5.514   0.079  0.00  0.00     0.070 C 
ENDROOT
BRANCH   3   5
ATOM      5  C   UNL d   1       4.942   3.378  -0.134  0.00  0.00    -0.012 A 
ATOM      6  C   UNL d   1       5.103   2.192  -0.861  0.00  0.00     0.015 A 
ATOM      7  C   UNL d   1       6.346   1.538  -0.903  0.00  0.00     0.030 A 
ATOM      8  C   UNL d   1       7.442   2.035  -0.186  0.00  0.00     0.034 A 
ATOM      9  C   UNL d   1       7.288   3.245   0.493  0.00  0.00     0.030 A 
ATOM     10  C   UNL d   1       6.053   3.917   0.519  0.00  0.00     0.015 A 
BRANCH   8  11
ATOM     11  N   UNL d   1       8.622   1.251  -0.158  0.00  0.00    -0.325 N 
ATOM     12  C   UNL d   1       9.767   1.480   0.607  0.00  0.00     0.255 C 
ATOM     13  O   UNL d   1       9.931   2.469   1.322  0.00  0.00    -0.270 OA
ATOM     14  H   UNL d   1       8.603   0.381  -0.685  0.00  0.00     0.169 HD
BRANCH  12  15
ATOM     15  C   UNL d   1      10.846   0.387   0.568  0.00  0.00     0.270 C 
ATOM     16 CL   UNL d   1      10.408  -0.997  -0.461  0.00  0.00    -0.098 Cl
ATOM     17 CL   UNL d   1      12.375   1.097   0.004  0.00  0.00    -0.098 Cl
ENDBRANCH  12  15
ENDBRANCH   8  11
ENDBRANCH   3   5
BRANCH   1  18
ATOM     18  N   UNL d   1       1.256   3.643  -0.030  0.00  0.00    -0.299 N 
ATOM     19  H   UNL d   1       1.045   4.634   0.078  0.00  0.00     0.187 HD
BRANCH  18  20
ATOM     20  C   UNL d   1       0.220   2.753  -0.108  0.00  0.00     0.071 A 
ATOM     21  C   UNL d   1      -1.139   3.048  -0.082  0.00  0.00     0.108 A 
ATOM     22  S   UNL d   1      -2.083   1.601  -0.204  0.00  0.00    -0.094 SA
ATOM     23  C   UNL d   1      -0.708   0.610  -0.310  0.00  0.00     0.053 A 
ATOM     24  C   UNL d   1       0.450   1.344  -0.241  0.00  0.00     0.039 A 
BRANCH  21  25
ATOM     25  C   UNL d   1      -1.888   4.288   0.018  0.00  0.00     0.302 C 
ATOM     26  O   UNL d   1      -3.113   4.393   0.009  0.00  0.00    -0.259 OA
BRANCH  25  27
ATOM     27  O   UNL d   1      -1.054   5.370   0.114  0.00  0.00    -0.322 OA
ATOM     28  C   UNL d   1      -1.764   6.612   0.184  0.00  0.00     0.213 C 
ENDBRANCH  25  27
ENDBRANCH  21  25
ENDBRANCH  18  20
ENDBRANCH   1  18
TORSDOF 7
