REMARK  4 active torsions:
REMARK  status: ('A' for Active; 'I' for Inactive)
REMARK       I    between atoms: N_2  and  C_1 
REMARK    1  A    between atoms: C_4  and  C_1 
REMARK       I    between atoms: C_3  and  N_2 
REMARK       I    between atoms: N_6  and  C_3 
REMARK    2  A    between atoms: C_5  and  C_7 
REMARK    3  A    between atoms: O_14  and  C_5 
REMARK    4  A    between atoms: C_12  and  N_6 
ROOT
ATOM      1  C   UNL d   1       0.932   2.944   3.889  0.00  0.00     0.261 C 
ATOM      2  N   UNL d   1       0.402   2.377   2.750  0.00  0.00    -0.275 N 
ATOM      3  C   UNL d   1       1.012   1.710   1.723  0.00  0.00     0.327 C 
ATOM      4  N   UNL d   1       2.379   1.615   1.782  0.00  0.00    -0.309 N 
ATOM      5  O   UNL d   1       2.124   2.882   4.179  0.00  0.00    -0.267 OA
ATOM      6  O   UNL d   1       0.274   1.242   0.859  0.00  0.00    -0.247 OA
ATOM      7  H   UNL d   1      -0.597   2.423   2.599  0.00  0.00     0.173 HD
ATOM      8  H   UNL d   1       2.799   1.897   2.666  0.00  0.00     0.170 HD
ENDROOT
BRANCH   4   9
ATOM      9  C   UNL d   1       3.193   0.965   0.833  0.00  0.00     0.037 A 
ATOM     10  C   UNL d   1       2.726   0.644  -0.442  0.00  0.00     0.047 A 
ATOM     11  C   UNL d   1       3.490  -0.129  -1.320  0.00  0.00     0.041 A 
ATOM     12  C   UNL d   1       4.777  -0.524  -0.943  0.00  0.00     0.018 A 
ATOM     13  C   UNL d   1       5.284  -0.143   0.302  0.00  0.00     0.003 A 
ATOM     14  C   UNL d   1       4.494   0.601   1.188  0.00  0.00     0.029 A 
BRANCH  11  15
ATOM     15  C   UNL d   1       2.925  -0.589  -2.618  0.00  0.00     0.293 C 
ATOM     16  O   UNL d   1       3.545  -1.240  -3.438  0.00  0.00    -0.259 OA
BRANCH  15  17
ATOM     17  O   UNL d   1       1.621  -0.229  -2.705  0.00  0.00    -0.323 OA
ATOM     18  C   UNL d   1       0.909  -0.755  -3.822  0.00  0.00     0.213 C 
ENDBRANCH  15  17
ENDBRANCH  11  15
ENDBRANCH   4   9
BRANCH   1  19
ATOM     19  C   UNL d   1      -0.050   3.568   4.827  0.00  0.00     0.054 A 
ATOM     20  C   UNL d   1      -1.288   4.119   4.454  0.00  0.00     0.049 A 
ATOM     21 CL   UNL d   1      -1.821   4.277   2.815  0.00  0.00    -0.083 Cl
ATOM     22  C   UNL d   1      -2.164   4.604   5.431  0.00  0.00     0.025 A 
ATOM     23  C   UNL d   1      -1.810   4.565   6.779  0.00  0.00     0.002 A 
ATOM     24  C   UNL d   1      -0.573   4.051   7.155  0.00  0.00     0.001 A 
ATOM     25  C   UNL d   1       0.303   3.557   6.187  0.00  0.00     0.019 A 
ENDBRANCH   1  19
TORSDOF 4
