REMARK  5 active torsions:
REMARK  status: ('A' for Active; 'I' for Inactive)
REMARK    1  A    between atoms: C_7  and  C_1 
REMARK    2  A    between atoms: C_9  and  C_4 
REMARK    3  A    between atoms: C_5  and  C_9 
REMARK    4  A    between atoms: O_13  and  C_7 
REMARK    5  A    between atoms: C_19  and  O_13 
ROOT
ATOM      1  C   UNL d   1       1.315   0.824  -0.100  0.00  0.00     0.115 A 
ATOM      2  N   UNL d   1       1.429  -0.568  -0.117  0.00  0.00    -0.348 N 
ATOM      3  HN  UNL d   1       2.310  -1.076  -0.189  1.00  0.00     0.166 HD
ATOM      4  C   UNL d   1       0.242  -1.133  -0.028  0.00  0.00     0.055 A 
ATOM      5  C   UNL d   1       0.009   1.281   0.015  0.00  0.00     0.087 A 
ATOM      6  S   UNL d   1      -1.077  -0.037   0.096  0.00  0.00    -0.086 SA
ENDROOT
BRANCH   4   7
ATOM      7  C   UNL d   1       0.018  -2.620   0.039  0.00  0.00     0.107 C 
BRANCH   7   8
ATOM      8  C   UNL d   1      -0.165  -3.293  -1.309  0.00  0.00    -0.009 A 
ATOM      9  C   UNL d   1       0.943  -3.751  -2.053  0.00  0.00     0.042 A 
ATOM     10 CL   UNL d   1       2.571  -3.552  -1.510  0.00  0.00    -0.084 Cl
ATOM     11  C   UNL d   1       0.770  -4.409  -3.279  0.00  0.00     0.024 A 
ATOM     12  C   UNL d   1      -0.507  -4.620  -3.793  0.00  0.00     0.003 A 
ATOM     13  C   UNL d   1      -1.610  -4.163  -3.085  0.00  0.00     0.024 A 
ATOM     14  C   UNL d   1      -1.444  -3.507  -1.858  0.00  0.00     0.042 A 
ATOM     15 CL   UNL d   1      -2.895  -3.009  -1.055  0.00  0.00    -0.084 Cl
ENDBRANCH   7   8
ENDBRANCH   4   7
BRANCH   1  16
ATOM     16  C   UNL d   1       2.467   1.719  -0.236  0.00  0.00     0.310 C 
ATOM     17  O   UNL d   1       2.364   2.941  -0.281  0.00  0.00    -0.258 OA
BRANCH  16  18
ATOM     18  O   UNL d   1       3.640   1.034  -0.368  0.00  0.00    -0.317 OA
BRANCH  18  19
ATOM     19  C   UNL d   1       4.758   1.800  -0.822  0.00  0.00     0.175 C 
ATOM     20  C   UNL d   1       4.750   1.813  -2.341  0.00  0.00     0.034 C 
ENDBRANCH  18  19
ENDBRANCH  16  18
ENDBRANCH   1  16
TORSDOF 5
