REMARK  5 active torsions:
REMARK  status: ('A' for Active; 'I' for Inactive)
REMARK    1  A    between atoms: C_12  and  N_1 
REMARK    2  A    between atoms: N_6  and  C_8 
REMARK    3  A    between atoms: C_7  and  N_9 
REMARK       I    between atoms: N_9  and  C_10 
REMARK    4  A    between atoms: C_10  and  C_11 
REMARK    5  A    between atoms: C_11  and  C_12 
ROOT
ATOM      1  N   UNL d   1       3.151  -4.938  -0.109  0.00  0.00    -0.325 N 
ATOM      2  C   UNL d   1       4.111  -3.944  -0.174  0.00  0.00     0.223 C 
ATOM      3  O   UNL d   1       5.323  -4.140  -0.257  0.00  0.00    -0.273 OA
ATOM      4  H   UNL d   1       2.257  -4.732   0.319  0.00  0.00     0.169 HD
ENDROOT
BRANCH   1   5
ATOM      5  C   UNL d   1       3.456  -6.319  -0.205  0.00  0.00     0.061 A 
ATOM      6  C   UNL d   1       2.776  -7.253   0.624  0.00  0.00     0.057 A 
ATOM      7  C   UNL d   1       3.019  -8.615   0.355  0.00  0.00     0.031 A 
ATOM      8  C   UNL d   1       3.865  -9.036  -0.676  0.00  0.00     0.002 A 
ATOM      9  C   UNL d   1       4.539  -8.101  -1.454  0.00  0.00     0.002 A 
ATOM     10  C   UNL d   1       4.344  -6.745  -1.207  0.00  0.00     0.032 A 
BRANCH   6  11
ATOM     11  N   UNL d   1       1.911  -6.852   1.650  0.00  0.00    -0.375 N 
ATOM     12  C   UNL d   1       0.894  -7.773   2.203  0.00  0.00     0.149 C 
ATOM     13  C   UNL d   1       1.298  -8.278   3.595  0.00  0.00     0.187 C 
ATOM     14  O   UNL d   1       1.487  -7.174   4.493  0.00  0.00    -0.388 OA
ATOM     15  C   UNL d   1       2.568  -6.356   4.031  0.00  0.00     0.187 C 
ATOM     16  C   UNL d   1       2.334  -5.806   2.614  0.00  0.00     0.149 C 
ENDBRANCH   6  11
ENDBRANCH   1   5
BRANCH   2  17
ATOM     17  C   UNL d   1       3.544  -2.549  -0.041  0.00  0.00     0.123 C 
BRANCH  17  18
ATOM     18  C   UNL d   1       4.626  -1.518  -0.359  0.00  0.00     0.138 C 
BRANCH  18  19
ATOM     19  N   UNL d   1       4.139  -0.152  -0.241  0.00  0.00    -0.355 N 
ATOM     20  C   UNL d   1       3.668   0.590  -1.293  0.00  0.00     0.099 A 
ATOM     21  C   UNL d   1       3.254   1.815  -0.810  0.00  0.00    -0.034 A 
ATOM     22  C   UNL d   1       2.683   2.935  -1.603  0.00  0.00     0.050 C 
ATOM     23  C   UNL d   1       3.499   1.810   0.599  0.00  0.00    -0.002 A 
ATOM     24  C   UNL d   1       4.091   0.585   0.923  0.00  0.00     0.045 A 
ATOM     25  C   UNL d   1       3.282   2.750   1.629  0.00  0.00     0.014 A 
ATOM     26  C   UNL d   1       4.511   0.284   2.229  0.00  0.00     0.030 A 
ATOM     27  C   UNL d   1       4.291   1.237   3.229  0.00  0.00     0.002 A 
ATOM     28  C   UNL d   1       3.671   2.448   2.937  0.00  0.00     0.001 A 
ENDBRANCH  18  19
ENDBRANCH  17  18
ENDBRANCH   2  17
TORSDOF 5
