REMARK  3 active torsions:
REMARK  status: ('A' for Active; 'I' for Inactive)
REMARK    1  A    between atoms: C_3  and  C_6 
REMARK    2  A    between atoms: N_14  and  C_3 
REMARK    3  A    between atoms: O_15  and  N_10 
ROOT
ATOM      1  O   UNL d   1       8.557  -3.190  -0.485  0.00  0.00    -0.336 OA
ATOM      2  C   UNL d   1       7.927  -0.845  -0.608  0.00  0.00    -0.002 A 
ATOM      3  C   UNL d   1       7.611  -2.200  -0.461  0.00  0.00     0.080 A 
ATOM      4  C   UNL d   1       9.314  -0.460  -0.840  0.00  0.00     0.013 C 
ATOM      5  C   UNL d   1       5.578  -0.295  -0.357  0.00  0.00     0.005 A 
ATOM      6  C   UNL d   1       9.909  -2.788  -0.163  0.00  0.00     0.078 C 
ATOM      7  C   UNL d   1       6.907   0.109  -0.549  0.00  0.00     0.029 A 
ATOM      8  C   UNL d   1      10.253  -1.389  -0.631  0.00  0.00     0.011 C 
ATOM      9  C   UNL d   1       6.288  -2.609  -0.301  0.00  0.00     0.038 A 
ATOM     10  C   UNL d   1       5.271  -1.658  -0.242  0.00  0.00     0.017 A 
ATOM     11  C   UNL d   1      10.087  -2.892   1.360  0.00  0.00     0.051 C 
ATOM     12  C   UNL d   1      10.821  -3.810  -0.850  0.00  0.00     0.051 C 
ENDROOT
BRANCH   5  13
ATOM     13  C   UNL d   1       4.492   0.727  -0.262  0.00  0.00     0.108 C 
ATOM     14  N   UNL d   1       4.805   1.937   0.106  0.00  0.00    -0.258 N 
ATOM     15  HN  UNL d   1       5.749   2.244   0.339  1.00  0.00     0.195 HD
BRANCH  14  16
ATOM     16  O   UNL d   1       3.668   2.763   0.139  0.00  0.00    -0.289 OA
ATOM     17  H   UNL d   1       4.019   3.569   0.559  0.00  0.00     0.244 HD
ENDBRANCH  14  16
BRANCH  13  18
ATOM     18  N   UNL d   1       3.201   0.363  -0.568  0.00  0.00    -0.287 NA
ATOM     19  H   UNL d   1       3.103  -0.268  -1.353  0.00  0.00     0.125 HD
ATOM     20  H   UNL d   1       2.629   1.199  -0.669  0.00  0.00     0.125 HD
ENDBRANCH  13  18
ENDBRANCH   5  13
TORSDOF 3
