REMARK  3 active torsions:
REMARK  status: ('A' for Active; 'I' for Inactive)
REMARK    1  A    between atoms: C_2  and  C_1 
REMARK       I    between atoms: N_4  and  C_1 
REMARK    2  A    between atoms: C_14  and  N_4 
REMARK    3  A    between atoms: C_12  and  C_14 
ROOT
ATOM      1  C   UNL d   1       0.864  -0.009  -0.010  0.00  0.00     0.251 C 
ATOM      2  N   UNL d   1       0.233  -0.973  -0.768  0.00  0.00    -0.353 N 
ATOM      3  O   UNL d   1       0.295   0.940   0.511  0.00  0.00    -0.268 OA
ATOM      4  H   UNL d   1       0.780  -1.641  -1.293  0.00  0.00     0.163 HD
ENDROOT
BRANCH   2   5
ATOM      5  C   UNL d   1      -1.200  -0.992  -0.967  0.00  0.00     0.161 C 
BRANCH   5   6
ATOM      6  C   UNL d   1      -1.798  -2.264  -0.421  0.00  0.00    -0.037 A 
ATOM      7  C   UNL d   1      -1.759  -2.526   0.959  0.00  0.00     0.032 A 
ATOM      8  C   UNL d   1      -2.326  -3.693   1.474  0.00  0.00     0.036 A 
ATOM      9 CL   UNL d   1      -2.265  -3.994   3.167  0.00  0.00    -0.084 Cl
ATOM     10  C   UNL d   1      -2.942  -4.615   0.633  0.00  0.00     0.047 A 
ATOM     11  C   UNL d   1      -2.985  -4.360  -0.735  0.00  0.00     0.036 A 
ATOM     12  C   UNL d   1      -2.418  -3.197  -1.265  0.00  0.00     0.032 A 
ATOM     13 CL   UNL d   1      -3.750  -5.488  -1.786  0.00  0.00    -0.084 Cl
ENDBRANCH   5   6
ENDBRANCH   2   5
BRANCH   1  14
ATOM     14  C   UNL d   1       2.337  -0.174   0.136  0.00  0.00     0.033 A 
ATOM     15  C   UNL d   1       2.917  -1.446   0.208  0.00  0.00     0.042 A 
ATOM     16  C   UNL d   1       4.306  -1.579   0.310  0.00  0.00     0.056 A 
ATOM     17 CL   UNL d   1       4.949  -3.181   0.391  0.00  0.00    -0.083 Cl
ATOM     18  C   UNL d   1       5.120  -0.440   0.344  0.00  0.00     0.055 A 
ATOM     19  C   UNL d   1       4.537   0.830   0.310  0.00  0.00     0.026 A 
ATOM     20 CL   UNL d   1       6.843  -0.537   0.419  0.00  0.00    -0.083 Cl
ATOM     21  C   UNL d   1       3.147   0.965   0.217  0.00  0.00     0.019 A 
ENDBRANCH   1  14
TORSDOF 3
