REMARK  3 active torsions:
REMARK  status: ('A' for Active; 'I' for Inactive)
REMARK    1  A    between atoms: C_6  and  C_1 
REMARK    2  A    between atoms: C_5  and  C_2 
REMARK    3  A    between atoms: C_12  and  C_6 
ROOT
ATOM      1  C   UNL d   1       0.006  -1.230  -0.062  0.00  0.00     0.076 A 
ATOM      2  C   UNL d   1      -1.344  -0.773   0.114  0.00  0.00     0.086 A 
ATOM      3  N   UNL d   1      -1.347   0.537   0.408  0.00  0.00    -0.259 N 
ATOM      4  HN  UNL d   1      -2.160   1.104   0.652  1.00  0.00     0.195 HD
ATOM      5  O   UNL d   1      -0.045   0.968   0.318  0.00  0.00    -0.241 OA
ATOM      6  C   UNL d   1       0.761  -0.077   0.014  0.00  0.00     0.089 A 
ATOM      7  C   UNL d   1       2.190   0.256  -0.172  0.00  0.00     0.080 C 
ENDROOT
BRANCH   1   8
ATOM      8  C   UNL d   1       0.480  -2.571  -0.352  0.00  0.00     0.197 C 
ATOM      9  O   UNL d   1      -0.107  -3.293  -1.156  0.00  0.00    -0.286 OA
BRANCH   8  10
ATOM     10  C   UNL d   1       1.706  -3.092   0.332  0.00  0.00     0.015 A 
ATOM     11  C   UNL d   1       2.408  -4.146  -0.270  0.00  0.00     0.015 A 
ATOM     12  C   UNL d   1       3.585  -4.631   0.306  0.00  0.00     0.001 A 
ATOM     13  C   UNL d   1       4.067  -4.071   1.487  0.00  0.00     0.000 A 
ATOM     14  C   UNL d   1       3.355  -3.052   2.116  0.00  0.00     0.001 A 
ATOM     15  C   UNL d   1       2.166  -2.578   1.554  0.00  0.00     0.015 A 
ENDBRANCH   8  10
ENDBRANCH   1   8
BRANCH   2  16
ATOM     16  C   UNL d   1      -2.598  -1.532   0.064  0.00  0.00     0.054 A 
ATOM     17  C   UNL d   1      -3.753  -1.067  -0.591  0.00  0.00     0.049 A 
ATOM     18 CL   UNL d   1      -3.831   0.441  -1.442  0.00  0.00    -0.083 Cl
ATOM     19  C   UNL d   1      -4.926  -1.841  -0.612  0.00  0.00     0.025 A 
ATOM     20  C   UNL d   1      -4.962  -3.093  -0.002  0.00  0.00     0.005 A 
ATOM     21  C   UNL d   1      -3.829  -3.564   0.651  0.00  0.00     0.043 A 
ATOM     22  C   UNL d   1      -2.674  -2.781   0.696  0.00  0.00     0.130 A 
ATOM     23  F   UNL d   1      -1.631  -3.259   1.392  0.00  0.00    -0.205 F 
ENDBRANCH   2  16
TORSDOF 3
