REMARK  7 active torsions:
REMARK  status: ('A' for Active; 'I' for Inactive)
REMARK    1  A    between atoms: S_8  and  C_2 
REMARK    2  A    between atoms: C_6  and  C_4 
REMARK    3  A    between atoms: O_12  and  C_6 
REMARK    4  A    between atoms: C_15  and  S_8 
REMARK    5  A    between atoms: C_16  and  O_12 
REMARK    6  A    between atoms: C_17  and  C_15 
REMARK    7  A    between atoms: C_18  and  C_17 
ROOT
ATOM      1  C   UNL d   1       0.525   0.675  -0.083  0.00  0.00     0.041 A 
ATOM      2  C   UNL d   1       1.894   0.879  -0.148  0.00  0.00     0.056 A 
ATOM      3  C   UNL d   1       0.190  -0.738  -0.049  0.00  0.00    -0.019 A 
ATOM      4  C   UNL d   1       1.318  -1.545  -0.015  0.00  0.00     0.088 A 
ATOM      5  S   UNL d   1       2.743  -0.604  -0.134  0.00  0.00    -0.076 SA
ATOM      6  C   UNL d   1      -0.523   1.703  -0.028  0.00  0.00     0.162 C 
ATOM      7  O   UNL d   1      -0.312   2.905  -0.171  0.00  0.00    -0.292 OA
ATOM      8  C   UNL d   1      -1.240  -1.211   0.018  0.00  0.00     0.042 C 
ATOM      9  C   UNL d   1      -1.928   1.207   0.286  0.00  0.00     0.084 C 
ATOM     10  C   UNL d   1      -2.217  -0.117  -0.417  0.00  0.00     0.012 C 
ENDROOT
BRANCH   2  11
ATOM     11  S   UNL d   1       2.778   2.409  -0.114  0.00  0.00    -0.122 SA
BRANCH  11  12
ATOM     12  C   UNL d   1       3.764   2.327  -1.645  0.00  0.00     0.080 C 
BRANCH  12  13
ATOM     13  C   UNL d   1       4.586   3.611  -1.809  0.00  0.00     0.010 C 
BRANCH  13  14
ATOM     14  C   UNL d   1       5.417   3.588  -3.096  0.00  0.00    -0.004 C 
ATOM     15  C   UNL d   1       6.236   4.860  -3.268  0.00  0.00     0.005 C 
ENDBRANCH  13  14
ENDBRANCH  12  13
ENDBRANCH  11  12
ENDBRANCH   2  11
BRANCH   4  16
ATOM     16  C   UNL d   1       1.379  -2.991   0.171  0.00  0.00     0.300 C 
ATOM     17  O   UNL d   1       0.410  -3.715   0.362  0.00  0.00    -0.259 OA
BRANCH  16  18
ATOM     18  O   UNL d   1       2.672  -3.422   0.215  0.00  0.00    -0.317 OA
BRANCH  18  19
ATOM     19  C   UNL d   1       2.901  -4.667   0.886  0.00  0.00     0.174 C 
ATOM     20  C   UNL d   1       3.000  -4.389   2.376  0.00  0.00     0.034 C 
ENDBRANCH  18  19
ENDBRANCH  16  18
ENDBRANCH   4  16
TORSDOF 7
