REMARK  5 active torsions:
REMARK  status: ('A' for Active; 'I' for Inactive)
REMARK    1  A    between atoms: C_4  and  C_1 
REMARK    2  A    between atoms: S_13  and  C_3 
REMARK    3  A    between atoms: N_10  and  C_7 
REMARK    4  A    between atoms: C_15  and  S_13 
REMARK    5  A    between atoms: C_14  and  C_20 
ROOT
ATOM      1  C   UNL d   1       0.013   1.109  -0.036  0.00  0.00     0.151 A 
ATOM      2  N   UNL d   1       0.847   0.028  -0.218  0.00  0.00    -0.314 N 
ATOM      3  C   UNL d   1       0.043  -1.076  -0.108  0.00  0.00     0.167 A 
ATOM      4  N   UNL d   1      -1.215   0.668   0.169  0.00  0.00    -0.281 N 
ATOM      5  HN  UNL d   1      -2.039   1.248   0.332  1.00  0.00     0.188 HD
ATOM      6  N   UNL d   1      -1.195  -0.705   0.124  0.00  0.00    -0.278 N 
ATOM      7  HN  UNL d   1      -1.996  -1.323   0.248  1.00  0.00     0.189 HD
ATOM      8  C   UNL d   1       2.272   0.050  -0.418  0.00  0.00     0.160 C 
ENDROOT
BRANCH   3   9
ATOM      9  S   UNL d   1       0.587  -2.721  -0.199  0.00  0.00    -0.050 SA
BRANCH   9  10
ATOM     10  C   UNL d   1       0.154  -3.082  -1.900  0.00  0.00     0.041 A 
ATOM     11  C   UNL d   1       1.055  -3.605  -2.840  0.00  0.00     0.120 A 
ATOM     12  C   UNL d   1       0.701  -3.825  -4.183  0.00  0.00     0.053 A 
ATOM     13  C   UNL d   1      -0.596  -3.528  -4.618  0.00  0.00     0.050 A 
ATOM     14  C   UNL d   1      -1.532  -3.082  -3.673  0.00  0.00     0.017 A 
ATOM     15  C   UNL d   1      -1.163  -2.871  -2.337  0.00  0.00     0.022 A 
BRANCH  11  16
ATOM     16  N   UNL d   1       2.409  -3.954  -2.461  0.00  0.00    -0.114 N 
ATOM     17  O   UNL d   1       3.175  -3.024  -2.177  0.00  0.00    -0.532 OA
ATOM     18  O   UNL d   1       2.712  -5.152  -2.508  0.00  0.00    -0.532 OA
ENDBRANCH  11  16
BRANCH  13  19
ATOM     19  C   UNL d   1      -0.993  -3.663  -6.070  0.00  0.00     0.417 C 
ATOM     20  F   UNL d   1       0.037  -4.043  -6.874  0.00  0.00    -0.166 F 
ATOM     21  F   UNL d   1      -1.981  -4.577  -6.262  0.00  0.00    -0.166 F 
ATOM     22  F   UNL d   1      -1.454  -2.490  -6.585  0.00  0.00    -0.166 F 
ENDBRANCH  13  19
ENDBRANCH   9  10
ENDBRANCH   3   9
BRANCH   1  23
ATOM     23  C   UNL d   1       0.372   2.560  -0.058  0.00  0.00     0.085 A 
ATOM     24  N   UNL d   1       1.643   3.008  -0.373  0.00  0.00    -0.351 N 
ATOM     25  C   UNL d   1       1.669   4.323  -0.377  0.00  0.00     0.047 A 
ATOM     26  HN  UNL d   1       2.442   2.406  -0.572  1.00  0.00     0.166 HD
ATOM     27  C   UNL d   1       2.864   5.135  -0.736  0.00  0.00     0.076 C 
ATOM     28  S   UNL d   1       0.198   5.093   0.063  0.00  0.00    -0.087 SA
ATOM     29  C   UNL d   1      -0.544   3.555   0.218  0.00  0.00     0.084 A 
ENDBRANCH   1  23
TORSDOF 5
