REMARK  6 active torsions:
REMARK  status: ('A' for Active; 'I' for Inactive)
REMARK    1  A    between atoms: C_7  and  S_1 
REMARK    2  A    between atoms: N_10  and  S_1 
REMARK    3  A    between atoms: C_2  and  C_9 
REMARK    4  A    between atoms: C_5  and  C_3 
REMARK    5  A    between atoms: C_8  and  C_11 
REMARK       I    between atoms: C_9  and  N_13 
REMARK    6  A    between atoms: N_13  and  N_10 
ROOT
ATOM      1  C   UNL d   1       0.554   0.990   3.842  0.00  0.00     0.277 C 
ATOM      2  N   UNL d   1       0.995   0.332   2.705  0.00  0.00    -0.256 N 
ATOM      3  O   UNL d   1      -0.159   1.991   3.751  0.00  0.00    -0.265 OA
ATOM      4  H   UNL d   1       1.659  -0.437   2.753  0.00  0.00     0.191 HD
ENDROOT
BRANCH   2   5
ATOM      5  N   UNL d   1       0.555   0.785   1.401  0.00  0.00    -0.220 N 
ATOM      6  H   UNL d   1      -0.124   1.554   1.314  0.00  0.00     0.200 HD
BRANCH   5   7
ATOM      7  S   UNL d   1       1.007  -0.014  -0.003  0.00  0.00     0.277 S 
ATOM      8  O   UNL d   1       0.377   0.593  -1.150  0.00  0.00    -0.199 OA
ATOM      9  O   UNL d   1       2.445  -0.190   0.074  0.00  0.00    -0.199 OA
BRANCH   7  10
ATOM     10  C   UNL d   1       0.265  -1.623   0.224  0.00  0.00     0.096 A 
ATOM     11  C   UNL d   1      -1.121  -1.804   0.372  0.00  0.00     0.071 A 
ATOM     12  C   UNL d   1      -1.593  -3.128   0.534  0.00  0.00     0.018 A 
ATOM     13  C   UNL d   1      -0.724  -4.221   0.555  0.00  0.00     0.001 A 
ATOM     14  C   UNL d   1       0.643  -4.020   0.413  0.00  0.00     0.002 A 
ATOM     15  C   UNL d   1       1.137  -2.729   0.245  0.00  0.00     0.026 A 
BRANCH  11  16
ATOM     16  C   UNL d   1      -2.164  -0.709   0.372  0.00  0.00     0.419 C 
ATOM     17  F   UNL d   1      -1.715   0.567   0.307  0.00  0.00    -0.166 F 
ATOM     18  F   UNL d   1      -3.046  -0.848  -0.655  0.00  0.00    -0.166 F 
ATOM     19  F   UNL d   1      -2.919  -0.754   1.509  0.00  0.00    -0.166 F 
ENDBRANCH  11  16
ENDBRANCH   7  10
ENDBRANCH   5   7
ENDBRANCH   2   5
BRANCH   1  20
ATOM     20  C   UNL d   1       0.967   0.431   5.125  0.00  0.00     0.077 A 
ATOM     21  S   UNL d   1       1.781  -1.070   5.281  0.00  0.00    -0.083 SA
ATOM     22  C   UNL d   1       1.829  -0.967   7.001  0.00  0.00     0.033 A 
ATOM     23  C   UNL d   1       2.371  -1.868   7.935  0.00  0.00     0.038 A 
ATOM     24  C   UNL d   1       1.224   0.206   7.445  0.00  0.00     0.050 A 
ATOM     25  C   UNL d   1       2.276  -1.537   9.293  0.00  0.00     0.064 A 
ATOM     26  C   UNL d   1       1.651  -0.347   9.632  0.00  0.00     0.104 A 
ATOM     27  N   UNL d   1       1.123   0.534   8.760  0.00  0.00    -0.364 N 
ATOM     28  HN  UNL d   1       0.674   1.397   9.069  1.00  0.00     0.165 HD
ATOM     29  C   UNL d   1       0.737   0.995   6.366  0.00  0.00     0.055 A 
BRANCH  25  30
ATOM     30  C   UNL d   1       2.825  -2.412  10.379  0.00  0.00     0.418 C 
ATOM     31  F   UNL d   1       3.414  -3.548   9.914  0.00  0.00    -0.166 F 
ATOM     32  F   UNL d   1       3.772  -1.781  11.127  0.00  0.00    -0.166 F 
ATOM     33  F   UNL d   1       1.868  -2.820  11.256  0.00  0.00    -0.166 F 
ENDBRANCH  25  30
ENDBRANCH   1  20
TORSDOF 6
