REMARK  4 active torsions:
REMARK  status: ('A' for Active; 'I' for Inactive)
REMARK       I    between atoms: C_3  and  N_9 
REMARK    1  A    between atoms: C_5  and  C_3 
REMARK    2  A    between atoms: C_4  and  C_6 
REMARK    3  A    between atoms: O_10  and  C_4 
REMARK    4  A    between atoms: N_9  and  C_11 
ROOT
ATOM      1  C   UNL d   1       0.612  -1.193  -1.204  0.00  0.00    -0.098 C 
ATOM      2  C   UNL d   1      -0.544  -0.931  -0.942  0.00  0.00     0.014 C 
ATOM      3  C   UNL d   1       2.002  -1.572  -1.584  0.00  0.00     0.216 C 
ENDROOT
BRANCH   3   4
ATOM      4  N   UNL d   1       3.015  -0.836  -0.848  0.00  0.00    -0.347 N 
ATOM      5  C   UNL d   1       4.355  -1.060  -1.071  0.00  0.00     0.242 C 
ATOM      6  O   UNL d   1       4.792  -1.869  -1.881  0.00  0.00    -0.269 OA
ATOM      7  H   UNL d   1       2.709  -0.155  -0.167  0.00  0.00     0.163 HD
BRANCH   5   8
ATOM      8  C   UNL d   1       5.269  -0.230  -0.241  0.00  0.00     0.080 C 
ATOM      9  C   UNL d   1       6.602  -0.362  -0.373  0.00  0.00     0.086 C 
BRANCH   9  10
ATOM     10  C   UNL d   1       7.499   0.464   0.454  0.00  0.00     0.165 C 
ATOM     11  O   UNL d   1       7.117   1.282   1.272  0.00  0.00    -0.647 OA
BRANCH  10  12
ATOM     12  O   UNL d   1       8.804   0.222   0.211  0.00  0.00    -0.773 OA
ATOM     13  H   UNL d   1       8.998  -0.453  -0.464  0.00  0.00     0.167 HD
ENDBRANCH  10  12
ENDBRANCH   9  10
ENDBRANCH   5   8
ENDBRANCH   3   4
TORSDOF 4
