REMARK  6 active torsions:
REMARK  status: ('A' for Active; 'I' for Inactive)
REMARK    1  A    between atoms: S_3  and  C_1 
REMARK    2  A    between atoms: C_7  and  C_2 
REMARK    3  A    between atoms: N_8  and  S_3 
REMARK    4  A    between atoms: O_21  and  C_7 
REMARK    5  A    between atoms: C_19  and  N_8 
REMARK    6  A    between atoms: C_20  and  C_19 
ROOT
ATOM      1  S   UNL d   1      -1.805   2.744   0.036  0.00  0.00     0.245 S 
ATOM      2  O   UNL d   1      -2.647   2.656   1.203  0.00  0.00    -0.206 OA
ATOM      3  O   UNL d   1      -0.885   3.840  -0.156  0.00  0.00    -0.206 OA
ENDROOT
BRANCH   1   4
ATOM      4  C   UNL d   1      -0.760   1.374   0.104  0.00  0.00     0.122 A 
ATOM      5  C   UNL d   1       0.297   1.106  -0.831  0.00  0.00     0.094 A 
ATOM      6  C   UNL d   1       0.950  -0.012  -0.337  0.00  0.00     0.067 A 
ATOM      7  C   UNL d   1       2.109  -0.832  -0.759  0.00  0.00     0.078 C 
ATOM      8  O   UNL d   1       0.332  -0.454   0.792  0.00  0.00    -0.318 OA
ATOM      9  C   UNL d   1      -0.708   0.384   1.065  0.00  0.00     0.073 A 
ATOM     10  C   UNL d   1      -1.466   0.029   2.282  0.00  0.00     0.078 C 
BRANCH   5  11
ATOM     11  C   UNL d   1       0.606   1.833  -2.051  0.00  0.00     0.297 C 
ATOM     12  O   UNL d   1      -0.259   2.403  -2.704  0.00  0.00    -0.259 OA
BRANCH  11  13
ATOM     13  O   UNL d   1       1.920   1.754  -2.397  0.00  0.00    -0.322 OA
ATOM     14  C   UNL d   1       2.267   2.399  -3.624  0.00  0.00     0.213 C 
ENDBRANCH  11  13
ENDBRANCH   5  11
ENDBRANCH   1   4
BRANCH   1  15
ATOM     15  N   UNL d   1      -2.772   2.627  -1.329  0.00  0.00    -0.211 NA
ATOM     16  H   UNL d   1      -2.207   2.520  -2.178  0.00  0.00     0.140 HD
BRANCH  15  17
ATOM     17  C   UNL d   1      -3.946   1.756  -1.225  0.00  0.00     0.143 C 
BRANCH  17  18
ATOM     18  C   UNL d   1      -4.735   1.732  -2.514  0.00  0.00    -0.042 A 
ATOM     19  C   UNL d   1      -4.965   0.522  -3.187  0.00  0.00     0.048 A 
ATOM     20  C   UNL d   1      -5.692   0.558  -4.359  0.00  0.00     0.105 A 
ATOM     21  O   UNL d   1      -6.001  -0.517  -5.132  0.00  0.00    -0.323 OA
ATOM     22  C   UNL d   1      -6.190   1.733  -4.871  0.00  0.00     0.105 A 
ATOM     23  C   UNL d   1      -6.766   0.114  -6.180  0.00  0.00     0.352 A 
ATOM     24  O   UNL d   1      -6.871   1.545  -6.033  0.00  0.00    -0.323 OA
ATOM     25  C   UNL d   1      -5.994   2.939  -4.237  0.00  0.00     0.040 A 
ATOM     26  C   UNL d   1      -5.263   2.935  -3.045  0.00  0.00     0.011 A 
ENDBRANCH  17  18
ENDBRANCH  15  17
ENDBRANCH   1  15
TORSDOF 6
