REMARK  6 active torsions:
REMARK  status: ('A' for Active; 'I' for Inactive)
REMARK    1  A    between atoms: C_14  and  N_1 
REMARK    2  A    between atoms: C_7  and  C_14 
REMARK    3  A    between atoms: S_20  and  C_9 
REMARK       I    between atoms: N_15  and  C_18 
REMARK    4  A    between atoms: C_16  and  N_15 
REMARK    5  A    between atoms: C_18  and  C_25 
REMARK    6  A    between atoms: C_25  and  S_20 
ROOT
ATOM      1  C   UNL d   1       0.813  -3.336   0.074  0.00  0.00     0.161 A 
ATOM      2  O   UNL d   1       1.245  -3.507   1.362  0.00  0.00    -0.270 OA
ATOM      3  C   UNL d   1       2.345  -4.310   1.192  0.00  0.00     0.203 A 
ATOM      4  N   UNL d   1       1.542  -4.000  -0.800  0.00  0.00    -0.279 N 
ATOM      5  HN  UNL d   1       1.398  -4.047  -1.808  1.00  0.00     0.189 HD
ATOM      6  N   UNL d   1       2.539  -4.618  -0.072  0.00  0.00    -0.272 N 
ATOM      7  HN  UNL d   1       3.287  -5.203  -0.445  1.00  0.00     0.189 HD
ENDROOT
BRANCH   3   8
ATOM      8  S   UNL d   1       3.346  -4.835   2.506  0.00  0.00    -0.075 SA
BRANCH   8   9
ATOM      9  C   UNL d   1       2.204  -4.625   3.904  0.00  0.00     0.186 C 
BRANCH   9  10
ATOM     10  C   UNL d   1       1.053  -5.612   3.807  0.00  0.00     0.231 C 
ATOM     11  N   UNL d   1      -0.201  -5.016   3.684  0.00  0.00    -0.325 N 
ATOM     12  H   UNL d   1      -0.202  -4.114   3.219  0.00  0.00     0.169 HD
ATOM     13  O   UNL d   1       1.246  -6.828   3.782  0.00  0.00    -0.272 OA
BRANCH  11  14
ATOM     14  C   UNL d   1      -1.358  -5.819   3.522  0.00  0.00     0.056 A 
ATOM     15  C   UNL d   1      -1.718  -6.855   4.407  0.00  0.00     0.062 A 
ATOM     16  C   UNL d   1      -2.797  -7.692   4.111  0.00  0.00     0.050 A 
ATOM     17 CL   UNL d   1      -0.963  -7.054   5.953  0.00  0.00    -0.082 Cl
ATOM     18  C   UNL d   1      -3.526  -7.489   2.943  0.00  0.00     0.035 A 
ATOM     19  C   UNL d   1      -3.223  -6.425   2.096  0.00  0.00     0.026 A 
ATOM     20 CL   UNL d   1      -4.820  -8.550   2.546  0.00  0.00    -0.084 Cl
ATOM     21  C   UNL d   1      -2.154  -5.578   2.397  0.00  0.00     0.033 A 
ENDBRANCH  11  14
ENDBRANCH   9  10
ENDBRANCH   8   9
ENDBRANCH   3   8
BRANCH   1  22
ATOM     22  C   UNL d   1      -0.413  -2.542  -0.134  0.00  0.00     0.234 C 
BRANCH  22  23
ATOM     23  N   UNL d   1      -0.185  -1.141   0.183  0.00  0.00    -0.288 N 
ATOM     24  N   UNL d   1      -0.412  -0.727   1.455  0.00  0.00    -0.301 N 
ATOM     25  C   UNL d   1      -0.195   0.598   1.416  0.00  0.00     0.041 A 
ATOM     26  HN  UNL d   1      -0.685  -1.293   2.258  1.00  0.00     0.187 HD
ATOM     27  C   UNL d   1      -0.348   1.423   2.640  0.00  0.00     0.071 C 
ATOM     28  C   UNL d   1       0.159   1.010   0.118  0.00  0.00     0.058 A 
ATOM     29  C   UNL d   1       0.159  -0.118  -0.671  0.00  0.00     0.044 A 
ATOM     30 BR   UNL d   1       0.533   2.770  -0.404  0.00  0.00    -0.047 Br
ATOM     31  C   UNL d   1       0.450  -0.276  -2.117  0.00  0.00     0.071 C 
ENDBRANCH  22  23
ENDBRANCH   1  22
TORSDOF 6
