REMARK  4 active torsions:
REMARK  status: ('A' for Active; 'I' for Inactive)
REMARK    1  A    between atoms: S_10  and  C_1 
REMARK    2  A    between atoms: N_2  and  C_6 
REMARK    3  A    between atoms: C_9  and  C_13 
REMARK    4  A    between atoms: C_13  and  S_10 
ROOT
ATOM      1  S   UNL d   1      -3.491  -1.670  -0.030  0.00  0.00    -0.100 SA
ENDROOT
BRANCH   1   2
ATOM      2  C   UNL d   1      -2.026  -0.723   0.034  0.00  0.00     0.113 A 
ATOM      3  N   UNL d   1      -2.036   0.586   0.087  0.00  0.00    -0.344 N 
ATOM      4  C   UNL d   1      -0.733   1.056   0.152  0.00  0.00     0.050 A 
ATOM      5  HN  UNL d   1      -2.873   1.170   0.082  1.00  0.00     0.167 HD
ATOM      6  C   UNL d   1      -0.344   2.409   0.228  0.00  0.00     0.031 A 
ATOM      7  C   UNL d   1       0.261   0.074   0.144  0.00  0.00     0.034 A 
ATOM      8  C   UNL d   1       1.013   2.740   0.299  0.00  0.00     0.002 A 
ATOM      9  C   UNL d   1       1.985   1.744   0.293  0.00  0.00     0.002 A 
ATOM     10  C   UNL d   1       1.627   0.395   0.214  0.00  0.00     0.021 A 
ATOM     11  S   UNL d   1      -0.486  -1.471   0.043  0.00  0.00    -0.063 SA
ENDBRANCH   1   2
BRANCH   1  12
ATOM     12  C   UNL d   1      -4.774  -0.381  -0.065  0.00  0.00     0.122 C 
BRANCH  12  13
ATOM     13  C   UNL d   1      -6.215  -0.875  -0.131  0.00  0.00    -0.015 A 
ATOM     14  C   UNL d   1      -7.303   0.029  -0.094  0.00  0.00     0.110 A 
ATOM     15  C   UNL d   1      -8.641  -0.396  -0.153  0.00  0.00     0.037 A 
ATOM     16  C   UNL d   1      -8.926  -1.754  -0.250  0.00  0.00     0.002 A 
ATOM     17  C   UNL d   1      -7.883  -2.672  -0.282  0.00  0.00     0.001 A 
ATOM     18  C   UNL d   1      -6.551  -2.240  -0.225  0.00  0.00     0.010 A 
BRANCH  14  19
ATOM     19  N   UNL d   1      -7.086   1.466   0.017  0.00  0.00    -0.115 N 
ATOM     20  O   UNL d   1      -6.390   2.006  -0.852  0.00  0.00    -0.532 OA
ATOM     21  O   UNL d   1      -7.637   2.045   0.961  0.00  0.00    -0.532 OA
ENDBRANCH  14  19
ENDBRANCH  12  13
ENDBRANCH   1  12
TORSDOF 4
