REMARK  4 active torsions:
REMARK  status: ('A' for Active; 'I' for Inactive)
REMARK    1  A    between atoms: N_3  and  C_1 
REMARK    2  A    between atoms: N_4  and  C_2 
REMARK    3  A    between atoms: N_7  and  S_5 
REMARK       I    between atoms: C_6  and  N_7 
REMARK       I    between atoms: N_11  and  C_6 
REMARK    4  A    between atoms: C_12  and  N_11 
ROOT
ATOM      1  N   UNL d   1      -0.159   2.486   0.065  0.00  0.00    -0.372 N 
ATOM      2  S   UNL d   1      -0.500   5.725  -0.053  0.00  0.00    -0.120 SA
ATOM      3  C   UNL d   1      -1.263   4.486   1.063  0.00  0.00     0.105 C 
ATOM      4  C   UNL d   1       0.831   4.628  -0.672  0.00  0.00     0.105 C 
ATOM      5  C   UNL d   1       0.399   3.220  -1.093  0.00  0.00     0.134 C 
ATOM      6  C   UNL d   1      -1.449   3.071   0.496  0.00  0.00     0.134 C 
ENDROOT
BRANCH   2   7
ATOM      7  N   UNL d   1      -1.482   5.630  -1.206  0.00  0.00    -0.292 N 
ATOM      8  C   UNL d   1      -1.100   6.127  -2.391  0.00  0.00     0.330 C 
ATOM      9  N   UNL d   1      -0.773   7.467  -2.337  0.00  0.00    -0.307 N 
ATOM     10  O   UNL d   1      -1.133   5.474  -3.432  0.00  0.00    -0.246 OA
ATOM     11  H   UNL d   1      -0.827   7.831  -1.391  0.00  0.00     0.170 HD
ATOM     12  HN  UNL d   1      -2.400   5.203  -1.083  1.00  0.00     0.178 HD
BRANCH   9  13
ATOM     13  C   UNL d   1      -0.535   8.373  -3.388  0.00  0.00     0.058 A 
ATOM     14  C   UNL d   1      -0.456   9.747  -3.100  0.00  0.00     0.062 A 
ATOM     15  C   UNL d   1      -0.353  10.692  -4.126  0.00  0.00     0.050 A 
ATOM     16 CL   UNL d   1      -0.521  10.339  -1.473  0.00  0.00    -0.082 Cl
ATOM     17  C   UNL d   1      -0.303  10.266  -5.449  0.00  0.00     0.035 A 
ATOM     18  C   UNL d   1      -0.316   8.908  -5.752  0.00  0.00     0.026 A 
ATOM     19 CL   UNL d   1      -0.237  11.425  -6.720  0.00  0.00    -0.084 Cl
ATOM     20  C   UNL d   1      -0.428   7.968  -4.723  0.00  0.00     0.033 A 
ENDBRANCH   9  13
ENDBRANCH   2   7
BRANCH   1  21
ATOM     21  C   UNL d   1       0.098   1.149   0.250  0.00  0.00     0.105 A 
ATOM     22  C   UNL d   1       0.081   0.403   1.427  0.00  0.00     0.137 A 
ATOM     23  C   UNL d   1       0.466  -0.968   1.244  0.00  0.00     0.046 A 
ATOM     24  C   UNL d   1       0.773  -1.248  -0.063  0.00  0.00     0.054 A 
ATOM     25  S   UNL d   1       0.560   0.108  -1.066  0.00  0.00    -0.082 SA
BRANCH  22  26
ATOM     26  N   UNL d   1      -0.240   0.929   2.724  0.00  0.00    -0.113 N 
ATOM     27  O   UNL d   1       0.382   1.919   3.125  0.00  0.00    -0.532 OA
ATOM     28  O   UNL d   1      -1.066   0.279   3.383  0.00  0.00    -0.532 OA
ENDBRANCH  22  26
ENDBRANCH   1  21
TORSDOF 4
