REMARK  5 active torsions:
REMARK  status: ('A' for Active; 'I' for Inactive)
REMARK    1  A    between atoms: C_3  and  C_1 
REMARK    2  A    between atoms: C_13  and  C_2 
REMARK    3  A    between atoms: C_10  and  N_15 
REMARK    4  A    between atoms: O_22  and  C_13 
REMARK    5  A    between atoms: C_27  and  O_22 
ROOT
ATOM      1  C   UNL d   1      -2.625  -1.535   0.080  0.00  0.00     0.078 A 
ATOM      2  N   UNL d   1      -2.761  -2.558   0.991  0.00  0.00    -0.334 N 
ATOM      3  HN  UNL d   1      -2.055  -2.814   1.681  1.00  0.00     0.168 HD
ATOM      4  C   UNL d   1      -3.921  -3.160   0.854  0.00  0.00     0.149 A 
ATOM      5  S   UNL d   1      -4.923  -2.509  -0.390  0.00  0.00    -0.063 SA
ATOM      6  C   UNL d   1      -3.677  -1.410  -0.802  0.00  0.00     0.085 A 
ATOM      7  N   UNL d   1      -4.352  -4.222   1.565  0.00  0.00    -0.336 N 
ATOM      8  H   UNL d   1      -5.295  -4.551   1.409  0.00  0.00     0.168 HD
ENDROOT
BRANCH   1   9
ATOM      9  C   UNL d   1      -1.373  -0.721   0.070  0.00  0.00     0.144 A 
ATOM     10  C   UNL d   1      -1.159   0.555  -0.422  0.00  0.00     0.101 A 
ATOM     11  C   UNL d   1       0.239   0.766  -0.238  0.00  0.00     0.048 A 
ATOM     12  C   UNL d   1       1.075   1.950  -0.547  0.00  0.00     0.071 C 
ATOM     13  N   UNL d   1       0.818  -0.289   0.347  0.00  0.00    -0.264 N 
ATOM     14  O   UNL d   1      -0.197  -1.192   0.582  0.00  0.00    -0.234 OA
ATOM     15  HN  UNL d   1       1.807  -0.402   0.574  1.00  0.00     0.194 HD
BRANCH  10  16
ATOM     16  C   UNL d   1      -2.169   1.443  -0.940  0.00  0.00     0.298 C 
ATOM     17  O   UNL d   1      -3.328   1.451  -0.551  0.00  0.00    -0.259 OA
BRANCH  16  18
ATOM     18  O   UNL d   1      -1.708   2.204  -1.975  0.00  0.00    -0.318 OA
BRANCH  18  19
ATOM     19  C   UNL d   1      -2.731   2.822  -2.767  0.00  0.00     0.174 C 
ATOM     20  C   UNL d   1      -3.057   1.894  -3.924  0.00  0.00     0.034 C 
ENDBRANCH  18  19
ENDBRANCH  16  18
ENDBRANCH  10  16
ENDBRANCH   1   9
BRANCH   7  21
ATOM     21  C   UNL d   1      -3.552  -5.134   2.285  0.00  0.00     0.046 A 
ATOM     22  C   UNL d   1      -4.025  -5.584   3.545  0.00  0.00    -0.034 A 
ATOM     23  C   UNL d   1      -3.277  -6.519   4.286  0.00  0.00     0.015 A 
ATOM     24  C   UNL d   1      -5.314  -5.100   4.160  0.00  0.00     0.050 C 
ATOM     25  C   UNL d   1      -2.060  -7.004   3.817  0.00  0.00    -0.061 A 
ATOM     26  C   UNL d   1      -1.587  -6.552   2.586  0.00  0.00     0.015 A 
ATOM     27  C   UNL d   1      -1.279  -8.003   4.616  0.00  0.00     0.048 C 
ATOM     28  C   UNL d   1      -2.322  -5.642   1.801  0.00  0.00    -0.034 A 
ATOM     29  C   UNL d   1      -1.710  -5.318   0.462  0.00  0.00     0.050 C 
ENDBRANCH   7  21
TORSDOF 5
