REMARK  2 active torsions:
REMARK  status: ('A' for Active; 'I' for Inactive)
REMARK    1  A    between atoms: C_3  and  O_1 
REMARK    2  A    between atoms: C_6  and  O_1 
ROOT
ATOM      1  N   UNL d   1       2.510  -3.784   0.133  0.00  0.00    -0.191 NA
ATOM      2  C   UNL d   1       2.887  -2.687   0.089  0.00  0.00     0.102 C 
ATOM      3  C   UNL d   1       2.557  -0.216  -0.034  0.00  0.00     0.096 A 
ATOM      4  C   UNL d   1       3.389  -1.345   0.002  0.00  0.00     0.078 A 
ATOM      5  C   UNL d   1       4.783  -1.172  -0.017  0.00  0.00     0.025 A 
ATOM      6  C   UNL d   1       3.129   1.063   0.004  0.00  0.00     0.039 A 
ATOM      7  C   UNL d   1       5.343   0.107  -0.013  0.00  0.00     0.002 A 
ATOM      8  C   UNL d   1       4.515   1.224   0.014  0.00  0.00     0.003 A 
ENDROOT
BRANCH   3   9
ATOM      9  O   UNL d   1       1.177  -0.215   0.002  0.00  0.00    -0.308 OA
BRANCH   9  10
ATOM     10  C   UNL d   1       0.453  -1.081  -0.782  0.00  0.00     0.098 A 
ATOM     11  C   UNL d   1      -0.773  -1.536  -0.273  0.00  0.00     0.069 A 
ATOM     12  C   UNL d   1      -1.542  -2.457  -0.983  0.00  0.00     0.050 A 
ATOM     13 CL   UNL d   1      -1.373  -0.972   1.250  0.00  0.00    -0.081 Cl
ATOM     14  C   UNL d   1      -1.086  -2.921  -2.214  0.00  0.00     0.035 A 
ATOM     15  C   UNL d   1       0.100  -2.434  -2.760  0.00  0.00     0.026 A 
ATOM     16 CL   UNL d   1      -2.004  -4.094  -3.075  0.00  0.00    -0.084 Cl
ATOM     17  C   UNL d   1       0.861  -1.497  -2.058  0.00  0.00     0.041 A 
ENDBRANCH   9  10
ENDBRANCH   3   9
TORSDOF 2
