REMARK  3 active torsions:
REMARK  status: ('A' for Active; 'I' for Inactive)
REMARK    1  A    between atoms: N_9  and  C_2 
REMARK       I    between atoms: C_8  and  N_10 
REMARK    2  A    between atoms: C_11  and  C_8 
REMARK    3  A    between atoms: N_10  and  N_9 
ROOT
ATOM      1  N   UNL d   1      -2.817   0.036   0.003  0.00  0.00    -0.291 N 
ATOM      2  C   UNL d   1      -3.929   0.989  -0.138  0.00  0.00     0.178 C 
ENDROOT
BRANCH   1   3
ATOM      3  C   UNL d   1      -1.512   0.455  -0.241  0.00  0.00     0.094 C 
ATOM      4  C   UNL d   1      -0.979   0.995  -1.347  0.00  0.00     0.133 C 
ATOM      5  C   UNL d   1       0.387   1.597  -1.345  0.00  0.00     0.285 C 
ATOM      6 CL   UNL d   1      -1.876   1.104  -2.827  0.00  0.00    -0.076 Cl
ATOM      7  N   UNL d   1       1.022   1.630  -0.107  0.00  0.00    -0.261 N 
ATOM      8  O   UNL d   1       0.873   2.076  -2.367  0.00  0.00    -0.265 OA
ATOM      9  N   UNL d   1       0.579   0.950   0.997  0.00  0.00    -0.305 N 
ATOM     10  C   UNL d   1       2.278   2.342   0.035  0.00  0.00     0.181 C 
ATOM     11  C   UNL d   1      -0.586   0.397   0.915  0.00  0.00     0.140 C 
ATOM     12  HN  UNL d   1       1.143   0.884   1.845  1.00  0.00     0.186 HD
ENDBRANCH   1   3
BRANCH   1  13
ATOM     13  N   UNL d   1      -3.171  -1.308  -0.270  0.00  0.00    -0.263 N 
ATOM     14  C   UNL d   1      -4.096  -1.970   0.536  0.00  0.00     0.277 C 
ATOM     15  O   UNL d   1      -4.575  -1.458   1.548  0.00  0.00    -0.265 OA
ATOM     16  H   UNL d   1      -2.884  -1.698  -1.163  0.00  0.00     0.190 HD
BRANCH  14  17
ATOM     17  C   UNL d   1      -4.494  -3.299   0.082  0.00  0.00     0.074 A 
ATOM     18  S   UNL d   1      -3.712  -4.110  -1.209  0.00  0.00    -0.097 SA
ATOM     19  C   UNL d   1      -4.705  -5.493  -1.037  0.00  0.00     0.050 A 
ATOM     20  C   UNL d   1      -5.632  -5.340  -0.032  0.00  0.00     0.009 A 
ATOM     21  C   UNL d   1      -5.511  -4.075   0.612  0.00  0.00     0.025 A 
ENDBRANCH  14  17
ENDBRANCH   1  13
TORSDOF 3
