REMARK  4 active torsions:
REMARK  status: ('A' for Active; 'I' for Inactive)
REMARK    1  A    between atoms: N_2  and  S_1 
REMARK    2  A    between atoms: C_6  and  S_1 
REMARK       I    between atoms: N_3  and  C_5 
REMARK    3  A    between atoms: C_5  and  C_10 
REMARK    4  A    between atoms: N_16  and  C_7 
ROOT
ATOM      1  C   UNL d   1       0.442  -0.598   1.738  0.00  0.00     0.079 A 
ATOM      2  C   UNL d   1      -0.008  -1.402   4.400  0.00  0.00     0.032 A 
ATOM      3  C   UNL d   1       0.151  -1.936   2.025  0.00  0.00     0.026 A 
ATOM      4  C   UNL d   1       0.527   0.335   2.783  0.00  0.00     0.026 A 
ATOM      5  C   UNL d   1       0.304  -0.068   4.111  0.00  0.00     0.018 A 
ATOM      6  C   UNL d   1      -0.092  -2.328   3.347  0.00  0.00     0.018 A 
ENDROOT
BRANCH   1   7
ATOM      7  S   UNL d   1       0.971  -0.152   0.086  0.00  0.00     0.261 S 
ATOM      8  O   UNL d   1       1.724   1.081   0.212  0.00  0.00    -0.200 OA
ATOM      9  O   UNL d   1       1.578  -1.334  -0.484  0.00  0.00    -0.200 OA
BRANCH   7  10
ATOM     10  N   UNL d   1      -0.415   0.192  -0.800  0.00  0.00    -0.303 N 
ATOM     11  C   UNL d   1      -1.298  -0.896  -1.282  0.00  0.00     0.161 C 
ATOM     12  C   UNL d   1      -2.504  -1.061  -0.354  0.00  0.00     0.188 C 
ATOM     13  O   UNL d   1      -3.215   0.176  -0.188  0.00  0.00    -0.388 OA
ATOM     14  C   UNL d   1      -2.360   1.203   0.338  0.00  0.00     0.188 C 
ATOM     15  C   UNL d   1      -1.161   1.452  -0.578  0.00  0.00     0.161 C 
ENDBRANCH   7  10
ENDBRANCH   1   7
BRANCH   2  16
ATOM     16  C   UNL d   1      -0.248  -1.889   5.797  0.00  0.00     0.256 C 
ATOM     17  N   UNL d   1       0.307  -1.151   6.817  0.00  0.00    -0.319 N 
ATOM     18  C   UNL d   1       0.141  -1.634   8.008  0.00  0.00     0.180 C 
ATOM     19  HN  UNL d   1       0.815  -0.283   6.648  1.00  0.00     0.169 HD
ATOM     20  O   UNL d   1      -0.894  -2.925   5.938  0.00  0.00    -0.267 OA
BRANCH  18  21
ATOM     21  N   UNL d   1       0.638  -1.134   9.192  0.00  0.00    -0.386 N 
ATOM     22  C   UNL d   1       0.294  -1.724  10.479  0.00  0.00     0.149 C 
ATOM     23  C   UNL d   1       1.459   0.062   9.247  0.00  0.00     0.149 C 
ENDBRANCH  18  21
ENDBRANCH   2  16
TORSDOF 4
