REMARK  2 active torsions:
REMARK  status: ('A' for Active; 'I' for Inactive)
REMARK    1  A    between atoms: C_6  and  C_1 
REMARK    2  A    between atoms: C_4  and  C_8 
ROOT
ATOM      1  C   UNL d   1       0.401  -0.096  -1.315  0.00  0.00     0.047 A 
ATOM      2  C   UNL d   1      -0.589  -0.438  -3.944  0.00  0.00    -0.053 A 
ATOM      3  C   UNL d   1       0.576  -1.310  -1.996  0.00  0.00     0.017 A 
ATOM      4  C   UNL d   1      -0.291   0.940  -1.955  0.00  0.00     0.017 A 
ATOM      5  C   UNL d   1       0.083  -1.482  -3.297  0.00  0.00     0.008 A 
ATOM      6  C   UNL d   1      -0.779   0.769  -3.251  0.00  0.00     0.008 A 
ENDROOT
BRANCH   2   7
ATOM      7  C   UNL d   1      -1.103  -0.554  -5.375  0.00  0.00     0.031 C 
ATOM      8  C   UNL d   1       0.027  -0.826  -6.388  0.00  0.00     0.061 C 
ATOM      9  C   UNL d   1       0.086  -2.221  -6.926  0.00  0.00     0.016 C 
ATOM     10 CL   UNL d   1       1.484  -2.577  -7.885  0.00  0.00    -0.089 Cl
ATOM     11  C   UNL d   1      -0.836  -3.166  -6.742  0.00  0.00     0.069 C 
ATOM     12  C   UNL d   1      -2.052  -2.878  -5.964  0.00  0.00     0.151 C 
ATOM     13  C   UNL d   1      -2.325  -1.472  -5.487  0.00  0.00     0.092 C 
ATOM     14  O   UNL d   1      -2.869  -3.784  -5.798  0.00  0.00    -0.293 OA
ENDBRANCH   2   7
BRANCH   1  15
ATOM     15  C   UNL d   1       0.944   0.119   0.075  0.00  0.00     0.417 C 
ATOM     16  F   UNL d   1       1.624  -0.954   0.571  0.00  0.00    -0.166 F 
ATOM     17  F   UNL d   1      -0.037   0.390   0.983  0.00  0.00    -0.166 F 
ATOM     18  F   UNL d   1       1.808   1.169   0.140  0.00  0.00    -0.166 F 
ENDBRANCH   1  15
TORSDOF 2
