REMARK  3 active torsions:
REMARK  status: ('A' for Active; 'I' for Inactive)
REMARK    1  A    between atoms: C_2  and  S_1 
REMARK    2  A    between atoms: N_9  and  S_1 
REMARK    3  A    between atoms: C_15  and  N_9 
ROOT
ATOM      1  C   UNL d   1       4.940  -0.329  -0.257  0.00  0.00    -0.102 C 
ATOM      2  C   UNL d   1       6.116  -0.084  -0.197  0.00  0.00     0.013 C 
ATOM      3  C   UNL d   1       3.519  -0.718  -0.359  0.00  0.00     0.197 C 
ENDROOT
BRANCH   3   4
ATOM      4  N   UNL d   1       2.645   0.361   0.119  0.00  0.00    -0.205 NA
ATOM      5  H   UNL d   1       2.888   0.745   1.034  0.00  0.00     0.141 HD
BRANCH   4   6
ATOM      6  S   UNL d   1       0.985   0.062   0.048  0.00  0.00     0.242 S 
ATOM      7  O   UNL d   1       0.792  -1.370   0.124  0.00  0.00    -0.206 OA
ATOM      8  O   UNL d   1       0.369   0.961   0.998  0.00  0.00    -0.206 OA
BRANCH   6   9
ATOM      9  C   UNL d   1       0.493   0.608  -1.575  0.00  0.00     0.074 A 
ATOM     10  C   UNL d   1      -0.091  -0.301  -2.465  0.00  0.00     0.026 A 
ATOM     11  C   UNL d   1      -0.539   0.137  -3.717  0.00  0.00     0.024 A 
ATOM     12  C   UNL d   1      -0.417   1.485  -4.076  0.00  0.00     0.044 A 
ATOM     13  C   UNL d   1      -0.898   1.937  -5.353  0.00  0.00     0.099 C 
ATOM     14  C   UNL d   1       0.158   2.391  -3.176  0.00  0.00     0.024 A 
ATOM     15  N   UNL d   1      -1.291   2.300  -6.381  0.00  0.00    -0.191 NA
ATOM     16  C   UNL d   1       0.609   1.958  -1.922  0.00  0.00     0.026 A 
ENDBRANCH   6   9
ENDBRANCH   4   6
ENDBRANCH   3   4
TORSDOF 3
