REMARK  8 active torsions:
REMARK  status: ('A' for Active; 'I' for Inactive)
REMARK    1  A    between atoms: C_3  and  C_1 
REMARK    2  A    between atoms: C_4  and  CA_2 
REMARK       I    between atoms: N_11  and  C_3 
REMARK    3  A    between atoms: OXT_12  and  C_4 
REMARK    4  A    between atoms: C_23  and  N_11 
REMARK    5  A    between atoms: O_19  and  C_13 
REMARK    6  A    between atoms: C_14  and  O_20 
REMARK    7  A    between atoms: O_20  and  C_24 
REMARK    8  A    between atoms: C_24  and  C_23 
ROOT
ATOM      1  C   UNL d   1       0.201  -3.043   1.041  0.00  0.00     0.270 C 
ATOM      2  O   UNL d   1       0.307  -3.402   2.204  0.00  0.00    -0.266 OA
ATOM      3  N   UNL d   1       0.673  -3.784  -0.027  0.00  0.00    -0.354 N 
ATOM      4  H   UNL d   1       0.644  -3.351  -0.945  0.00  0.00     0.162 HD
ENDROOT
BRANCH   1   5
ATOM      5  C   UNL d   1      -0.376  -1.722   0.652  0.00  0.00     0.134 A 
ATOM      6  CA  UNL d   1      -1.304  -1.007   1.395  0.00  0.00     0.139 A 
ATOM      7  N   UNL d   1      -1.712   0.262   1.023  0.00  0.00    -0.357 N 
ATOM      8  C   UNL d   1      -1.177   0.742  -0.123  0.00  0.00     0.105 A 
ATOM      9  HN  UNL d   1      -2.375   0.802   1.579  1.00  0.00     0.165 HD
ATOM     10  C   UNL d   1      -0.286   0.013  -0.886  0.00  0.00     0.105 A 
ATOM     11  N   UNL d   1       0.130  -1.224  -0.529  0.00  0.00    -0.358 N 
ATOM     12  HN  UNL d   1       0.782  -1.758  -1.102  1.00  0.00     0.165 HD
BRANCH   6  13
ATOM     13  C   UNL d   1      -2.068  -1.532   2.566  0.00  0.00     0.196 C 
ATOM     14  O   UNL d   1      -2.134  -2.679   2.959  0.00  0.00    -0.645 OA
BRANCH  13  15
ATOM     15  OXT UNL d   1      -2.818  -0.530   3.102  0.00  0.00    -0.772 OA
ATOM     16  HXT UNL d   1      -2.716   0.286   2.557  0.00  0.00     0.167 HD
ENDBRANCH  13  15
ENDBRANCH   6  13
ENDBRANCH   1   5
BRANCH   3  17
ATOM     17  C   UNL d   1       1.207  -5.125   0.121  0.00  0.00     0.149 C 
BRANCH  17  18
ATOM     18  C   UNL d   1       0.101  -6.181   0.174  0.00  0.00     0.195 C 
BRANCH  18  19
ATOM     19  O   UNL d   1       0.697  -7.481   0.171  0.00  0.00    -0.350 OA
BRANCH  19  20
ATOM     20  C   UNL d   1      -0.177  -8.532   0.097  0.00  0.00     0.069 A 
ATOM     21  C   UNL d   1       0.356  -9.719  -0.407  0.00  0.00     0.039 A 
ATOM     22  C   UNL d   1      -0.448 -10.855  -0.536  0.00  0.00     0.039 A 
ATOM     23  C   UNL d   1      -1.782 -10.829  -0.131  0.00  0.00     0.068 A 
ATOM     24  C   UNL d   1      -2.313  -9.648   0.387  0.00  0.00     0.039 A 
ATOM     25  C   UNL d   1      -1.512  -8.504   0.503  0.00  0.00     0.039 A 
BRANCH  23  26
ATOM     26  O   UNL d   1      -2.473 -11.994  -0.316  0.00  0.00    -0.356 OA
ATOM     27  C   UNL d   1      -3.600 -12.189   0.530  0.00  0.00     0.210 C 
ENDBRANCH  23  26
ENDBRANCH  19  20
ENDBRANCH  18  19
ENDBRANCH  17  18
ENDBRANCH   3  17
TORSDOF 8
