REMARK  1 active torsions:
REMARK  status: ('A' for Active; 'I' for Inactive)
REMARK    1  A    between atoms: C_5  and  N_1 
ROOT
ATOM      1  N   UNL d   1       0.874  -0.780   0.118  0.00  0.00    -0.261 N 
ATOM      2  N   UNL d   1       0.915   0.454   0.692  0.00  0.00    -0.305 N 
ATOM      3  HN  UNL d   1       1.694   0.881   1.194  1.00  0.00     0.186 HD
ATOM      4  C   UNL d   1      -0.413  -1.081  -0.315  0.00  0.00     0.032 C 
ATOM      5  C   UNL d   1      -1.149   0.079  -0.167  0.00  0.00     0.045 C 
ATOM      6  C   UNL d   1      -0.283   0.983   0.455  0.00  0.00     0.110 C 
ATOM      7  C   UNL d   1      -0.896  -2.416  -0.752  0.00  0.00     0.070 C 
ENDROOT
BRANCH   1   8
ATOM      8  C   UNL d   1       2.073  -1.550   0.044  0.00  0.00     0.056 A 
ATOM      9  C   UNL d   1       3.113  -1.279   0.950  0.00  0.00     0.033 A 
ATOM     10  C   UNL d   1       4.292  -2.028   0.918  0.00  0.00     0.026 A 
ATOM     11  C   UNL d   1       4.449  -3.030  -0.036  0.00  0.00     0.034 A 
ATOM     12  C   UNL d   1       3.440  -3.282  -0.964  0.00  0.00     0.026 A 
ATOM     13 CL   UNL d   1       5.899  -3.955  -0.077  0.00  0.00    -0.084 Cl
ATOM     14  C   UNL d   1       2.252  -2.543  -0.926  0.00  0.00     0.033 A 
ENDBRANCH   1   8
TORSDOF 1
