REMARK  3 active torsions:
REMARK  status: ('A' for Active; 'I' for Inactive)
REMARK    1  A    between atoms: C_7  and  C_3 
REMARK    2  A    between atoms: C_9  and  C_4 
REMARK    3  A    between atoms: S_12  and  C_8 
ROOT
ATOM      1  N   UNL d   1      -1.266  -0.049  -0.003  0.00  0.00    -0.357 N 
ATOM      2  HN  UNL d   1      -2.285  -0.087   0.002  1.00  0.00     0.166 HD
ATOM      3  C   UNL d   1      -0.630   1.147  -0.030  0.00  0.00     0.018 A 
ATOM      4  C   UNL d   1      -0.540  -1.200   0.017  0.00  0.00     0.060 A 
ATOM      5  C   UNL d   1       0.763   1.224  -0.047  0.00  0.00     0.044 A 
ATOM      6  C   UNL d   1       0.852  -1.172  -0.006  0.00  0.00     0.050 A 
ATOM      7  C   UNL d   1       1.518   0.052  -0.041  0.00  0.00     0.004 A 
ENDROOT
BRANCH   4   8
ATOM      8  C   UNL d   1      -1.306  -2.467   0.100  0.00  0.00     0.059 A 
ATOM      9  N   UNL d   1      -0.586  -3.624   0.080  0.00  0.00    -0.364 N 
ATOM     10  C   UNL d   1      -1.258  -4.792   0.184  0.00  0.00     0.088 A 
ATOM     11  HN  UNL d   1       0.430  -3.608  -0.011  1.00  0.00     0.165 HD
ATOM     12  C   UNL d   1      -2.631  -4.883   0.309  0.00  0.00     0.017 A 
ATOM     13  C   UNL d   1      -3.365  -3.707   0.322  0.00  0.00     0.004 A 
ATOM     14  C   UNL d   1      -2.698  -2.487   0.215  0.00  0.00     0.032 A 
ENDBRANCH   4   8
BRANCH   3  15
ATOM     15  C   UNL d   1      -1.500   2.410  -0.008  0.00  0.00    -0.009 C 
ATOM     16  C   UNL d   1      -3.005   2.056   0.010  0.00  0.00     0.021 C 
ATOM     17  C   UNL d   1      -1.197   3.238   1.256  0.00  0.00     0.021 C 
ATOM     18  C   UNL d   1      -1.236   3.267  -1.261  0.00  0.00     0.021 C 
ENDBRANCH   3  15
BRANCH   7  19
ATOM     19  S   UNL d   1       3.305   0.021   0.019  0.00  0.00    -0.134 SA
ATOM     20  C   UNL d   1       3.759   1.506  -0.913  0.00  0.00     0.095 C 
ENDBRANCH   7  19
TORSDOF 3
