REMARK  5 active torsions:
REMARK  status: ('A' for Active; 'I' for Inactive)
REMARK    1  A    between atoms: C_2  and  S_1 
REMARK    2  A    between atoms: N_13  and  S_1 
REMARK    3  A    between atoms: C_6  and  C_3 
REMARK    4  A    between atoms: C_18  and  C_8 
REMARK    5  A    between atoms: C_15  and  C_19 
ROOT
ATOM      1  N   UNL d   1       0.318   5.077   2.917  0.00  0.00    -0.318 N 
ATOM      2  HN  UNL d   1       0.803   5.139   2.022  1.00  0.00     0.169 HD
ATOM      3  C   UNL d   1      -0.041   3.998   3.579  0.00  0.00     0.184 A 
ATOM      4  C   UNL d   1      -0.118   6.100   3.726  0.00  0.00     0.138 A 
ATOM      5  N   UNL d   1      -0.674   5.683   4.875  0.00  0.00    -0.242 N 
ATOM      6  HN  UNL d   1      -1.047   6.249   5.637  1.00  0.00     0.196 HD
ATOM      7  O   UNL d   1      -0.621   4.293   4.782  0.00  0.00    -0.217 OA
ENDROOT
BRANCH   3   8
ATOM      8  C   UNL d   1       0.097   2.634   3.016  0.00  0.00     0.050 A 
ATOM      9  C   UNL d   1       0.654   2.300   1.764  0.00  0.00     0.069 A 
ATOM     10  C   UNL d   1       0.505   0.931   1.582  0.00  0.00     0.186 A 
ATOM     11  O   UNL d   1      -0.103   0.421   2.717  0.00  0.00    -0.301 OA
ATOM     12  C   UNL d   1      -0.321   1.454   3.586  0.00  0.00     0.065 A 
ATOM     13  C   UNL d   1      -0.940   1.109   4.886  0.00  0.00     0.077 C 
BRANCH  10  14
ATOM     14  S   UNL d   1       0.974  -0.089   0.179  0.00  0.00     0.266 S 
ATOM     15  O   UNL d   1       1.784  -1.154   0.735  0.00  0.00    -0.204 OA
ATOM     16  O   UNL d   1       1.529   0.848  -0.772  0.00  0.00    -0.204 OA
BRANCH  14  17
ATOM     17  N   UNL d   1      -0.413  -0.784  -0.520  0.00  0.00    -0.201 NA
ATOM     18  C   UNL d   1      -1.502   0.142  -0.956  0.00  0.00     0.134 C 
ATOM     19  C   UNL d   1      -1.234   0.743  -2.340  0.00  0.00     0.183 C 
ATOM     20  O   UNL d   1      -1.020  -0.282  -3.319  0.00  0.00    -0.389 OA
ATOM     21  C   UNL d   1       0.107  -1.095  -2.958  0.00  0.00     0.183 C 
ATOM     22  C   UNL d   1      -0.118  -1.781  -1.604  0.00  0.00     0.134 C 
ENDBRANCH  14  17
ENDBRANCH  10  14
ENDBRANCH   3   8
BRANCH   4  23
ATOM     23  C   UNL d   1      -0.052   7.495   3.302  0.00  0.00     0.010 A 
ATOM     24  C   UNL d   1       0.602   7.840   2.109  0.00  0.00     0.016 A 
ATOM     25  C   UNL d   1       0.603   9.161   1.648  0.00  0.00     0.017 A 
ATOM     26  C   UNL d   1      -0.053  10.167   2.372  0.00  0.00     0.048 A 
ATOM     27  C   UNL d   1      -0.687   9.827   3.577  0.00  0.00     0.017 A 
ATOM     28  C   UNL d   1      -0.684   8.507   4.038  0.00  0.00     0.016 A 
BRANCH  26  29
ATOM     29  C   UNL d   1      -0.102  11.590   1.871  0.00  0.00     0.417 C 
ATOM     30  F   UNL d   1       0.549  11.776   0.689  0.00  0.00    -0.166 F 
ATOM     31  F   UNL d   1      -1.378  12.021   1.663  0.00  0.00    -0.166 F 
ATOM     32  F   UNL d   1       0.452  12.472   2.748  0.00  0.00    -0.166 F 
ENDBRANCH  26  29
ENDBRANCH   4  23
TORSDOF 5
