REMARK  5 active torsions:
REMARK  status: ('A' for Active; 'I' for Inactive)
REMARK    1  A    between atoms: O_3  and  C_1 
REMARK       I    between atoms: C_2  and  N_6 
REMARK    2  A    between atoms: C_7  and  O_3 
REMARK    3  A    between atoms: N_6  and  C_13 
REMARK    4  A    between atoms: C_16  and  C_8 
REMARK    5  A    between atoms: C_13  and  C_16 
ROOT
ATOM      1  C   UNL d   1       0.979   1.648  -1.601  0.00  0.00     0.079 A 
ATOM      2  C   UNL d   1       2.400   3.427  -3.239  0.00  0.00    -0.057 A 
ATOM      3  C   UNL d   1       1.946   1.158  -2.472  0.00  0.00     0.038 A 
ATOM      4  C   UNL d   1       0.663   3.005  -1.588  0.00  0.00     0.038 A 
ATOM      5  C   UNL d   1       1.365   3.886  -2.412  0.00  0.00     0.010 A 
ATOM      6  C   UNL d   1       2.659   2.047  -3.283  0.00  0.00     0.010 A 
ENDROOT
BRANCH   2   7
ATOM      7  C   UNL d   1       3.198   4.366  -4.123  0.00  0.00     0.058 C 
BRANCH   7   8
ATOM      8  C   UNL d   1       3.516   5.721  -3.476  0.00  0.00     0.127 C 
BRANCH   8   9
ATOM      9  N   UNL d   1       4.334   6.574  -4.317  0.00  0.00    -0.361 N 
ATOM     10  C   UNL d   1       3.775   7.379  -5.282  0.00  0.00     0.213 C 
ATOM     11  O   UNL d   1       2.578   7.387  -5.548  0.00  0.00    -0.274 OA
ATOM     12  C   UNL d   1       4.750   8.284  -5.983  0.00  0.00     0.117 C 
ATOM     13  H   UNL d   1       5.333   6.592  -4.163  0.00  0.00     0.162 HD
ENDBRANCH   8   9
ENDBRANCH   7   8
ENDBRANCH   2   7
BRANCH   1  14
ATOM     14  O   UNL d   1       0.221   0.827  -0.748  0.00  0.00    -0.279 OA
BRANCH  14  15
ATOM     15  C   UNL d   1       0.851  -0.186  -0.026  0.00  0.00     0.260 C 
ATOM     16  O   UNL d   1       2.033  -0.501  -0.080  0.00  0.00    -0.265 OA
ATOM     17  C   UNL d   1      -0.143  -0.846   0.880  0.00  0.00     0.126 C 
ENDBRANCH  14  15
ENDBRANCH   1  14
TORSDOF 5
