REMARK  3 active torsions:
REMARK  status: ('A' for Active; 'I' for Inactive)
REMARK    1  A    between atoms: C_6  and  C_1 
REMARK    2  A    between atoms: N_7  and  N_2 
REMARK    3  A    between atoms: C_9  and  N_7 
ROOT
ATOM      1  C   UNL d   1       1.125   0.013  -0.168  0.00  0.00     0.174 C 
ATOM      2  N   UNL d   1       0.505  -0.961  -0.774  0.00  0.00    -0.287 N 
ATOM      3  HN  UNL d   1      -0.515  -0.982  -0.798  1.00  0.00     0.188 HD
ATOM      4  C   UNL d   1       2.568   0.041  -0.179  0.00  0.00     0.123 C 
ATOM      5  N   UNL d   1       3.730   0.016  -0.206  0.00  0.00    -0.190 NA
ENDROOT
BRANCH   1   6
ATOM      6  C   UNL d   1       0.337   1.083   0.536  0.00  0.00     0.184 C 
ATOM      7  O   UNL d   1       0.834   1.629   1.516  0.00  0.00    -0.290 OA
ATOM      8  C   UNL d   1      -1.015   1.443  -0.003  0.00  0.00     0.099 C 
ENDBRANCH   1   6
BRANCH   2   9
ATOM      9  N   UNL d   1       1.228  -1.956  -1.380  0.00  0.00    -0.300 N 
ATOM     10  H   UNL d   1       2.090  -2.291  -0.942  0.00  0.00     0.187 HD
BRANCH   9  11
ATOM     11  C   UNL d   1       0.486  -3.005  -1.972  0.00  0.00     0.048 A 
ATOM     12  C   UNL d   1      -0.776  -2.779  -2.543  0.00  0.00     0.034 A 
ATOM     13  C   UNL d   1      -1.492  -3.820  -3.136  0.00  0.00     0.044 A 
ATOM     14  C   UNL d   1      -0.946  -5.096  -3.163  0.00  0.00     0.116 A 
ATOM     15  C   UNL d   1       0.311  -5.344  -2.627  0.00  0.00     0.044 A 
ATOM     16  F   UNL d   1      -1.638  -6.100  -3.718  0.00  0.00    -0.206 F 
ATOM     17  C   UNL d   1       1.032  -4.297  -2.045  0.00  0.00     0.034 A 
ENDBRANCH   9  11
ENDBRANCH   2   9
TORSDOF 3
