REMARK  10 active torsions:
REMARK  status: ('A' for Active; 'I' for Inactive)
REMARK    1  A    between atoms: N_2  and  S_1 
REMARK    2  A    between atoms: C_4  and  S_1 
REMARK    3  A    between atoms: C_3  and  N_8 
REMARK    4  A    between atoms: N_12  and  C_3 
REMARK    5  A    between atoms: O_21  and  C_7 
REMARK    6  A    between atoms: N_8  and  C_16 
REMARK    7  A    between atoms: O_22  and  C_10 
REMARK    8  A    between atoms: C_25  and  N_12 
REMARK    9  A    between atoms: C_17  and  C_26 
REMARK   10  A    between atoms: C_26  and  C_25 
ROOT
ATOM      1  N   UNL d   1      -0.750   0.042   5.619  0.00  0.00    -0.333 N 
ATOM      2  H   UNL d   1      -0.454   0.797   6.224  0.00  0.00     0.168 HD
ENDROOT
BRANCH   1   3
ATOM      3  C   UNL d   1      -1.119  -1.102   6.328  0.00  0.00     0.172 C 
ATOM      4  S   UNL d   1      -1.291  -2.660   5.726  0.00  0.00    -0.041 SA
BRANCH   3   5
ATOM      5  N   UNL d   1      -1.206  -0.804   7.700  0.00  0.00    -0.367 N 
ATOM      6  H   UNL d   1      -1.615   0.096   7.931  0.00  0.00     0.161 HD
BRANCH   5   7
ATOM      7  C   UNL d   1      -1.316  -1.857   8.710  0.00  0.00     0.126 C 
BRANCH   7   8
ATOM      8  C   UNL d   1      -1.059  -1.436  10.159  0.00  0.00     0.058 C 
BRANCH   8   9
ATOM      9  C   UNL d   1      -1.000  -2.663  11.052  0.00  0.00    -0.054 A 
ATOM     10  C   UNL d   1      -2.106  -3.527  11.137  0.00  0.00     0.046 A 
ATOM     11  C   UNL d   1      -2.084  -4.697  11.915  0.00  0.00     0.102 A 
ATOM     12  C   UNL d   1      -0.917  -5.006  12.631  0.00  0.00     0.101 A 
ATOM     13  C   UNL d   1       0.181  -4.136  12.565  0.00  0.00     0.040 A 
ATOM     14  C   UNL d   1       0.148  -2.979  11.781  0.00  0.00     0.010 A 
BRANCH  11  15
ATOM     15  O   UNL d   1      -3.163  -5.533  12.034  0.00  0.00    -0.353 OA
ATOM     16  C   UNL d   1      -4.335  -5.219  11.292  0.00  0.00     0.210 C 
ENDBRANCH  11  15
BRANCH  12  17
ATOM     17  O   UNL d   1      -0.709  -6.069  13.474  0.00  0.00    -0.353 OA
ATOM     18  C   UNL d   1      -1.405  -7.276  13.188  0.00  0.00     0.210 C 
ENDBRANCH  12  17
ENDBRANCH   8   9
ENDBRANCH   7   8
ENDBRANCH   5   7
ENDBRANCH   3   5
ENDBRANCH   1   3
BRANCH   1  19
ATOM     19  C   UNL d   1      -0.255   0.122   4.288  0.00  0.00     0.034 A 
ATOM     20  C   UNL d   1      -0.717  -0.648   3.214  0.00  0.00     0.031 A 
ATOM     21  C   UNL d   1      -0.141  -0.540   1.934  0.00  0.00     0.027 A 
ATOM     22  C   UNL d   1       0.909   0.353   1.722  0.00  0.00     0.074 A 
ATOM     23  C   UNL d   1       1.365   1.146   2.782  0.00  0.00     0.027 A 
ATOM     24  C   UNL d   1       0.769   1.047   4.047  0.00  0.00     0.031 A 
BRANCH  22  25
ATOM     25  S   UNL d   1       1.440   0.727   0.067  0.00  0.00     0.243 S 
ATOM     26  O   UNL d   1       0.248   1.064  -0.674  0.00  0.00    -0.206 OA
ATOM     27  O   UNL d   1       2.535   1.676   0.152  0.00  0.00    -0.206 OA
BRANCH  25  28
ATOM     28  N   UNL d   1       2.106  -0.705  -0.631  0.00  0.00    -0.206 NA
ATOM     29  C   UNL d   1       3.358  -1.208   0.007  0.00  0.00     0.107 C 
ATOM     30  C   UNL d   1       3.730  -2.556  -0.612  0.00  0.00     0.015 C 
ATOM     31  C   UNL d   1       3.966  -2.423  -2.116  0.00  0.00     0.002 C 
ATOM     32  C   UNL d   1       2.753  -1.795  -2.789  0.00  0.00     0.015 C 
ATOM     33  C   UNL d   1       2.329  -0.499  -2.106  0.00  0.00     0.107 C 
ENDBRANCH  25  28
ENDBRANCH  22  25
ENDBRANCH   1  19
TORSDOF 10
