REMARK  5 active torsions:
REMARK  status: ('A' for Active; 'I' for Inactive)
REMARK    1  A    between atoms: C_4  and  C_1 
REMARK    2  A    between atoms: C_5  and  C_1 
REMARK    3  A    between atoms: N_2  and  C_3 
REMARK    4  A    between atoms: C_13  and  C_4 
REMARK    5  A    between atoms: N_7  and  C_5 
ROOT
ATOM      1  C   UNL d   1       1.095  -0.005  -0.030  0.00  0.00     0.093 C 
ATOM      2  C   UNL d   1       0.472   0.744  -0.968  0.00  0.00     0.116 C 
ENDROOT
BRANCH   1   3
ATOM      3  C   UNL d   1       0.343  -0.780   0.992  0.00  0.00     0.203 C 
ATOM      4  O   UNL d   1      -0.796  -0.460   1.332  0.00  0.00    -0.286 OA
BRANCH   3   5
ATOM      5  C   UNL d   1       0.997  -1.963   1.620  0.00  0.00     0.015 A 
ATOM      6  C   UNL d   1       0.709  -2.258   2.958  0.00  0.00     0.015 A 
ATOM      7  C   UNL d   1       1.329  -3.340   3.590  0.00  0.00     0.001 A 
ATOM      8  C   UNL d   1       2.235  -4.135   2.887  0.00  0.00     0.000 A 
ATOM      9  C   UNL d   1       2.500  -3.869   1.546  0.00  0.00     0.001 A 
ATOM     10  C   UNL d   1       1.867  -2.802   0.906  0.00  0.00     0.015 A 
ENDBRANCH   3   5
ENDBRANCH   1   3
BRANCH   1  11
ATOM     11  C   UNL d   1       2.615  -0.005  -0.030  0.00  0.00    -0.032 C 
BRANCH  11  12
ATOM     12  N   UNL d   1       3.876  -0.005  -0.030  0.00  0.00    -0.365 N 
ATOM     13  HN2 UNL d   1       2.856  -0.005  -0.030  1.00  0.00     0.165 HD
ATOM     14  HN1 UNL d   1       4.896  -0.005  -0.030  1.00  0.00     0.165 HD
ENDBRANCH  11  12
ENDBRANCH   1  11
BRANCH   2  15
ATOM     15  N   UNL d   1       1.010   1.449  -2.051  0.00  0.00    -0.354 N 
ATOM     16  C   UNL d   1       0.290   2.236  -2.993  0.00  0.00     0.040 A 
ATOM     17  C   UNL d   1       1.033   2.514  -4.147  0.00  0.00    -0.030 A 
ATOM     18  C   UNL d   1      -0.993   2.751  -2.883  0.00  0.00     0.030 A 
ATOM     19  C   UNL d   1       0.529   3.247  -5.210  0.00  0.00     0.009 A 
ATOM     20  C   UNL d   1       2.410   1.979  -4.014  0.00  0.00     0.061 C 
ATOM     21  C   UNL d   1      -0.770   3.732  -5.107  0.00  0.00     0.001 A 
ATOM     22  C   UNL d   1      -1.520   3.497  -3.946  0.00  0.00     0.002 A 
ATOM     23  C   UNL d   1       2.262   1.095  -2.774  0.00  0.00     0.133 C 
ENDBRANCH   2  15
TORSDOF 5
