REMARK  3 active torsions:
REMARK  status: ('A' for Active; 'I' for Inactive)
REMARK    1  A    between atoms: C_5  and  C_3 
REMARK    2  A    between atoms: C_9  and  N_4 
REMARK       I    between atoms: N_11  and  C_5 
REMARK    3  A    between atoms: N_16  and  N_11 
ROOT
ATOM      1  N   UNL d   1       1.217  -0.660  -0.144  0.00  0.00    -0.286 N 
ATOM      2  HN  UNL d   1       2.085  -1.182  -0.269  1.00  0.00     0.188 HD
ATOM      3  C   UNL d   1       1.206   0.649  -0.175  0.00  0.00     0.168 C 
ATOM      4  N   UNL d   1       0.021  -1.309   0.064  0.00  0.00    -0.267 N 
ATOM      5  C   UNL d   1      -0.059   1.442   0.055  0.00  0.00     0.206 C 
ATOM      6  C   UNL d   1      -1.321   0.694   0.039  0.00  0.00     0.076 C 
ATOM      7  C   UNL d   1      -1.186  -0.632   0.059  0.00  0.00     0.120 C 
ATOM      8  O   UNL d   1      -0.033   2.641   0.281  0.00  0.00    -0.286 OA
ENDROOT
BRANCH   3   9
ATOM      9  C   UNL d   1       2.526   1.333  -0.458  0.00  0.00     0.287 C 
ATOM     10  O   UNL d   1       2.582   2.319  -1.180  0.00  0.00    -0.264 OA
ATOM     11  N   UNL d   1       3.622   0.714   0.129  0.00  0.00    -0.288 N 
ATOM     12  H   UNL d   1       3.489  -0.146   0.662  0.00  0.00     0.183 HD
BRANCH  11  13
ATOM     13  N   UNL d   1       4.918   1.244  -0.053  0.00  0.00    -0.247 NA
ATOM     14  H   UNL d   1       4.809   2.224  -0.347  0.00  0.00     0.143 HD
ATOM     15  H   UNL d   1       5.336   0.790  -0.870  0.00  0.00     0.143 HD
ENDBRANCH  11  13
ENDBRANCH   3   9
BRANCH   4  16
ATOM     16  C   UNL d   1       0.108  -2.734   0.187  0.00  0.00     0.056 A 
ATOM     17  C   UNL d   1      -0.865  -3.478   0.885  0.00  0.00     0.034 A 
ATOM     18  C   UNL d   1      -0.780  -4.871   0.989  0.00  0.00     0.044 A 
ATOM     19  C   UNL d   1       0.285  -5.537   0.401  0.00  0.00     0.116 A 
ATOM     20  C   UNL d   1       1.271  -4.838  -0.279  0.00  0.00     0.044 A 
ATOM     21  F   UNL d   1       0.362  -6.871   0.494  0.00  0.00    -0.206 F 
ATOM     22  C   UNL d   1       1.188  -3.444  -0.377  0.00  0.00     0.034 A 
ENDBRANCH   4  16
TORSDOF 3
