REMARK  7 active torsions:
REMARK  status: ('A' for Active; 'I' for Inactive)
REMARK    1  A    between atoms: C_2  and  C_1 
REMARK    2  A    between atoms: O_3  and  C_1 
REMARK    3  A    between atoms: C_4  and  O_3 
REMARK    4  A    between atoms: O_17  and  C_5 
REMARK    5  A    between atoms: C_14  and  C_18 
REMARK    6  A    between atoms: C_19  and  C_15 
REMARK    7  A    between atoms: C_18  and  C_19 
ROOT
ATOM      1  C   UNL d   1      -1.104   0.352   1.049  0.00  0.00     0.112 A 
ATOM      2  C   UNL d   1      -1.786  -0.781   0.597  0.00  0.00     0.102 A 
ATOM      3  C   UNL d   1      -3.178  -0.827   0.748  0.00  0.00     0.046 A 
ATOM      4  C   UNL d   1      -1.783   1.413   1.653  0.00  0.00     0.041 A 
ATOM      5  C   UNL d   1      -3.883   0.237   1.341  0.00  0.00    -0.055 A 
ATOM      6  C   UNL d   1      -3.170   1.358   1.789  0.00  0.00     0.010 A 
ENDROOT
BRANCH   1   7
ATOM      7  O   UNL d   1       0.300   0.449   1.031  0.00  0.00    -0.271 OA
BRANCH   7   8
ATOM      8  C   UNL d   1       0.959   0.413  -0.199  0.00  0.00     0.322 C 
ATOM      9  O   UNL d   1       0.428   0.319  -1.301  0.00  0.00    -0.257 OA
BRANCH   8  10
ATOM     10  C   UNL d   1       2.384   0.556   0.023  0.00  0.00     0.150 A 
ATOM     11  O   UNL d   1       2.857   0.838   1.281  0.00  0.00    -0.317 OA
ATOM     12  C   UNL d   1       4.206   0.957   1.194  0.00  0.00     0.143 A 
ATOM     13  C   UNL d   1       4.624   0.748  -0.098  0.00  0.00     0.027 A 
ATOM     14  C   UNL d   1       3.454   0.491  -0.854  0.00  0.00     0.045 A 
ENDBRANCH   8  10
ENDBRANCH   7   8
ENDBRANCH   1   7
BRANCH   2  15
ATOM     15  O   UNL d   1      -1.038  -1.802   0.076  0.00  0.00    -0.353 OA
ATOM     16  C   UNL d   1      -1.724  -2.684  -0.806  0.00  0.00     0.210 C 
ENDBRANCH   2  15
BRANCH   5  17
ATOM     17  C   UNL d   1      -5.391   0.197   1.448  0.00  0.00     0.046 C 
BRANCH  17  18
ATOM     18  C   UNL d   1      -5.922  -0.969   2.284  0.00  0.00     0.082 C 
BRANCH  18  19
ATOM     19  C   UNL d   1      -7.439  -0.984   2.321  0.00  0.00     0.123 C 
ATOM     20  O   UNL d   1      -8.126  -0.136   1.749  0.00  0.00    -0.298 OA
ATOM     21  C   UNL d   1      -8.081  -2.105   3.095  0.00  0.00     0.091 C 
ENDBRANCH  18  19
ENDBRANCH  17  18
ENDBRANCH   5  17
TORSDOF 7
