REMARK  4 active torsions:
REMARK  status: ('A' for Active; 'I' for Inactive)
REMARK    1  A    between atoms: C_2  and  C_1 
REMARK       I    between atoms: N_3  and  C_1 
REMARK       I    between atoms: C_4  and  N_3 
REMARK       I    between atoms: N_7  and  C_4 
REMARK    2  A    between atoms: C_5  and  N_7 
REMARK    3  A    between atoms: O_16  and  C_6 
REMARK    4  A    between atoms: O_20  and  C_8 
ROOT
ATOM      1  C   UNL d   1       0.913   0.198   0.084  0.00  0.00     0.265 C 
ATOM      2  N   UNL d   1       1.063   0.576   1.423  0.00  0.00    -0.275 N 
ATOM      3  C   UNL d   1       1.558   1.617   2.155  0.00  0.00     0.327 C 
ATOM      4  N   UNL d   1       1.840   2.798   1.543  0.00  0.00    -0.303 N 
ATOM      5  O   UNL d   1       1.144   0.944  -0.855  0.00  0.00    -0.267 OA
ATOM      6  O   UNL d   1       1.646   1.404   3.370  0.00  0.00    -0.247 OA
ATOM      7  H   UNL d   1       0.914  -0.179   2.081  0.00  0.00     0.173 HD
ATOM      8  H   UNL d   1       1.302   2.951   0.695  0.00  0.00     0.171 HD
ENDROOT
BRANCH   1   9
ATOM      9  C   UNL d   1       0.332  -1.225  -0.056  0.00  0.00     0.100 A 
ATOM     10  C   UNL d   1       0.598  -2.212   0.959  0.00  0.00     0.104 A 
ATOM     11  C   UNL d   1      -0.141  -3.406   0.969  0.00  0.00     0.045 A 
ATOM     12 BR   UNL d   1      -0.121  -4.758   2.308  0.00  0.00    -0.048 Br
ATOM     13  C   UNL d   1      -1.057  -3.659  -0.053  0.00  0.00     0.025 A 
ATOM     14  C   UNL d   1      -1.246  -2.749  -1.089  0.00  0.00     0.039 A 
ATOM     15  C   UNL d   1      -0.564  -1.526  -1.108  0.00  0.00     0.086 A 
BRANCH  10  16
ATOM     16  O   UNL d   1       1.581  -1.829   1.833  0.00  0.00    -0.353 OA
ATOM     17  C   UNL d   1       2.057  -2.623   2.902  0.00  0.00     0.210 C 
ENDBRANCH  10  16
BRANCH  15  18
ATOM     18  O   UNL d   1      -0.773  -0.593  -2.090  0.00  0.00    -0.355 OA
ATOM     19  C   UNL d   1      -1.567  -0.982  -3.210  0.00  0.00     0.210 C 
ENDBRANCH  15  18
ENDBRANCH   1   9
BRANCH   4  20
ATOM     20  C   UNL d   1       2.018   3.925   2.406  0.00  0.00     0.114 A 
ATOM     21  C   UNL d   1       2.959   3.933   3.450  0.00  0.00     0.146 A 
ATOM     22  F   UNL d   1       3.901   2.978   3.526  0.00  0.00    -0.204 F 
ATOM     23  C   UNL d   1       2.945   4.922   4.435  0.00  0.00     0.045 A 
ATOM     24  C   UNL d   1       1.984   5.930   4.389  0.00  0.00     0.006 A 
ATOM     25  C   UNL d   1       1.081   5.972   3.324  0.00  0.00     0.045 A 
ATOM     26  C   UNL d   1       1.120   4.988   2.335  0.00  0.00     0.146 A 
ATOM     27  F   UNL d   1       0.199   5.015   1.361  0.00  0.00    -0.204 F 
ENDBRANCH   4  20
TORSDOF 4
