REMARK  3 active torsions:
REMARK  status: ('A' for Active; 'I' for Inactive)
REMARK    1  A    between atoms: C_12  and  C_10 
REMARK    2  A    between atoms: C_14  and  C_11 
REMARK    3  A    between atoms: O_24  and  C_23 
ROOT
ATOM      1  N   UNL d   1       0.303   0.649   0.074  0.00  0.00    -0.238 N 
ATOM      2  C   UNL d   1       0.157  -0.742   0.031  0.00  0.00     0.130 A 
ATOM      3  C   UNL d   1      -0.835   1.487   0.080  0.00  0.00     0.077 A 
ATOM      4  N   UNL d   1       1.620   0.992   0.105  0.00  0.00    -0.291 N 
ATOM      5  HN  UNL d   1       2.007   1.934   0.172  1.00  0.00     0.187 HD
ATOM      6  N   UNL d   1      -1.058  -1.362   0.034  0.00  0.00    -0.337 N 
ATOM      7  HN  UNL d   1      -1.137  -2.379   0.025  1.00  0.00     0.167 HD
ATOM      8  C   UNL d   1       1.428  -1.264  -0.012  0.00  0.00     0.082 A 
ATOM      9  C   UNL d   1      -2.053   0.906   0.045  0.00  0.00     0.067 A 
ATOM     10  C   UNL d   1      -2.116  -0.595   0.051  0.00  0.00     0.120 A 
ATOM     11  C   UNL d   1       2.304  -0.157   0.028  0.00  0.00     0.062 A 
ATOM     12  C   UNL d   1      -0.724   2.925   0.091  0.00  0.00     0.033 A 
ATOM     13  S   UNL d   1      -1.904   3.928   0.876  0.00  0.00    -0.100 SA
ATOM     14  C   UNL d   1       0.271   3.733  -0.448  0.00  0.00     0.021 A 
ATOM     15  C   UNL d   1      -1.104   5.370   0.448  0.00  0.00     0.050 A 
ATOM     16  C   UNL d   1       0.055   5.127  -0.246  0.00  0.00     0.008 A 
ENDROOT
BRANCH  11  17
ATOM     17  C   UNL d   1       3.768  -0.172   0.007  0.00  0.00    -0.005 A 
ATOM     18  C   UNL d   1       4.491   0.860   0.630  0.00  0.00     0.050 A 
ATOM     19  C   UNL d   1       5.888   0.852   0.631  0.00  0.00     0.069 A 
ATOM     20  C   UNL d   1       6.566  -0.188  -0.007  0.00  0.00     0.037 A 
ATOM     21  C   UNL d   1       5.863  -1.214  -0.636  0.00  0.00     0.004 A 
ATOM     22  C   UNL d   1       4.467  -1.209  -0.626  0.00  0.00     0.014 A 
BRANCH  19  23
ATOM     23  O   UNL d   1       6.695   1.789   1.217  0.00  0.00    -0.356 OA
ATOM     24  C   UNL d   1       6.046   2.853   1.904  0.00  0.00     0.210 C 
ENDBRANCH  19  23
ENDBRANCH  11  17
BRANCH  10  25
ATOM     25  C   UNL d   1      -3.511  -1.227   0.087  0.00  0.00     0.432 C 
ATOM     26  F   UNL d   1      -4.510  -0.299   0.103  0.00  0.00    -0.165 F 
ATOM     27  F   UNL d   1      -3.749  -2.019  -0.993  0.00  0.00    -0.165 F 
ATOM     28  F   UNL d   1      -3.698  -2.000   1.190  0.00  0.00    -0.165 F 
ENDBRANCH  10  25
TORSDOF 3
