REMARK  2 active torsions:
REMARK  status: ('A' for Active; 'I' for Inactive)
REMARK    1  A    between atoms: C_2  and  C_1 
REMARK    2  A    between atoms: O_13  and  C_5 
ROOT
ATOM      1  C   UNL d   1       0.564   1.351  -0.424  0.00  0.00     0.065 A 
ATOM      2  N   UNL d   1      -0.994   2.815  -1.567  0.00  0.00    -0.345 N 
ATOM      3  HN  UNL d   1      -1.819   2.947  -2.153  1.00  0.00     0.167 HD
ATOM      4  C   UNL d   1      -0.281   3.856  -1.095  0.00  0.00     0.162 A 
ATOM      5  C   UNL d   1       1.275   2.466   0.043  0.00  0.00     0.045 A 
ATOM      6  C   UNL d   1       0.847   3.747  -0.296  0.00  0.00     0.085 A 
ATOM      7  C   UNL d   1      -0.553   1.583  -1.219  0.00  0.00     0.106 A 
ATOM      8 CL   UNL d   1       1.715   5.115   0.275  0.00  0.00    -0.080 Cl
ENDROOT
BRANCH   1   9
ATOM      9  C   UNL d   1       0.964  -0.055  -0.102  0.00  0.00     0.418 C 
ATOM     10  F   UNL d   1       2.064  -0.137   0.695  0.00  0.00    -0.166 F 
ATOM     11  F   UNL d   1       1.254  -0.780  -1.216  0.00  0.00    -0.166 F 
ATOM     12  F   UNL d   1      -0.019  -0.739   0.544  0.00  0.00    -0.166 F 
ENDBRANCH   1   9
BRANCH   4  13
ATOM     13  O   UNL d   1      -0.781   5.056  -1.485  0.00  0.00    -0.345 OA
ATOM     14  H   UNL d   1      -1.544   4.764  -2.015  0.00  0.00     0.219 HD
ENDBRANCH   4  13
TORSDOF 2
