REMARK  4 active torsions:
REMARK  status: ('A' for Active; 'I' for Inactive)
REMARK    1  A    between atoms: C_4  and  C_1 
REMARK    2  A    between atoms: N_2  and  C_3 
REMARK       I    between atoms: C_9  and  N_2 
REMARK    3  A    between atoms: C_14  and  N_5 
REMARK    4  A    between atoms: N_7  and  C_19 
ROOT
ATOM      1  N   UNL d   1      -1.150   3.586  -0.168  0.00  0.00    -0.300 N 
ATOM      2  HN  UNL d   1      -0.161   3.577  -0.417  1.00  0.00     0.187 HD
ATOM      3  N   UNL d   1      -1.825   2.558   0.061  0.00  0.00    -0.300 N 
ATOM      4  HN  UNL d   1      -2.825   2.577   0.257  1.00  0.00     0.187 HD
ENDROOT
BRANCH   1   5
ATOM      5  C   UNL d   1      -1.923   4.761  -0.040  0.00  0.00     0.048 A 
ATOM      6  C   UNL d   1      -2.990   4.896   0.862  0.00  0.00     0.039 A 
ATOM      7  C   UNL d   1      -3.728   6.093   0.986  0.00  0.00    -0.033 A 
ATOM      8  C   UNL d   1      -4.859   6.095   1.980  0.00  0.00     0.050 C 
ATOM      9  C   UNL d   1      -3.380   7.203   0.185  0.00  0.00     0.040 A 
ATOM     10  C   UNL d   1      -2.302   7.068  -0.697  0.00  0.00     0.032 A 
ATOM     11  C   UNL d   1      -1.586   5.871  -0.809  0.00  0.00     0.033 A 
BRANCH   9  12
ATOM     12  N   UNL d   1      -4.117   8.417   0.292  0.00  0.00    -0.327 N 
ATOM     13  C   UNL d   1      -3.901   9.587  -0.425  0.00  0.00     0.218 C 
ATOM     14  O   UNL d   1      -3.037   9.779  -1.272  0.00  0.00    -0.274 OA
ATOM     15  C   UNL d   1      -4.858  10.703  -0.093  0.00  0.00     0.117 C 
ATOM     16  H   UNL d   1      -4.880   8.421   0.956  0.00  0.00     0.169 HD
ENDBRANCH   9  12
ENDBRANCH   1   5
BRANCH   3  17
ATOM     17  C   UNL d   1      -1.067   1.371   0.022  0.00  0.00     0.048 A 
ATOM     18  C   UNL d   1       0.297   1.296   0.348  0.00  0.00     0.047 A 
ATOM     19  C   UNL d   1       0.981   0.068   0.345  0.00  0.00     0.050 A 
ATOM     20  C   UNL d   1       0.278  -1.101   0.020  0.00  0.00     0.016 A 
ATOM     21  C   UNL d   1      -1.078  -1.044  -0.296  0.00  0.00     0.003 A 
ATOM     22  C   UNL d   1      -1.741   0.185  -0.291  0.00  0.00     0.031 A 
BRANCH  19  23
ATOM     23  C   UNL d   1       2.446  -0.008   0.696  0.00  0.00     0.417 C 
ATOM     24  F   UNL d   1       3.004   1.199   0.989  0.00  0.00    -0.166 F 
ATOM     25  F   UNL d   1       2.680  -0.799   1.780  0.00  0.00    -0.166 F 
ATOM     26  F   UNL d   1       3.196  -0.530  -0.315  0.00  0.00    -0.166 F 
ENDBRANCH  19  23
ENDBRANCH   3  17
TORSDOF 4
