REMARK  3 active torsions:
REMARK  status: ('A' for Active; 'I' for Inactive)
REMARK    1  A    between atoms: N_3  and  C_1 
REMARK       I    between atoms: C_2  and  N_3 
REMARK       I    between atoms: N_7  and  C_2 
REMARK    2  A    between atoms: C_10  and  N_3 
REMARK    3  A    between atoms: C_9  and  N_7 
ROOT
ATOM      1  C   UNL d   1       3.633   0.997  -0.410  0.00  0.00     0.329 C 
ATOM      2  N   UNL d   1       2.238   1.360  -0.316  0.00  0.00    -0.275 N 
ATOM      3  N   UNL d   1       3.902  -0.161  -1.102  0.00  0.00    -0.308 N 
ATOM      4  O   UNL d   1       4.514   1.686   0.098  0.00  0.00    -0.246 OA
ATOM      5  H   UNL d   1       3.097  -0.684  -1.419  0.00  0.00     0.170 HD
ENDROOT
BRANCH   2   6
ATOM      6  C   UNL d   1       1.106   0.576  -0.598  0.00  0.00     0.147 C 
ATOM      7  N   UNL d   1      -0.081   1.052  -0.731  0.00  0.00    -0.369 N 
ATOM      8  C   UNL d   1      -1.035   0.047  -1.235  0.00  0.00     0.137 C 
ATOM      9  HN  UNL d   1      -0.334   2.016  -0.514  1.00  0.00     0.161 HD
ATOM     10  C   UNL d   1      -0.529  -1.370  -1.008  0.00  0.00     0.069 C 
ATOM     11  S   UNL d   1       1.245  -1.156  -0.794  0.00  0.00    -0.088 SA
ATOM     12  C   UNL d   1      -1.160  -2.045   0.200  0.00  0.00     0.023 C 
ENDBRANCH   2   6
BRANCH   2  13
ATOM     13  C   UNL d   1       2.079   2.690   0.352  0.00  0.00     0.096 C 
ATOM     14  C   UNL d   1       2.282   2.554   1.879  0.00  0.00     0.026 C 
ATOM     15  C   UNL d   1       0.991   2.472   2.676  0.00  0.00     0.002 C 
ATOM     16  C   UNL d   1       0.122   3.681   2.381  0.00  0.00     0.000 C 
ATOM     17  C   UNL d   1      -0.288   3.683   0.916  0.00  0.00     0.002 C 
ATOM     18  C   UNL d   1       0.910   3.627  -0.039  0.00  0.00     0.026 C 
ENDBRANCH   2  13
BRANCH   3  19
ATOM     19  C   UNL d   1       5.144  -0.822  -1.238  0.00  0.00     0.037 A 
ATOM     20  C   UNL d   1       6.370  -0.281  -0.847  0.00  0.00     0.053 A 
ATOM     21  C   UNL d   1       7.538  -1.036  -0.972  0.00  0.00     0.036 A 
ATOM     22 CL   UNL d   1       9.046  -0.369  -0.475  0.00  0.00    -0.084 Cl
ATOM     23  C   UNL d   1       7.498  -2.329  -1.489  0.00  0.00     0.024 A 
ATOM     24  C   UNL d   1       6.284  -2.870  -1.896  0.00  0.00     0.004 A 
ATOM     25  C   UNL d   1       5.112  -2.116  -1.777  0.00  0.00     0.029 A 
ENDBRANCH   3  19
TORSDOF 3
