REMARK  5 active torsions:
REMARK  status: ('A' for Active; 'I' for Inactive)
REMARK    1  A    between atoms: N_2  and  S_1 
REMARK    2  A    between atoms: C_12  and  S_1 
REMARK    3  A    between atoms: S_5  and  N_2 
REMARK    4  A    between atoms: C_4  and  N_10 
REMARK    5  A    between atoms: C_6  and  C_7 
ROOT
ATOM      1  S   UNL d   1       0.323   2.027  -1.672  0.00  0.00    -0.114 SA
ATOM      2  N   UNL d   1       1.648   4.526  -3.049  0.00  0.00    -0.364 N 
ATOM      3  C   UNL d   1       1.266   3.413  -0.914  0.00  0.00     0.105 C 
ATOM      4  C   UNL d   1       1.053   2.202  -3.349  0.00  0.00     0.105 C 
ATOM      5  C   UNL d   1       1.074   4.712  -1.710  0.00  0.00     0.135 C 
ATOM      6  C   UNL d   1       0.885   3.611  -3.905  0.00  0.00     0.135 C 
ENDROOT
BRANCH   1   7
ATOM      7  N   UNL d   1       1.310   0.832  -1.259  0.00  0.00    -0.264 N 
ATOM      8  HN  UNL d   1       2.019   0.499  -1.913  1.00  0.00     0.186 HD
BRANCH   7   9
ATOM      9  S   UNL d   1       1.161   0.125   0.289  0.00  0.00     0.267 S 
ATOM     10  O   UNL d   1      -0.190  -0.355   0.498  0.00  0.00    -0.200 OA
ATOM     11  O   UNL d   1       1.834   0.956   1.268  0.00  0.00    -0.200 OA
BRANCH   9  12
ATOM     12  C   UNL d   1       2.196  -1.301  -0.006  0.00  0.00     0.080 A 
ATOM     13  C   UNL d   1       3.586  -1.180   0.110  0.00  0.00     0.027 A 
ATOM     14  C   UNL d   1       4.398  -2.273  -0.201  0.00  0.00     0.025 A 
ATOM     15  C   UNL d   1       3.818  -3.475  -0.613  0.00  0.00     0.034 A 
ATOM     16  C   UNL d   1       2.431  -3.598  -0.711  0.00  0.00     0.025 A 
ATOM     17 CL   UNL d   1       4.822  -4.813  -1.014  0.00  0.00    -0.084 Cl
ATOM     18  C   UNL d   1       1.612  -2.509  -0.404  0.00  0.00     0.027 A 
ENDBRANCH   9  12
ENDBRANCH   7   9
ENDBRANCH   1   7
BRANCH   2  19
ATOM     19  C   UNL d   1       2.322   5.566  -3.672  0.00  0.00     0.125 A 
ATOM     20  N   UNL d   1       1.891   5.933  -4.906  0.00  0.00    -0.350 N 
ATOM     21  C   UNL d   1       2.610   6.832  -5.620  0.00  0.00     0.106 A 
ATOM     22  HN  UNL d   1       1.034   5.536  -5.292  1.00  0.00     0.166 HD
ATOM     23  C   UNL d   1       3.777   7.422  -5.170  0.00  0.00     0.065 A 
ATOM     24  C   UNL d   1       4.211   7.075  -3.891  0.00  0.00     0.045 A 
ATOM     25  C   UNL d   1       3.492   6.141  -3.139  0.00  0.00     0.078 A 
ATOM     26 CL   UNL d   1       4.205   5.646  -1.639  0.00  0.00    -0.080 Cl
BRANCH  23  27
ATOM     27  C   UNL d   1       4.538   8.348  -6.062  0.00  0.00     0.418 C 
ATOM     28  F   UNL d   1       5.659   8.859  -5.483  0.00  0.00    -0.166 F 
ATOM     29  F   UNL d   1       4.955   7.739  -7.205  0.00  0.00    -0.166 F 
ATOM     30  F   UNL d   1       3.797   9.421  -6.456  0.00  0.00    -0.166 F 
ENDBRANCH  23  27
ENDBRANCH   2  19
TORSDOF 5
