REMARK  6 active torsions:
REMARK  status: ('A' for Active; 'I' for Inactive)
REMARK    1  A    between atoms: S_12  and  C_3 
REMARK    2  A    between atoms: S_13  and  C_4 
REMARK    3  A    between atoms: C_7  and  C_11 
REMARK    4  A    between atoms: C_8  and  C_10 
REMARK    5  A    between atoms: C_10  and  S_13 
REMARK    6  A    between atoms: C_11  and  S_12 
ROOT
ATOM      1  N   UNL d   1       1.462  -0.592   0.157  0.00  0.00    -0.324 N 
ATOM      2  HN  UNL d   1       2.400  -0.983   0.244  1.00  0.00     0.169 HD
ATOM      3  C   UNL d   1       1.122   0.759   0.214  0.00  0.00     0.152 A 
ATOM      4  C   UNL d   1       0.347  -1.271  -0.031  0.00  0.00     0.130 A 
ATOM      5  N   UNL d   1      -0.153   1.132   0.082  0.00  0.00    -0.305 N 
ATOM      6  HN  UNL d   1      -0.514   2.086   0.105  1.00  0.00     0.176 HD
ATOM      7  S   UNL d   1      -1.036  -0.257  -0.128  0.00  0.00     0.013 SA
ENDROOT
BRANCH   3   8
ATOM      8  S   UNL d   1       2.294   2.039   0.448  0.00  0.00    -0.089 SA
BRANCH   8   9
ATOM      9  C   UNL d   1       3.844   1.130   0.647  0.00  0.00     0.126 C 
BRANCH   9  10
ATOM     10  C   UNL d   1       4.993   2.092   0.835  0.00  0.00     0.012 A 
ATOM     11  C   UNL d   1       5.673   2.567  -0.294  0.00  0.00     0.125 A 
ATOM     12  F   UNL d   1       5.331   2.122  -1.513  0.00  0.00    -0.205 F 
ATOM     13  C   UNL d   1       6.700   3.506  -0.201  0.00  0.00     0.043 A 
ATOM     14  C   UNL d   1       7.074   3.996   1.046  0.00  0.00     0.005 A 
ATOM     15  C   UNL d   1       6.414   3.543   2.188  0.00  0.00     0.024 A 
ATOM     16  C   UNL d   1       5.381   2.601   2.085  0.00  0.00     0.044 A 
ATOM     17 CL   UNL d   1       4.608   2.110   3.550  0.00  0.00    -0.084 Cl
ENDBRANCH   9  10
ENDBRANCH   8   9
ENDBRANCH   3   8
BRANCH   4  18
ATOM     18  S   UNL d   1       0.216  -3.000  -0.168  0.00  0.00    -0.099 SA
BRANCH  18  19
ATOM     19  C   UNL d   1       1.938  -3.551  -0.064  0.00  0.00     0.125 C 
BRANCH  19  20
ATOM     20  C   UNL d   1       2.006  -5.059  -0.142  0.00  0.00     0.012 A 
ATOM     21  C   UNL d   1       1.954  -5.805   1.043  0.00  0.00     0.125 A 
ATOM     22  F   UNL d   1       1.899  -5.173   2.224  0.00  0.00    -0.205 F 
ATOM     23  C   UNL d   1       1.943  -7.199   1.041  0.00  0.00     0.043 A 
ATOM     24  C   UNL d   1       1.984  -7.887  -0.167  0.00  0.00     0.005 A 
ATOM     25  C   UNL d   1       2.036  -7.172  -1.363  0.00  0.00     0.024 A 
ATOM     26  C   UNL d   1       2.046  -5.769  -1.352  0.00  0.00     0.044 A 
ATOM     27 CL   UNL d   1       2.090  -4.965  -2.881  0.00  0.00    -0.084 Cl
ENDBRANCH  19  20
ENDBRANCH  18  19
ENDBRANCH   4  18
TORSDOF 6
