REMARK  5 active torsions:
REMARK  status: ('A' for Active; 'I' for Inactive)
REMARK    1  A    between atoms: C_2  and  N_1 
REMARK    2  A    between atoms: O_5  and  C_3 
REMARK    3  A    between atoms: C_4  and  O_5 
REMARK    4  A    between atoms: O_19  and  C_7 
REMARK    5  A    between atoms: C_9  and  C_8 
ROOT
ATOM      1  C   UNL d   1      -0.289   2.188  -0.126  0.00  0.00     0.128 C 
ATOM      2  C   UNL d   1       1.007   2.743  -0.099  0.00  0.00     0.048 C 
ATOM      3  C   UNL d   1      -1.039   2.188   1.062  0.00  0.00     0.104 C 
ATOM      4  C   UNL d   1       0.903   3.039   2.315  0.00  0.00    -0.030 C 
ATOM      5  C   UNL d   1       1.607   3.116   1.110  0.00  0.00     0.031 C 
ATOM      6  C   UNL d   1      -0.434   2.616   2.260  0.00  0.00     0.049 C 
ATOM      7 BR   UNL d   1       2.016   3.147  -1.671  0.00  0.00    -0.048 Br
ENDROOT
BRANCH   1   8
ATOM      8  O   UNL d   1      -0.858   1.717  -1.292  0.00  0.00    -0.287 OA
BRANCH   8   9
ATOM      9  C   UNL d   1      -0.151   0.776  -2.031  0.00  0.00     0.181 A 
ATOM     10  C   UNL d   1      -0.353   0.661  -3.403  0.00  0.00     0.154 A 
ATOM     11  C   UNL d   1       0.501  -0.176  -4.140  0.00  0.00     0.042 A 
ATOM     12  C   UNL d   1       1.518  -0.864  -3.490  0.00  0.00     0.020 A 
ATOM     13  C   UNL d   1       1.619  -0.735  -2.114  0.00  0.00     0.090 A 
ATOM     14  N   UNL d   1       0.795   0.044  -1.379  0.00  0.00    -0.345 N 
ATOM     15  HN  UNL d   1       0.880   0.083  -0.363  1.00  0.00     0.167 HD
BRANCH  10  16
ATOM     16  N   UNL d   1      -1.396   1.401  -4.105  0.00  0.00    -0.111 N 
ATOM     17  O   UNL d   1      -2.203   2.073  -3.452  0.00  0.00    -0.532 OA
ATOM     18  O   UNL d   1      -1.431   1.294  -5.339  0.00  0.00    -0.532 OA
ENDBRANCH  10  16
ENDBRANCH   8   9
ENDBRANCH   1   8
BRANCH   3  19
ATOM     19  O   UNL d   1      -2.345   1.830   1.271  0.00  0.00    -0.353 OA
ATOM     20  C   UNL d   1      -3.156   1.430   0.179  0.00  0.00     0.210 C 
ENDBRANCH   3  19
BRANCH   4  21
ATOM     21  C   UNL d   1       1.578   3.454   3.604  0.00  0.00     0.141 C 
ATOM     22  S   UNL d   1       1.508   2.167   4.891  0.00  0.00    -0.148 SA
ATOM     23  C   UNL d   1       1.317   3.298   6.287  0.00  0.00     0.085 C 
ATOM     24  C   UNL d   1       0.366   4.395   5.852  0.00  0.00     0.085 C 
ATOM     25  S   UNL d   1       0.925   5.027   4.250  0.00  0.00    -0.148 SA
ENDBRANCH   4  21
TORSDOF 5
