REMARK  5 active torsions:
REMARK  status: ('A' for Active; 'I' for Inactive)
REMARK    1  A    between atoms: C_2  and  C_1 
REMARK       I    between atoms: N_4  and  C_1 
REMARK    2  A    between atoms: N_3  and  C_9 
REMARK       I    between atoms: C_6  and  N_4 
REMARK    3  A    between atoms: C_5  and  N_11 
REMARK       I    between atoms: N_11  and  C_6 
REMARK    4  A    between atoms: O_24  and  C_10 
REMARK    5  A    between atoms: O_26  and  C_15 
ROOT
ATOM      1  C   UNL d   1      -1.259  -1.281  -3.281  0.00  0.00     0.263 C 
ATOM      2  N   UNL d   1      -0.416  -0.300  -2.797  0.00  0.00    -0.275 N 
ATOM      3  C   UNL d   1      -0.258   0.195  -1.532  0.00  0.00     0.327 C 
ATOM      4  N   UNL d   1      -1.258  -0.069  -0.636  0.00  0.00    -0.304 N 
ATOM      5  O   UNL d   1      -2.220  -1.772  -2.716  0.00  0.00    -0.267 OA
ATOM      6  O   UNL d   1       0.796   0.786  -1.302  0.00  0.00    -0.247 OA
ATOM      7  H   UNL d   1       0.391  -0.038  -3.346  0.00  0.00     0.173 HD
ATOM      8  H   UNL d   1      -1.666  -0.994  -0.746  0.00  0.00     0.171 HD
ENDROOT
BRANCH   1   9
ATOM      9  C   UNL d   1      -0.839  -1.722  -4.628  0.00  0.00     0.075 A 
ATOM     10  C   UNL d   1       0.002  -2.839  -4.743  0.00  0.00     0.053 A 
ATOM     11  C   UNL d   1       0.670  -3.091  -5.942  0.00  0.00     0.061 A 
ATOM     12 CL   UNL d   1       0.327  -3.885  -3.409  0.00  0.00    -0.083 Cl
ATOM     13  C   UNL d   1       0.490  -2.224  -7.027  0.00  0.00     0.106 A 
ATOM     14  C   UNL d   1      -0.395  -1.143  -6.943  0.00  0.00     0.061 A 
ATOM     15  C   UNL d   1      -1.060  -0.894  -5.739  0.00  0.00     0.053 A 
ATOM     16 CL   UNL d   1      -2.085   0.492  -5.659  0.00  0.00    -0.083 Cl
BRANCH  13  17
ATOM     17  N   UNL d   1       1.293  -2.410  -8.241  0.00  0.00    -0.116 N 
ATOM     18  O   UNL d   1       0.959  -1.775  -9.249  0.00  0.00    -0.532 OA
ATOM     19  O   UNL d   1       2.264  -3.174  -8.171  0.00  0.00    -0.532 OA
ENDBRANCH  13  17
ENDBRANCH   1   9
BRANCH   4  20
ATOM     20  C   UNL d   1      -1.188   0.443   0.684  0.00  0.00     0.105 A 
ATOM     21  C   UNL d   1      -0.900   1.798   0.950  0.00  0.00     0.119 A 
ATOM     22  C   UNL d   1      -0.650   2.201   2.270  0.00  0.00     0.069 A 
ATOM     23 CL   UNL d   1      -0.128   3.801   2.665  0.00  0.00    -0.081 Cl
ATOM     24  C   UNL d   1      -0.770   1.285   3.320  0.00  0.00     0.030 A 
ATOM     25  C   UNL d   1      -1.147  -0.034   3.064  0.00  0.00     0.041 A 
ATOM     26  C   UNL d   1      -1.376  -0.445   1.752  0.00  0.00     0.098 A 
BRANCH  21  27
ATOM     27  O   UNL d   1      -0.825   2.667  -0.112  0.00  0.00    -0.352 OA
ATOM     28  C   UNL d   1      -1.803   3.703  -0.081  0.00  0.00     0.210 C 
ENDBRANCH  21  27
BRANCH  26  29
ATOM     29  O   UNL d   1      -1.626  -1.773   1.518  0.00  0.00    -0.354 OA
ATOM     30  C   UNL d   1      -3.028  -2.044   1.529  0.00  0.00     0.210 C 
ENDBRANCH  26  29
ENDBRANCH   4  20
TORSDOF 5
