REMARK  4 active torsions:
REMARK  status: ('A' for Active; 'I' for Inactive)
REMARK    1  A    between atoms: N_2  and  C_1 
REMARK    2  A    between atoms: N_6  and  C_3 
REMARK    3  A    between atoms: C_10  and  N_6 
REMARK    4  A    between atoms: C_11  and  C_10 
ROOT
ATOM      1  N   UNL d   1      -0.055   2.637  -0.015  0.00  0.00    -0.378 N 
ATOM      2  H   UNL d   1      -1.005   2.864  -0.303  0.00  0.00     0.160 HD
ENDROOT
BRANCH   1   3
ATOM      3  C   UNL d   1       0.303   1.320  -0.061  0.00  0.00     0.103 A 
ATOM      4  C   UNL d   1       1.515   0.641  -0.079  0.00  0.00     0.136 A 
ATOM      5  C   UNL d   1       1.368  -0.787  -0.057  0.00  0.00     0.046 A 
ATOM      6  C   UNL d   1       0.049  -1.170  -0.053  0.00  0.00     0.054 A 
ATOM      7  S   UNL d   1      -1.000   0.173  -0.083  0.00  0.00    -0.082 SA
BRANCH   4   8
ATOM      8  N   UNL d   1       2.809   1.252  -0.116  0.00  0.00    -0.113 N 
ATOM      9  O   UNL d   1       3.097   1.907  -1.124  0.00  0.00    -0.532 OA
ATOM     10  O   UNL d   1       3.558   1.020   0.842  0.00  0.00    -0.532 OA
ENDBRANCH   4   8
ENDBRANCH   1   3
BRANCH   1  11
ATOM     11  C   UNL d   1       0.882   3.741  -0.093  0.00  0.00     0.159 C 
BRANCH  11  12
ATOM     12  C   UNL d   1       0.230   5.107  -0.019  0.00  0.00    -0.041 A 
ATOM     13  C   UNL d   1      -0.982   5.359   0.638  0.00  0.00     0.009 A 
ATOM     14  C   UNL d   1      -1.500   6.658   0.696  0.00  0.00     0.001 A 
ATOM     15  C   UNL d   1      -0.803   7.721   0.126  0.00  0.00     0.000 A 
ATOM     16  C   UNL d   1       0.415   7.492  -0.504  0.00  0.00     0.001 A 
ATOM     17  C   UNL d   1       0.927   6.196  -0.574  0.00  0.00     0.009 A 
ENDBRANCH  11  12
ENDBRANCH   1  11
TORSDOF 4
