REMARK  6 active torsions:
REMARK  status: ('A' for Active; 'I' for Inactive)
REMARK    1  A    between atoms: C_2  and  C_1 
REMARK       I    between atoms: N_6  and  C_1 
REMARK    2  A    between atoms: O_12  and  C_3 
REMARK    3  A    between atoms: O_13  and  C_4 
REMARK    4  A    between atoms: O_14  and  C_5 
REMARK    5  A    between atoms: C_9  and  N_6 
REMARK    6  A    between atoms: O_16  and  C_15 
ROOT
ATOM      1  C   UNL d   1       0.219   1.004   0.978  0.00  0.00     0.037 A 
ATOM      2  C   UNL d   1      -1.317   2.902   2.403  0.00  0.00     0.135 A 
ATOM      3  C   UNL d   1      -0.121   3.297   1.766  0.00  0.00     0.105 A 
ATOM      4  C   UNL d   1      -1.734   1.553   2.289  0.00  0.00     0.105 A 
ATOM      5  C   UNL d   1       0.625   2.342   1.062  0.00  0.00     0.057 A 
ATOM      6  C   UNL d   1      -0.962   0.610   1.598  0.00  0.00     0.057 A 
ENDROOT
BRANCH   1   7
ATOM      7  C   UNL d   1       1.045   0.095   0.134  0.00  0.00     0.256 C 
ATOM      8  N   UNL d   1       0.990  -1.258   0.422  0.00  0.00    -0.323 N 
ATOM      9  H   UNL d   1       0.496  -1.546   1.256  0.00  0.00     0.169 HD
ATOM     10  O   UNL d   1       1.725   0.621  -0.744  0.00  0.00    -0.267 OA
BRANCH   8  11
ATOM     11  C   UNL d   1       1.590  -2.299  -0.331  0.00  0.00     0.037 A 
ATOM     12  C   UNL d   1       2.295  -2.083  -1.522  0.00  0.00     0.066 A 
ATOM     13  C   UNL d   1       2.822  -3.149  -2.256  0.00  0.00     0.070 A 
ATOM     14  C   UNL d   1       2.652  -4.449  -1.786  0.00  0.00     0.037 A 
ATOM     15  C   UNL d   1       1.966  -4.682  -0.594  0.00  0.00     0.005 A 
ATOM     16  C   UNL d   1       1.437  -3.611   0.130  0.00  0.00     0.029 A 
BRANCH  13  17
ATOM     17  O   UNL d   1       3.505  -3.042  -3.438  0.00  0.00    -0.356 OA
ATOM     18  C   UNL d   1       3.677  -1.728  -3.960  0.00  0.00     0.210 C 
ENDBRANCH  13  17
ENDBRANCH   8  11
ENDBRANCH   1   7
BRANCH   3  19
ATOM     19  O   UNL d   1       0.275   4.606   1.855  0.00  0.00    -0.353 OA
ATOM     20  C   UNL d   1       1.479   5.002   1.206  0.00  0.00     0.210 C 
ENDBRANCH   3  19
BRANCH   4  21
ATOM     21  O   UNL d   1      -2.869   1.012   2.849  0.00  0.00    -0.353 OA
ATOM     22  C   UNL d   1      -4.044   1.814   2.753  0.00  0.00     0.210 C 
ENDBRANCH   4  21
BRANCH   2  23
ATOM     23  O   UNL d   1      -2.127   3.695   3.176  0.00  0.00    -0.351 OA
ATOM     24  C   UNL d   1      -1.911   5.096   3.232  0.00  0.00     0.210 C 
ENDBRANCH   2  23
TORSDOF 6
