REMARK  4 active torsions:
REMARK  status: ('A' for Active; 'I' for Inactive)
REMARK    1  A    between atoms: C_3  and  C_1 
REMARK    2  A    between atoms: C_2  and  C_3 
REMARK    3  A    between atoms: C_4  and  N_13 
REMARK    4  A    between atoms: N_13  and  C_10 
ROOT
ATOM      1  C   UNL d   1      -0.884  -3.655  -0.018  0.00  0.00     0.111 C 
ATOM      2  C   UNL d   1      -0.579  -4.967  -0.019  0.00  0.00     0.133 C 
ATOM      3  C   UNL d   1       0.140  -2.672  -0.012  0.00  0.00     0.105 C 
ATOM      4  N   UNL d   1       1.000  -1.895   0.011  0.00  0.00    -0.191 NA
ENDROOT
BRANCH   1   5
ATOM      5  C   UNL d   1      -2.328  -3.272  -0.095  0.00  0.00     0.206 C 
ATOM      6  O   UNL d   1      -3.166  -4.043  -0.557  0.00  0.00    -0.286 OA
BRANCH   5   7
ATOM      7  C   UNL d   1      -2.689  -1.948   0.406  0.00  0.00     0.047 A 
ATOM      8  C   UNL d   1      -3.775  -1.201  -0.034  0.00  0.00     0.063 A 
ATOM      9  O   UNL d   1      -3.845  -0.018   0.638  0.00  0.00    -0.326 OA
ATOM     10  C   UNL d   1      -4.833  -1.396  -1.051  0.00  0.00     0.077 C 
ATOM     11  C   UNL d   1      -2.828   0.002   1.528  0.00  0.00     0.143 A 
ATOM     12  C   UNL d   1      -2.099  -1.159   1.444  0.00  0.00     0.042 A 
ENDBRANCH   5   7
ENDBRANCH   1   5
BRANCH   2  13
ATOM     13  N   UNL d   1       0.659  -5.559   0.053  0.00  0.00    -0.200 N 
ATOM     14  H   UNL d   1       1.499  -5.003   0.157  0.00  0.00     0.183 HD
BRANCH  13  15
ATOM     15  C   UNL d   1       0.971  -6.914  -0.021  0.00  0.00     0.682 A 
ATOM     16  N   UNL d   1       0.011  -7.826  -0.230  0.00  0.00    -0.196 N 
ATOM     17  C   UNL d   1       0.385  -9.118  -0.313  0.00  0.00     0.024 A 
ATOM     18  HN  UNL d   1      -0.967  -7.552  -0.322  1.00  0.00     0.184 HD
ATOM     19  C   UNL d   1      -0.695 -10.128  -0.561  0.00  0.00     0.068 C 
ATOM     20  C   UNL d   1       1.699  -9.517  -0.178  0.00  0.00     0.050 A 
ATOM     21  C   UNL d   1       2.622  -8.517   0.041  0.00  0.00     0.024 A 
ATOM     22  N   UNL d   1       2.271  -7.217   0.117  0.00  0.00    -0.196 N 
ATOM     23  C   UNL d   1       4.075  -8.849   0.208  0.00  0.00     0.068 C 
ATOM     24  HN  UNL d   1       2.969  -6.490   0.273  1.00  0.00     0.184 HD
ENDBRANCH  13  15
ENDBRANCH   2  13
TORSDOF 4
