REMARK  7 active torsions:
REMARK  status: ('A' for Active; 'I' for Inactive)
REMARK    1  A    between atoms: C_2  and  N_1 
REMARK    2  A    between atoms: O_7  and  C_3 
REMARK    3  A    between atoms: C_4  and  O_11 
REMARK    4  A    between atoms: C_5  and  C_4 
REMARK    5  A    between atoms: C_6  and  O_7 
REMARK    6  A    between atoms: O_11  and  C_25 
REMARK    7  A    between atoms: C_25  and  C_24 
ROOT
ATOM      1  C   UNL d   1       0.341   1.029  -0.756  0.00  0.00     0.137 A 
ATOM      2  C   UNL d   1       0.720   1.217  -2.087  0.00  0.00     0.109 A 
ATOM      3  C   UNL d   1      -0.822   1.615  -0.234  0.00  0.00     0.048 A 
ATOM      4  C   UNL d   1      -0.020   2.116  -2.864  0.00  0.00     0.040 A 
ATOM      5  C   UNL d   1      -1.620   2.427  -1.055  0.00  0.00    -0.031 A 
ATOM      6  C   UNL d   1      -1.188   2.697  -2.361  0.00  0.00     0.012 A 
ENDROOT
BRANCH   5   7
ATOM      7  C   UNL d   1      -2.890   3.055  -0.535  0.00  0.00     0.217 C 
BRANCH   7   8
ATOM      8  O   UNL d   1      -3.773   2.030  -0.045  0.00  0.00    -0.313 OA
BRANCH   8   9
ATOM      9  C   UNL d   1      -4.138   2.150   1.250  0.00  0.00     0.293 C 
ATOM     10  O   UNL d   1      -3.738   2.993   2.035  0.00  0.00    -0.259 OA
BRANCH   9  11
ATOM     11  C   UNL d   1      -5.121   1.102   1.635  0.00  0.00     0.042 A 
ATOM     12  C   UNL d   1      -5.513   1.041   2.980  0.00  0.00     0.041 A 
ATOM     13  C   UNL d   1      -6.441   0.086   3.393  0.00  0.00     0.036 A 
ATOM     14 CL   UNL d   1      -6.915   0.019   5.045  0.00  0.00    -0.084 Cl
ATOM     15  C   UNL d   1      -6.989  -0.809   2.480  0.00  0.00     0.047 A 
ATOM     16  C   UNL d   1      -6.601  -0.744   1.144  0.00  0.00     0.036 A 
ATOM     17  C   UNL d   1      -5.670   0.204   0.712  0.00  0.00     0.041 A 
ATOM     18 CL   UNL d   1      -7.283  -1.842   0.008  0.00  0.00    -0.084 Cl
ENDBRANCH   9  11
ENDBRANCH   8   9
ENDBRANCH   7   8
ENDBRANCH   5   7
BRANCH   1  19
ATOM     19  N   UNL d   1       1.155   0.216   0.124  0.00  0.00    -0.113 N 
ATOM     20  O   UNL d   1       2.338   0.545   0.276  0.00  0.00    -0.532 OA
ATOM     21  O   UNL d   1       0.588  -0.725   0.698  0.00  0.00    -0.532 OA
ENDBRANCH   1  19
BRANCH   2  22
ATOM     22  O   UNL d   1       1.794   0.517  -2.599  0.00  0.00    -0.308 OA
BRANCH  22  23
ATOM     23  C   UNL d   1       1.710   0.092  -3.909  0.00  0.00     0.079 A 
ATOM     24  C   UNL d   1       2.854   0.231  -4.694  0.00  0.00     0.061 A 
ATOM     25  C   UNL d   1       2.797  -0.089  -6.051  0.00  0.00     0.038 A 
ATOM     26 CL   UNL d   1       4.192   0.118  -7.035  0.00  0.00    -0.084 Cl
ATOM     27  C   UNL d   1       1.614  -0.552  -6.625  0.00  0.00     0.048 A 
ATOM     28  C   UNL d   1       0.493  -0.738  -5.821  0.00  0.00     0.038 A 
ATOM     29  C   UNL d   1       0.543  -0.451  -4.459  0.00  0.00     0.061 A 
ATOM     30 CL   UNL d   1      -0.982  -1.283  -6.519  0.00  0.00    -0.084 Cl
ENDBRANCH  22  23
ENDBRANCH   2  22
TORSDOF 7
