REMARK  4 active torsions:
REMARK  status: ('A' for Active; 'I' for Inactive)
REMARK    1  A    between atoms: C_10  and  C_1 
REMARK    2  A    between atoms: C_4  and  C_2 
REMARK       I    between atoms: N_15  and  C_10 
REMARK       I    between atoms: C_14  and  N_16 
REMARK       I    between atoms: N_17  and  C_14 
REMARK    3  A    between atoms: N_16  and  N_15 
REMARK    4  A    between atoms: C_20  and  N_17 
ROOT
ATOM      1  C   UNL d   1      -0.221  -2.532   0.202  0.00  0.00     0.279 C 
ATOM      2  N   UNL d   1       0.886  -3.197   0.697  0.00  0.00    -0.261 N 
ATOM      3  O   UNL d   1      -1.239  -3.160  -0.100  0.00  0.00    -0.265 OA
ATOM      4  H   UNL d   1       1.736  -2.720   0.994  0.00  0.00     0.190 HD
ENDROOT
BRANCH   1   5
ATOM      5  C   UNL d   1      -0.111  -1.087   0.093  0.00  0.00     0.098 A 
ATOM      6  S   UNL d   1       1.336  -0.236   0.457  0.00  0.00    -0.063 SA
ATOM      7  C   UNL d   1       0.538   1.256   0.177  0.00  0.00     0.102 A 
ATOM      8  N   UNL d   1      -0.717   1.156  -0.208  0.00  0.00    -0.351 N 
ATOM      9  C   UNL d   1      -1.087  -0.180  -0.295  0.00  0.00     0.029 A 
ATOM     10  HN  UNL d   1      -1.329   1.945  -0.413  1.00  0.00     0.166 HD
ATOM     11  C   UNL d   1      -2.465  -0.493  -0.765  0.00  0.00     0.070 C 
BRANCH   7  12
ATOM     12  C   UNL d   1       1.217   2.587   0.360  0.00  0.00     0.073 A 
ATOM     13  N   UNL d   1       2.576   2.705   0.614  0.00  0.00    -0.352 N 
ATOM     14  C   UNL d   1       2.906   3.977   0.694  0.00  0.00     0.047 A 
ATOM     15  HN  UNL d   1       3.223   1.924   0.721  1.00  0.00     0.166 HD
ATOM     16  C   UNL d   1       4.294   4.474   0.898  0.00  0.00     0.076 C 
ATOM     17  S   UNL d   1       1.605   5.091   0.543  0.00  0.00    -0.087 SA
ATOM     18  C   UNL d   1       0.529   3.782   0.290  0.00  0.00     0.083 A 
ENDBRANCH   7  12
ENDBRANCH   1   5
BRANCH   2  19
ATOM     19  N   UNL d   1       0.780  -4.561   1.037  0.00  0.00    -0.248 N 
ATOM     20  C   UNL d   1       1.947  -5.193   1.439  0.00  0.00     0.339 C 
ATOM     21  N   UNL d   1       1.741  -6.533   1.697  0.00  0.00    -0.308 N 
ATOM     22  O   UNL d   1       2.994  -4.566   1.563  0.00  0.00    -0.245 OA
ATOM     23  H   UNL d   1       0.782  -6.847   1.668  0.00  0.00     0.170 HD
ATOM     24  H   UNL d   1       0.069  -5.074   0.524  0.00  0.00     0.192 HD
BRANCH  21  25
ATOM     25  C   UNL d   1       2.707  -7.492   2.073  0.00  0.00     0.036 A 
ATOM     26  C   UNL d   1       4.070  -7.215   2.194  0.00  0.00     0.029 A 
ATOM     27  C   UNL d   1       4.976  -8.227   2.528  0.00  0.00     0.002 A 
ATOM     28  C   UNL d   1       4.527  -9.526   2.747  0.00  0.00     0.000 A 
ATOM     29  C   UNL d   1       3.169  -9.812   2.647  0.00  0.00     0.002 A 
ATOM     30  C   UNL d   1       2.262  -8.799   2.316  0.00  0.00     0.029 A 
ENDBRANCH  21  25
ENDBRANCH   2  19
TORSDOF 4
