REMARK  4 active torsions:
REMARK  status: ('A' for Active; 'I' for Inactive)
REMARK    1  A    between atoms: C_2  and  C_1 
REMARK    2  A    between atoms: C_4  and  C_1 
REMARK    3  A    between atoms: C_5  and  C_2 
REMARK    4  A    between atoms: N_6  and  C_5 
ROOT
ATOM      1  C   UNL d   1       1.059  -0.022   0.014  0.00  0.00     0.161 C 
ATOM      2  O   UNL d   1       1.437   0.361   1.120  0.00  0.00    -0.292 OA
ENDROOT
BRANCH   1   3
ATOM      3  C   UNL d   1       0.177  -1.245  -0.137  0.00  0.00     0.114 C 
BRANCH   3   4
ATOM      4  C   UNL d   1       1.018  -2.521  -0.113  0.00  0.00     0.279 C 
BRANCH   4   5
ATOM      5  N   UNL d   1       0.233  -3.769  -0.069  0.00  0.00     0.080 N 
ATOM      6  C   UNL d   1      -0.721  -3.894  -1.171  0.00  0.00     0.309 C 
ATOM      7  C   UNL d   1       1.140  -4.921  -0.061  0.00  0.00     0.309 C 
ENDBRANCH   4   5
ENDBRANCH   3   4
ENDBRANCH   1   3
BRANCH   1   8
ATOM      8  C   UNL d   1       1.468   0.744  -1.197  0.00  0.00     0.010 A 
ATOM      9  C   UNL d   1       1.733   2.111  -1.051  0.00  0.00     0.015 A 
ATOM     10  C   UNL d   1       2.146   2.870  -2.148  0.00  0.00     0.001 A 
ATOM     11  C   UNL d   1       2.311   2.263  -3.391  0.00  0.00     0.000 A 
ATOM     12  C   UNL d   1       2.054   0.900  -3.542  0.00  0.00     0.001 A 
ATOM     13  C   UNL d   1       1.625   0.139  -2.451  0.00  0.00     0.015 A 
ENDBRANCH   1   8
TORSDOF 4
