REMARK  1 active torsions:
REMARK  status: ('A' for Active; 'I' for Inactive)
REMARK    1  A    between atoms: C_7  and  C_1 
ROOT
ATOM      1  C   UNL d   1       0.473  -1.318  -0.091  0.00  0.00     0.028 A 
ATOM      2  C   UNL d   1      -0.848  -1.096  -0.092  0.00  0.00     0.073 A 
ATOM      3  C   UNL d   1       0.870   1.184  -0.019  0.00  0.00     0.083 A 
ATOM      4  C   UNL d   1       1.427  -0.179   0.018  0.00  0.00     0.184 A 
ATOM      5  C   UNL d   1      -0.448   1.394  -0.035  0.00  0.00     0.087 A 
ATOM      6  C   UNL d   1      -1.413   0.267  -0.008  0.00  0.00     0.194 A 
ATOM      7  O   UNL d   1       2.638  -0.335   0.124  0.00  0.00    -0.287 OA
ATOM      8  O   UNL d   1      -2.627   0.418   0.066  0.00  0.00    -0.287 OA
ATOM      9 CL   UNL d   1      -1.079   2.996  -0.092  0.00  0.00    -0.080 Cl
ENDROOT
BRANCH   1  10
ATOM     10  C   UNL d   1       0.964  -2.696  -0.218  0.00  0.00    -0.022 A 
ATOM     11  C   UNL d   1       1.206  -3.237  -1.489  0.00  0.00     0.012 A 
ATOM     12  C   UNL d   1       1.666  -4.548  -1.619  0.00  0.00     0.001 A 
ATOM     13  C   UNL d   1       1.884  -5.327  -0.484  0.00  0.00     0.000 A 
ATOM     14  C   UNL d   1       1.642  -4.797   0.783  0.00  0.00     0.001 A 
ATOM     15  C   UNL d   1       1.181  -3.485   0.917  0.00  0.00     0.012 A 
ENDBRANCH   1  10
TORSDOF 1
