REMARK  6 active torsions:
REMARK  status: ('A' for Active; 'I' for Inactive)
REMARK    1  A    between atoms: N_3  and  S_1 
REMARK    2  A    between atoms: C_9  and  S_1 
REMARK    3  A    between atoms: C_2  and  N_5 
REMARK    4  A    between atoms: N_5  and  N_3 
REMARK    5  A    between atoms: C_6  and  O_14 
REMARK    6  A    between atoms: O_14  and  C_20 
ROOT
ATOM      1  C   UNL d   1      -1.357  -2.660  -7.218  0.00  0.00     0.100 A 
ATOM      2  C   UNL d   1      -0.515  -1.949  -6.350  0.00  0.00     0.098 A 
ATOM      3  C   UNL d   1      -2.752  -2.334  -7.294  0.00  0.00     0.104 C 
ATOM      4  N   UNL d   1      -3.877  -2.064  -7.360  0.00  0.00    -0.191 NA
ATOM      5  C   UNL d   1      -0.813  -3.687  -8.003  0.00  0.00     0.057 A 
ATOM      6 CL   UNL d   1      -1.776  -4.629  -9.087  0.00  0.00    -0.083 Cl
ATOM      7  C   UNL d   1       0.864  -2.210  -6.336  0.00  0.00     0.039 A 
ATOM      8  C   UNL d   1       1.392  -3.244  -7.105  0.00  0.00     0.005 A 
ATOM      9  C   UNL d   1       0.556  -3.988  -7.931  0.00  0.00     0.025 A 
ENDROOT
BRANCH   2  10
ATOM     10  O   UNL d   1      -1.075  -0.965  -5.556  0.00  0.00    -0.309 OA
BRANCH  10  11
ATOM     11  C   UNL d   1      -0.619  -0.821  -4.263  0.00  0.00     0.076 A 
ATOM     12  C   UNL d   1      -0.599   0.476  -3.748  0.00  0.00     0.039 A 
ATOM     13  C   UNL d   1      -0.103   0.707  -2.462  0.00  0.00     0.028 A 
ATOM     14  C   UNL d   1       0.361  -0.364  -1.685  0.00  0.00     0.081 A 
ATOM     15  C   UNL d   1       0.287  -1.667  -2.178  0.00  0.00     0.028 A 
ATOM     16  C   UNL d   1      -0.221  -1.894  -3.459  0.00  0.00     0.039 A 
BRANCH  14  17
ATOM     17  S   UNL d   1       1.029   0.025  -0.085  0.00  0.00     0.276 S 
ATOM     18  O   UNL d   1       2.194   0.856  -0.308  0.00  0.00    -0.199 OA
ATOM     19  O   UNL d   1      -0.070   0.480   0.738  0.00  0.00    -0.199 OA
BRANCH  17  20
ATOM     20  N   UNL d   1       1.590  -1.432   0.580  0.00  0.00    -0.222 N 
ATOM     21  H   UNL d   1       1.635  -2.277   0.016  0.00  0.00     0.200 HD
BRANCH  20  22
ATOM     22  N   UNL d   1       2.102  -1.449   1.939  0.00  0.00    -0.288 N 
ATOM     23  H   UNL d   1       2.188  -0.537   2.398  0.00  0.00     0.188 HD
BRANCH  22  24
ATOM     24  C   UNL d   1       2.594  -2.561   2.652  0.00  0.00     0.095 A 
ATOM     25  C   UNL d   1       3.602  -2.355   3.613  0.00  0.00     0.079 A 
ATOM     26 CL   UNL d   1       4.227  -0.777   3.939  0.00  0.00    -0.080 Cl
ATOM     27  C   UNL d   1       4.131  -3.439   4.302  0.00  0.00     0.114 A 
ATOM     28  N   UNL d   1       3.730  -4.716   4.115  0.00  0.00    -0.372 N 
ATOM     29  C   UNL d   1       2.769  -4.908   3.182  0.00  0.00     0.114 A 
ATOM     30  HN  UNL d   1       4.129  -5.490   4.645  1.00  0.00     0.164 HD
ATOM     31  C   UNL d   1       2.196  -3.889   2.422  0.00  0.00     0.079 A 
ATOM     32 CL   UNL d   1       0.975  -4.336   1.283  0.00  0.00    -0.080 Cl
ENDBRANCH  22  24
ENDBRANCH  20  22
ENDBRANCH  17  20
ENDBRANCH  14  17
ENDBRANCH  10  11
ENDBRANCH   2  10
TORSDOF 6
