REMARK  3 active torsions:
REMARK  status: ('A' for Active; 'I' for Inactive)
REMARK    1  A    between atoms: S_14  and  C_4 
REMARK    2  A    between atoms: C_12  and  C_7 
REMARK    3  A    between atoms: C_9  and  C_12 
ROOT
ATOM      1  O   UNL d   1       1.321  -0.146  -1.258  0.00  0.00    -0.272 OA
ATOM      2  N   UNL d   1       0.079   0.712   0.389  0.00  0.00    -0.272 N 
ATOM      3  HN  UNL d   1      -0.659   1.219   0.878  1.00  0.00     0.189 HD
ATOM      4  C   UNL d   1       0.230   0.605  -0.915  0.00  0.00     0.200 A 
ATOM      5  N   UNL d   1       1.113   0.003   0.966  0.00  0.00    -0.281 N 
ATOM      6  HN  UNL d   1       1.290  -0.121   1.963  1.00  0.00     0.189 HD
ATOM      7  C   UNL d   1       1.826  -0.482  -0.030  0.00  0.00     0.145 A 
ENDROOT
BRANCH   7   8
ATOM      8  C   UNL d   1       3.025  -1.355   0.002  0.00  0.00     0.125 C 
BRANCH   8   9
ATOM      9  C   UNL d   1       4.311  -0.577   0.012  0.00  0.00    -0.044 A 
ATOM     10  C   UNL d   1       5.005  -0.180  -1.117  0.00  0.00     0.057 A 
ATOM     11  S   UNL d   1       6.449   0.659  -0.750  0.00  0.00    -0.113 SA
ATOM     12  C   UNL d   1       6.171   0.514   0.928  0.00  0.00     0.050 A 
ATOM     13  C   UNL d   1       5.000  -0.157   1.201  0.00  0.00     0.015 A 
ENDBRANCH   8   9
ENDBRANCH   7   8
BRANCH   4  14
ATOM     14  S   UNL d   1      -0.843   1.317  -2.072  0.00  0.00    -0.098 SA
ATOM     15  H   UNL d   1      -1.670   1.871  -1.175  0.00  0.00     0.110 HD
ENDBRANCH   4  14
TORSDOF 3
