REMARK  3 active torsions:
REMARK  status: ('A' for Active; 'I' for Inactive)
REMARK    1  A    between atoms: C_13  and  C_3 
REMARK       I    between atoms: N_20  and  C_13 
REMARK    2  A    between atoms: C_14  and  C_21 
REMARK    3  A    between atoms: N_16  and  N_20 
ROOT
ATOM      1  C   UNL d   1      -1.355   0.567  -0.275  0.00  0.00     0.086 A 
ATOM      2  C   UNL d   1      -2.694   0.992  -0.574  0.00  0.00     0.075 A 
ATOM      3  C   UNL d   1      -0.154   1.245  -0.074  0.00  0.00     0.086 A 
ATOM      4  N   UNL d   1      -1.043  -0.761  -0.156  0.00  0.00    -0.298 N 
ATOM      5  N   UNL d   1      -5.159   1.099  -0.800  0.00  0.00    -0.269 N 
ATOM      6  HN  UNL d   1      -6.169   0.959  -0.773  1.00  0.00     0.195 HD
ATOM      7  N   UNL d   1       0.262  -1.010  -0.017  0.00  0.00    -0.304 N 
ATOM      8  HN  UNL d   1       0.726  -1.917   0.027  1.00  0.00     0.186 HD
ATOM      9  C   UNL d   1      -3.183   2.018  -1.376  0.00  0.00     0.043 A 
ATOM     10  N   UNL d   1      -4.573   2.056  -1.493  0.00  0.00    -0.298 N 
ATOM     11  HN  UNL d   1      -5.078   2.744  -2.051  1.00  0.00     0.187 HD
ATOM     12  S   UNL d   1      -4.075   0.143   0.024  0.00  0.00     0.006 SA
ATOM     13  C   UNL d   1       0.821   0.204   0.050  0.00  0.00     0.040 A 
ATOM     14  C   UNL d   1      -2.436   3.040  -2.153  0.00  0.00     0.071 C 
ATOM     15  C   UNL d   1       2.291   0.269   0.266  0.00  0.00     0.071 C 
ATOM     16  H   UNL d   1      -1.678  -1.552  -0.194  0.00  0.00     0.187 HD
ENDROOT
BRANCH   3  17
ATOM     17  C   UNL d   1      -0.003   2.692   0.024  0.00  0.00     0.274 C 
ATOM     18  N   UNL d   1       1.123   3.206  -0.617  0.00  0.00    -0.266 N 
ATOM     19  H   UNL d   1       1.833   2.560  -0.946  0.00  0.00     0.190 HD
ATOM     20  O   UNL d   1      -0.840   3.371   0.614  0.00  0.00    -0.266 OA
BRANCH  18  21
ATOM     21  N   UNL d   1       1.589   4.487  -0.451  0.00  0.00    -0.308 N 
ATOM     22  C   UNL d   1       0.719   5.450  -0.484  0.00  0.00     0.122 C 
ATOM     23  HN  UNL d   1       2.581   4.675  -0.306  1.00  0.00     0.186 HD
BRANCH  22  24
ATOM     24  C   UNL d   1       1.067   6.856  -0.178  0.00  0.00     0.024 A 
ATOM     25  C   UNL d   1       2.338   7.399  -0.427  0.00  0.00     0.047 A 
ATOM     26 CL   UNL d   1       3.601   6.557  -1.257  0.00  0.00    -0.083 Cl
ATOM     27  C   UNL d   1       2.627   8.720  -0.052  0.00  0.00     0.025 A 
ATOM     28  C   UNL d   1       1.658   9.513   0.557  0.00  0.00     0.003 A 
ATOM     29  C   UNL d   1       0.387   8.994   0.779  0.00  0.00     0.025 A 
ATOM     30  C   UNL d   1       0.087   7.676   0.411  0.00  0.00     0.047 A 
ATOM     31 CL   UNL d   1      -1.523   7.135   0.748  0.00  0.00    -0.083 Cl
ENDBRANCH  22  24
ENDBRANCH  18  21
ENDBRANCH   3  17
TORSDOF 3
