REMARK  3 active torsions:
REMARK  status: ('A' for Active; 'I' for Inactive)
REMARK    1  A    between atoms: C_16  and  N_1 
REMARK       I    between atoms: C_6  and  N_7 
REMARK    2  A    between atoms: C_10  and  C_6 
REMARK    3  A    between atoms: N_7  and  C_8 
ROOT
ATOM      1  N   UNL d   1       1.293   1.566  -0.050  0.00  0.00    -0.313 N 
ATOM      2  C   UNL d   1       2.077   0.389  -0.017  0.00  0.00     0.259 A 
ATOM      3  C   UNL d   1      -0.067   1.269  -0.152  0.00  0.00     0.049 A 
ATOM      4  C   UNL d   1      -0.190  -0.101  -0.230  0.00  0.00     0.019 A 
ATOM      5  C   UNL d   1       1.078  -0.657  -0.159  0.00  0.00     0.045 A 
ATOM      6  C   UNL d   1      -2.555   0.017  -0.350  0.00  0.00     0.046 A 
ATOM      7  C   UNL d   1      -1.370  -0.784  -0.362  0.00  0.00     0.004 A 
ATOM      8  C   UNL d   1      -1.180   2.084  -0.184  0.00  0.00     0.033 A 
ATOM      9  O   UNL d   1       3.292   0.337   0.093  0.00  0.00    -0.267 OA
ATOM     10  C   UNL d   1      -2.426   1.426  -0.270  0.00  0.00     0.033 A 
ATOM     11  C   UNL d   1       1.232  -2.037  -0.239  0.00  0.00     0.018 A 
ATOM     12  C   UNL d   1      -1.213  -2.189  -0.495  0.00  0.00     0.014 A 
ATOM     13  C   UNL d   1       0.063  -2.791  -0.432  0.00  0.00     0.002 A 
ENDROOT
BRANCH   6  14
ATOM     14  N   UNL d   1      -3.832  -0.624  -0.358  0.00  0.00    -0.322 N 
ATOM     15  C   UNL d   1      -5.069  -0.001  -0.394  0.00  0.00     0.256 C 
ATOM     16  O   UNL d   1      -5.265   1.196  -0.591  0.00  0.00    -0.267 OA
ATOM     17  H   UNL d   1      -3.829  -1.633  -0.328  0.00  0.00     0.169 HD
BRANCH  15  18
ATOM     18  C   UNL d   1      -6.279  -0.870  -0.255  0.00  0.00     0.038 A 
ATOM     19  C   UNL d   1      -6.429  -1.929   0.663  0.00  0.00    -0.046 A 
ATOM     20  C   UNL d   1      -5.404  -2.331   1.685  0.00  0.00     0.049 C 
ATOM     21  C   UNL d   1      -7.641  -2.653   0.662  0.00  0.00     0.007 A 
ATOM     22  C   UNL d   1      -8.701  -2.299  -0.174  0.00  0.00     0.001 A 
ATOM     23  C   UNL d   1      -8.571  -1.216  -1.032  0.00  0.00     0.001 A 
ATOM     24  C   UNL d   1      -7.368  -0.512  -1.074  0.00  0.00     0.017 A 
ENDBRANCH  15  18
ENDBRANCH   6  14
BRANCH   1  25
ATOM     25  C   UNL d   1       1.866   2.894  -0.010  0.00  0.00     0.128 C 
ATOM     26  C   UNL d   1       1.940   3.459   1.398  0.00  0.00     0.027 C 
ENDBRANCH   1  25
TORSDOF 3
