REMARK  6 active torsions:
REMARK  status: ('A' for Active; 'I' for Inactive)
REMARK    1  A    between atoms: S_9  and  C_1 
REMARK    2  A    between atoms: C_7  and  C_14 
REMARK       I    between atoms: N_12  and  C_7 
REMARK    3  A    between atoms: C_8  and  C_15 
REMARK       I    between atoms: N_10  and  C_8 
REMARK    4  A    between atoms: C_15  and  S_9 
REMARK    5  A    between atoms: C_14  and  N_10 
REMARK    6  A    between atoms: N_16  and  N_12 
ROOT
ATOM      1  C   UNL d   1      -6.236  -0.946   0.005  0.00  0.00     0.227 C 
ATOM      2  N   UNL d   1      -6.705  -1.630  -1.086  0.00  0.00    -0.352 N 
ATOM      3  O   UNL d   1      -6.883  -0.837   1.047  0.00  0.00    -0.273 OA
ATOM      4  H   UNL d   1      -6.076  -1.763  -1.879  0.00  0.00     0.162 HD
ENDROOT
BRANCH   1   5
ATOM      5  C   UNL d   1      -4.868  -0.304  -0.170  0.00  0.00     0.184 C 
BRANCH   5   6
ATOM      6  S   UNL d   1      -3.526  -1.485   0.148  0.00  0.00    -0.096 SA
BRANCH   6   7
ATOM      7  C   UNL d   1      -3.502  -2.411  -1.337  0.00  0.00     0.113 A 
ATOM      8  N   UNL d   1      -4.381  -2.202  -2.288  0.00  0.00    -0.344 N 
ATOM      9  C   UNL d   1      -4.220  -3.141  -3.292  0.00  0.00     0.050 A 
ATOM     10  HN  UNL d   1      -5.080  -1.459  -2.287  1.00  0.00     0.167 HD
ATOM     11  C   UNL d   1      -5.041  -3.271  -4.429  0.00  0.00     0.031 A 
ATOM     12  C   UNL d   1      -3.161  -4.031  -3.112  0.00  0.00     0.034 A 
ATOM     13  C   UNL d   1      -4.784  -4.287  -5.352  0.00  0.00     0.002 A 
ATOM     14  C   UNL d   1      -3.715  -5.157  -5.163  0.00  0.00     0.002 A 
ATOM     15  C   UNL d   1      -2.882  -5.043  -4.045  0.00  0.00     0.021 A 
ATOM     16  S   UNL d   1      -2.368  -3.660  -1.627  0.00  0.00    -0.063 SA
ENDBRANCH   6   7
ENDBRANCH   5   6
ENDBRANCH   1   5
BRANCH   2  17
ATOM     17  C   UNL d   1      -7.948  -2.370  -1.086  0.00  0.00     0.226 C 
BRANCH  17  18
ATOM     18  C   UNL d   1      -8.796  -2.045  -2.317  0.00  0.00     0.249 C 
ATOM     19  O   UNL d   1      -8.327  -1.704  -3.403  0.00  0.00    -0.270 OA
ATOM     20  N   UNL d   1     -10.159  -2.232  -2.101  0.00  0.00    -0.293 N 
ATOM     21  H   UNL d   1     -10.499  -2.612  -1.219  0.00  0.00     0.183 HD
BRANCH  20  22
ATOM     22  N   UNL d   1     -11.073  -2.050  -3.160  0.00  0.00    -0.247 NA
ATOM     23  H   UNL d   1     -10.520  -1.946  -4.022  0.00  0.00     0.143 HD
ATOM     24  H   UNL d   1     -11.518  -1.135  -3.040  0.00  0.00     0.143 HD
ENDBRANCH  20  22
ENDBRANCH  17  18
ENDBRANCH   2  17
TORSDOF 6
