REMARK  6 active torsions:
REMARK  status: ('A' for Active; 'I' for Inactive)
REMARK    1  A    between atoms: C_6  and  N_1 
REMARK    2  A    between atoms: S_2  and  C_8 
REMARK    3  A    between atoms: N_5  and  S_2 
REMARK       I    between atoms: C_9  and  N_16 
REMARK    4  A    between atoms: O_19  and  C_9 
REMARK    5  A    between atoms: N_16  and  C_27 
REMARK    6  A    between atoms: C_24  and  O_19 
ROOT
ATOM      1  C   UNL d   1       2.877  -1.490   0.394  0.00  0.00     0.067 A 
ATOM      2  C   UNL d   1       5.259  -2.931   0.100  0.00  0.00     0.076 A 
ATOM      3  C   UNL d   1       3.656  -1.814   1.520  0.00  0.00     0.062 A 
ATOM      4  C   UNL d   1       4.853  -2.519   1.372  0.00  0.00     0.051 A 
ATOM      5  C   UNL d   1       3.336  -1.872  -0.881  0.00  0.00     0.033 A 
ATOM      6  C   UNL d   1       4.530  -2.574  -1.033  0.00  0.00     0.027 A 
ATOM      7 CL   UNL d   1       3.098  -1.556   3.140  0.00  0.00    -0.082 Cl
ENDROOT
BRANCH   2   8
ATOM      8  S   UNL d   1       6.681  -3.990  -0.073  0.00  0.00     0.243 S 
ATOM      9  O   UNL d   1       7.127  -3.903  -1.446  0.00  0.00    -0.206 OA
ATOM     10  O   UNL d   1       7.579  -3.687   1.025  0.00  0.00    -0.206 OA
BRANCH   8  11
ATOM     11  N   UNL d   1       6.019  -5.558   0.184  0.00  0.00    -0.206 NA
ATOM     12  C   UNL d   1       5.541  -5.804   1.568  0.00  0.00     0.109 C 
ATOM     13  C   UNL d   1       5.269  -7.282   1.783  0.00  0.00     0.041 C 
ATOM     14  C   UNL d   1       4.300  -7.866   0.758  0.00  0.00     0.089 C 
ATOM     15  C   UNL d   1       4.690  -7.477  -0.672  0.00  0.00     0.041 C 
ATOM     16  C   UNL d   1       5.051  -6.007  -0.854  0.00  0.00     0.109 C 
BRANCH  14  17
ATOM     17  N   UNL d   1       2.885  -7.705   1.114  0.00  0.00    -0.332 N 
ATOM     18  C   UNL d   1       2.123  -6.579   1.190  0.00  0.00     0.361 C 
ATOM     19  O   UNL d   1       2.475  -5.455   0.879  0.00  0.00    -0.238 OA
ATOM     20  H   UNL d   1       2.393  -8.530   1.433  0.00  0.00     0.165 HD
BRANCH  18  21
ATOM     21  O   UNL d   1       0.900  -6.916   1.671  0.00  0.00    -0.294 OA
BRANCH  21  22
ATOM     22  C   UNL d   1      -0.181  -5.942   1.758  0.00  0.00     0.061 C 
ATOM     23  C   UNL d   1      -0.482  -5.333   0.384  0.00  0.00     0.046 C 
ATOM     24  C   UNL d   1      -1.413  -6.737   2.227  0.00  0.00     0.046 C 
ATOM     25  C   UNL d   1       0.104  -4.855   2.802  0.00  0.00     0.046 C 
ENDBRANCH  21  22
ENDBRANCH  18  21
ENDBRANCH  14  17
ENDBRANCH   8  11
ENDBRANCH   2   8
BRANCH   1  26
ATOM     26  N   UNL d   1       1.631  -0.829   0.504  0.00  0.00    -0.250 N 
ATOM     27  C   UNL d   1       1.476   0.397   1.104  0.00  0.00     0.232 C 
ATOM     28  C   UNL d   1       0.062   0.864   0.900  0.00  0.00     0.123 C 
ATOM     29  O   UNL d   1       2.340   1.101   1.621  0.00  0.00    -0.273 OA
ATOM     30  C   UNL d   1      -0.617  -0.284   0.157  0.00  0.00     0.050 C 
ATOM     31  C   UNL d   1       0.515  -1.215  -0.195  0.00  0.00     0.240 C 
ATOM     32  C   UNL d   1      -1.390   0.137  -1.093  0.00  0.00     0.020 C 
ATOM     33  C   UNL d   1      -1.687  -0.985   0.999  0.00  0.00     0.020 C 
ATOM     34  O   UNL d   1       0.397  -2.166  -0.958  0.00  0.00    -0.272 OA
ATOM     35  C   UNL d   1      -2.773   0.526  -0.593  0.00  0.00     0.001 C 
ATOM     36  C   UNL d   1      -2.969  -0.198   0.737  0.00  0.00     0.001 C 
ENDBRANCH   1  26
TORSDOF 6
