REMARK  5 active torsions:
REMARK  status: ('A' for Active; 'I' for Inactive)
REMARK    1  A    between atoms: C_2  and  C_1 
REMARK    2  A    between atoms: C_4  and  C_2 
REMARK    3  A    between atoms: N_7  and  C_3 
REMARK    4  A    between atoms: O_6  and  C_10 
REMARK    5  A    between atoms: C_13  and  O_6 
ROOT
ATOM      1  C   UNL d   1       0.769  -1.998   1.829  0.00  0.00     0.014 A 
ATOM      2  C   UNL d   1       1.823  -1.585   2.655  0.00  0.00     0.018 A 
ATOM      3  C   UNL d   1       0.310  -3.319   1.896  0.00  0.00     0.018 A 
ATOM      4  C   UNL d   1       2.036  -3.837   3.513  0.00  0.00     0.076 A 
ATOM      5  C   UNL d   1       2.445  -2.500   3.507  0.00  0.00     0.038 A 
ATOM      6  C   UNL d   1       0.947  -4.236   2.736  0.00  0.00     0.038 A 
ENDROOT
BRANCH   1   7
ATOM      7  C   UNL d   1       0.101  -1.054   0.895  0.00  0.00     0.183 C 
ATOM      8  O   UNL d   1      -1.093  -1.163   0.649  0.00  0.00    -0.288 OA
BRANCH   7   9
ATOM      9  C   UNL d   1       0.967  -0.024   0.257  0.00  0.00     0.072 C 
ATOM     10  C   UNL d   1       0.427   1.063  -0.306  0.00  0.00     0.088 C 
BRANCH  10  11
ATOM     11  N   UNL d   1       1.048   2.134  -0.934  0.00  0.00    -0.398 N 
ATOM     12  C   UNL d   1       2.488   2.251  -1.155  0.00  0.00     0.148 C 
ATOM     13  C   UNL d   1       0.282   3.291  -1.403  0.00  0.00     0.148 C 
ENDBRANCH  10  11
ENDBRANCH   7   9
ENDBRANCH   1   7
BRANCH   4  14
ATOM     14  O   UNL d   1       2.611  -4.801   4.309  0.00  0.00    -0.311 OA
BRANCH  14  15
ATOM     15  C   UNL d   1       3.979  -4.801   4.473  0.00  0.00     0.076 A 
ATOM     16  C   UNL d   1       4.450  -5.213   5.721  0.00  0.00     0.037 A 
ATOM     17  C   UNL d   1       5.822  -5.255   5.973  0.00  0.00     0.003 A 
ATOM     18  C   UNL d   1       6.726  -4.891   4.975  0.00  0.00     0.000 A 
ATOM     19  C   UNL d   1       6.259  -4.509   3.717  0.00  0.00     0.003 A 
ATOM     20  C   UNL d   1       4.887  -4.482   3.459  0.00  0.00     0.037 A 
ENDBRANCH  14  15
ENDBRANCH   4  14
TORSDOF 5
