REMARK  3 active torsions:
REMARK  status: ('A' for Active; 'I' for Inactive)
REMARK    1  A    between atoms: N_4  and  C_2 
REMARK    2  A    between atoms: N_13  and  C_5 
REMARK    3  A    between atoms: C_16  and  N_13 
ROOT
ATOM      1  C   UNL d   1       0.156  -0.772  -0.026  0.00  0.00     0.120 A 
ATOM      2  C   UNL d   1      -1.026  -1.540  -0.006  0.00  0.00     0.134 A 
ATOM      3  C   UNL d   1       0.092   0.693  -0.054  0.00  0.00     0.114 A 
ATOM      4  C   UNL d   1      -1.130   1.416  -0.050  0.00  0.00     0.064 A 
ATOM      5  N   UNL d   1       1.453  -1.111  -0.022  0.00  0.00    -0.237 N 
ATOM      6  HN  UNL d   1       1.835  -2.057  -0.003  1.00  0.00     0.197 HD
ATOM      7  C   UNL d   1      -2.241  -0.829  -0.022  0.00  0.00     0.041 A 
ATOM      8  N   UNL d   1       1.344   1.172  -0.072  0.00  0.00    -0.237 N 
ATOM      9  HN  UNL d   1       1.627   2.151  -0.097  1.00  0.00     0.197 HD
ATOM     10  O   UNL d   1       2.171   0.066  -0.050  0.00  0.00    -0.156 OA
ATOM     11  C   UNL d   1      -2.279   0.585  -0.051  0.00  0.00     0.034 A 
ENDROOT
BRANCH   4  12
ATOM     12  N   UNL d   1      -1.224   2.818  -0.084  0.00  0.00    -0.354 N 
ATOM     13  H   UNL d   1      -0.321   3.289  -0.147  0.00  0.00     0.166 HD
BRANCH  12  14
ATOM     14  C   UNL d   1      -2.233   3.624   0.480  0.00  0.00     0.035 A 
ATOM     15  C   UNL d   1      -2.935   3.243   1.630  0.00  0.00     0.071 A 
ATOM     16  C   UNL d   1      -3.988   4.019   2.100  0.00  0.00     0.118 A 
ATOM     17  F   UNL d   1      -4.665   3.618   3.184  0.00  0.00    -0.206 F 
ATOM     18  C   UNL d   1      -4.356   5.190   1.454  0.00  0.00     0.042 A 
ATOM     19  C   UNL d   1      -3.639   5.606   0.334  0.00  0.00     0.005 A 
ATOM     20  C   UNL d   1      -2.575   4.832  -0.142  0.00  0.00     0.029 A 
ENDBRANCH  12  14
ENDBRANCH   4  12
BRANCH   2  21
ATOM     21  N   UNL d   1      -1.002  -2.988   0.022  0.00  0.00    -0.113 N 
ATOM     22  O   UNL d   1       0.087  -3.571   0.025  0.00  0.00    -0.532 OA
ATOM     23  O   UNL d   1      -2.098  -3.565   0.039  0.00  0.00    -0.532 OA
ENDBRANCH   2  21
TORSDOF 3
