REMARK  2 active torsions:
REMARK  status: ('A' for Active; 'I' for Inactive)
REMARK    1  A    between atoms: C_16  and  N_2 
REMARK    2  A    between atoms: C_18  and  N_5 
ROOT
ATOM      1  C   UNL d   1       2.662  -0.725  -0.008  0.00  0.00     0.139 A 
ATOM      2  N   UNL d   1       4.037  -0.386  -0.068  0.00  0.00    -0.248 N 
ATOM      3  C   UNL d   1       1.735   0.269  -0.003  0.00  0.00     0.105 A 
ATOM      4  C   UNL d   1       4.491   0.953  -0.127  0.00  0.00     0.342 A 
ATOM      5  N   UNL d   1       3.529   1.946  -0.037  0.00  0.00    -0.229 N 
ATOM      6  N   UNL d   1       2.201  -2.071   0.084  0.00  0.00    -0.302 N 
ATOM      7  C   UNL d   1       2.173   1.703   0.065  0.00  0.00     0.272 A 
ATOM      8  C   UNL d   1      -0.138  -1.364  -0.054  0.00  0.00     0.061 A 
ATOM      9  C   UNL d   1       0.286  -0.056  -0.018  0.00  0.00     0.068 A 
ATOM     10  C   UNL d   1       0.850  -2.434  -0.038  0.00  0.00     0.261 C 
ATOM     11  N   UNL d   1      -0.620   0.952  -0.011  0.00  0.00    -0.354 N 
ATOM     12  HN  UNL d   1      -0.298   1.920  -0.002  1.00  0.00     0.166 HD
ATOM     13  C   UNL d   1      -1.504  -1.663  -0.059  0.00  0.00     0.033 A 
ATOM     14  C   UNL d   1      -2.436  -0.627  -0.035  0.00  0.00    -0.007 A 
ATOM     15  C   UNL d   1      -1.942   0.689  -0.017  0.00  0.00     0.043 A 
ATOM     16  O   UNL d   1       5.692   1.234  -0.239  0.00  0.00    -0.245 OA
ATOM     17  O   UNL d   1       1.355   2.615   0.181  0.00  0.00    -0.266 OA
ATOM     18  O   UNL d   1       0.449  -3.591  -0.097  0.00  0.00    -0.267 OA
ATOM     19  C   UNL d   1      -3.820  -0.879  -0.027  0.00  0.00     0.037 A 
ATOM     20  C   UNL d   1       3.040  -3.223   0.390  0.00  0.00     0.161 C 
ATOM     21  C   UNL d   1      -2.862   1.729   0.007  0.00  0.00     0.032 A 
ATOM     22  C   UNL d   1      -4.717   0.185  -0.004  0.00  0.00     0.035 A 
ATOM     23  C   UNL d   1      -4.243   1.492   0.013  0.00  0.00     0.026 A 
ATOM     24 CL   UNL d   1      -6.408  -0.120   0.006  0.00  0.00    -0.084 Cl
ENDROOT
BRANCH   2  25
ATOM     25  C   UNL d   1       5.121  -1.315  -0.245  0.00  0.00     0.045 A 
ATOM     26  C   UNL d   1       6.157  -1.356   0.706  0.00  0.00     0.030 A 
ATOM     27  C   UNL d   1       7.290  -2.138   0.489  0.00  0.00     0.002 A 
ATOM     28  C   UNL d   1       7.398  -2.887  -0.679  0.00  0.00     0.000 A 
ATOM     29  C   UNL d   1       6.368  -2.863  -1.623  0.00  0.00     0.002 A 
ATOM     30  C   UNL d   1       5.235  -2.075  -1.414  0.00  0.00     0.030 A 
ENDBRANCH   2  25
BRANCH   5  31
ATOM     31  C   UNL d   1       3.986   3.309  -0.023  0.00  0.00     0.047 A 
ATOM     32  C   UNL d   1       4.799   3.799  -1.057  0.00  0.00     0.030 A 
ATOM     33  C   UNL d   1       5.289   5.106  -1.018  0.00  0.00     0.002 A 
ATOM     34  C   UNL d   1       4.992   5.928   0.067  0.00  0.00     0.000 A 
ATOM     35  C   UNL d   1       4.186   5.452   1.100  0.00  0.00     0.002 A 
ATOM     36  C   UNL d   1       3.671   4.154   1.049  0.00  0.00     0.030 A 
ENDBRANCH   5  31
TORSDOF 2
