REMARK  5 active torsions:
REMARK  status: ('A' for Active; 'I' for Inactive)
REMARK    1  A    between atoms: C_2  and  S_1 
REMARK    2  A    between atoms: N_5  and  S_1 
REMARK    3  A    between atoms: C_6  and  C_3 
REMARK    4  A    between atoms: C_10  and  N_5 
REMARK    5  A    between atoms: O_19  and  C_6 
ROOT
ATOM      1  S   UNL d   1       0.958  -0.115  -0.084  0.00  0.00     0.243 S 
ATOM      2  O   UNL d   1       0.273   1.123   0.208  0.00  0.00    -0.206 OA
ATOM      3  O   UNL d   1       2.397  -0.201  -0.164  0.00  0.00    -0.206 OA
ENDROOT
BRANCH   1   4
ATOM      4  C   UNL d   1       0.422  -0.562  -1.671  0.00  0.00     0.098 A 
ATOM      5  C   UNL d   1       0.842  -1.697  -2.348  0.00  0.00     0.102 A 
ATOM      6  S   UNL d   1       0.118  -1.770  -3.910  0.00  0.00    -0.094 SA
ATOM      7  C   UNL d   1      -0.728  -0.307  -3.680  0.00  0.00     0.052 A 
ATOM      8  C   UNL d   1      -0.479   0.239  -2.443  0.00  0.00     0.033 A 
BRANCH   5   9
ATOM      9  C   UNL d   1       1.732  -2.755  -1.897  0.00  0.00     0.301 C 
ATOM     10  O   UNL d   1       1.925  -3.074  -0.730  0.00  0.00    -0.259 OA
BRANCH   9  11
ATOM     11  O   UNL d   1       2.326  -3.364  -2.963  0.00  0.00    -0.322 OA
ATOM     12  C   UNL d   1       3.200  -4.449  -2.651  0.00  0.00     0.213 C 
ENDBRANCH   9  11
ENDBRANCH   5   9
ENDBRANCH   1   4
BRANCH   1  13
ATOM     13  N   UNL d   1       0.429  -1.282   1.010  0.00  0.00    -0.210 NA
ATOM     14  H   UNL d   1       1.223  -1.573   1.588  0.00  0.00     0.140 HD
BRANCH  13  15
ATOM     15  C   UNL d   1      -0.855  -1.068   1.699  0.00  0.00     0.086 C 
ATOM     16  C   UNL d   1      -1.109  -2.172   2.720  0.00  0.00     0.160 C 
ATOM     17  S   UNL d   1      -2.831  -1.964   3.122  0.00  0.00     0.146 S 
ATOM     18  O   UNL d   1      -2.931  -1.003   4.199  0.00  0.00    -0.228 OA
ATOM     19  O   UNL d   1      -3.461  -3.265   3.182  0.00  0.00    -0.228 OA
ATOM     20  C   UNL d   1      -3.298  -1.155   1.600  0.00  0.00     0.142 C 
ATOM     21  C   UNL d   1      -2.043  -1.153   0.736  0.00  0.00     0.036 C 
ENDBRANCH  13  15
ENDBRANCH   1  13
TORSDOF 5
