REMARK  2 active torsions:
REMARK  status: ('A' for Active; 'I' for Inactive)
REMARK    1  A    between atoms: C_2  and  S_1 
REMARK    2  A    between atoms: C_8  and  S_1 
ROOT
ATOM      1  S   UNL d   1       1.028   0.023  -0.027  0.00  0.00     0.207 S 
ATOM      2  O   UNL d   1       0.613  -0.875   1.032  0.00  0.00    -0.217 OA
ATOM      3  O   UNL d   1       0.543   1.388  -0.118  0.00  0.00    -0.217 OA
ENDROOT
BRANCH   1   4
ATOM      4  C   UNL d   1       0.464  -0.707  -1.494  0.00  0.00     0.071 A 
ATOM      5  C   UNL d   1       0.672  -0.158  -2.796  0.00  0.00     0.031 A 
ATOM      6  C   UNL d   1       0.043  -0.900  -3.773  0.00  0.00     0.051 A 
ATOM      7  S   UNL d   1      -0.774  -2.259  -3.126  0.00  0.00    -0.112 SA
ATOM      8  C   UNL d   1      -0.308  -1.849  -1.531  0.00  0.00     0.073 A 
ENDBRANCH   1   4
BRANCH   1   9
ATOM      9  C   UNL d   1       2.797   0.036  -0.074  0.00  0.00     0.064 A 
ATOM     10  C   UNL d   1       3.479   1.258  -0.064  0.00  0.00     0.024 A 
ATOM     11  C   UNL d   1       4.872   1.270   0.029  0.00  0.00     0.002 A 
ATOM     12  C   UNL d   1       5.575   0.068   0.113  0.00  0.00     0.000 A 
ATOM     13  C   UNL d   1       4.892  -1.150   0.095  0.00  0.00     0.002 A 
ATOM     14  C   UNL d   1       3.499  -1.171   0.005  0.00  0.00     0.024 A 
ENDBRANCH   1   9
TORSDOF 2
