REMARK  5 active torsions:
REMARK  status: ('A' for Active; 'I' for Inactive)
REMARK       I    between atoms: N_2  and  C_1 
REMARK       I    between atoms: N_3  and  C_1 
REMARK    1  A    between atoms: C_7  and  N_2 
REMARK    2  A    between atoms: C_21  and  N_2 
REMARK    3  A    between atoms: C_13  and  N_3 
REMARK    4  A    between atoms: C_5  and  C_7 
REMARK    5  A    between atoms: C_14  and  C_21 
ROOT
ATOM      1  N   UNL d   1       2.146  -4.616  -3.116  0.00  0.00    -0.197 NA
ATOM      2  C   UNL d   1       1.617  -3.895  -2.378  0.00  0.00     0.060 C 
ATOM      3  C   UNL d   1       0.963  -2.960  -1.451  0.00  0.00     0.144 C 
ENDROOT
BRANCH   3   4
ATOM      4  C   UNL d   1       1.098  -1.529  -1.971  0.00  0.00     0.142 C 
BRANCH   4   5
ATOM      5  N   UNL d   1       0.584  -0.531  -1.013  0.00  0.00    -0.327 N 
ATOM      6  C   UNL d   1       1.235  -0.148   0.163  0.00  0.00     0.323 C 
ATOM      7  N   UNL d   1       2.589  -0.400   0.143  0.00  0.00    -0.309 N 
ATOM      8  O   UNL d   1       0.640   0.384   1.095  0.00  0.00    -0.247 OA
ATOM      9  H   UNL d   1       2.994  -0.384  -0.780  0.00  0.00     0.170 HD
BRANCH   7  10
ATOM     10  C   UNL d   1       3.521  -0.259   1.187  0.00  0.00     0.036 A 
ATOM     11  C   UNL d   1       3.181  -0.161   2.539  0.00  0.00     0.031 A 
ATOM     12  C   UNL d   1       4.189  -0.044   3.508  0.00  0.00     0.026 A 
ATOM     13  C   UNL d   1       5.529  -0.025   3.126  0.00  0.00     0.034 A 
ATOM     14  C   UNL d   1       5.876  -0.128   1.783  0.00  0.00     0.026 A 
ATOM     15 CL   UNL d   1       6.764   0.120   4.314  0.00  0.00    -0.084 Cl
ATOM     16  C   UNL d   1       4.873  -0.250   0.820  0.00  0.00     0.031 A 
ENDBRANCH   7  10
BRANCH   5  17
ATOM     17  C   UNL d   1      -0.749   0.015  -1.275  0.00  0.00     0.192 C 
BRANCH  17  18
ATOM     18  C   UNL d   1      -0.633   1.095  -2.299  0.00  0.00     0.070 A 
ATOM     19  O   UNL d   1      -0.427   0.700  -3.591  0.00  0.00    -0.325 OA
ATOM     20  C   UNL d   1      -0.314   1.825  -4.341  0.00  0.00     0.142 A 
ATOM     21  C   UNL d   1      -0.467   2.943  -3.556  0.00  0.00     0.027 A 
ATOM     22  C   UNL d   1      -0.676   2.473  -2.236  0.00  0.00     0.036 A 
ENDBRANCH  17  18
ENDBRANCH   5  17
ENDBRANCH   4   5
ENDBRANCH   3   4
TORSDOF 5
