REMARK  9 active torsions:
REMARK  status: ('A' for Active; 'I' for Inactive)
REMARK    1  A    between atoms: N_2  and  S_1 
REMARK    2  A    between atoms: C_8  and  S_1 
REMARK    3  A    between atoms: N_4  and  N_2 
REMARK       I    between atoms: C_3  and  N_4 
REMARK    4  A    between atoms: C_5  and  C_3 
REMARK    5  A    between atoms: N_7  and  C_5 
REMARK    6  A    between atoms: C_18  and  C_5 
REMARK       I    between atoms: C_6  and  N_7 
REMARK    7  A    between atoms: C_19  and  C_6 
REMARK    8  A    between atoms: C_12  and  C_19 
REMARK    9  A    between atoms: C_26  and  C_18 
ROOT
ATOM      1  C   UNL d   1       0.527  -1.369   3.460  0.00  0.00     0.259 C 
ATOM      2  N   UNL d   1       0.399  -2.712   3.776  0.00  0.00    -0.259 N 
ATOM      3  O   UNL d   1       1.291  -0.973   2.577  0.00  0.00    -0.269 OA
ATOM      4  H   UNL d   1      -0.302  -3.059   4.434  0.00  0.00     0.190 HD
ENDROOT
BRANCH   1   5
ATOM      5  C   UNL d   1      -0.316  -0.434   4.344  0.00  0.00     0.178 C 
BRANCH   5   6
ATOM      6  N   UNL d   1       0.484  -0.056   5.510  0.00  0.00    -0.347 N 
ATOM      7  C   UNL d   1       0.477  -0.809   6.663  0.00  0.00     0.222 C 
ATOM      8  O   UNL d   1      -0.173  -1.848   6.756  0.00  0.00    -0.273 OA
ATOM      9  H   UNL d   1       1.263   0.578   5.362  0.00  0.00     0.163 HD
BRANCH   7  10
ATOM     10  C   UNL d   1       1.301  -0.231   7.803  0.00  0.00     0.141 C 
BRANCH  10  11
ATOM     11  C   UNL d   1       2.695  -0.778   7.842  0.00  0.00    -0.043 A 
ATOM     12  C   UNL d   1       3.847  -0.015   7.771  0.00  0.00     0.057 A 
ATOM     13  S   UNL d   1       5.274  -0.953   7.865  0.00  0.00    -0.113 SA
ATOM     14  C   UNL d   1       4.378  -2.397   8.028  0.00  0.00     0.050 A 
ATOM     15  C   UNL d   1       3.021  -2.166   8.008  0.00  0.00     0.015 A 
ENDBRANCH  10  11
ENDBRANCH   7  10
ENDBRANCH   5   6
BRANCH   5  16
ATOM     16  C   UNL d   1      -0.746   0.847   3.614  0.00  0.00     0.038 C 
BRANCH  16  17
ATOM     17  C   UNL d   1      -1.725   0.667   2.437  0.00  0.00    -0.020 C 
ATOM     18  C   UNL d   1      -3.018  -0.042   2.839  0.00  0.00     0.009 C 
ATOM     19  C   UNL d   1      -2.065   2.043   1.852  0.00  0.00     0.009 C 
ENDBRANCH  16  17
ENDBRANCH   5  16
ENDBRANCH   1   5
BRANCH   2  20
ATOM     20  N   UNL d   1       1.051  -3.683   2.895  0.00  0.00    -0.220 N 
ATOM     21  H   UNL d   1       1.728  -3.294   2.227  0.00  0.00     0.200 HD
BRANCH  20  22
ATOM     22  S   UNL d   1       0.069  -4.900   2.217  0.00  0.00     0.276 S 
ATOM     23  O   UNL d   1      -0.739  -5.455   3.279  0.00  0.00    -0.199 OA
ATOM     24  O   UNL d   1       0.886  -5.712   1.340  0.00  0.00    -0.199 OA
BRANCH  22  25
ATOM     25  C   UNL d   1      -0.992  -3.906   1.184  0.00  0.00     0.081 A 
ATOM     26  C   UNL d   1      -0.417  -3.160   0.147  0.00  0.00     0.027 A 
ATOM     27  C   UNL d   1      -1.212  -2.281  -0.589  0.00  0.00     0.025 A 
ATOM     28  C   UNL d   1      -2.571  -2.167  -0.298  0.00  0.00     0.034 A 
ATOM     29  C   UNL d   1      -3.150  -2.942   0.710  0.00  0.00     0.025 A 
ATOM     30 CL   UNL d   1      -3.535  -1.037  -1.165  0.00  0.00    -0.084 Cl
ATOM     31  C   UNL d   1      -2.360  -3.816   1.460  0.00  0.00     0.027 A 
ENDBRANCH  22  25
ENDBRANCH  20  22
ENDBRANCH   2  20
TORSDOF 9
