REMARK  3 active torsions:
REMARK  status: ('A' for Active; 'I' for Inactive)
REMARK    1  A    between atoms: N_8  and  C_1 
REMARK    2  A    between atoms: C_7  and  C_3 
REMARK    3  A    between atoms: C_11  and  N_8 
ROOT
ATOM      1  C   UNL d   1      -1.404  -0.584   0.010  0.00  0.00     0.079 C 
ATOM      2  C   UNL d   1      -0.347  -1.420  -0.091  0.00  0.00     0.140 C 
ATOM      3  C   UNL d   1       0.511   1.442   0.002  0.00  0.00     0.190 C 
ATOM      4  S   UNL d   1      -1.198   1.107   0.429  0.00  0.00    -0.086 SA
ATOM      5  N   UNL d   1       1.382   0.311   0.137  0.00  0.00    -0.338 N 
ATOM      6  C   UNL d   1       1.057  -1.005   0.143  0.00  0.00     0.265 C 
ATOM      7  C   UNL d   1      -0.537  -2.791  -0.438  0.00  0.00     0.107 C 
ATOM      8  N   UNL d   1      -0.707  -3.906  -0.717  0.00  0.00    -0.191 NA
ATOM      9  O   UNL d   1       1.953  -1.827   0.317  0.00  0.00    -0.267 OA
ATOM     10  H   UNL d   1       2.371   0.483   0.266  0.00  0.00     0.164 HD
ENDROOT
BRANCH   1  11
ATOM     11  N   UNL d   1      -2.723  -1.016  -0.207  0.00  0.00    -0.251 NA
ATOM     12  H   UNL d   1      -3.232  -0.271  -0.696  0.00  0.00     0.134 HD
BRANCH  11  13
ATOM     13  C   UNL d   1      -3.562  -1.370   0.903  0.00  0.00     0.035 A 
ATOM     14  C   UNL d   1      -4.947  -1.103   0.866  0.00  0.00     0.055 A 
ATOM     15 CL   UNL d   1      -5.658  -0.322  -0.505  0.00  0.00    -0.082 Cl
ATOM     16  C   UNL d   1      -5.771  -1.423   1.948  0.00  0.00     0.026 A 
ATOM     17  C   UNL d   1      -5.232  -2.052   3.069  0.00  0.00     0.002 A 
ATOM     18  C   UNL d   1      -3.881  -2.386   3.094  0.00  0.00     0.002 A 
ATOM     19  C   UNL d   1      -3.056  -2.061   2.014  0.00  0.00     0.025 A 
ENDBRANCH  11  13
ENDBRANCH   1  11
BRANCH   3  20
ATOM     20  C   UNL d   1       0.658   2.254  -1.272  0.00  0.00     0.018 A 
ATOM     21  C   UNL d   1       0.701   3.670  -1.198  0.00  0.00     0.044 A 
ATOM     22 CL   UNL d   1       0.631   4.537   0.303  0.00  0.00    -0.084 Cl
ATOM     23  C   UNL d   1       0.788   4.470  -2.346  0.00  0.00     0.024 A 
ATOM     24  C   UNL d   1       0.826   3.889  -3.604  0.00  0.00     0.003 A 
ATOM     25  C   UNL d   1       0.774   2.506  -3.713  0.00  0.00     0.024 A 
ATOM     26  C   UNL d   1       0.686   1.698  -2.569  0.00  0.00     0.044 A 
ATOM     27 CL   UNL d   1       0.590   0.006  -2.899  0.00  0.00    -0.084 Cl
ENDBRANCH   3  20
TORSDOF 3
