REMARK  6 active torsions:
REMARK  status: ('A' for Active; 'I' for Inactive)
REMARK    1  A    between atoms: S_8  and  C_3 
REMARK    2  A    between atoms: C_9  and  C_5 
REMARK    3  A    between atoms: C_12  and  S_8 
REMARK    4  A    between atoms: O_16  and  C_9 
REMARK    5  A    between atoms: O_17  and  C_9 
REMARK    6  A    between atoms: C_14  and  C_12 
ROOT
ATOM      1  N   UNL d   1      -1.464  -1.076  -0.202  0.00  0.00    -0.349 N 
ATOM      2  HN  UNL d   1      -1.959  -1.965  -0.269  1.00  0.00     0.166 HD
ATOM      3  C   UNL d   1      -0.111  -1.056  -0.171  0.00  0.00     0.091 A 
ATOM      4  C   UNL d   1       0.598   0.135  -0.093  0.00  0.00     0.078 A 
ATOM      5  C   UNL d   1      -2.163   0.090  -0.145  0.00  0.00     0.065 A 
ATOM      6  C   UNL d   1       2.029   0.180  -0.023  0.00  0.00     0.102 C 
ATOM      7  N   UNL d   1       3.186   0.268   0.048  0.00  0.00    -0.191 NA
ATOM      8  C   UNL d   1      -0.122   1.338  -0.075  0.00  0.00     0.027 A 
ATOM      9  C   UNL d   1      -1.516   1.320  -0.106  0.00  0.00     0.032 A 
ENDROOT
BRANCH   3  10
ATOM     10  S   UNL d   1       0.665  -2.671  -0.135  0.00  0.00    -0.106 SA
BRANCH  10  11
ATOM     11  C   UNL d   1      -0.669  -3.682  -0.862  0.00  0.00     0.119 C 
BRANCH  11  12
ATOM     12  C   UNL d   1      -0.354  -5.160  -0.815  0.00  0.00    -0.048 A 
ATOM     13  C   UNL d   1      -0.880  -5.962   0.210  0.00  0.00     0.009 A 
ATOM     14  C   UNL d   1      -0.625  -7.336   0.239  0.00  0.00     0.024 A 
ATOM     15  C   UNL d   1       0.165  -7.913  -0.752  0.00  0.00     0.034 A 
ATOM     16  C   UNL d   1       0.707  -7.129  -1.767  0.00  0.00     0.024 A 
ATOM     17 CL   UNL d   1       0.467  -9.607  -0.725  0.00  0.00    -0.084 Cl
ATOM     18  C   UNL d   1       0.451  -5.755  -1.798  0.00  0.00     0.009 A 
ENDBRANCH  11  12
ENDBRANCH  10  11
ENDBRANCH   3  10
BRANCH   5  19
ATOM     19  C   UNL d   1      -3.689   0.007  -0.073  0.00  0.00     0.309 C 
BRANCH  19  20
ATOM     20  O   UNL d   1      -4.179   0.049  -1.418  0.00  0.00    -0.360 OA
ATOM     21  C   UNL d   1      -5.598   0.049  -1.477  0.00  0.00     0.205 C 
ENDBRANCH  19  20
BRANCH  19  22
ATOM     22  O   UNL d   1      -4.129  -1.190   0.582  0.00  0.00    -0.360 OA
ATOM     23  C   UNL d   1      -3.769  -1.250   1.955  0.00  0.00     0.205 C 
ENDBRANCH  19  22
ENDBRANCH   5  19
TORSDOF 6
