REMARK  5 active torsions:
REMARK  status: ('A' for Active; 'I' for Inactive)
REMARK    1  A    between atoms: N_5  and  C_1 
REMARK    2  A    between atoms: S_7  and  C_2 
REMARK    3  A    between atoms: C_10  and  S_7 
REMARK    4  A    between atoms: C_11  and  C_9 
REMARK    5  A    between atoms: O_15  and  C_11 
ROOT
ATOM      1  S   UNL d   1       0.378  -2.713  -0.122  0.00  0.00    -0.067 SA
ENDROOT
BRANCH   1   2
ATOM      2  C   UNL d   1      -0.154  -4.298   0.346  0.00  0.00     0.128 A 
ATOM      3  C   UNL d   1      -0.245  -5.495  -0.340  0.00  0.00     0.209 A 
ATOM      4  N   UNL d   1      -0.778  -6.493   0.452  0.00  0.00    -0.331 N 
ATOM      5  C   UNL d   1      -1.038  -5.904   1.597  0.00  0.00     0.185 A 
ATOM      6  HN  UNL d   1      -0.934  -7.470   0.204  1.00  0.00     0.168 HD
ATOM      7  N   UNL d   1      -0.685  -4.576   1.585  0.00  0.00    -0.339 N 
ATOM      8  C   UNL d   1      -0.889  -3.700   2.716  0.00  0.00     0.158 C 
BRANCH   3   9
ATOM      9  N   UNL d   1       0.101  -5.771  -1.709  0.00  0.00    -0.095 N 
ATOM     10  O   UNL d   1      -0.181  -4.907  -2.550  0.00  0.00    -0.530 OA
ATOM     11  O   UNL d   1       0.687  -6.839  -1.941  0.00  0.00    -0.530 OA
ENDBRANCH   3   9
ENDBRANCH   1   2
BRANCH   1  12
ATOM     12  C   UNL d   1       2.149  -2.901   0.084  0.00  0.00     0.024 A 
ATOM     13  C   UNL d   1       2.854  -2.457   1.219  0.00  0.00     0.054 A 
ATOM     14  C   UNL d   1       4.252  -2.590   1.280  0.00  0.00     0.020 A 
ATOM     15  C   UNL d   1       4.958  -3.140   0.212  0.00  0.00     0.001 A 
ATOM     16  C   UNL d   1       4.272  -3.571  -0.919  0.00  0.00     0.001 A 
ATOM     17  C   UNL d   1       2.879  -3.448  -0.985  0.00  0.00     0.020 A 
BRANCH  13  18
ATOM     18  C   UNL d   1       2.211  -1.862   2.412  0.00  0.00     0.177 C 
ATOM     19  O   UNL d   1       2.535  -2.158   3.550  0.00  0.00    -0.646 OA
BRANCH  18  20
ATOM     20  O   UNL d   1       1.285  -0.919   2.137  0.00  0.00    -0.773 OA
ATOM     21  H   UNL d   1       1.125  -0.778   1.183  0.00  0.00     0.167 HD
ENDBRANCH  18  20
ENDBRANCH  13  18
ENDBRANCH   1  12
TORSDOF 5
