REMARK  3 active torsions:
REMARK  status: ('A' for Active; 'I' for Inactive)
REMARK    1  A    between atoms: N_2  and  C_1 
REMARK    2  A    between atoms: N_3  and  C_1 
REMARK       I    between atoms: C_6  and  N_3 
REMARK    3  A    between atoms: C_14  and  C_6 
ROOT
ATOM      1  C   UNL d   1       0.962  -0.095  -0.031  0.00  0.00     0.177 C 
ATOM      2  S   UNL d   1       2.002   0.699  -1.105  0.00  0.00    -0.041 SA
ENDROOT
BRANCH   1   3
ATOM      3  N   UNL d   1       0.526   0.412   1.172  0.00  0.00    -0.349 N 
ATOM      4  C   UNL d   1      -0.764   0.023   1.802  0.00  0.00     0.116 C 
ATOM      5  C   UNL d   1      -1.744   1.164   1.540  0.00  0.00    -0.022 A 
ATOM      6  C   UNL d   1      -0.581  -0.266   3.297  0.00  0.00     0.037 C 
ATOM      7  C   UNL d   1      -3.167   1.064   1.440  0.00  0.00     0.017 A 
ATOM      8  C   UNL d   1      -1.326   2.461   1.293  0.00  0.00    -0.008 A 
ATOM      9  C   UNL d   1      -3.757   2.271   1.120  0.00  0.00     0.051 A 
ATOM     10  S   UNL d   1      -2.608   3.529   0.972  0.00  0.00    -0.106 SA
ATOM     11  C   UNL d   1       0.105   2.894   1.214  0.00  0.00     0.066 C 
ATOM     12  C   UNL d   1       1.023   1.736   1.657  0.00  0.00     0.131 C 
ENDBRANCH   1   3
BRANCH   1  13
ATOM     13  N   UNL d   1       0.596  -1.335  -0.517  0.00  0.00    -0.300 N 
ATOM     14  C   UNL d   1       0.013  -2.555  -0.113  0.00  0.00     0.257 C 
ATOM     15  O   UNL d   1      -0.232  -2.904   1.028  0.00  0.00    -0.267 OA
ATOM     16  H   UNL d   1       0.999  -1.396  -1.442  0.00  0.00     0.171 HD
BRANCH  14  17
ATOM     17  C   UNL d   1      -0.151  -3.515  -1.270  0.00  0.00     0.032 A 
ATOM     18  C   UNL d   1      -0.423  -3.039  -2.565  0.00  0.00     0.018 A 
ATOM     19  C   UNL d   1      -0.400  -3.904  -3.662  0.00  0.00     0.025 A 
ATOM     20  C   UNL d   1      -0.138  -5.257  -3.469  0.00  0.00     0.034 A 
ATOM     21  C   UNL d   1       0.056  -5.758  -2.182  0.00  0.00     0.025 A 
ATOM     22 CL   UNL d   1      -0.037  -6.305  -4.830  0.00  0.00    -0.084 Cl
ATOM     23  C   UNL d   1       0.045  -4.888  -1.078  0.00  0.00     0.018 A 
ENDBRANCH  14  17
ENDBRANCH   1  13
TORSDOF 3
