REMARK  4 active torsions:
REMARK  status: ('A' for Active; 'I' for Inactive)
REMARK    1  A    between atoms: C_4  and  C_13 
REMARK    2  A    between atoms: C_21  and  C_12 
REMARK    3  A    between atoms: C_13  and  C_17 
REMARK    4  A    between atoms: C_17  and  N_15 
ROOT
ATOM      1  C   UNL d   1       2.882  -0.893   0.182  0.00  0.00     0.148 A 
ATOM      2  N   UNL d   1       1.855  -1.149  -0.601  0.00  0.00    -0.335 N 
ATOM      3  HN  UNL d   1       1.837  -1.894  -1.296  1.00  0.00     0.168 HD
ATOM      4  S   UNL d   1       2.620   0.463   1.230  0.00  0.00    -0.052 SA
ATOM      5  N   UNL d   1       4.041  -1.611   0.155  0.00  0.00    -0.358 N 
ATOM      6  C   UNL d   1       0.801  -0.283  -0.365  0.00  0.00     0.053 A 
ATOM      7  C   UNL d   1       1.038   0.688   0.604  0.00  0.00     0.035 A 
ATOM      8  N   UNL d   1       5.727  -4.000   0.634  0.00  0.00     0.099 N 
ATOM      9  C   UNL d   1      -0.455  -0.308  -1.010  0.00  0.00     0.054 A 
ATOM     10  C   UNL d   1       4.304  -2.546  -0.946  0.00  0.00     0.155 C 
ATOM     11  C   UNL d   1       5.067  -1.569   1.195  0.00  0.00     0.155 C 
ATOM     12  C   UNL d   1       0.075   1.653   0.948  0.00  0.00     0.023 A 
ATOM     13  C   UNL d   1      -1.420   0.642  -0.668  0.00  0.00     0.036 A 
ATOM     14  C   UNL d   1       4.651  -3.947  -0.392  0.00  0.00     0.292 C 
ATOM     15  C   UNL d   1       5.400  -3.004   1.690  0.00  0.00     0.292 C 
ATOM     16  C   UNL d   1      -1.161   1.613   0.294  0.00  0.00     0.025 A 
ATOM     17 CL   UNL d   1      -2.955   0.610  -1.448  0.00  0.00    -0.084 Cl
ENDROOT
BRANCH   8  18
ATOM     18  C   UNL d   1       7.088  -3.760   0.103  0.00  0.00     0.358 C 
BRANCH  18  19
ATOM     19  C   UNL d   1       7.478  -4.741  -1.003  0.00  0.00     0.213 C 
ATOM     20  O   UNL d   1       7.257  -4.439  -2.179  0.00  0.00    -0.288 OA
BRANCH  19  21
ATOM     21  C   UNL d   1       8.079  -6.008  -0.653  0.00  0.00     0.148 A 
ATOM     22  C   UNL d   1       8.438  -7.069  -1.449  0.00  0.00     0.075 A 
ATOM     23  C   UNL d   1       8.917  -8.066  -0.562  0.00  0.00     0.068 A 
ATOM     24  N   UNL d   1       8.931  -7.588   0.695  0.00  0.00    -0.260 N 
ATOM     25  O   UNL d   1       8.387  -6.313   0.635  0.00  0.00    -0.234 OA
ATOM     26  HN  UNL d   1       9.273  -8.068   1.527  1.00  0.00     0.195 HD
BRANCH  23  27
ATOM     27  C   UNL d   1       9.317  -9.435  -0.901  0.00  0.00    -0.007 A 
ATOM     28  C   UNL d   1      10.213 -10.159  -0.102  0.00  0.00     0.014 A 
ATOM     29  C   UNL d   1      10.567 -11.471  -0.440  0.00  0.00     0.001 A 
ATOM     30  C   UNL d   1      10.027 -12.075  -1.575  0.00  0.00     0.000 A 
ATOM     31  C   UNL d   1       9.133 -11.370  -2.375  0.00  0.00     0.001 A 
ATOM     32  C   UNL d   1       8.782 -10.060  -2.041  0.00  0.00     0.014 A 
ENDBRANCH  23  27
ENDBRANCH  19  21
ENDBRANCH  18  19
ENDBRANCH   8  18
TORSDOF 4
