REMARK  3 active torsions:
REMARK  status: ('A' for Active; 'I' for Inactive)
REMARK    1  A    between atoms: N_4  and  C_1 
REMARK    2  A    between atoms: C_5  and  C_1 
REMARK    3  A    between atoms: C_8  and  N_4 
ROOT
ATOM      1  C   UNL d   1       0.969   0.071   0.078  0.00  0.00     0.144 C 
ATOM      2  N   UNL d   1       0.130   2.335  -1.034  0.00  0.00    -0.194 NA
ATOM      3  C   UNL d   1       0.489   1.337  -0.555  0.00  0.00     0.095 C 
ATOM      4  C   UNL d   1       2.494   0.122   0.306  0.00  0.00     0.061 C 
ENDROOT
BRANCH   1   5
ATOM      5  N   UNL d   1       0.613  -1.113  -0.744  0.00  0.00    -0.365 N 
ATOM      6  H   UNL d   1      -0.361  -1.380  -0.608  0.00  0.00     0.161 HD
BRANCH   5   7
ATOM      7  C   UNL d   1       0.981  -1.345  -2.069  0.00  0.00     0.029 A 
ATOM      8  C   UNL d   1       1.752  -0.488  -2.861  0.00  0.00     0.029 A 
ATOM      9  C   UNL d   1       2.124  -0.832  -4.168  0.00  0.00     0.002 A 
ATOM     10  C   UNL d   1       1.742  -2.054  -4.707  0.00  0.00     0.000 A 
ATOM     11  C   UNL d   1       0.988  -2.932  -3.937  0.00  0.00     0.002 A 
ATOM     12  C   UNL d   1       0.618  -2.579  -2.635  0.00  0.00     0.029 A 
ENDBRANCH   5   7
ENDBRANCH   1   5
BRANCH   1  13
ATOM     13  C   UNL d   1       0.352  -0.098   1.500  0.00  0.00    -0.016 A 
ATOM     14  C   UNL d   1       0.130  -1.375   2.061  0.00  0.00     0.013 A 
ATOM     15  C   UNL d   1      -0.350  -1.515   3.368  0.00  0.00     0.043 A 
ATOM     16  C   UNL d   1      -0.595  -0.386   4.137  0.00  0.00     0.116 A 
ATOM     17  C   UNL d   1      -0.372   0.883   3.626  0.00  0.00     0.043 A 
ATOM     18  F   UNL d   1      -1.035  -0.523   5.394  0.00  0.00    -0.206 F 
ATOM     19  C   UNL d   1       0.101   1.028   2.319  0.00  0.00     0.013 A 
ENDBRANCH   1  13
TORSDOF 3
