REMARK  3 active torsions:
REMARK  status: ('A' for Active; 'I' for Inactive)
REMARK    1  A    between atoms: O_6  and  C_3 
REMARK    2  A    between atoms: C_11  and  O_6 
REMARK    3  A    between atoms: N_10  and  C_8 
ROOT
ATOM      1  N   UNL d   1      -1.117  -1.134   0.034  0.00  0.00    -0.345 N 
ATOM      2  HN  UNL d   1      -1.665  -1.995   0.024  1.00  0.00     0.167 HD
ATOM      3  C   UNL d   1      -1.704   0.082  -0.014  0.00  0.00     0.148 A 
ATOM      4  C   UNL d   1       0.234  -1.152   0.096  0.00  0.00     0.113 A 
ATOM      5  C   UNL d   1       1.044  -0.018   0.074  0.00  0.00     0.021 A 
ATOM      6  C   UNL d   1      -1.001   1.272   0.073  0.00  0.00     0.058 A 
ATOM      7  C   UNL d   1       0.392   1.213   0.133  0.00  0.00     0.029 A 
ENDROOT
BRANCH   3   8
ATOM      8  O   UNL d   1      -3.084   0.175  -0.120  0.00  0.00    -0.293 OA
BRANCH   8   9
ATOM      9  C   UNL d   1      -3.744  -0.835  -0.776  0.00  0.00     0.093 A 
ATOM     10  C   UNL d   1      -4.997  -1.201  -0.307  0.00  0.00     0.124 A 
ATOM     11  N   UNL d   1      -5.772  -2.159  -0.872  0.00  0.00    -0.373 N 
ATOM     12  C   UNL d   1      -5.262  -2.779  -1.960  0.00  0.00     0.088 A 
ATOM     13  HN  UNL d   1      -6.690  -2.400  -0.497  1.00  0.00     0.164 HD
ATOM     14  C   UNL d   1      -4.036  -2.467  -2.521  0.00  0.00     0.020 A 
ATOM     15  C   UNL d   1      -3.273  -1.464  -1.928  0.00  0.00     0.040 A 
ENDBRANCH   8   9
ENDBRANCH   3   8
BRANCH   5  16
ATOM     16  N   UNL d   1       2.432  -0.099   0.225  0.00  0.00    -0.302 NA
ATOM     17  H   UNL d   1       2.835  -0.961  -0.132  0.00  0.00     0.124 HD
ATOM     18  H   UNL d   1       2.930   0.720  -0.110  0.00  0.00     0.124 HD
ENDBRANCH   5  16
TORSDOF 3
