REMARK  5 active torsions:
REMARK  status: ('A' for Active; 'I' for Inactive)
REMARK    1  A    between atoms: C_2  and  S_1 
REMARK    2  A    between atoms: N_10  and  S_1 
REMARK    3  A    between atoms: C_7  and  C_11 
REMARK    4  A    between atoms: C_8  and  C_12 
REMARK    5  A    between atoms: C_13  and  N_10 
ROOT
ATOM      1  N   UNL d   1       2.551  -0.047  -0.037  0.00  0.00    -0.281 N 
ATOM      2  H   UNL d   1       2.957  -0.955   0.194  0.00  0.00     0.179 HD
ENDROOT
BRANCH   1   3
ATOM      3  S   UNL d   1       0.876  -0.104   0.014  0.00  0.00     0.264 S 
ATOM      4  O   UNL d   1       0.643  -1.528   0.122  0.00  0.00    -0.200 OA
ATOM      5  O   UNL d   1       0.369   0.778   1.048  0.00  0.00    -0.200 OA
BRANCH   3   6
ATOM      6  C   UNL d   1       0.306   0.497  -1.621  0.00  0.00     0.092 A 
ATOM      7  C   UNL d   1      -0.351  -0.380  -2.545  0.00  0.00    -0.032 A 
ATOM      8  C   UNL d   1      -0.671   0.086  -3.857  0.00  0.00    -0.048 A 
ATOM      9  C   UNL d   1      -0.759  -1.794  -2.190  0.00  0.00     0.050 C 
ATOM     10  C   UNL d   1      -1.264  -0.833  -4.913  0.00  0.00     0.049 C 
ATOM     11  C   UNL d   1      -0.487   1.450  -4.196  0.00  0.00    -0.049 A 
ATOM     12  C   UNL d   1       0.096   2.337  -3.260  0.00  0.00    -0.048 A 
ATOM     13  C   UNL d   1      -0.978   1.944  -5.546  0.00  0.00     0.049 C 
ATOM     14  C   UNL d   1       0.480   1.872  -1.965  0.00  0.00    -0.032 A 
ATOM     15  C   UNL d   1       0.280   3.790  -3.661  0.00  0.00     0.049 C 
ATOM     16  C   UNL d   1       1.001   2.917  -1.004  0.00  0.00     0.050 C 
ENDBRANCH   3   6
ENDBRANCH   1   3
BRANCH   1  17
ATOM     17  C   UNL d   1       3.363   1.092   0.167  0.00  0.00     0.044 A 
ATOM     18  C   UNL d   1       3.568   1.663   1.426  0.00  0.00     0.046 A 
ATOM     19  C   UNL d   1       4.567   2.644   1.607  0.00  0.00     0.050 A 
ATOM     20  C   UNL d   1       5.327   3.055   0.496  0.00  0.00     0.032 A 
ATOM     21  C   UNL d   1       5.135   2.473  -0.765  0.00  0.00     0.050 A 
ATOM     22  C   UNL d   1       4.158   1.479  -0.909  0.00  0.00     0.046 A 
BRANCH  19  23
ATOM     23  C   UNL d   1       4.874   3.204   2.977  0.00  0.00     0.417 C 
ATOM     24  F   UNL d   1       5.999   3.974   3.004  0.00  0.00    -0.166 F 
ATOM     25  F   UNL d   1       3.877   3.988   3.469  0.00  0.00    -0.166 F 
ATOM     26  F   UNL d   1       5.080   2.226   3.905  0.00  0.00    -0.166 F 
ENDBRANCH  19  23
BRANCH  21  27
ATOM     27  C   UNL d   1       5.983   2.848  -1.954  0.00  0.00     0.417 C 
ATOM     28  F   UNL d   1       6.951   3.759  -1.665  0.00  0.00    -0.166 F 
ATOM     29  F   UNL d   1       6.625   1.772  -2.485  0.00  0.00    -0.166 F 
ATOM     30  F   UNL d   1       5.248   3.386  -2.965  0.00  0.00    -0.166 F 
ENDBRANCH  21  27
ENDBRANCH   1  17
TORSDOF 5
