REMARK  2 active torsions:
REMARK  status: ('A' for Active; 'I' for Inactive)
REMARK    1  A    between atoms: C_8  and  C_1 
REMARK    2  A    between atoms: O_16  and  C_8 
ROOT
ATOM      1  C   UNL d   1      -0.736  -1.376  -0.030  0.00  0.00     0.094 A 
ATOM      2  C   UNL d   1       0.658  -1.356  -0.018  0.00  0.00     0.104 A 
ATOM      3  N   UNL d   1       1.008  -0.026  -0.005  0.00  0.00    -0.293 N 
ATOM      4  N   UNL d   1      -0.050   0.807  -0.027  0.00  0.00    -0.302 N 
ATOM      5  HN  UNL d   1      -0.042   1.827  -0.033  1.00  0.00     0.186 HD
ATOM      6  C   UNL d   1      -1.113  -0.002  -0.038  0.00  0.00     0.041 A 
ATOM      7  C   UNL d   1       1.603  -2.435  -0.043  0.00  0.00     0.129 A 
ATOM      8  N   UNL d   1       3.511  -3.565   0.406  0.00  0.00    -0.272 N 
ATOM      9  HN  UNL d   1       4.436  -3.804   0.764  1.00  0.00     0.194 HD
ATOM     10  O   UNL d   1       2.801  -2.398   0.625  0.00  0.00    -0.236 OA
ATOM     11  C   UNL d   1       1.532  -3.650  -0.695  0.00  0.00     0.061 A 
ATOM     12  C   UNL d   1       2.727  -4.310  -0.374  0.00  0.00     0.117 A 
ATOM     13  C   UNL d   1       2.320   0.582  -0.031  0.00  0.00     0.178 C 
ATOM     14  C   UNL d   1      -2.475   0.591  -0.029  0.00  0.00     0.071 C 
ENDROOT
BRANCH   1  15
ATOM     15  C   UNL d   1      -1.597  -2.548  -0.017  0.00  0.00     0.297 C 
ATOM     16  O   UNL d   1      -1.243  -3.653   0.376  0.00  0.00    -0.259 OA
BRANCH  15  17
ATOM     17  O   UNL d   1      -2.837  -2.295  -0.526  0.00  0.00    -0.322 OA
ATOM     18  C   UNL d   1      -3.673  -3.449  -0.619  0.00  0.00     0.213 C 
ENDBRANCH  15  17
ENDBRANCH   1  15
TORSDOF 2
