REMARK  2 active torsions:
REMARK  status: ('A' for Active; 'I' for Inactive)
REMARK       I    between atoms: N_2  and  C_1 
REMARK    1  A    between atoms: C_4  and  C_1 
REMARK       I    between atoms: C_3  and  N_2 
REMARK       I    between atoms: N_6  and  C_3 
REMARK    2  A    between atoms: C_5  and  N_6 
ROOT
ATOM      1  C   UNL d   1       0.607   0.662  -0.117  0.00  0.00     0.263 C 
ATOM      2  N   UNL d   1       0.501  -0.434  -0.963  0.00  0.00    -0.275 N 
ATOM      3  C   UNL d   1       1.019  -0.586  -2.236  0.00  0.00     0.328 C 
ATOM      4  N   UNL d   1       2.012   0.292  -2.566  0.00  0.00    -0.293 N 
ATOM      5  O   UNL d   1       1.343   1.609  -0.367  0.00  0.00    -0.267 OA
ATOM      6  O   UNL d   1       0.543  -1.473  -2.939  0.00  0.00    -0.247 OA
ATOM      7  H   UNL d   1      -0.235  -1.107  -0.800  0.00  0.00     0.173 HD
ATOM      8  H   UNL d   1       2.289   0.962  -1.855  0.00  0.00     0.172 HD
ENDROOT
BRANCH   1   9
ATOM      9  C   UNL d   1      -0.183   0.604   1.156  0.00  0.00     0.075 A 
ATOM     10  C   UNL d   1       0.372   1.106   2.350  0.00  0.00     0.051 A 
ATOM     11 CL   UNL d   1       1.966   1.771   2.472  0.00  0.00    -0.083 Cl
ATOM     12  C   UNL d   1      -0.346   1.045   3.556  0.00  0.00     0.025 A 
ATOM     13  C   UNL d   1      -1.615   0.478   3.597  0.00  0.00     0.003 A 
ATOM     14  C   UNL d   1      -2.181  -0.012   2.427  0.00  0.00     0.025 A 
ATOM     15  C   UNL d   1      -1.482   0.062   1.212  0.00  0.00     0.051 A 
ATOM     16 CL   UNL d   1      -2.342  -0.518  -0.174  0.00  0.00    -0.083 Cl
ENDBRANCH   1   9
BRANCH   4  17
ATOM     17  C   UNL d   1       2.576   0.428  -3.817  0.00  0.00     0.132 A 
ATOM     18  N   UNL d   1       2.228  -0.251  -4.915  0.00  0.00    -0.245 N 
ATOM     19  O   UNL d   1       2.972   0.278  -5.951  0.00  0.00    -0.241 OA
ATOM     20  HN  UNL d   1       1.549  -1.009  -4.975  1.00  0.00     0.196 HD
ATOM     21  C   UNL d   1       3.782   1.256  -5.471  0.00  0.00     0.076 A 
ATOM     22  C   UNL d   1       3.597   1.365  -4.116  0.00  0.00     0.084 A 
ATOM     23  C   UNL d   1       4.610   1.965  -6.461  0.00  0.00     0.079 C 
ENDBRANCH   4  17
TORSDOF 2
