REMARK  8 active torsions:
REMARK  status: ('A' for Active; 'I' for Inactive)
REMARK    1  A    between atoms: C_2  and  C_1 
REMARK    2  A    between atoms: N_3  and  C_1 
REMARK    3  A    between atoms: C_4  and  C_1 
REMARK    4  A    between atoms: N_5  and  C_1 
REMARK       I    between atoms: C_6  and  N_3 
REMARK    5  A    between atoms: O_15  and  C_4 
REMARK    6  A    between atoms: C_7  and  N_5 
REMARK    7  A    between atoms: C_18  and  C_6 
REMARK    8  A    between atoms: C_21  and  O_15 
ROOT
ATOM      1  C   UNL d   1       0.863  -0.054  -0.137  0.00  0.00     0.296 C 
ENDROOT
BRANCH   1   2
ATOM      2  C   UNL d   1       0.142   0.730  -1.294  0.00  0.00     0.442 C 
ATOM      3  F   UNL d   1      -0.406  -0.112  -2.212  0.00  0.00    -0.166 F 
ATOM      4  F   UNL d   1      -0.849   1.550  -0.873  0.00  0.00    -0.166 F 
ATOM      5  F   UNL d   1       1.011   1.513  -1.991  0.00  0.00    -0.166 F 
ENDBRANCH   1   2
BRANCH   1   6
ATOM      6  N   UNL d   1       0.512  -1.460   0.026  0.00  0.00    -0.319 N 
ATOM      7  C   UNL d   1      -0.795  -1.853   0.141  0.00  0.00     0.219 C 
ATOM      8  O   UNL d   1      -1.725  -1.058   0.050  0.00  0.00    -0.274 OA
ATOM      9  H   UNL d   1       1.272  -2.113   0.131  0.00  0.00     0.165 HD
BRANCH   7  10
ATOM     10  C   UNL d   1      -0.993  -3.324   0.406  0.00  0.00     0.098 C 
ATOM     11  C   UNL d   1      -0.683  -4.150  -0.827  0.00  0.00     0.014 C 
ENDBRANCH   7  10
ENDBRANCH   1   6
BRANCH   1  12
ATOM     12  C   UNL d   1       0.498   0.701   1.184  0.00  0.00     0.318 C 
ATOM     13  O   UNL d   1       0.056   0.171   2.196  0.00  0.00    -0.260 OA
BRANCH  12  14
ATOM     14  O   UNL d   1       0.888   2.010   1.135  0.00  0.00    -0.318 OA
BRANCH  14  15
ATOM     15  C   UNL d   1       0.545   2.795   2.289  0.00  0.00     0.174 C 
ATOM     16  C   UNL d   1       1.535   2.574   3.419  0.00  0.00     0.034 C 
ENDBRANCH  14  15
ENDBRANCH  12  14
ENDBRANCH   1  12
BRANCH   1  17
ATOM     17  N   UNL d   1       2.353  -0.114  -0.199  0.00  0.00    -0.348 N 
ATOM     18  H   UNL d   1       2.811   0.128   0.674  0.00  0.00     0.163 HD
BRANCH  17  19
ATOM     19  C   UNL d   1       3.168  -0.606  -1.192  0.00  0.00     0.033 A 
ATOM     20  C   UNL d   1       2.716  -1.129  -2.407  0.00  0.00     0.071 A 
ATOM     21  C   UNL d   1       3.623  -1.595  -3.361  0.00  0.00     0.118 A 
ATOM     22  F   UNL d   1       3.158  -2.104  -4.511  0.00  0.00    -0.206 F 
ATOM     23  C   UNL d   1       4.990  -1.545  -3.148  0.00  0.00     0.042 A 
ATOM     24  C   UNL d   1       5.467  -1.012  -1.956  0.00  0.00     0.005 A 
ATOM     25  C   UNL d   1       4.562  -0.544  -1.002  0.00  0.00     0.029 A 
ENDBRANCH  17  19
ENDBRANCH   1  17
TORSDOF 8
