REMARK  5 active torsions:
REMARK  status: ('A' for Active; 'I' for Inactive)
REMARK    1  A    between atoms: C_8  and  C_1 
REMARK    2  A    between atoms: N_7  and  C_2 
REMARK       I    between atoms: C_4  and  N_10 
REMARK    3  A    between atoms: C_5  and  C_4 
REMARK    4  A    between atoms: N_10  and  N_7 
REMARK    5  A    between atoms: O_16  and  C_8 
ROOT
ATOM      1  C   UNL d   1      -0.696   1.350  -0.029  0.00  0.00     0.108 A 
ATOM      2  C   UNL d   1       0.693   1.275  -0.001  0.00  0.00     0.077 A 
ATOM      3  S   UNL d   1      -1.405  -0.209   0.009  0.00  0.00    -0.093 SA
ATOM      4  C   UNL d   1       1.173  -0.087   0.028  0.00  0.00    -0.026 A 
ATOM      5  C   UNL d   1       0.110  -0.974   0.040  0.00  0.00     0.059 A 
ATOM      6  C   UNL d   1       2.585  -0.575  -0.002  0.00  0.00     0.051 C 
ENDROOT
BRANCH   2   7
ATOM      7  N   UNL d   1       1.464   2.398  -0.038  0.00  0.00    -0.296 N 
ATOM      8  H   UNL d   1       1.023   3.315  -0.216  0.00  0.00     0.187 HD
BRANCH   7   9
ATOM      9  N   UNL d   1       2.719   2.507   0.563  0.00  0.00    -0.262 N 
ATOM     10  C   UNL d   1       3.562   3.536   0.141  0.00  0.00     0.343 C 
ATOM     11  O   UNL d   1       3.277   4.293  -0.790  0.00  0.00    -0.262 OA
ATOM     12  H   UNL d   1       2.829   2.076   1.480  0.00  0.00     0.190 HD
BRANCH  10  13
ATOM     13  C   UNL d   1       4.872   3.615   0.939  0.00  0.00     0.473 C 
ATOM     14  F   UNL d   1       4.880   2.748   1.995  0.00  0.00    -0.162 F 
ATOM     15  F   UNL d   1       5.964   3.306   0.188  0.00  0.00    -0.162 F 
ATOM     16  F   UNL d   1       5.095   4.851   1.465  0.00  0.00    -0.162 F 
ENDBRANCH  10  13
ENDBRANCH   7   9
ENDBRANCH   2   7
BRANCH   1  17
ATOM     17  C   UNL d   1      -1.514   2.553  -0.061  0.00  0.00     0.302 C 
ATOM     18  O   UNL d   1      -1.065   3.697  -0.096  0.00  0.00    -0.259 OA
BRANCH  17  19
ATOM     19  O   UNL d   1      -2.848   2.264  -0.029  0.00  0.00    -0.322 OA
ATOM     20  C   UNL d   1      -3.707   3.404  -0.034  0.00  0.00     0.213 C 
ENDBRANCH  17  19
ENDBRANCH   1  17
TORSDOF 5
