REMARK  4 active torsions:
REMARK  status: ('A' for Active; 'I' for Inactive)
REMARK    1  A    between atoms: C_3  and  S_1 
REMARK    2  A    between atoms: C_4  and  S_1 
REMARK    3  A    between atoms: C_2  and  C_5 
REMARK    4  A    between atoms: C_15  and  C_4 
ROOT
ATOM      1  C   UNL d   1       0.339   0.244   1.607  0.00  0.00     0.184 C 
ENDROOT
BRANCH   1   2
ATOM      2  S   UNL d   1       1.072  -0.091   0.009  0.00  0.00     0.179 S 
ATOM      3  O   UNL d   1       2.512   0.077   0.095  0.00  0.00    -0.222 OA
ATOM      4  O   UNL d   1       0.493  -1.303  -0.542  0.00  0.00    -0.222 OA
BRANCH   2   5
ATOM      5  C   UNL d   1       0.468   1.254  -1.002  0.00  0.00     0.059 A 
ATOM      6  C   UNL d   1       1.238   2.413  -1.143  0.00  0.00     0.025 A 
ATOM      7  C   UNL d   1       0.799   3.432  -1.992  0.00  0.00     0.025 A 
ATOM      8  C   UNL d   1      -0.395   3.283  -2.699  0.00  0.00     0.034 A 
ATOM      9  C   UNL d   1      -1.158   2.122  -2.563  0.00  0.00     0.025 A 
ATOM     10 CL   UNL d   1      -0.921   4.531  -3.759  0.00  0.00    -0.084 Cl
ATOM     11  C   UNL d   1      -0.725   1.099  -1.716  0.00  0.00     0.025 A 
ENDBRANCH   2   5
ENDBRANCH   1   2
BRANCH   1  12
ATOM     12  C   UNL d   1       0.760  -0.827   2.583  0.00  0.00    -0.044 A 
ATOM     13  C   UNL d   1       1.923  -0.676   3.351  0.00  0.00     0.009 A 
ATOM     14  C   UNL d   1       2.324  -1.678   4.241  0.00  0.00     0.017 A 
ATOM     15  C   UNL d   1       1.573  -2.853   4.379  0.00  0.00     0.047 A 
ATOM     16  C   UNL d   1       0.410  -3.003   3.610  0.00  0.00     0.017 A 
ATOM     17  C   UNL d   1       0.009  -2.003   2.721  0.00  0.00     0.009 A 
BRANCH  15  18
ATOM     18  C   UNL d   1       2.000  -3.950   5.324  0.00  0.00     0.417 C 
ATOM     19  F   UNL d   1       3.132  -3.659   6.025  0.00  0.00    -0.166 F 
ATOM     20  F   UNL d   1       1.048  -4.232   6.258  0.00  0.00    -0.166 F 
ATOM     21  F   UNL d   1       2.251  -5.125   4.683  0.00  0.00    -0.166 F 
ENDBRANCH  15  18
ENDBRANCH   1  12
TORSDOF 4
