REMARK  2 active torsions:
REMARK  status: ('A' for Active; 'I' for Inactive)
REMARK    1  A    between atoms: C_2  and  C_1 
REMARK       I    between atoms: N_5  and  C_2 
REMARK       I    between atoms: C_7  and  N_5 
REMARK       I    between atoms: N_11  and  C_7 
REMARK    2  A    between atoms: C_14  and  N_11 
ROOT
ATOM      1  C   UNL d   1      -0.023  -2.457  -0.252  0.00  0.00     0.269 C 
ATOM      2  N   UNL d   1       0.906  -3.477  -0.125  0.00  0.00    -0.274 N 
ATOM      3  C   UNL d   1       2.278  -3.465  -0.121  0.00  0.00     0.327 C 
ATOM      4  N   UNL d   1       2.895  -2.244  -0.134  0.00  0.00    -0.309 N 
ATOM      5  O   UNL d   1       0.320  -1.275  -0.219  0.00  0.00    -0.266 OA
ATOM      6  O   UNL d   1       2.828  -4.565  -0.115  0.00  0.00    -0.247 OA
ATOM      7  H   UNL d   1       0.566  -4.427  -0.154  0.00  0.00     0.173 HD
ATOM      8  H   UNL d   1       2.285  -1.438  -0.013  0.00  0.00     0.170 HD
ENDROOT
BRANCH   1   9
ATOM      9  C   UNL d   1      -1.400  -2.893  -0.401  0.00  0.00     0.114 A 
ATOM     10  C   UNL d   1      -2.564  -2.183  -0.676  0.00  0.00     0.046 A 
ATOM     11  N   UNL d   1      -3.719  -2.962  -0.739  0.00  0.00    -0.298 N 
ATOM     12  C   UNL d   1      -2.738  -0.729  -0.917  0.00  0.00     0.071 C 
ATOM     13  N   UNL d   1      -3.472  -4.240  -0.524  0.00  0.00    -0.269 N 
ATOM     14  HN  UNL d   1      -4.648  -2.586  -0.929  1.00  0.00     0.187 HD
ATOM     15  S   UNL d   1      -1.865  -4.545  -0.240  0.00  0.00     0.009 SA
ATOM     16  HN  UNL d   1      -4.192  -4.963  -0.531  1.00  0.00     0.195 HD
ENDBRANCH   1   9
BRANCH   4  17
ATOM     17  C   UNL d   1       4.288  -2.011  -0.211  0.00  0.00     0.038 A 
ATOM     18  C   UNL d   1       5.221  -3.019  -0.491  0.00  0.00     0.056 A 
ATOM     19  C   UNL d   1       6.586  -2.731  -0.556  0.00  0.00     0.074 A 
ATOM     20 CL   UNL d   1       7.703  -3.994  -0.912  0.00  0.00    -0.081 Cl
ATOM     21  C   UNL d   1       7.031  -1.432  -0.340  0.00  0.00     0.138 A 
ATOM     22  C   UNL d   1       6.121  -0.416  -0.069  0.00  0.00     0.046 A 
ATOM     23  F   UNL d   1       8.338  -1.136  -0.394  0.00  0.00    -0.204 F 
ATOM     24  C   UNL d   1       4.751  -0.704  -0.012  0.00  0.00     0.032 A 
ENDBRANCH   4  17
TORSDOF 2
