REMARK  6 active torsions:
REMARK  status: ('A' for Active; 'I' for Inactive)
REMARK    1  A    between atoms: N_2  and  C_1 
REMARK    2  A    between atoms: C_3  and  C_7 
REMARK    3  A    between atoms: O_9  and  C_5 
REMARK    4  A    between atoms: C_6  and  S_10 
REMARK    5  A    between atoms: C_20  and  O_9 
REMARK    6  A    between atoms: S_10  and  C_21 
ROOT
ATOM      1  C   UNL d   1      -0.213   0.804  -0.184  0.00  0.00     0.137 A 
ATOM      2  C   UNL d   1      -0.928  -0.383   0.043  0.00  0.00     0.055 A 
ATOM      3  C   UNL d   1       1.169   0.885   0.014  0.00  0.00     0.109 A 
ATOM      4  C   UNL d   1      -0.251  -1.528   0.486  0.00  0.00     0.050 A 
ATOM      5  C   UNL d   1       1.825  -0.245   0.521  0.00  0.00     0.040 A 
ATOM      6  C   UNL d   1       1.129  -1.441   0.732  0.00  0.00     0.019 A 
ENDROOT
BRANCH   3   7
ATOM      7  O   UNL d   1       1.810   2.082  -0.230  0.00  0.00    -0.308 OA
BRANCH   7   8
ATOM      8  C   UNL d   1       3.147   2.056  -0.556  0.00  0.00     0.076 A 
ATOM      9  C   UNL d   1       3.674   1.209  -1.534  0.00  0.00     0.038 A 
ATOM     10  C   UNL d   1       5.053   1.171  -1.749  0.00  0.00     0.021 A 
ATOM     11  C   UNL d   1       5.905   2.000  -1.011  0.00  0.00     0.009 A 
ATOM     12  C   UNL d   1       5.358   2.918  -0.108  0.00  0.00     0.021 A 
ATOM     13  C   UNL d   1       3.980   2.946   0.119  0.00  0.00     0.038 A 
BRANCH  11  14
ATOM     14  S   UNL d   1       7.668   1.924  -1.234  0.00  0.00    -0.016 SA
BRANCH  14  15
ATOM     15  C   UNL d   1       8.032   0.341  -0.455  0.00  0.00     0.448 C 
ATOM     16  F   UNL d   1       6.930  -0.335  -0.050  0.00  0.00    -0.160 F 
ATOM     17  F   UNL d   1       8.702  -0.470  -1.309  0.00  0.00    -0.160 F 
ATOM     18  F   UNL d   1       8.818   0.509   0.637  0.00  0.00    -0.160 F 
ENDBRANCH  14  15
ENDBRANCH  11  14
ENDBRANCH   7   8
ENDBRANCH   3   7
BRANCH   1  19
ATOM     19  N   UNL d   1      -0.957   1.969  -0.625  0.00  0.00    -0.113 N 
ATOM     20  O   UNL d   1      -1.908   2.324   0.086  0.00  0.00    -0.532 OA
ATOM     21  O   UNL d   1      -0.626   2.488  -1.699  0.00  0.00    -0.532 OA
ENDBRANCH   1  19
BRANCH   4  22
ATOM     22  C   UNL d   1      -0.967  -2.843   0.686  0.00  0.00     0.417 C 
ATOM     23  F   UNL d   1      -2.316  -2.752   0.533  0.00  0.00    -0.166 F 
ATOM     24  F   UNL d   1      -0.550  -3.791  -0.197  0.00  0.00    -0.166 F 
ATOM     25  F   UNL d   1      -0.761  -3.365   1.925  0.00  0.00    -0.166 F 
ENDBRANCH   4  22
TORSDOF 6
