REMARK  3 active torsions:
REMARK  status: ('A' for Active; 'I' for Inactive)
REMARK    1  A    between atoms: C_5  and  N_1 
REMARK    2  A    between atoms: C_4  and  C_8 
REMARK    3  A    between atoms: O_15  and  C_4 
ROOT
ATOM      1  C   UNL d   1      -0.716  -2.477   0.059  0.00  0.00     0.056 A 
ATOM      2  C   UNL d   1      -1.396  -5.200  -0.089  0.00  0.00     0.037 A 
ATOM      3  C   UNL d   1      -1.564  -2.946  -0.959  0.00  0.00     0.032 A 
ATOM      4  C   UNL d   1      -0.200  -3.383   0.995  0.00  0.00     0.032 A 
ATOM      5  C   UNL d   1      -1.894  -4.304  -1.040  0.00  0.00     0.020 A 
ATOM      6  C   UNL d   1      -0.539  -4.738   0.918  0.00  0.00     0.020 A 
ENDROOT
BRANCH   1   7
ATOM      7  N   UNL d   1      -0.391  -1.091   0.115  0.00  0.00    -0.268 N 
ATOM      8  N   UNL d   1      -0.937  -0.211  -0.766  0.00  0.00    -0.305 N 
ATOM      9  C   UNL d   1      -0.436   0.974  -0.418  0.00  0.00     0.109 A 
ATOM     10  HN  UNL d   1      -1.587  -0.413  -1.526  1.00  0.00     0.186 HD
ATOM     11  C   UNL d   1       0.437   0.888   0.673  0.00  0.00     0.038 A 
ATOM     12  C   UNL d   1       0.453  -0.447   0.997  0.00  0.00     0.118 A 
ENDBRANCH   1   7
BRANCH   2  13
ATOM     13  C   UNL d   1      -1.705  -6.651  -0.130  0.00  0.00     0.176 C 
ATOM     14  O   UNL d   1      -0.925  -7.504   0.258  0.00  0.00    -0.646 OA
BRANCH  13  15
ATOM     15  O   UNL d   1      -2.943  -6.935  -0.585  0.00  0.00    -0.773 OA
ATOM     16  H   UNL d   1      -3.532  -6.166  -0.691  0.00  0.00     0.167 HD
ENDBRANCH  13  15
ENDBRANCH   2  13
TORSDOF 3
