REMARK  4 active torsions:
REMARK  status: ('A' for Active; 'I' for Inactive)
REMARK    1  A    between atoms: C_8  and  N_1 
REMARK    2  A    between atoms: C_7  and  C_2 
REMARK    3  A    between atoms: O_10  and  C_7 
REMARK    4  A    between atoms: C_11  and  O_10 
ROOT
ATOM      1  N   UNL d   1      -0.377   0.614  -0.425  0.00  0.00    -0.273 N 
ATOM      2  C   UNL d   1       0.947   0.445  -0.142  0.00  0.00     0.135 A 
ATOM      3  N   UNL d   1       1.330  -0.804  -0.104  0.00  0.00    -0.284 N 
ATOM      4  HN  UNL d   1       2.260  -1.165   0.107  1.00  0.00     0.188 HD
ATOM      5  C   UNL d   1      -0.863  -0.668  -0.631  0.00  0.00     0.199 A 
ATOM      6  N   UNL d   1       0.213  -1.516  -0.409  0.00  0.00    -0.274 N 
ATOM      7  S   UNL d   1      -2.377  -1.246  -1.000  0.00  0.00    -0.039 SA
ATOM      8  H   UNL d   1       0.202  -2.529  -0.440  0.00  0.00     0.189 HD
ENDROOT
BRANCH   2   9
ATOM      9  C   UNL d   1       1.942   1.612  -0.046  0.00  0.00     0.194 C 
ATOM     10  C   UNL d   1       3.377   1.103  -0.219  0.00  0.00     0.048 C 
BRANCH   9  11
ATOM     11  O   UNL d   1       1.857   2.292   1.205  0.00  0.00    -0.339 OA
BRANCH  11  12
ATOM     12  C   UNL d   1       2.312   3.585   1.249  0.00  0.00     0.070 A 
ATOM     13  C   UNL d   1       2.241   4.501   0.196  0.00  0.00     0.038 A 
ATOM     14  C   UNL d   1       2.727   5.803   0.358  0.00  0.00     0.026 A 
ATOM     15  C   UNL d   1       3.265   6.196   1.580  0.00  0.00     0.034 A 
ATOM     16  C   UNL d   1       3.315   5.298   2.645  0.00  0.00     0.026 A 
ATOM     17 CL   UNL d   1       3.857   7.800   1.775  0.00  0.00    -0.084 Cl
ATOM     18  C   UNL d   1       2.834   3.998   2.478  0.00  0.00     0.038 A 
ENDBRANCH  11  12
ENDBRANCH   9  11
ENDBRANCH   2   9
BRANCH   1  19
ATOM     19  C   UNL d   1      -1.161   1.780  -0.307  0.00  0.00     0.043 A 
ATOM     20  C   UNL d   1      -2.070   2.147  -1.309  0.00  0.00     0.030 A 
ATOM     21  C   UNL d   1      -2.930   3.234  -1.127  0.00  0.00     0.002 A 
ATOM     22  C   UNL d   1      -2.893   3.964   0.059  0.00  0.00     0.000 A 
ATOM     23  C   UNL d   1      -1.989   3.615   1.058  0.00  0.00     0.002 A 
ATOM     24  C   UNL d   1      -1.130   2.529   0.875  0.00  0.00     0.030 A 
ENDBRANCH   1  19
TORSDOF 4
