REMARK  4 active torsions:
REMARK  status: ('A' for Active; 'I' for Inactive)
REMARK       I    between atoms: N_3  and  C_1 
REMARK    1  A    between atoms: C_7  and  C_1 
REMARK    2  A    between atoms: C_2  and  O_4 
REMARK    3  A    between atoms: C_8  and  C_2 
REMARK    4  A    between atoms: O_4  and  N_3 
ROOT
ATOM      1  C   UNL d   1       0.986  -0.254  -0.239  0.00  0.00     0.275 C 
ATOM      2  N   UNL d   1       0.186  -1.366  -0.324  0.00  0.00    -0.221 N 
ATOM      3  O   UNL d   1       2.198  -0.293  -0.051  0.00  0.00    -0.265 OA
ATOM      4  H   UNL d   1      -0.821  -1.376  -0.187  0.00  0.00     0.198 HD
ENDROOT
BRANCH   2   5
ATOM      5  O   UNL d   1       0.855  -2.599  -0.126  0.00  0.00    -0.192 OA
BRANCH   5   6
ATOM      6  C   UNL d   1      -0.008  -3.609   0.168  0.00  0.00     0.315 C 
ATOM      7  O   UNL d   1      -1.218  -3.478   0.299  0.00  0.00    -0.257 OA
BRANCH   6   8
ATOM      8  C   UNL d   1       0.727  -4.892   0.321  0.00  0.00     0.041 A 
ATOM      9  C   UNL d   1       2.023  -5.071  -0.185  0.00  0.00     0.017 A 
ATOM     10  C   UNL d   1       2.671  -6.299  -0.031  0.00  0.00     0.001 A 
ATOM     11  C   UNL d   1       2.034  -7.349   0.628  0.00  0.00     0.000 A 
ATOM     12  C   UNL d   1       0.743  -7.178   1.130  0.00  0.00     0.001 A 
ATOM     13  C   UNL d   1       0.088  -5.955   0.972  0.00  0.00     0.017 A 
ENDBRANCH   6   8
ENDBRANCH   5   6
ENDBRANCH   2   5
BRANCH   1  14
ATOM     14  C   UNL d   1       0.305   1.065  -0.392  0.00  0.00     0.034 A 
ATOM     15  C   UNL d   1       0.953   2.207   0.097  0.00  0.00     0.017 A 
ATOM     16  C   UNL d   1       0.386   3.471  -0.075  0.00  0.00     0.001 A 
ATOM     17  C   UNL d   1      -0.831   3.603  -0.744  0.00  0.00     0.000 A 
ATOM     18  C   UNL d   1      -1.481   2.472  -1.237  0.00  0.00     0.001 A 
ATOM     19  C   UNL d   1      -0.917   1.204  -1.066  0.00  0.00     0.017 A 
ENDBRANCH   1  14
TORSDOF 4
