REMARK  9 active torsions:
REMARK  status: ('A' for Active; 'I' for Inactive)
REMARK    1  A    between atoms: N_5  and  S_1 
REMARK    2  A    between atoms: C_7  and  S_1 
REMARK    3  A    between atoms: C_2  and  C_4 
REMARK    4  A    between atoms: C_6  and  C_3 
REMARK       I    between atoms: C_4  and  N_8 
REMARK    5  A    between atoms: O_23  and  C_6 
REMARK    6  A    between atoms: N_8  and  C_20 
REMARK    7  A    between atoms: C_31  and  O_23 
REMARK    8  A    between atoms: O_30  and  C_32 
REMARK    9  A    between atoms: C_32  and  C_31 
ROOT
ATOM      1  C   UNL d   1      -1.172  -6.490   0.913  0.00  0.00     0.275 C 
ATOM      2  N   UNL d   1      -0.548  -5.483   1.633  0.00  0.00    -0.322 N 
ATOM      3  O   UNL d   1      -1.713  -6.369  -0.179  0.00  0.00    -0.266 OA
ATOM      4  H   UNL d   1      -0.350  -5.682   2.609  0.00  0.00     0.169 HD
ENDROOT
BRANCH   1   5
ATOM      5  C   UNL d   1      -1.130  -7.821   1.579  0.00  0.00     0.134 A 
ATOM      6  C   UNL d   1      -2.158  -8.750   1.503  0.00  0.00     0.141 A 
ATOM      7  N   UNL d   1      -2.001 -10.030   1.986  0.00  0.00    -0.358 N 
ATOM      8  C   UNL d   1      -0.806 -10.327   2.531  0.00  0.00     0.105 A 
ATOM      9  HN  UNL d   1      -2.752 -10.718   1.934  1.00  0.00     0.165 HD
ATOM     10  C   UNL d   1       0.205  -9.388   2.641  0.00  0.00     0.105 A 
ATOM     11  N   UNL d   1       0.068  -8.120   2.182  0.00  0.00    -0.358 N 
ATOM     12  HN  UNL d   1       0.810  -7.427   2.278  1.00  0.00     0.165 HD
BRANCH   6  13
ATOM     13  C   UNL d   1      -3.559  -8.378   1.179  0.00  0.00     0.312 C 
ATOM     14  O   UNL d   1      -4.088  -7.327   1.513  0.00  0.00    -0.258 OA
BRANCH  13  15
ATOM     15  O   UNL d   1      -4.188  -9.489   0.717  0.00  0.00    -0.314 OA
BRANCH  15  16
ATOM     16  C   UNL d   1      -5.476  -9.761   1.285  0.00  0.00     0.205 C 
BRANCH  16  17
ATOM     17  C   UNL d   1      -6.581  -9.696   0.242  0.00  0.00     0.193 C 
BRANCH  17  18
ATOM     18  O   UNL d   1      -7.805 -10.108   0.855  0.00  0.00    -0.394 OA
ATOM     19  C   UNL d   1      -8.895 -10.067  -0.054  0.00  0.00     0.201 C 
ENDBRANCH  17  18
ENDBRANCH  16  17
ENDBRANCH  15  16
ENDBRANCH  13  15
ENDBRANCH   6  13
ENDBRANCH   1   5
BRANCH   2  20
ATOM     20  C   UNL d   1      -0.344  -4.163   1.197  0.00  0.00     0.035 A 
ATOM     21  C   UNL d   1      -0.558  -3.131   2.116  0.00  0.00     0.031 A 
ATOM     22  C   UNL d   1      -0.258  -1.807   1.784  0.00  0.00     0.027 A 
ATOM     23  C   UNL d   1       0.323  -1.522   0.546  0.00  0.00     0.074 A 
ATOM     24  C   UNL d   1       0.545  -2.547  -0.380  0.00  0.00     0.027 A 
ATOM     25  C   UNL d   1       0.180  -3.867  -0.066  0.00  0.00     0.031 A 
BRANCH  23  26
ATOM     26  S   UNL d   1       0.993   0.104   0.276  0.00  0.00     0.243 S 
ATOM     27  O   UNL d   1       1.642   0.497   1.509  0.00  0.00    -0.206 OA
ATOM     28  O   UNL d   1       1.738   0.080  -0.969  0.00  0.00    -0.206 OA
BRANCH  26  29
ATOM     29  N   UNL d   1      -0.365   1.115   0.062  0.00  0.00    -0.202 NA
ATOM     30  C   UNL d   1      -1.189   0.903  -1.171  0.00  0.00     0.134 C 
ATOM     31  C   UNL d   1      -0.567   1.575  -2.406  0.00  0.00     0.183 C 
ATOM     32  O   UNL d   1      -0.298   2.967  -2.182  0.00  0.00    -0.389 OA
ATOM     33  C   UNL d   1       0.577   3.145  -1.058  0.00  0.00     0.183 C 
ATOM     34  C   UNL d   1      -0.068   2.581   0.212  0.00  0.00     0.134 C 
ENDBRANCH  26  29
ENDBRANCH  23  26
ENDBRANCH   2  20
TORSDOF 9
