REMARK  6 active torsions:
REMARK  status: ('A' for Active; 'I' for Inactive)
REMARK    1  A    between atoms: N_7  and  C_1 
REMARK       I    between atoms: C_2  and  N_6 
REMARK       I    between atoms: N_9  and  C_2 
REMARK    2  A    between atoms: C_5  and  C_8 
REMARK    3  A    between atoms: C_18  and  N_9 
REMARK    4  A    between atoms: O_19  and  C_23 
REMARK    5  A    between atoms: C_26  and  O_19 
REMARK    6  A    between atoms: C_31  and  C_26 
ROOT
ATOM      1  C   UNL d   1      -1.231   6.452   0.315  0.00  0.00     0.322 C 
ATOM      2  N   UNL d   1      -0.080   5.672   0.327  0.00  0.00    -0.333 N 
ATOM      3  N   UNL d   1       0.087   2.717   0.161  0.00  0.00    -0.253 NA
ATOM      4  N   UNL d   1      -1.481   7.165   1.465  0.00  0.00    -0.309 N 
ATOM      5  O   UNL d   1      -1.932   6.500  -0.696  0.00  0.00    -0.247 OA
ATOM      6  C   UNL d   1       0.244   4.952  -0.910  0.00  0.00     0.142 C 
ATOM      7  C   UNL d   1      -0.362   3.544  -0.979  0.00  0.00     0.118 C 
ATOM      8  C   UNL d   1       0.193   4.078   2.248  0.00  0.00     0.035 C 
ATOM      9  C   UNL d   1       0.727   5.286   1.482  0.00  0.00     0.129 C 
ATOM     10  C   UNL d   1      -0.566   3.024   1.440  0.00  0.00     0.100 C 
ATOM     11  H   UNL d   1      -0.903   6.970   2.263  0.00  0.00     0.170 HD
ENDROOT
BRANCH   4  12
ATOM     12  C   UNL d   1      -2.406   8.225   1.623  0.00  0.00     0.036 A 
ATOM     13  C   UNL d   1      -3.254   8.678   0.611  0.00  0.00     0.032 A 
ATOM     14  C   UNL d   1      -4.059   9.806   0.797  0.00  0.00     0.039 A 
ATOM     15  C   UNL d   1      -4.019  10.506   2.000  0.00  0.00     0.069 A 
ATOM     16  C   UNL d   1      -3.233  10.021   3.043  0.00  0.00     0.039 A 
ATOM     17  C   UNL d   1      -2.426   8.891   2.855  0.00  0.00     0.032 A 
BRANCH  15  18
ATOM     18  O   UNL d   1      -4.729  11.651   2.250  0.00  0.00    -0.347 OA
BRANCH  18  19
ATOM     19  C   UNL d   1      -4.817  12.533   1.124  0.00  0.00     0.214 C 
BRANCH  19  20
ATOM     20  C   UNL d   1      -5.396  13.859   1.557  0.00  0.00    -0.034 A 
ATOM     21  C   UNL d   1      -4.687  15.052   1.356  0.00  0.00     0.009 A 
ATOM     22  C   UNL d   1      -5.253  16.279   1.707  0.00  0.00     0.001 A 
ATOM     23  C   UNL d   1      -6.532  16.327   2.259  0.00  0.00     0.000 A 
ATOM     24  C   UNL d   1      -7.244  15.147   2.466  0.00  0.00     0.001 A 
ATOM     25  C   UNL d   1      -6.679  13.919   2.118  0.00  0.00     0.009 A 
ENDBRANCH  19  20
ENDBRANCH  18  19
ENDBRANCH  15  18
ENDBRANCH   4  12
BRANCH   3  26
ATOM     26  C   UNL d   1       0.102   1.347  -0.110  0.00  0.00     0.160 A 
ATOM     27  N   UNL d   1      -0.393   0.893  -1.272  0.00  0.00    -0.329 N 
ATOM     28  C   UNL d   1      -0.311  -0.433  -1.552  0.00  0.00     0.120 A 
ATOM     29  HN  UNL d   1      -0.824   1.536  -1.936  1.00  0.00     0.168 HD
ATOM     30  C   UNL d   1       0.288  -1.319  -0.680  0.00  0.00     0.051 A 
ATOM     31  C   UNL d   1       0.765  -0.777   0.485  0.00  0.00     0.093 A 
ATOM     32  N   UNL d   1       0.673   0.531   0.789  0.00  0.00    -0.343 N 
ATOM     33  HN  UNL d   1       1.027   0.891   1.676  1.00  0.00     0.167 HD
BRANCH  28  34
ATOM     34  C   UNL d   1      -0.879  -0.947  -2.861  0.00  0.00     0.432 C 
ATOM     35  F   UNL d   1      -1.518  -0.005  -3.608  0.00  0.00    -0.165 F 
ATOM     36  F   UNL d   1       0.082  -1.477  -3.672  0.00  0.00    -0.165 F 
ATOM     37  F   UNL d   1      -1.787  -1.950  -2.674  0.00  0.00    -0.165 F 
ENDBRANCH  28  34
ENDBRANCH   3  26
TORSDOF 6
