REMARK  6 active torsions:
REMARK  status: ('A' for Active; 'I' for Inactive)
REMARK    1  A    between atoms: C_9  and  C_1 
REMARK    2  A    between atoms: C_4  and  C_2 
REMARK    3  A    between atoms: S_3  and  N_5 
REMARK    4  A    between atoms: C_19  and  S_3 
REMARK       I    between atoms: N_11  and  C_4 
REMARK    5  A    between atoms: N_5  and  C_10 
REMARK    6  A    between atoms: C_10  and  N_11 
ROOT
ATOM      1  N   UNL d   1       1.052  -0.054  -0.066  0.00  0.00    -0.370 N 
ATOM      2  HN1 UNL d   1       0.032  -0.054  -0.066  1.00  0.00     0.165 HD
ATOM      3  HN2 UNL d   1       2.072  -0.054  -0.066  1.00  0.00     0.165 HD
ATOM      4  C   UNL d   1       2.313  -0.054  -0.066  0.00  0.00    -0.083 C 
ATOM      5  C   UNL d   1       3.833  -0.054  -0.066  0.00  0.00     0.122 C 
ENDROOT
TORSDOF 6
