REMARK  6 active torsions:
REMARK  status: ('A' for Active; 'I' for Inactive)
REMARK    1  A    between atoms: C_2  and  S_1 
REMARK    2  A    between atoms: N_5  and  S_1 
REMARK    3  A    between atoms: N_3  and  C_6 
REMARK    4  A    between atoms: C_9  and  N_5 
REMARK    5  A    between atoms: C_12  and  C_9 
REMARK    6  A    between atoms: O_18  and  C_12 
ROOT
ATOM      1  C   UNL d   1       0.558   0.568   1.666  0.00  0.00     0.096 A 
ATOM      2  C   UNL d   1       0.808   1.851   2.177  0.00  0.00     0.032 A 
ATOM      3  C   UNL d   1      -0.372   1.251   4.220  0.00  0.00     0.104 A 
ATOM      4  C   UNL d   1       0.324   2.195   3.453  0.00  0.00     0.055 A 
ATOM      5  C   UNL d   1      -0.123  -0.376   2.458  0.00  0.00     0.029 A 
ATOM      6  C   UNL d   1      -0.585  -0.041   3.732  0.00  0.00     0.038 A 
ATOM      7  I   UNL d   1       1.919   3.355   1.216  0.00  0.00    -0.043 I 
ENDROOT
BRANCH   1   8
ATOM      8  S   UNL d   1       1.059   0.039   0.045  0.00  0.00     0.260 S 
ATOM      9  O   UNL d   1       0.417  -1.230  -0.246  0.00  0.00    -0.200 OA
ATOM     10  O   UNL d   1       2.491   0.198  -0.059  0.00  0.00    -0.200 OA
BRANCH   8  11
ATOM     11  N   UNL d   1       0.351   1.148  -0.988  0.00  0.00    -0.305 N 
ATOM     12  H   UNL d   1       1.036   1.671  -1.536  0.00  0.00     0.172 HD
BRANCH  11  13
ATOM     13  C   UNL d   1      -0.914   0.807  -1.650  0.00  0.00     0.242 C 
BRANCH  13  14
ATOM     14  C   UNL d   1      -2.076   0.541  -0.715  0.00  0.00     0.158 C 
ATOM     15  O   UNL d   1      -2.856   1.402  -0.336  0.00  0.00    -0.649 OA
BRANCH  14  16
ATOM     16  O   UNL d   1      -2.153  -0.740  -0.279  0.00  0.00    -0.775 OA
ATOM     17  H   UNL d   1      -1.379  -1.293  -0.543  0.00  0.00     0.167 HD
ENDBRANCH  14  16
ENDBRANCH  13  14
ENDBRANCH  11  13
ENDBRANCH   8  11
ENDBRANCH   1   8
BRANCH   3  18
ATOM     18  N   UNL d   1      -0.870   1.615   5.554  0.00  0.00    -0.116 N 
ATOM     19  O   UNL d   1      -0.692   2.780   5.936  0.00  0.00    -0.532 OA
ATOM     20  O   UNL d   1      -1.431   0.733   6.219  0.00  0.00    -0.532 OA
ENDBRANCH   3  18
TORSDOF 6
