REMARK  5 active torsions:
REMARK  status: ('A' for Active; 'I' for Inactive)
REMARK    1  A    between atoms: C_2  and  C_1 
REMARK    2  A    between atoms: S_4  and  C_1 
REMARK    3  A    between atoms: C_5  and  C_2 
REMARK    4  A    between atoms: N_7  and  C_3 
REMARK    5  A    between atoms: C_8  and  S_4 
ROOT
ATOM      1  C   UNL d   1       0.936  -0.097  -0.040  0.00  0.00     0.071 C 
ATOM      2  C   UNL d   1       0.131   0.591  -0.877  0.00  0.00     0.107 C 
ENDROOT
BRANCH   1   3
ATOM      3  C   UNL d   1       2.449  -0.059  -0.174  0.00  0.00     0.200 C 
ATOM      4  O   UNL d   1       3.179  -0.322   0.782  0.00  0.00    -0.286 OA
BRANCH   3   5
ATOM      5  C   UNL d   1       3.130   0.304  -1.452  0.00  0.00     0.015 A 
ATOM      6  C   UNL d   1       4.382   0.939  -1.364  0.00  0.00     0.017 A 
ATOM      7  C   UNL d   1       5.094   1.280  -2.518  0.00  0.00     0.025 A 
ATOM      8  C   UNL d   1       4.559   0.989  -3.768  0.00  0.00     0.034 A 
ATOM      9  C   UNL d   1       3.327   0.342  -3.873  0.00  0.00     0.025 A 
ATOM     10 CL   UNL d   1       5.426   1.411  -5.192  0.00  0.00    -0.084 Cl
ATOM     11  C   UNL d   1       2.626  -0.021  -2.717  0.00  0.00     0.017 A 
ENDBRANCH   3   5
ENDBRANCH   1   3
BRANCH   1  12
ATOM     12  S   UNL d   1       0.359  -0.994   1.340  0.00  0.00    -0.085 SA
BRANCH  12  13
ATOM     13  C   UNL d   1      -0.011  -2.575   0.609  0.00  0.00     0.005 A 
ATOM     14  C   UNL d   1       0.986  -3.394   0.068  0.00  0.00     0.019 A 
ATOM     15  C   UNL d   1       0.668  -4.666  -0.421  0.00  0.00     0.008 A 
ATOM     16  C   UNL d   1      -0.645  -5.147  -0.359  0.00  0.00    -0.062 A 
ATOM     17  C   UNL d   1      -1.639  -4.336   0.198  0.00  0.00     0.008 A 
ATOM     18  C   UNL d   1      -0.973  -6.516  -0.882  0.00  0.00     0.048 C 
ATOM     19  C   UNL d   1      -1.320  -3.064   0.683  0.00  0.00     0.019 A 
ENDBRANCH  12  13
ENDBRANCH   1  12
BRANCH   2  20
ATOM     20  N   UNL d   1      -1.245   0.782  -0.989  0.00  0.00    -0.397 N 
ATOM     21  C   UNL d   1      -2.190   0.772   0.124  0.00  0.00     0.148 C 
ATOM     22  C   UNL d   1      -1.871   0.982  -2.299  0.00  0.00     0.148 C 
ENDBRANCH   2  20
TORSDOF 5
