REMARK  10 active torsions:
REMARK  status: ('A' for Active; 'I' for Inactive)
REMARK    1  A    between atoms: C_11  and  C_2 
REMARK    2  A    between atoms: S_12  and  C_5 
REMARK    3  A    between atoms: C_8  and  C_13 
REMARK       I    between atoms: C_9  and  N_10 
REMARK    4  A    between atoms: C_14  and  C_9 
REMARK    5  A    between atoms: N_10  and  C_11 
REMARK    6  A    between atoms: C_25  and  C_11 
REMARK    7  A    between atoms: C_24  and  S_12 
REMARK    8  A    between atoms: C_27  and  C_24 
REMARK    9  A    between atoms: C_28  and  C_25 
REMARK   10  A    between atoms: S_26  and  C_28 
ROOT
ATOM      1  C   UNL d   1       0.332   2.458  -0.026  0.00  0.00     0.155 C 
ENDROOT
BRANCH   1   2
ATOM      2  N   UNL d   1      -0.292   2.836   1.241  0.00  0.00    -0.345 N 
ATOM      3  C   UNL d   1      -0.593   4.153   1.523  0.00  0.00     0.252 C 
ATOM      4  O   UNL d   1      -0.449   5.055   0.702  0.00  0.00    -0.268 OA
ATOM      5  H   UNL d   1      -0.211   2.164   1.993  0.00  0.00     0.163 HD
BRANCH   3   6
ATOM      6  C   UNL d   1      -1.088   4.480   2.897  0.00  0.00     0.032 A 
ATOM      7  C   UNL d   1      -1.585   3.513   3.777  0.00  0.00     0.018 A 
ATOM      8  C   UNL d   1      -2.042   3.882   5.050  0.00  0.00     0.017 A 
ATOM      9  C   UNL d   1      -2.018   5.223   5.463  0.00  0.00     0.048 A 
ATOM     10  C   UNL d   1      -1.534   6.192   4.573  0.00  0.00     0.017 A 
ATOM     11  C   UNL d   1      -1.075   5.824   3.304  0.00  0.00     0.018 A 
BRANCH   9  12
ATOM     12  C   UNL d   1      -2.499   5.631   6.837  0.00  0.00     0.417 C 
ATOM     13  F   UNL d   1      -2.997   4.595   7.568  0.00  0.00    -0.166 F 
ATOM     14  F   UNL d   1      -1.506   6.176   7.593  0.00  0.00    -0.166 F 
ATOM     15  F   UNL d   1      -3.490   6.564   6.791  0.00  0.00    -0.166 F 
ENDBRANCH   9  12
ENDBRANCH   3   6
ENDBRANCH   1   2
BRANCH   1  16
ATOM     16  C   UNL d   1       0.258   0.961  -0.135  0.00  0.00     0.123 C 
ATOM     17  N   UNL d   1      -0.378   0.233  -1.118  0.00  0.00    -0.318 N 
ATOM     18  C   UNL d   1       0.049  -1.059  -0.948  0.00  0.00     0.162 C 
ATOM     19  C   UNL d   1      -1.344   0.687  -2.084  0.00  0.00     0.160 C 
ATOM     20  N   UNL d   1       0.769  -1.145   0.144  0.00  0.00    -0.278 N 
ATOM     21  N   UNL d   1       0.886   0.117   0.667  0.00  0.00    -0.285 N 
ATOM     22  HN  UNL d   1       1.170  -1.997   0.535  1.00  0.00     0.189 HD
ATOM     23  HN  UNL d   1       1.374   0.364   1.528  1.00  0.00     0.188 HD
BRANCH  18  24
ATOM     24  S   UNL d   1      -0.294  -2.353  -2.049  0.00  0.00    -0.088 SA
BRANCH  24  25
ATOM     25  C   UNL d   1      -0.049  -3.774  -0.945  0.00  0.00     0.121 C 
BRANCH  25  26
ATOM     26  C   UNL d   1      -0.110  -5.102  -1.659  0.00  0.00    -0.049 A 
ATOM     27  C   UNL d   1       1.066  -5.783  -2.000  0.00  0.00     0.008 A 
ATOM     28  C   UNL d   1       1.013  -7.050  -2.587  0.00  0.00     0.001 A 
ATOM     29  C   UNL d   1      -0.217  -7.648  -2.847  0.00  0.00     0.000 A 
ATOM     30  C   UNL d   1      -1.397  -6.975  -2.538  0.00  0.00     0.001 A 
ATOM     31  C   UNL d   1      -1.347  -5.706  -1.948  0.00  0.00     0.008 A 
ENDBRANCH  25  26
ENDBRANCH  24  25
ENDBRANCH  18  24
ENDBRANCH   1  16
BRANCH   1  32
ATOM     32  C   UNL d   1       1.808   2.919  -0.064  0.00  0.00     0.043 C 
BRANCH  32  33
ATOM     33  C   UNL d   1       2.582   2.548  -1.332  0.00  0.00     0.076 C 
BRANCH  33  34
ATOM     34  S   UNL d   1       1.854   3.282  -2.833  0.00  0.00    -0.173 SA
ATOM     35  C   UNL d   1       3.124   2.791  -4.023  0.00  0.00     0.089 C 
ENDBRANCH  33  34
ENDBRANCH  32  33
ENDBRANCH   1  32
TORSDOF 10
