REMARK  4 active torsions:
REMARK  status: ('A' for Active; 'I' for Inactive)
REMARK    1  A    between atoms: C_4  and  C_1 
REMARK    2  A    between atoms: C_7  and  C_1 
REMARK    3  A    between atoms: S_5  and  C_4 
REMARK    4  A    between atoms: C_8  and  C_4 
ROOT
ATOM      1  C   UNL d   1       0.231  -1.638  -2.837  0.00  0.00     0.134 C 
ATOM      2  N   UNL d   1       0.942  -1.704  -3.752  0.00  0.00    -0.184 NA
ATOM      3  S   UNL d   1      -0.858  -1.547  -1.553  0.00  0.00    -0.033 SA
ENDROOT
BRANCH   3   4
ATOM      4  C   UNL d   1       0.297  -1.306  -0.165  0.00  0.00     0.170 C 
BRANCH   4   5
ATOM      5  C   UNL d   1       1.115  -0.026  -0.369  0.00  0.00     0.178 C 
ATOM      6  O   UNL d   1       2.121   0.015  -1.078  0.00  0.00    -0.291 OA
BRANCH   5   7
ATOM      7  C   UNL d   1       0.681   1.255   0.284  0.00  0.00     0.011 A 
ATOM      8  C   UNL d   1      -0.550   1.420   0.932  0.00  0.00     0.015 A 
ATOM      9  C   UNL d   1      -0.860   2.628   1.565  0.00  0.00     0.001 A 
ATOM     10  C   UNL d   1       0.044   3.688   1.538  0.00  0.00     0.000 A 
ATOM     11  C   UNL d   1       1.253   3.550   0.863  0.00  0.00     0.001 A 
ATOM     12  C   UNL d   1       1.569   2.342   0.238  0.00  0.00     0.015 A 
ENDBRANCH   5   7
ENDBRANCH   4   5
BRANCH   4  13
ATOM     13  C   UNL d   1       1.071  -2.570   0.199  0.00  0.00    -0.036 A 
ATOM     14  C   UNL d   1       0.483  -3.487   1.096  0.00  0.00     0.009 A 
ATOM     15  C   UNL d   1       1.160  -4.632   1.510  0.00  0.00     0.001 A 
ATOM     16  C   UNL d   1       2.438  -4.896   1.029  0.00  0.00     0.000 A 
ATOM     17  C   UNL d   1       3.022  -4.026   0.110  0.00  0.00     0.001 A 
ATOM     18  C   UNL d   1       2.340  -2.878  -0.310  0.00  0.00     0.009 A 
ENDBRANCH   4  13
ENDBRANCH   3   4
TORSDOF 4
