REMARK  3 active torsions:
REMARK  status: ('A' for Active; 'I' for Inactive)
REMARK    1  A    between atoms: C_2  and  C_1 
REMARK       I    between atoms: N_4  and  C_2 
REMARK    2  A    between atoms: O_16  and  C_3 
REMARK    3  A    between atoms: C_6  and  N_4 
ROOT
ATOM      1  C   UNL d   1      -0.368   3.337  -0.087  0.00  0.00     0.259 C 
ATOM      2  N   UNL d   1      -1.655   3.814   0.083  0.00  0.00    -0.320 N 
ATOM      3  O   UNL d   1       0.657   4.007  -0.186  0.00  0.00    -0.267 OA
ATOM      4  H   UNL d   1      -2.389   3.154   0.302  0.00  0.00     0.169 HD
ENDROOT
BRANCH   1   5
ATOM      5  C   UNL d   1      -0.197   1.861  -0.124  0.00  0.00     0.068 A 
ATOM      6  C   UNL d   1       0.845   1.311  -0.895  0.00  0.00     0.103 A 
ATOM      7  C   UNL d   1       0.989  -0.079  -0.981  0.00  0.00     0.069 A 
ATOM      8 CL   UNL d   1       2.215  -0.800  -1.960  0.00  0.00    -0.081 Cl
ATOM      9  C   UNL d   1       0.140  -0.921  -0.262  0.00  0.00     0.050 A 
ATOM     10  C   UNL d   1      -0.848  -0.369   0.548  0.00  0.00     0.036 A 
ATOM     11  C   UNL d   1      -1.026   1.012   0.622  0.00  0.00     0.044 A 
ATOM     12 CL   UNL d   1      -1.861  -1.401   1.480  0.00  0.00    -0.084 Cl
BRANCH   6  13
ATOM     13  O   UNL d   1       1.738   2.107  -1.569  0.00  0.00    -0.358 OA
ATOM     14  H   UNL d   1       1.671   3.025  -1.218  0.00  0.00     0.217 HD
ENDBRANCH   6  13
ENDBRANCH   1   5
BRANCH   2  15
ATOM     15  C   UNL d   1      -2.012   5.180   0.171  0.00  0.00     0.074 A 
ATOM     16  C   UNL d   1      -1.289   6.234  -0.412  0.00  0.00     0.146 A 
ATOM     17  C   UNL d   1      -1.650   7.561  -0.194  0.00  0.00     0.086 A 
ATOM     18  F   UNL d   1      -0.290   6.004  -1.273  0.00  0.00    -0.204 F 
ATOM     19  C   UNL d   1      -2.753   7.840   0.596  0.00  0.00     0.119 A 
ATOM     20  C   UNL d   1      -3.527   6.816   1.132  0.00  0.00     0.044 A 
ATOM     21  F   UNL d   1      -3.089   9.113   0.838  0.00  0.00    -0.206 F 
ATOM     22  C   UNL d   1      -3.168   5.485   0.904  0.00  0.00     0.036 A 
ENDBRANCH   2  15
TORSDOF 3
