REMARK  5 active torsions:
REMARK  status: ('A' for Active; 'I' for Inactive)
REMARK    1  A    between atoms: C_2  and  C_1 
REMARK    2  A    between atoms: C_13  and  C_8 
REMARK    3  A    between atoms: C_26  and  C_10 
REMARK    4  A    between atoms: C_17  and  O_25 
REMARK    5  A    between atoms: O_25  and  C_26 
ROOT
ATOM      1  C   UNL d   1      -1.500   2.244  -0.039  0.00  0.00     0.075 A 
ATOM      2  N   UNL d   1      -2.379   2.517   0.993  0.00  0.00    -0.349 N 
ATOM      3  HN  UNL d   1      -2.552   1.906   1.791  1.00  0.00     0.166 HD
ATOM      4  C   UNL d   1      -2.961   3.684   0.795  0.00  0.00     0.075 A 
ATOM      5  C   UNL d   1      -1.380   3.244  -0.984  0.00  0.00     0.084 A 
ATOM      6  S   UNL d   1      -2.422   4.546  -0.596  0.00  0.00    -0.084 SA
ENDROOT
BRANCH   1   7
ATOM      7  C   UNL d   1      -0.747   0.960  -0.094  0.00  0.00     0.128 A 
ATOM      8  C   UNL d   1       0.003   0.482  -1.144  0.00  0.00     0.074 A 
ATOM      9  C   UNL d   1       0.506  -0.770  -0.707  0.00  0.00     0.068 A 
ATOM     10  N   UNL d   1       0.101  -1.023   0.545  0.00  0.00    -0.260 N 
ATOM     11  O   UNL d   1      -0.705   0.041   0.912  0.00  0.00    -0.235 OA
ATOM     12  HN  UNL d   1       0.339  -1.836   1.114  1.00  0.00     0.195 HD
BRANCH   9  13
ATOM     13  C   UNL d   1       1.348  -1.702  -1.455  0.00  0.00    -0.006 A 
ATOM     14  C   UNL d   1       1.217  -1.817  -2.846  0.00  0.00     0.039 A 
ATOM     15  C   UNL d   1       2.033  -2.696  -3.569  0.00  0.00     0.056 A 
ATOM     16 CL   UNL d   1       1.804  -2.774  -5.280  0.00  0.00    -0.083 Cl
ATOM     17  C   UNL d   1       2.992  -3.466  -2.905  0.00  0.00     0.055 A 
ATOM     18  C   UNL d   1       3.124  -3.361  -1.517  0.00  0.00     0.026 A 
ATOM     19 CL   UNL d   1       4.040  -4.560  -3.734  0.00  0.00    -0.083 Cl
ATOM     20  C   UNL d   1       2.304  -2.487  -0.796  0.00  0.00     0.015 A 
ENDBRANCH   9  13
ENDBRANCH   1   7
BRANCH   4  21
ATOM     21  C   UNL d   1      -3.983   4.296   1.705  0.00  0.00     0.240 C 
BRANCH  21  22
ATOM     22  O   UNL d   1      -5.263   4.147   1.081  0.00  0.00    -0.345 OA
BRANCH  22  23
ATOM     23  C   UNL d   1      -6.333   4.697   1.734  0.00  0.00     0.072 A 
ATOM     24  C   UNL d   1      -6.289   5.363   2.958  0.00  0.00     0.060 A 
ATOM     25  C   UNL d   1      -7.462   5.891   3.506  0.00  0.00     0.038 A 
ATOM     26 CL   UNL d   1      -7.390   6.722   5.013  0.00  0.00    -0.084 Cl
ATOM     27  C   UNL d   1      -8.680   5.756   2.852  0.00  0.00     0.048 A 
ATOM     28  C   UNL d   1      -8.723   5.084   1.635  0.00  0.00     0.038 A 
ATOM     29  C   UNL d   1      -7.559   4.555   1.075  0.00  0.00     0.060 A 
ATOM     30 CL   UNL d   1     -10.224   4.907   0.813  0.00  0.00    -0.084 Cl
ENDBRANCH  22  23
ENDBRANCH  21  22
ENDBRANCH   4  21
TORSDOF 5
