REMARK  5 active torsions:
REMARK  status: ('A' for Active; 'I' for Inactive)
REMARK    1  A    between atoms: C_7  and  C_1 
REMARK    2  A    between atoms: S_11  and  C_8 
REMARK    3  A    between atoms: C_9  and  C_14 
REMARK    4  A    between atoms: C_19  and  C_10 
REMARK    5  A    between atoms: C_22  and  S_11 
ROOT
ATOM      1  C   UNL d   1      -0.383   1.123  -0.400  0.00  0.00     0.165 A 
ATOM      2  N   UNL d   1       0.664   1.018  -1.157  0.00  0.00    -0.331 N 
ATOM      3  HN  UNL d   1       1.193   1.761  -1.614  1.00  0.00     0.168 HD
ATOM      4  O   UNL d   1      -0.909  -0.019   0.093  0.00  0.00    -0.255 OA
ATOM      5  C   UNL d   1       0.886  -0.331  -1.197  0.00  0.00     0.111 A 
ATOM      6  C   UNL d   1      -0.132  -1.039  -0.376  0.00  0.00     0.316 A 
ATOM      7  C   UNL d   1       1.821  -0.988  -1.901  0.00  0.00     0.047 C 
ATOM      8  O   UNL d   1      -0.270  -2.228  -0.176  0.00  0.00    -0.257 OA
ENDROOT
BRANCH   1   9
ATOM      9  C   UNL d   1      -1.113   2.372  -0.149  0.00  0.00     0.049 A 
ATOM     10  C   UNL d   1      -1.895   2.663   0.971  0.00  0.00     0.089 A 
ATOM     11  N   UNL d   1      -2.602   3.825   1.063  0.00  0.00    -0.359 N 
ATOM     12  C   UNL d   1      -2.536   4.707   0.043  0.00  0.00     0.089 A 
ATOM     13  HN  UNL d   1      -3.170   4.025   1.887  1.00  0.00     0.166 HD
ATOM     14  C   UNL d   1      -1.768   4.512  -1.085  0.00  0.00     0.018 A 
ATOM     15  C   UNL d   1      -1.040   3.332  -1.174  0.00  0.00     0.020 A 
BRANCH  10  16
ATOM     16  S   UNL d   1      -2.137   1.592   2.371  0.00  0.00    -0.072 SA
BRANCH  16  17
ATOM     17  C   UNL d   1      -0.851   2.046   3.523  0.00  0.00     0.007 A 
ATOM     18  C   UNL d   1      -0.270   3.315   3.599  0.00  0.00     0.019 A 
ATOM     19  C   UNL d   1       0.771   3.569   4.503  0.00  0.00     0.008 A 
ATOM     20  C   UNL d   1       1.241   2.561   5.353  0.00  0.00    -0.062 A 
ATOM     21  C   UNL d   1       0.611   1.314   5.331  0.00  0.00     0.008 A 
ATOM     22  C   UNL d   1       2.407   2.817   6.262  0.00  0.00     0.048 C 
ATOM     23  C   UNL d   1      -0.423   1.062   4.424  0.00  0.00     0.019 A 
ENDBRANCH  16  17
ENDBRANCH  10  16
ENDBRANCH   1   9
BRANCH   7  24
ATOM     24  C   UNL d   1       2.846  -0.368  -2.757  0.00  0.00    -0.034 A 
ATOM     25  C   UNL d   1       3.464   0.844  -2.426  0.00  0.00     0.012 A 
ATOM     26  C   UNL d   1       4.452   1.398  -3.244  0.00  0.00     0.017 A 
ATOM     27  C   UNL d   1       4.862   0.740  -4.411  0.00  0.00     0.048 A 
ATOM     28  C   UNL d   1       4.261  -0.484  -4.738  0.00  0.00     0.017 A 
ATOM     29  C   UNL d   1       3.267  -1.035  -3.916  0.00  0.00     0.012 A 
BRANCH  27  30
ATOM     30  C   UNL d   1       5.931   1.327  -5.299  0.00  0.00     0.417 C 
ATOM     31  F   UNL d   1       6.417   2.520  -4.853  0.00  0.00    -0.166 F 
ATOM     32  F   UNL d   1       7.012   0.509  -5.423  0.00  0.00    -0.166 F 
ATOM     33  F   UNL d   1       5.489   1.558  -6.566  0.00  0.00    -0.166 F 
ENDBRANCH  27  30
ENDBRANCH   7  24
TORSDOF 5
