REMARK  6 active torsions:
REMARK  status: ('A' for Active; 'I' for Inactive)
REMARK    1  A    between atoms: C_8  and  C_1 
REMARK    2  A    between atoms: C_12  and  C_7 
REMARK       I    between atoms: C_9  and  N_10 
REMARK    3  A    between atoms: C_13  and  C_9 
REMARK    4  A    between atoms: N_10  and  C_11 
REMARK    5  A    between atoms: C_14  and  C_15 
REMARK    6  A    between atoms: O_24  and  C_22 
ROOT
ATOM      1  C   UNL d   1      -0.482  -2.775   0.287  0.00  0.00     0.043 A 
ATOM      2  C   UNL d   1      -1.321  -2.836  -0.846  0.00  0.00     0.049 A 
ATOM      3  C   UNL d   1      -0.393  -3.960   1.086  0.00  0.00     0.018 A 
ATOM      4  C   UNL d   1      -1.897  -4.093  -1.183  0.00  0.00     0.030 A 
ATOM      5  C   UNL d   1      -1.001  -5.167   0.755  0.00  0.00     0.001 A 
ATOM      6  C   UNL d   1      -1.741  -5.240  -0.403  0.00  0.00     0.002 A 
ENDROOT
BRANCH   1   7
ATOM      7  C   UNL d   1       0.460  -1.725   0.711  0.00  0.00     0.177 A 
ATOM      8  O   UNL d   1       1.611  -2.247   1.271  0.00  0.00    -0.273 OA
ATOM      9  C   UNL d   1       2.193  -1.174   1.880  0.00  0.00     0.174 A 
ATOM     10  N   UNL d   1       1.552  -0.057   1.614  0.00  0.00    -0.277 N 
ATOM     11  N   UNL d   1       0.437  -0.416   0.846  0.00  0.00    -0.277 N 
ATOM     12  HN  UNL d   1       1.814   0.884   1.908  1.00  0.00     0.189 HD
ATOM     13  HN  UNL d   1      -0.263   0.220   0.463  1.00  0.00     0.189 HD
BRANCH   9  14
ATOM     14  C   UNL d   1       3.302  -1.494   2.786  0.00  0.00     0.019 A 
ATOM     15  C   UNL d   1       3.887  -0.502   3.596  0.00  0.00     0.052 A 
ATOM     16  C   UNL d   1       4.893  -0.843   4.513  0.00  0.00     0.069 A 
ATOM     17  C   UNL d   1       5.333  -2.163   4.611  0.00  0.00     0.037 A 
ATOM     18  C   UNL d   1       4.763  -3.156   3.818  0.00  0.00     0.004 A 
ATOM     19  C   UNL d   1       3.758  -2.817   2.912  0.00  0.00     0.016 A 
BRANCH  16  20
ATOM     20  O   UNL d   1       5.535   0.022   5.356  0.00  0.00    -0.356 OA
ATOM     21  C   UNL d   1       4.856   1.228   5.669  0.00  0.00     0.210 C 
ENDBRANCH  16  20
ENDBRANCH   9  14
ENDBRANCH   1   7
BRANCH   2  22
ATOM     22  N   UNL d   1      -1.724  -1.821  -1.764  0.00  0.00    -0.322 N 
ATOM     23  C   UNL d   1      -2.116  -0.530  -1.455  0.00  0.00     0.256 C 
ATOM     24  O   UNL d   1      -1.840   0.061  -0.421  0.00  0.00    -0.267 OA
ATOM     25  H   UNL d   1      -2.136  -2.189  -2.605  0.00  0.00     0.169 HD
BRANCH  23  26
ATOM     26  C   UNL d   1      -3.069   0.143  -2.428  0.00  0.00     0.032 A 
ATOM     27  C   UNL d   1      -3.388   1.488  -2.200  0.00  0.00     0.017 A 
ATOM     28  C   UNL d   1      -4.373   2.146  -2.957  0.00  0.00     0.009 A 
ATOM     29  C   UNL d   1      -5.083   1.490  -3.979  0.00  0.00    -0.051 A 
ATOM     30  C   UNL d   1      -4.734   0.154  -4.227  0.00  0.00     0.009 A 
ATOM     31  C   UNL d   1      -3.746  -0.510  -3.467  0.00  0.00     0.017 A 
BRANCH  29  32
ATOM     32  C   UNL d   1      -6.209   2.221  -4.739  0.00  0.00    -0.024 C 
ATOM     33  C   UNL d   1      -6.844   1.394  -5.881  0.00  0.00     0.019 C 
ATOM     34  C   UNL d   1      -7.346   2.580  -3.755  0.00  0.00     0.019 C 
ATOM     35  C   UNL d   1      -5.670   3.522  -5.375  0.00  0.00     0.019 C 
ENDBRANCH  29  32
ENDBRANCH  23  26
ENDBRANCH   2  22
TORSDOF 6
