REMARK  4 active torsions:
REMARK  status: ('A' for Active; 'I' for Inactive)
REMARK    1  A    between atoms: C_2  and  C_1 
REMARK       I    between atoms: C_3  and  N_11 
REMARK       I    between atoms: N_6  and  C_3 
REMARK    2  A    between atoms: C_8  and  N_6 
REMARK    3  A    between atoms: N_13  and  C_7 
REMARK    4  A    between atoms: N_11  and  N_13 
ROOT
ATOM      1  C   UNL d   1       0.043  -5.405   3.678  0.00  0.00     0.313 C 
ATOM      2  N   UNL d   1      -0.374  -6.514   2.981  0.00  0.00    -0.311 N 
ATOM      3  N   UNL d   1       0.464  -4.326   2.933  0.00  0.00    -0.171 NA
ATOM      4  O   UNL d   1      -0.068  -5.380   4.905  0.00  0.00    -0.252 OA
ATOM      5  H   UNL d   1      -0.963  -7.068   3.594  0.00  0.00     0.170 HD
ATOM      6  H   UNL d   1       1.101  -4.574   2.183  0.00  0.00     0.152 HD
ENDROOT
BRANCH   3   7
ATOM      7  N   UNL d   1       0.901  -3.192   3.649  0.00  0.00    -0.204 NA
ATOM      8  H   UNL d   1       0.675  -3.197   4.650  0.00  0.00     0.149 HD
BRANCH   7   9
ATOM      9  C   UNL d   1       0.561  -1.944   3.093  0.00  0.00     0.095 A 
ATOM     10  C   UNL d   1       0.470  -1.761   1.716  0.00  0.00     0.059 A 
ATOM     11  C   UNL d   1       0.238  -0.485   1.192  0.00  0.00     0.052 A 
ATOM     12  C   UNL d   1       0.124   0.585   2.078  0.00  0.00     0.041 A 
ATOM     13  C   UNL d   1       0.230   0.338   3.440  0.00  0.00     0.007 A 
ATOM     14  N   UNL d   1       0.440  -0.904   3.945  0.00  0.00    -0.350 N 
ATOM     15  C   UNL d   1       0.173   1.484   4.409  0.00  0.00     0.068 C 
ATOM     16  HN  UNL d   1       0.506  -1.049   4.952  1.00  0.00     0.167 HD
BRANCH  11  17
ATOM     17  C   UNL d   1       0.146  -0.265  -0.291  0.00  0.00     0.417 C 
ATOM     18  F   UNL d   1       0.262  -1.411  -1.020  0.00  0.00    -0.166 F 
ATOM     19  F   UNL d   1       1.116   0.571  -0.754  0.00  0.00    -0.166 F 
ATOM     20  F   UNL d   1      -1.039   0.294  -0.662  0.00  0.00    -0.166 F 
ENDBRANCH  11  17
ENDBRANCH   7   9
ENDBRANCH   3   7
BRANCH   2  21
ATOM     21  C   UNL d   1      -0.678  -6.551   1.601  0.00  0.00     0.057 A 
ATOM     22  C   UNL d   1       0.278  -6.407   0.579  0.00  0.00     0.062 A 
ATOM     23  C   UNL d   1      -0.111  -6.426  -0.763  0.00  0.00     0.050 A 
ATOM     24 CL   UNL d   1       1.969  -6.280   0.918  0.00  0.00    -0.082 Cl
ATOM     25  C   UNL d   1      -1.455  -6.588  -1.087  0.00  0.00     0.035 A 
ATOM     26  C   UNL d   1      -2.408  -6.769  -0.087  0.00  0.00     0.026 A 
ATOM     27 CL   UNL d   1      -1.945  -6.570  -2.736  0.00  0.00    -0.084 Cl
ATOM     28  C   UNL d   1      -2.016  -6.774   1.255  0.00  0.00     0.033 A 
ENDBRANCH   2  21
TORSDOF 4
