REMARK  4 active torsions:
REMARK  status: ('A' for Active; 'I' for Inactive)
REMARK    1  A    between atoms: N_7  and  C_1 
REMARK    2  A    between atoms: N_2  and  C_4 
REMARK    3  A    between atoms: C_6  and  N_8 
REMARK    4  A    between atoms: N_8  and  N_7 
ROOT
ATOM      1  N   UNL d   1       0.929  -2.502   0.940  0.00  0.00    -0.222 NA
ATOM      2  H   UNL d   1       0.540  -2.456   1.883  0.00  0.00     0.144 HD
ENDROOT
BRANCH   1   3
ATOM      3  C   UNL d   1      -0.209  -2.522   0.017  0.00  0.00     0.253 C 
ATOM      4  O   UNL d   1      -1.059  -1.387   0.334  0.00  0.00    -0.291 OA
ATOM      5  C   UNL d   1      -2.284  -1.765   0.792  0.00  0.00     0.295 C 
ATOM      6  O   UNL d   1      -3.162  -1.035   1.212  0.00  0.00    -0.259 OA
ATOM      7  C   UNL d   1      -2.348  -3.212   0.667  0.00  0.00     0.049 A 
ATOM      8  C   UNL d   1      -1.142  -3.667   0.175  0.00  0.00     0.003 A 
ATOM      9  C   UNL d   1      -3.413  -4.054   0.940  0.00  0.00     0.018 A 
ATOM     10  C   UNL d   1      -0.977  -5.014  -0.116  0.00  0.00     0.012 A 
ATOM     11  C   UNL d   1      -2.039  -5.888   0.136  0.00  0.00     0.001 A 
ATOM     12  C   UNL d   1      -3.248  -5.413   0.670  0.00  0.00     0.001 A 
ENDBRANCH   1   3
BRANCH   1  13
ATOM     13  N   UNL d   1       1.795  -3.636   0.784  0.00  0.00    -0.217 NA
ATOM     14  C   UNL d   1       2.070  -4.364   2.052  0.00  0.00     0.137 C 
BRANCH  13  15
ATOM     15  C   UNL d   1       3.034  -3.386   0.111  0.00  0.00     0.058 A 
ATOM     16  C   UNL d   1       3.724  -4.380  -0.616  0.00  0.00     0.125 A 
ATOM     17  C   UNL d   1       5.007  -4.165  -1.149  0.00  0.00     0.038 A 
ATOM     18  C   UNL d   1       5.610  -2.921  -1.001  0.00  0.00     0.003 A 
ATOM     19  C   UNL d   1       4.921  -1.893  -0.361  0.00  0.00     0.002 A 
ATOM     20  C   UNL d   1       3.652  -2.123   0.187  0.00  0.00     0.027 A 
BRANCH  16  21
ATOM     21  N   UNL d   1       3.085  -5.644  -0.953  0.00  0.00    -0.114 N 
ATOM     22  O   UNL d   1       2.713  -6.382  -0.029  0.00  0.00    -0.532 OA
ATOM     23  O   UNL d   1       3.003  -5.923  -2.156  0.00  0.00    -0.532 OA
ENDBRANCH  16  21
ENDBRANCH  13  15
ENDBRANCH   1  13
TORSDOF 4
