REMARK  5 active torsions:
REMARK  status: ('A' for Active; 'I' for Inactive)
REMARK    1  A    between atoms: N_3  and  S_1 
REMARK    2  A    between atoms: C_11  and  S_1 
REMARK    3  A    between atoms: C_2  and  N_3 
REMARK    4  A    between atoms: C_4  and  C_7 
REMARK    5  A    between atoms: N_6  and  C_5 
ROOT
ATOM      1  C   UNL d   1       0.689  -0.256  -2.930  0.00  0.00     0.050 A 
ATOM      2  C   UNL d   1       2.091  -0.294  -3.173  0.00  0.00     0.052 A 
ATOM      3  C   UNL d   1       0.204   0.352  -5.242  0.00  0.00     0.049 A 
ATOM      4  C   UNL d   1      -0.227   0.026  -3.955  0.00  0.00     0.043 A 
ATOM      5  C   UNL d   1       2.492   0.154  -4.450  0.00  0.00     0.032 A 
ATOM      6  C   UNL d   1       1.575   0.481  -5.460  0.00  0.00     0.018 A 
ENDROOT
BRANCH   1   7
ATOM      7  N   UNL d   1       0.114  -0.377  -1.619  0.00  0.00    -0.179 NA
ATOM      8  H   UNL d   1       0.580  -1.015  -0.983  0.00  0.00     0.146 HD
BRANCH   7   9
ATOM      9  S   UNL d   1      -0.140   1.050  -0.732  0.00  0.00     0.245 S 
ATOM     10  O   UNL d   1       0.961   1.966  -0.959  0.00  0.00    -0.206 OA
ATOM     11  O   UNL d   1      -0.468   0.614   0.608  0.00  0.00    -0.206 OA
BRANCH   9  12
ATOM     12  C   UNL d   1      -1.617   1.778  -1.412  0.00  0.00     0.074 A 
ATOM     13  C   UNL d   1      -2.874   1.277  -1.059  0.00  0.00     0.025 A 
ATOM     14  C   UNL d   1      -4.029   1.946  -1.488  0.00  0.00     0.002 A 
ATOM     15  C   UNL d   1      -3.924   3.112  -2.249  0.00  0.00     0.000 A 
ATOM     16  C   UNL d   1      -2.668   3.611  -2.596  0.00  0.00     0.002 A 
ATOM     17  C   UNL d   1      -1.513   2.945  -2.177  0.00  0.00     0.025 A 
ENDBRANCH   9  12
ENDBRANCH   7   9
ENDBRANCH   1   7
BRANCH   2  18
ATOM     18  N   UNL d   1       3.033  -0.727  -2.232  0.00  0.00    -0.375 N 
ATOM     19  C   UNL d   1       2.822  -2.004  -1.509  0.00  0.00     0.149 C 
ATOM     20  C   UNL d   1       3.730  -3.137  -2.024  0.00  0.00     0.187 C 
ATOM     21  O   UNL d   1       5.109  -2.758  -2.097  0.00  0.00    -0.388 OA
ATOM     22  C   UNL d   1       5.254  -1.613  -2.951  0.00  0.00     0.187 C 
ATOM     23  C   UNL d   1       4.479  -0.414  -2.378  0.00  0.00     0.149 C 
ENDBRANCH   2  18
BRANCH   3  24
ATOM     24  C   UNL d   1      -0.778   0.558  -6.365  0.00  0.00     0.417 C 
ATOM     25  F   UNL d   1      -2.045   0.163  -6.058  0.00  0.00    -0.166 F 
ATOM     26  F   UNL d   1      -0.871   1.857  -6.756  0.00  0.00    -0.166 F 
ATOM     27  F   UNL d   1      -0.435  -0.146  -7.482  0.00  0.00    -0.166 F 
ENDBRANCH   3  24
TORSDOF 5
