REMARK  3 active torsions:
REMARK  status: ('A' for Active; 'I' for Inactive)
REMARK    1  A    between atoms: S_9  and  C_4 
REMARK    2  A    between atoms: C_13  and  S_9 
REMARK    3  A    between atoms: C_15  and  C_13 
ROOT
ATOM      1  N   UNL d   1       1.158  -1.063  -0.054  0.00  0.00    -0.303 N 
ATOM      2  C   UNL d   1      -0.174   0.900   0.094  0.00  0.00     0.043 A 
ATOM      3  C   UNL d   1      -0.111  -0.559  -0.010  0.00  0.00     0.256 A 
ATOM      4  C   UNL d   1       2.262  -0.264  -0.005  0.00  0.00     0.147 A 
ATOM      5  N   UNL d   1       2.227   1.024   0.085  0.00  0.00    -0.339 N 
ATOM      6  HN  UNL d   1       3.076   1.589   0.117  1.00  0.00     0.168 HD
ATOM      7  C   UNL d   1       0.975   1.585   0.135  0.00  0.00     0.033 A 
ATOM      8  S   UNL d   1      -0.970   3.396   0.286  0.00  0.00    -0.158 SA
ATOM      9  O   UNL d   1      -1.116  -1.257  -0.053  0.00  0.00    -0.267 OA
ATOM     10  C   UNL d   1      -1.454   1.640   0.159  0.00  0.00     0.120 A 
ATOM     11  C   UNL d   1       0.828   3.073   0.247  0.00  0.00     0.132 A 
ATOM     12  H   UNL d   1       1.270  -2.062  -0.124  0.00  0.00     0.171 HD
ENDROOT
BRANCH   4  13
ATOM     13  S   UNL d   1       3.740  -1.176  -0.077  0.00  0.00    -0.089 SA
BRANCH  13  14
ATOM     14  C   UNL d   1       4.958   0.168   0.000  0.00  0.00     0.121 C 
BRANCH  14  15
ATOM     15  C   UNL d   1       6.379  -0.352   0.003  0.00  0.00    -0.048 A 
ATOM     16  C   UNL d   1       7.080  -0.528  -1.201  0.00  0.00     0.009 A 
ATOM     17  C   UNL d   1       8.401  -0.986  -1.194  0.00  0.00     0.024 A 
ATOM     18  C   UNL d   1       9.027  -1.278   0.015  0.00  0.00     0.034 A 
ATOM     19  C   UNL d   1       8.342  -1.122   1.218  0.00  0.00     0.024 A 
ATOM     20 CL   UNL d   1      10.657  -1.831   0.024  0.00  0.00    -0.084 Cl
ATOM     21  C   UNL d   1       7.022  -0.664   1.211  0.00  0.00     0.009 A 
ENDBRANCH  14  15
ENDBRANCH  13  14
ENDBRANCH   4  13
TORSDOF 3
