REMARK  4 active torsions:
REMARK  status: ('A' for Active; 'I' for Inactive)
REMARK    1  A    between atoms: S_2  and  C_1 
REMARK    2  A    between atoms: C_10  and  S_2 
REMARK       I    between atoms: C_7  and  N_3 
REMARK    3  A    between atoms: C_11  and  C_4 
REMARK       I    between atoms: N_9  and  C_7 
REMARK    4  A    between atoms: C_27  and  N_9 
ROOT
ATOM      1  C   UNL d   1      -0.284   1.365  -0.071  0.00  0.00     0.110 C 
ATOM      2  N   UNL d   1       1.020  -0.401  -0.274  0.00  0.00    -0.204 N 
ATOM      3  C   UNL d   1       1.057   1.020  -0.307  0.00  0.00     0.095 C 
ATOM      4  N   UNL d   1      -0.255  -0.884  -0.405  0.00  0.00    -0.299 N 
ATOM      5  HN  UNL d   1      -0.548  -1.829  -0.651  1.00  0.00     0.186 HD
ATOM      6  C   UNL d   1       2.046  -1.373  -0.122  0.00  0.00     0.342 C 
ATOM      7  C   UNL d   1      -1.019   0.167  -0.136  0.00  0.00     0.134 C 
ATOM      8  N   UNL d   1       1.864  -2.414  -1.006  0.00  0.00    -0.337 N 
ATOM      9  O   UNL d   1       2.951  -1.208   0.680  0.00  0.00    -0.245 OA
ATOM     10  H   UNL d   1       0.956  -2.450  -1.467  0.00  0.00     0.164 HD
ENDROOT
BRANCH   1  11
ATOM     11  S   UNL d   1      -1.129   2.857   0.125  0.00  0.00     0.210 S 
ATOM     12  O   UNL d   1      -1.068   3.479  -1.179  0.00  0.00    -0.217 OA
ATOM     13  O   UNL d   1      -2.393   2.483   0.730  0.00  0.00    -0.217 OA
BRANCH  11  14
ATOM     14  C   UNL d   1      -0.299   3.879   1.311  0.00  0.00     0.064 A 
ATOM     15  C   UNL d   1      -0.259   5.266   1.107  0.00  0.00     0.025 A 
ATOM     16  C   UNL d   1       0.275   6.095   2.097  0.00  0.00     0.025 A 
ATOM     17  C   UNL d   1       0.763   5.536   3.278  0.00  0.00     0.034 A 
ATOM     18  C   UNL d   1       0.752   4.153   3.466  0.00  0.00     0.025 A 
ATOM     19 CL   UNL d   1       1.350   6.561   4.529  0.00  0.00    -0.084 Cl
ATOM     20  C   UNL d   1       0.220   3.317   2.481  0.00  0.00     0.025 A 
ENDBRANCH  11  14
ENDBRANCH   1  11
BRANCH   3  21
ATOM     21  C   UNL d   1       2.262   1.847  -0.646  0.00  0.00    -0.006 A 
ATOM     22  C   UNL d   1       3.564   1.330  -0.743  0.00  0.00     0.015 A 
ATOM     23  C   UNL d   1       4.676   2.116  -1.090  0.00  0.00     0.024 A 
ATOM     24  C   UNL d   1       4.514   3.459  -1.373  0.00  0.00     0.034 A 
ATOM     25  C   UNL d   1       3.246   4.008  -1.329  0.00  0.00     0.024 A 
ATOM     26 CL   UNL d   1       5.865   4.423  -1.809  0.00  0.00    -0.084 Cl
ATOM     27  C   UNL d   1       2.145   3.206  -0.986  0.00  0.00     0.015 A 
ENDBRANCH   3  21
BRANCH   8  28
ATOM     28  C   UNL d   1       2.827  -3.475  -1.275  0.00  0.00     0.078 C 
ATOM     29  C   UNL d   1       4.244  -2.952  -1.523  0.00  0.00     0.032 C 
ATOM     30  C   UNL d   1       2.829  -4.554  -0.198  0.00  0.00     0.032 C 
ENDBRANCH   8  28
TORSDOF 4
