REMARK  3 active torsions:
REMARK  status: ('A' for Active; 'I' for Inactive)
REMARK    1  A    between atoms: C_2  and  C_1 
REMARK       I    between atoms: N_12  and  C_2 
REMARK    2  A    between atoms: C_4  and  C_13 
REMARK    3  A    between atoms: N_5  and  N_12 
ROOT
ATOM      1  N   UNL d   1      -2.072   3.249  -0.070  0.00  0.00    -0.308 N 
ATOM      2  HN  UNL d   1      -2.378   2.276  -0.084  1.00  0.00     0.186 HD
ATOM      3  C   UNL d   1      -2.927   4.216  -0.042  0.00  0.00     0.122 C 
ENDROOT
BRANCH   1   4
ATOM      4  N   UNL d   1      -0.746   3.570  -0.079  0.00  0.00    -0.265 N 
ATOM      5  C   UNL d   1       0.191   2.538  -0.052  0.00  0.00     0.286 C 
ATOM      6  O   UNL d   1      -0.150   1.357  -0.018  0.00  0.00    -0.264 OA
ATOM      7  H   UNL d   1      -0.463   4.538  -0.085  0.00  0.00     0.190 HD
BRANCH   5   8
ATOM      8  C   UNL d   1       1.593   2.957  -0.069  0.00  0.00     0.104 A 
ATOM      9  N   UNL d   1       2.685   2.099  -0.039  0.00  0.00    -0.357 N 
ATOM     10  C   UNL d   1       3.857   2.821  -0.094  0.00  0.00     0.091 A 
ATOM     11  C   UNL d   1       2.703   0.653   0.046  0.00  0.00     0.156 C 
ATOM     12  C   UNL d   1       3.542   4.154  -0.140  0.00  0.00     0.020 A 
ATOM     13  C   UNL d   1       2.131   4.243  -0.120  0.00  0.00     0.037 A 
ENDBRANCH   5   8
ENDBRANCH   1   4
BRANCH   3  14
ATOM     14  C   UNL d   1      -4.383   3.938  -0.040  0.00  0.00     0.024 A 
ATOM     15  C   UNL d   1      -4.928   2.813   0.605  0.00  0.00     0.047 A 
ATOM     16 CL   UNL d   1      -4.017   1.739   1.611  0.00  0.00    -0.083 Cl
ATOM     17  C   UNL d   1      -6.301   2.545   0.517  0.00  0.00     0.025 A 
ATOM     18  C   UNL d   1      -7.144   3.397  -0.190  0.00  0.00     0.003 A 
ATOM     19  C   UNL d   1      -6.619   4.531  -0.803  0.00  0.00     0.025 A 
ATOM     20  C   UNL d   1      -5.246   4.804  -0.730  0.00  0.00     0.047 A 
ATOM     21 CL   UNL d   1      -4.691   6.224  -1.549  0.00  0.00    -0.083 Cl
ENDBRANCH   3  14
TORSDOF 3
