REMARK  2 active torsions:
REMARK  status: ('A' for Active; 'I' for Inactive)
REMARK    1  A    between atoms: C_2  and  C_1 
REMARK    2  A    between atoms: C_12  and  C_5 
ROOT
ATOM      1  C   UNL d   1      -0.300   1.223  -0.017  0.00  0.00     0.072 A 
ATOM      2  N   UNL d   1      -1.123   0.157  -0.017  0.00  0.00    -0.300 N 
ATOM      3  HN  UNL d   1      -2.143   0.173  -0.022  1.00  0.00     0.187 HD
ATOM      4  C   UNL d   1       1.074   0.753  -0.012  0.00  0.00    -0.013 A 
ATOM      5  N   UNL d   1      -0.345  -0.920  -0.008  0.00  0.00    -0.311 N 
ATOM      6  C   UNL d   1       0.976  -0.627  -0.005  0.00  0.00     0.116 A 
ATOM      7  H   UNL d   1      -0.788  -1.832  -0.004  0.00  0.00     0.186 HD
ENDROOT
BRANCH   1   8
ATOM      8  C   UNL d   1      -0.899   2.584  -0.024  0.00  0.00     0.070 A 
ATOM      9  C   UNL d   1      -2.300   2.755  -0.008  0.00  0.00     0.132 A 
ATOM     10  F   UNL d   1      -3.144   1.711   0.021  0.00  0.00    -0.205 F 
ATOM     11  C   UNL d   1      -2.908   4.018  -0.019  0.00  0.00     0.043 A 
ATOM     12  C   UNL d   1      -2.136   5.169  -0.046  0.00  0.00     0.006 A 
ATOM     13  C   UNL d   1      -0.756   5.041  -0.061  0.00  0.00     0.043 A 
ATOM     14  C   UNL d   1      -0.157   3.773  -0.050  0.00  0.00     0.132 A 
ATOM     15  F   UNL d   1       1.179   3.788  -0.067  0.00  0.00    -0.205 F 
ENDBRANCH   1   8
BRANCH   4  16
ATOM     16  C   UNL d   1       2.353   1.532  -0.013  0.00  0.00     0.038 C 
ATOM     17  C   UNL d   1       3.637   0.715  -0.004  0.00  0.00     0.010 C 
ENDBRANCH   4  16
TORSDOF 2
