REMARK  5 active torsions:
REMARK  status: ('A' for Active; 'I' for Inactive)
REMARK    1  A    between atoms: C_2  and  C_1 
REMARK       I    between atoms: N_4  and  C_2 
REMARK    2  A    between atoms: S_11  and  C_3 
REMARK    3  A    between atoms: C_10  and  N_4 
REMARK    4  A    between atoms: C_7  and  C_10 
REMARK    5  A    between atoms: O_12  and  C_7 
ROOT
ATOM      1  C   UNL d   1       0.606   1.443   0.091  0.00  0.00     0.065 A 
ATOM      2  C   UNL d   1       1.271   0.214   0.054  0.00  0.00     0.085 A 
ATOM      3  N   UNL d   1       0.746  -0.861  -0.600  0.00  0.00    -0.360 N 
ATOM      4  HN  UNL d   1       1.243  -1.751  -0.622  1.00  0.00     0.166 HD
ATOM      5  C   UNL d   1      -0.642   1.546  -0.548  0.00  0.00     0.021 A 
ATOM      6  C   UNL d   1      -0.446  -0.722  -1.217  0.00  0.00     0.089 A 
ATOM      7  C   UNL d   1      -1.179   0.447  -1.207  0.00  0.00     0.018 A 
ENDROOT
BRANCH   1   8
ATOM      8  C   UNL d   1       1.182   2.671   0.697  0.00  0.00     0.254 C 
ATOM      9  N   UNL d   1       0.301   3.470   1.392  0.00  0.00    -0.347 N 
ATOM     10  H   UNL d   1      -0.654   3.177   1.573  0.00  0.00     0.163 HD
ATOM     11  O   UNL d   1       2.355   2.981   0.525  0.00  0.00    -0.268 OA
BRANCH   9  12
ATOM     12  C   UNL d   1       0.713   4.762   1.921  0.00  0.00     0.233 C 
BRANCH  12  13
ATOM     13  C   UNL d   1      -0.493   5.505   2.470  0.00  0.00     0.276 C 
ATOM     14  O   UNL d   1      -1.639   5.062   2.459  0.00  0.00    -0.263 OA
BRANCH  13  15
ATOM     15  O   UNL d   1      -0.122   6.716   2.970  0.00  0.00    -0.325 OA
ATOM     16  C   UNL d   1      -1.204   7.475   3.514  0.00  0.00     0.213 C 
ENDBRANCH  13  15
ENDBRANCH  12  13
ENDBRANCH   9  12
ENDBRANCH   1   8
BRANCH   2  17
ATOM     17  S   UNL d   1       2.796  -0.105   0.940  0.00  0.00    -0.116 SA
ATOM     18  C   UNL d   1       3.134  -1.818   0.450  0.00  0.00     0.097 C 
ENDBRANCH   2  17
TORSDOF 5
