REMARK  5 active torsions:
REMARK  status: ('A' for Active; 'I' for Inactive)
REMARK    1  A    between atoms: N_2  and  C_1 
REMARK    2  A    between atoms: C_9  and  C_3 
REMARK    3  A    between atoms: C_7  and  C_5 
REMARK    4  A    between atoms: C_6  and  O_8 
REMARK    5  A    between atoms: O_8  and  C_7 
ROOT
ATOM      1  C   UNL d   1      -4.225  -1.597   0.796  0.00  0.00     0.010 A 
ATOM      2  C   UNL d   1      -3.139  -1.498  -0.107  0.00  0.00     0.088 A 
ATOM      3  C   UNL d   1      -5.216  -0.551   0.780  0.00  0.00    -0.015 A 
ATOM      4  C   UNL d   1      -3.017  -0.437  -1.003  0.00  0.00     0.039 A 
ATOM      5  C   UNL d   1      -5.065   0.524  -0.142  0.00  0.00    -0.025 A 
ATOM      6  C   UNL d   1      -3.985   0.556  -1.027  0.00  0.00     0.015 A 
ATOM      7  C   UNL d   1      -6.351  -0.482   1.632  0.00  0.00     0.013 A 
ATOM      8  C   UNL d   1      -5.988   1.582  -0.176  0.00  0.00     0.012 A 
ATOM      9  C   UNL d   1      -7.261   0.582   1.590  0.00  0.00     0.001 A 
ATOM     10  C   UNL d   1      -7.076   1.617   0.689  0.00  0.00     0.001 A 
ENDROOT
BRANCH   2  11
ATOM     11  O   UNL d   1      -2.057  -2.402   0.013  0.00  0.00    -0.273 OA
BRANCH  11  12
ATOM     12  C   UNL d   1      -1.433  -2.914  -1.124  0.00  0.00     0.322 C 
ATOM     13  O   UNL d   1      -1.908  -2.924  -2.252  0.00  0.00    -0.257 OA
BRANCH  12  14
ATOM     14  C   UNL d   1      -0.108  -3.382  -0.780  0.00  0.00     0.153 A 
ATOM     15  O   UNL d   1       0.357  -3.268   0.509  0.00  0.00    -0.282 OA
ATOM     16  C   UNL d   1       1.644  -3.705   0.496  0.00  0.00     0.215 A 
ATOM     17  C   UNL d   1       2.026  -4.121  -0.757  0.00  0.00     0.066 A 
ATOM     18  C   UNL d   1       0.889  -3.921  -1.580  0.00  0.00     0.048 A 
BRANCH  16  19
ATOM     19  N   UNL d   1       2.359  -3.640   1.732  0.00  0.00    -0.090 N 
ATOM     20  O   UNL d   1       3.559  -3.947   1.686  0.00  0.00    -0.530 OA
ATOM     21  O   UNL d   1       1.736  -3.299   2.744  0.00  0.00    -0.530 OA
ENDBRANCH  16  19
ENDBRANCH  12  14
ENDBRANCH  11  12
ENDBRANCH   2  11
BRANCH   1  22
ATOM     22  C   UNL d   1      -4.353  -2.792   1.729  0.00  0.00     0.145 C 
ATOM     23  S   UNL d   1      -2.974  -3.006   2.897  0.00  0.00    -0.148 SA
ATOM     24  C   UNL d   1      -3.019  -4.814   2.924  0.00  0.00     0.085 C 
ATOM     25  C   UNL d   1      -3.285  -5.294   1.511  0.00  0.00     0.085 C 
ATOM     26  S   UNL d   1      -4.673  -4.353   0.829  0.00  0.00    -0.148 SA
ENDBRANCH   1  22
TORSDOF 5
