REMARK  7 active torsions:
REMARK  status: ('A' for Active; 'I' for Inactive)
REMARK    1  A    between atoms: C_3  and  N_1 
REMARK    2  A    between atoms: N_2  and  C_4 
REMARK    3  A    between atoms: O_9  and  C_5 
REMARK    4  A    between atoms: C_6  and  O_10 
REMARK    5  A    between atoms: C_7  and  O_9 
REMARK    6  A    between atoms: C_21  and  C_8 
REMARK    7  A    between atoms: O_10  and  C_20 
ROOT
ATOM      1  C   UNL d   1      -0.589   1.643  -1.100  0.00  0.00     0.089 A 
ATOM      2  C   UNL d   1       0.807   1.812  -1.281  0.00  0.00     0.011 A 
ATOM      3  C   UNL d   1       1.384   2.980  -0.716  0.00  0.00     0.052 A 
ATOM      4  C   UNL d   1       0.628   3.906   0.015  0.00  0.00     0.079 A 
ATOM      5  C   UNL d   1      -1.339   2.588  -0.376  0.00  0.00     0.041 A 
ATOM      6  C   UNL d   1      -0.746   3.732   0.133  0.00  0.00     0.040 A 
ENDROOT
BRANCH   1   7
ATOM      7  O   UNL d   1      -1.212   0.495  -1.569  0.00  0.00    -0.290 OA
BRANCH   7   8
ATOM      8  C   UNL d   1      -2.509   0.626  -2.040  0.00  0.00     0.181 A 
ATOM      9  C   UNL d   1      -3.479  -0.331  -1.776  0.00  0.00     0.154 A 
ATOM     10  C   UNL d   1      -4.793  -0.090  -2.216  0.00  0.00     0.042 A 
ATOM     11  C   UNL d   1      -5.087   1.087  -2.902  0.00  0.00     0.020 A 
ATOM     12  C   UNL d   1      -4.055   1.969  -3.153  0.00  0.00     0.090 A 
ATOM     13  N   UNL d   1      -2.783   1.753  -2.760  0.00  0.00    -0.345 N 
ATOM     14  HN  UNL d   1      -2.043   2.415  -2.995  1.00  0.00     0.167 HD
BRANCH   9  15
ATOM     15  N   UNL d   1      -3.199  -1.552  -1.030  0.00  0.00    -0.111 N 
ATOM     16  O   UNL d   1      -2.086  -1.705  -0.516  0.00  0.00    -0.532 OA
ATOM     17  O   UNL d   1      -4.118  -2.381  -0.942  0.00  0.00    -0.532 OA
ENDBRANCH   9  15
ENDBRANCH   7   8
ENDBRANCH   1   7
BRANCH   2  18
ATOM     18  C   UNL d   1       1.679   0.833  -1.999  0.00  0.00    -0.023 A 
ATOM     19  C   UNL d   1       1.239   0.118  -3.128  0.00  0.00     0.012 A 
ATOM     20  C   UNL d   1       2.059  -0.814  -3.777  0.00  0.00     0.001 A 
ATOM     21  C   UNL d   1       3.359  -1.032  -3.336  0.00  0.00     0.000 A 
ATOM     22  C   UNL d   1       3.835  -0.322  -2.240  0.00  0.00     0.001 A 
ATOM     23  C   UNL d   1       3.002   0.588  -1.577  0.00  0.00     0.012 A 
ENDBRANCH   2  18
BRANCH   4  24
ATOM     24  O   UNL d   1       1.292   4.982   0.572  0.00  0.00    -0.291 OA
BRANCH  24  25
ATOM     25  C   UNL d   1       0.812   5.449   1.790  0.00  0.00     0.181 A 
ATOM     26  C   UNL d   1       0.824   6.798   2.077  0.00  0.00     0.154 A 
ATOM     27  C   UNL d   1       0.280   7.263   3.281  0.00  0.00     0.042 A 
ATOM     28  C   UNL d   1      -0.265   6.337   4.166  0.00  0.00     0.020 A 
ATOM     29  C   UNL d   1      -0.206   4.995   3.830  0.00  0.00     0.090 A 
ATOM     30  N   UNL d   1       0.334   4.535   2.680  0.00  0.00    -0.345 N 
ATOM     31  HN  UNL d   1       0.381   3.535   2.484  1.00  0.00     0.167 HD
BRANCH  26  32
ATOM     32  N   UNL d   1       1.363   7.743   1.138  0.00  0.00    -0.111 N 
ATOM     33  O   UNL d   1       0.863   7.778   0.008  0.00  0.00    -0.532 OA
ATOM     34  O   UNL d   1       2.251   8.503   1.557  0.00  0.00    -0.532 OA
ENDBRANCH  26  32
ENDBRANCH  24  25
ENDBRANCH   4  24
TORSDOF 7
