REMARK  3 active torsions:
REMARK  status: ('A' for Active; 'I' for Inactive)
REMARK    1  A    between atoms: N_4  and  C_2 
REMARK    2  A    between atoms: S_13  and  C_5 
REMARK    3  A    between atoms: C_16  and  S_13 
ROOT
ATOM      1  C   UNL d   1       0.139  -0.722   0.031  0.00  0.00     0.119 A 
ATOM      2  C   UNL d   1      -1.064  -1.458   0.005  0.00  0.00     0.133 A 
ATOM      3  C   UNL d   1       0.114   0.748   0.043  0.00  0.00     0.104 A 
ATOM      4  C   UNL d   1      -1.100   1.479   0.033  0.00  0.00     0.036 A 
ATOM      5  N   UNL d   1       1.424  -1.100   0.043  0.00  0.00    -0.237 N 
ATOM      6  HN  UNL d   1       1.777  -2.057   0.043  1.00  0.00     0.197 HD
ATOM      7  C   UNL d   1      -2.266  -0.715  -0.015  0.00  0.00     0.040 A 
ATOM      8  N   UNL d   1       1.383   1.182   0.059  0.00  0.00    -0.238 N 
ATOM      9  HN  UNL d   1       1.698   2.152   0.073  1.00  0.00     0.197 HD
ATOM     10  O   UNL d   1       2.177   0.054   0.055  0.00  0.00    -0.156 OA
ATOM     11  C   UNL d   1      -2.276   0.702  -0.006  0.00  0.00     0.024 A 
ENDROOT
BRANCH   4  12
ATOM     12  S   UNL d   1      -1.109   3.241  -0.016  0.00  0.00    -0.088 SA
BRANCH  12  13
ATOM     13  C   UNL d   1      -1.086   3.643   1.721  0.00  0.00     0.007 A 
ATOM     14  C   UNL d   1      -2.281   3.917   2.392  0.00  0.00     0.042 A 
ATOM     15  C   UNL d   1      -2.254   4.290   3.736  0.00  0.00     0.035 A 
ATOM     16 CL   UNL d   1      -3.729   4.636   4.553  0.00  0.00    -0.084 Cl
ATOM     17  C   UNL d   1      -1.045   4.393   4.421  0.00  0.00     0.024 A 
ATOM     18  C   UNL d   1       0.149   4.122   3.755  0.00  0.00     0.003 A 
ATOM     19  C   UNL d   1       0.129   3.751   2.408  0.00  0.00     0.019 A 
ENDBRANCH  12  13
ENDBRANCH   4  12
BRANCH   2  20
ATOM     20  N   UNL d   1      -1.069  -2.908  -0.006  0.00  0.00    -0.113 N 
ATOM     21  O   UNL d   1       0.007  -3.515   0.014  0.00  0.00    -0.532 OA
ATOM     22  O   UNL d   1      -2.179  -3.460  -0.033  0.00  0.00    -0.532 OA
ENDBRANCH   2  20
TORSDOF 3
