REMARK  8 active torsions:
REMARK  status: ('A' for Active; 'I' for Inactive)
REMARK    1  A    between atoms: C_10  and  C_5 
REMARK    2  A    between atoms: C_11  and  C_5 
REMARK    3  A    between atoms: C_9  and  C_7 
REMARK    4  A    between atoms: C_8  and  N_12 
REMARK    5  A    between atoms: O_18  and  C_10 
REMARK    6  A    between atoms: O_17  and  C_11 
REMARK    7  A    between atoms: C_21  and  O_17 
REMARK    8  A    between atoms: C_20  and  O_18 
ROOT
ATOM      1  C   UNL d   1      -1.988  -4.327   0.104  0.00  0.00     0.129 C 
ATOM      2  C   UNL d   1      -1.610  -3.031   0.084  0.00  0.00     0.113 C 
ENDROOT
BRANCH   2   3
ATOM      3  N   UNL d   1      -0.344  -2.471  -0.007  0.00  0.00    -0.350 N 
ATOM      4  C   UNL d   1      -0.025  -1.150  -0.015  0.00  0.00     0.123 A 
ATOM      5  N   UNL d   1       1.264  -0.672  -0.143  0.00  0.00    -0.281 N 
ATOM      6  C   UNL d   1      -0.813  -0.018   0.073  0.00  0.00     0.076 A 
ATOM      7  N   UNL d   1       1.335   0.673  -0.206  0.00  0.00    -0.301 N 
ATOM      8  C   UNL d   1       2.508  -1.395  -0.238  0.00  0.00     0.179 C 
ATOM      9  C   UNL d   1       0.066   1.065  -0.097  0.00  0.00     0.034 A 
ATOM     10  HN  UNL d   1       2.166   1.255  -0.312  1.00  0.00     0.187 HD
ATOM     11  H   UNL d   1       0.380  -3.175  -0.163  0.00  0.00     0.166 HD
BRANCH   9  12
ATOM     12  C   UNL d   1      -0.303   2.533  -0.205  0.00  0.00     0.037 A 
ATOM     13  C   UNL d   1      -1.494   3.099   0.536  0.00  0.00     0.011 A 
ATOM     14  C   UNL d   1      -1.577   2.902  -0.939  0.00  0.00     0.011 A 
ENDBRANCH   9  12
ENDBRANCH   2   3
BRANCH   1  15
ATOM     15  C   UNL d   1      -1.020  -5.448   0.120  0.00  0.00     0.300 C 
ATOM     16  O   UNL d   1      -1.245  -6.547   0.612  0.00  0.00    -0.259 OA
BRANCH  15  17
ATOM     17  O   UNL d   1       0.193  -5.055  -0.362  0.00  0.00    -0.318 OA
BRANCH  17  18
ATOM     18  C   UNL d   1       1.305  -5.854   0.067  0.00  0.00     0.174 C 
ATOM     19  C   UNL d   1       1.733  -5.365   1.440  0.00  0.00     0.034 C 
ENDBRANCH  17  18
ENDBRANCH  15  17
ENDBRANCH   1  15
BRANCH   1  20
ATOM     20  C   UNL d   1      -3.435  -4.579   0.319  0.00  0.00     0.300 C 
ATOM     21  O   UNL d   1      -4.205  -3.770   0.810  0.00  0.00    -0.259 OA
BRANCH  20  22
ATOM     22  O   UNL d   1      -3.765  -5.835  -0.075  0.00  0.00    -0.318 OA
BRANCH  22  23
ATOM     23  C   UNL d   1      -5.002  -6.343   0.447  0.00  0.00     0.174 C 
ATOM     24  C   UNL d   1      -4.731  -6.972   1.804  0.00  0.00     0.034 C 
ENDBRANCH  22  23
ENDBRANCH  20  22
ENDBRANCH   1  20
TORSDOF 8
