REMARK  9 active torsions:
REMARK  status: ('A' for Active; 'I' for Inactive)
REMARK    1  A    between atoms: C_4  and  N_1 
REMARK    2  A    between atoms: C_2  and  C_5 
REMARK       I    between atoms: N_3  and  C_2 
REMARK    3  A    between atoms: C_6  and  N_3 
REMARK    4  A    between atoms: C_8  and  N_3 
REMARK    5  A    between atoms: C_15  and  C_8 
REMARK    6  A    between atoms: O_22  and  C_15 
REMARK    7  A    between atoms: O_23  and  C_15 
REMARK    8  A    between atoms: C_25  and  O_22 
REMARK    9  A    between atoms: C_24  and  O_23 
ROOT
ATOM      1  C   UNL d   1      -2.085  -2.884   3.972  0.00  0.00     0.258 C 
ATOM      2  N   UNL d   1      -3.247  -3.648   3.760  0.00  0.00    -0.309 N 
ATOM      3  O   UNL d   1      -1.563  -2.226   3.066  0.00  0.00    -0.267 OA
ENDROOT
BRANCH   2   4
ATOM      4  C   UNL d   1      -3.958  -4.396   4.735  0.00  0.00     0.037 A 
ATOM      5  C   UNL d   1      -4.340  -3.822   5.954  0.00  0.00     0.033 A 
ATOM      6  C   UNL d   1      -5.086  -4.564   6.876  0.00  0.00     0.044 A 
ATOM      7  C   UNL d   1      -5.446  -5.871   6.577  0.00  0.00     0.116 A 
ATOM      8  C   UNL d   1      -5.081  -6.457   5.375  0.00  0.00     0.044 A 
ATOM      9  F   UNL d   1      -6.166  -6.578   7.461  0.00  0.00    -0.206 F 
ATOM     10  C   UNL d   1      -4.341  -5.716   4.449  0.00  0.00     0.033 A 
ENDBRANCH   2   4
BRANCH   2  11
ATOM     11  C   UNL d   1      -3.800  -3.637   2.389  0.00  0.00     0.193 C 
BRANCH  11  12
ATOM     12  C   UNL d   1      -5.326  -3.369   2.253  0.00  0.00     0.277 C 
BRANCH  12  13
ATOM     13  O   UNL d   1      -5.634  -2.095   2.846  0.00  0.00    -0.360 OA
BRANCH  13  14
ATOM     14  C   UNL d   1      -7.036  -1.822   2.824  0.00  0.00     0.166 C 
ATOM     15  C   UNL d   1      -7.285  -0.462   3.446  0.00  0.00     0.033 C 
ENDBRANCH  13  14
ENDBRANCH  12  13
BRANCH  12  16
ATOM     16  O   UNL d   1      -5.701  -3.343   0.871  0.00  0.00    -0.360 OA
BRANCH  16  17
ATOM     17  C   UNL d   1      -5.765  -4.628   0.265  0.00  0.00     0.166 C 
ATOM     18  C   UNL d   1      -6.259  -4.449  -1.156  0.00  0.00     0.033 C 
ENDBRANCH  16  17
ENDBRANCH  12  16
ENDBRANCH  11  12
ENDBRANCH   2  11
BRANCH   1  19
ATOM     19  C   UNL d   1      -1.351  -2.845   5.270  0.00  0.00     0.032 A 
ATOM     20  C   UNL d   1      -1.159  -3.954   6.103  0.00  0.00     0.019 A 
ATOM     21  C   UNL d   1      -0.421  -3.826   7.290  0.00  0.00     0.037 A 
ATOM     22  C   UNL d   1       0.169  -2.595   7.617  0.00  0.00     0.102 A 
ATOM     23  C   UNL d   1       0.030  -1.496   6.764  0.00  0.00     0.037 A 
ATOM     24  C   UNL d   1      -0.728  -1.628   5.599  0.00  0.00     0.019 A 
BRANCH  22  25
ATOM     25  N   UNL d   1       0.946  -2.457   8.854  0.00  0.00    -0.116 N 
ATOM     26  O   UNL d   1       1.500  -1.369   9.071  0.00  0.00    -0.532 OA
ATOM     27  O   UNL d   1       0.997  -3.437   9.612  0.00  0.00    -0.532 OA
ENDBRANCH  22  25
ENDBRANCH   1  19
TORSDOF 9
