REMARK  2 active torsions:
REMARK  status: ('A' for Active; 'I' for Inactive)
REMARK    1  A    between atoms: N_5  and  C_1 
REMARK    2  A    between atoms: N_11  and  C_10 
ROOT
ATOM      1  C   UNL d   1       1.625   0.118   0.002  0.00  0.00     0.166 A 
ATOM      2  S   UNL d   1       0.224   1.138   0.000  0.00  0.00    -0.038 SA
ATOM      3  N   UNL d   1       1.313  -1.166   0.002  0.00  0.00    -0.279 N 
ATOM      4  HN  UNL d   1       2.009  -1.911   0.003  1.00  0.00     0.189 HD
ATOM      5  N   UNL d   1      -0.049  -1.398   0.000  0.00  0.00    -0.296 N 
ATOM      6  HN  UNL d   1      -0.469  -2.327  -0.000  1.00  0.00     0.187 HD
ATOM      7  C   UNL d   1      -0.738  -0.279  -0.001  0.00  0.00     0.066 A 
ATOM      8  C   UNL d   1      -2.221  -0.202  -0.002  0.00  0.00     0.078 C 
ENDROOT
BRANCH   1   9
ATOM      9  N   UNL d   1       2.842   0.722   0.004  0.00  0.00    -0.332 N 
ATOM     10  C   UNL d   1       3.864  -0.068   0.005  0.00  0.00     0.179 C 
ATOM     11  HN  UNL d   1       2.943   1.737   0.004  1.00  0.00     0.168 HD
BRANCH  10  12
ATOM     12  N   UNL d   1       5.184   0.331   0.008  0.00  0.00    -0.386 N 
ATOM     13  C   UNL d   1       6.282  -0.620   0.009  0.00  0.00     0.149 C 
ATOM     14  C   UNL d   1       5.561   1.736   0.008  0.00  0.00     0.149 C 
ENDBRANCH  10  12
ENDBRANCH   1   9
TORSDOF 2
