REMARK  3 active torsions:
REMARK  status: ('A' for Active; 'I' for Inactive)
REMARK    1  A    between atoms: C_7  and  C_1 
REMARK    2  A    between atoms: C_3  and  C_2 
REMARK       I    between atoms: N_10  and  C_3 
REMARK    3  A    between atoms: C_8  and  N_10 
ROOT
ATOM      1  C   UNL d   1      -1.440  -0.352   0.260  0.00  0.00     0.086 A 
ATOM      2  C   UNL d   1      -0.215  -1.036  -0.018  0.00  0.00     0.093 A 
ATOM      3  N   UNL d   1      -1.225   0.948   0.491  0.00  0.00    -0.259 N 
ATOM      4  HN  UNL d   1      -1.924   1.657   0.715  1.00  0.00     0.195 HD
ATOM      5  O   UNL d   1       0.142   1.130   0.365  0.00  0.00    -0.241 OA
ATOM      6  C   UNL d   1       0.750  -0.060   0.071  0.00  0.00     0.090 A 
ATOM      7  C   UNL d   1       2.209   0.010  -0.126  0.00  0.00     0.080 C 
ENDROOT
BRANCH   2   8
ATOM      8  C   UNL d   1      -0.145  -2.432  -0.371  0.00  0.00     0.261 C 
ATOM      9  N   UNL d   1       0.894  -3.170   0.172  0.00  0.00    -0.321 N 
ATOM     10  H   UNL d   1       1.723  -2.668   0.443  0.00  0.00     0.169 HD
ATOM     11  O   UNL d   1      -0.977  -2.902  -1.149  0.00  0.00    -0.267 OA
BRANCH   9  12
ATOM     12  C   UNL d   1       1.015  -4.507  -0.262  0.00  0.00     0.064 A 
ATOM     13  C   UNL d   1      -0.049  -5.458  -0.167  0.00  0.00     0.094 A 
ATOM     14  N   UNL d   1      -1.169  -5.361   0.576  0.00  0.00    -0.309 N 
ATOM     15  C   UNL d   1       0.030  -6.747  -0.944  0.00  0.00     0.069 A 
ATOM     16  S   UNL d   1      -2.060  -6.725   0.264  0.00  0.00     0.068 SA
ATOM     17  HN  UNL d   1      -1.419  -4.598   1.205  1.00  0.00     0.176 HD
ATOM     18  N   UNL d   1      -1.052  -7.527  -0.785  0.00  0.00    -0.310 N 
ATOM     19  HN  UNL d   1      -1.220  -8.433  -1.222  1.00  0.00     0.176 HD
ATOM     20  C   UNL d   1       1.148  -7.029  -1.760  0.00  0.00     0.032 A 
ATOM     21  C   UNL d   1       2.195  -6.088  -1.741  0.00  0.00     0.005 A 
ATOM     22  C   UNL d   1       2.147  -4.883  -1.002  0.00  0.00     0.032 A 
ENDBRANCH   9  12
ENDBRANCH   2   8
BRANCH   1  23
ATOM     23  C   UNL d   1      -2.738  -1.010   0.335  0.00  0.00     0.037 A 
ATOM     24  C   UNL d   1      -3.003  -1.873   1.417  0.00  0.00     0.048 A 
ATOM     25 CL   UNL d   1      -2.018  -1.893   2.846  0.00  0.00    -0.083 Cl
ATOM     26  C   UNL d   1      -4.048  -2.799   1.353  0.00  0.00     0.025 A 
ATOM     27  C   UNL d   1      -4.854  -2.865   0.220  0.00  0.00     0.003 A 
ATOM     28  C   UNL d   1      -4.642  -1.976  -0.833  0.00  0.00     0.025 A 
ATOM     29  C   UNL d   1      -3.591  -1.051  -0.780  0.00  0.00     0.048 A 
ATOM     30 CL   UNL d   1      -3.349  -0.046  -2.168  0.00  0.00    -0.083 Cl
ENDBRANCH   1  23
TORSDOF 3
