REMARK  2 active torsions:
REMARK  status: ('A' for Active; 'I' for Inactive)
REMARK    1  A    between atoms: N_5  and  C_2 
REMARK    2  A    between atoms: N_13  and  C_4 
ROOT
ATOM      1  C   UNL d   1      -0.693  -0.844   0.985  0.00  0.00     0.120 A 
ATOM      2  C   UNL d   1      -0.635  -1.444  -0.287  0.00  0.00     0.134 A 
ATOM      3  C   UNL d   1      -0.874   0.609   1.125  0.00  0.00     0.109 A 
ATOM      4  C   UNL d   1      -0.992   1.492   0.007  0.00  0.00     0.042 A 
ATOM      5  C   UNL d   1      -0.744  -0.584  -1.396  0.00  0.00     0.040 A 
ATOM      6  N   UNL d   1      -0.615  -1.359   2.219  0.00  0.00    -0.237 N 
ATOM      7  HN  UNL d   1      -0.496  -2.343   2.462  1.00  0.00     0.197 HD
ATOM      8  N   UNL d   1      -0.889   0.892   2.437  0.00  0.00    -0.238 N 
ATOM      9  HN  UNL d   1      -0.998   1.813   2.861  1.00  0.00     0.197 HD
ATOM     10  C   UNL d   1      -0.910   0.814  -1.242  0.00  0.00     0.028 A 
ATOM     11  O   UNL d   1      -0.729  -0.305   3.097  0.00  0.00    -0.156 OA
ENDROOT
BRANCH   4  12
ATOM     12  N   UNL d   1      -1.234   2.879  -0.001  0.00  0.00    -0.277 NA
ATOM     13  C   UNL d   1      -1.837   3.466   1.217  0.00  0.00     0.122 C 
ATOM     14  C   UNL d   1      -2.259   4.913   0.910  0.00  0.00     0.182 C 
ATOM     15  O   UNL d   1      -1.134   5.703   0.489  0.00  0.00    -0.389 OA
ATOM     16  C   UNL d   1      -0.539   5.141  -0.692  0.00  0.00     0.182 C 
ATOM     17  C   UNL d   1      -0.082   3.688  -0.468  0.00  0.00     0.122 C 
ENDBRANCH   4  12
BRANCH   2  18
ATOM     18  N   UNL d   1      -0.489  -2.877  -0.453  0.00  0.00    -0.113 N 
ATOM     19  O   UNL d   1      -0.354  -3.588   0.549  0.00  0.00    -0.532 OA
ATOM     20  O   UNL d   1      -0.507  -3.308  -1.615  0.00  0.00    -0.532 OA
ENDBRANCH   2  18
TORSDOF 2
