REMARK  7 active torsions:
REMARK  status: ('A' for Active; 'I' for Inactive)
REMARK    1  A    between atoms: N_3  and  C_1 
REMARK    2  A    between atoms: N_9  and  C_2 
REMARK    3  A    between atoms: C_16  and  N_9 
REMARK    4  A    between atoms: C_10  and  C_15 
REMARK    5  A    between atoms: S_11  and  C_12 
REMARK    6  A    between atoms: C_20  and  S_11 
REMARK    7  A    between atoms: C_14  and  C_16 
ROOT
ATOM      1  C   UNL d   1      -0.457   4.328   0.343  0.00  0.00     0.146 C 
ATOM      2  C   UNL d   1       0.232   3.342  -0.315  0.00  0.00     0.128 C 
ATOM      3  C   UNL d   1      -1.268   5.258  -0.410  0.00  0.00     0.120 C 
ATOM      4  C   UNL d   1       0.105   3.159  -1.750  0.00  0.00     0.114 C 
ATOM      5  N   UNL d   1       0.006   3.052  -2.892  0.00  0.00    -0.190 NA
ATOM      6  N   UNL d   1      -1.858   6.092  -0.969  0.00  0.00    -0.190 NA
ENDROOT
BRANCH   1   7
ATOM      7  N   UNL d   1      -0.158   4.533   1.692  0.00  0.00    -0.354 N 
ATOM      8  C   UNL d   1      -0.879   5.342   2.393  0.00  0.00     0.107 C 
ATOM      9  HN  UNL d   1       0.628   4.045   2.122  1.00  0.00     0.166 HD
BRANCH   8  10
ATOM     10  C   UNL d   1      -0.538   5.604   3.770  0.00  0.00     0.020 A 
ATOM     11  S   UNL d   1      -1.662   6.449   4.741  0.00  0.00    -0.101 SA
ATOM     12  C   UNL d   1      -0.688   6.269   6.133  0.00  0.00     0.050 A 
ATOM     13  C   UNL d   1       0.501   5.634   5.854  0.00  0.00     0.008 A 
ATOM     14  C   UNL d   1       0.599   5.264   4.480  0.00  0.00     0.021 A 
ENDBRANCH   8  10
ENDBRANCH   1   7
BRANCH   2  15
ATOM     15  N   UNL d   1       1.161   2.492   0.321  0.00  0.00    -0.277 NA
ATOM     16  H   UNL d   1       0.924   1.530   0.075  0.00  0.00     0.128 HD
BRANCH  15  17
ATOM     17  C   UNL d   1       2.645   2.582   0.250  0.00  0.00     0.133 C 
BRANCH  17  18
ATOM     18  C   UNL d   1       3.355   3.929   0.342  0.00  0.00    -0.028 A 
ATOM     19  C   UNL d   1       4.759   4.009   0.505  0.00  0.00     0.013 A 
ATOM     20  C   UNL d   1       5.396   5.274   0.530  0.00  0.00     0.019 A 
ATOM     21  C   UNL d   1       4.673   6.460   0.427  0.00  0.00     0.001 A 
ATOM     22  C   UNL d   1       3.309   6.398   0.267  0.00  0.00     0.001 A 
ATOM     23  C   UNL d   1       2.689   5.157   0.198  0.00  0.00     0.010 A 
BRANCH  19  24
ATOM     24  S   UNL d   1       5.824   2.565   0.553  0.00  0.00    -0.090 SA
BRANCH  24  25
ATOM     25  C   UNL d   1       6.255   2.331   2.274  0.00  0.00     0.005 A 
ATOM     26  C   UNL d   1       5.632   2.994   3.336  0.00  0.00     0.020 A 
ATOM     27  C   UNL d   1       5.979   2.702   4.662  0.00  0.00     0.025 A 
ATOM     28  C   UNL d   1       6.950   1.743   4.936  0.00  0.00     0.034 A 
ATOM     29  C   UNL d   1       7.591   1.081   3.894  0.00  0.00     0.025 A 
ATOM     30 CL   UNL d   1       7.350   1.368   6.566  0.00  0.00    -0.084 Cl
ATOM     31  C   UNL d   1       7.246   1.378   2.570  0.00  0.00     0.020 A 
ENDBRANCH  24  25
ENDBRANCH  19  24
ENDBRANCH  17  18
ENDBRANCH  15  17
ENDBRANCH   2  15
TORSDOF 7
