REMARK  6 active torsions:
REMARK  status: ('A' for Active; 'I' for Inactive)
REMARK    1  A    between atoms: C_9  and  C_2 
REMARK    2  A    between atoms: S_19  and  C_3 
REMARK    3  A    between atoms: C_14  and  C_4 
REMARK    4  A    between atoms: C_15  and  C_10 
REMARK    5  A    between atoms: C_13  and  C_28 
REMARK    6  A    between atoms: C_28  and  S_19 
ROOT
ATOM      1  C   UNL d   1       0.558   0.037   0.052  0.00  0.00     0.093 A 
ATOM      2  C   UNL d   1      -0.088   1.285   0.029  0.00  0.00     0.073 A 
ATOM      3  C   UNL d   1      -0.234  -1.122   0.032  0.00  0.00     0.092 A 
ATOM      4  N   UNL d   1      -1.589  -1.077  -0.031  0.00  0.00    -0.348 N 
ATOM      5  HN  UNL d   1      -2.135  -1.938  -0.058  1.00  0.00     0.166 HD
ATOM      6  C   UNL d   1      -2.203   0.128  -0.058  0.00  0.00     0.051 A 
ATOM      7  C   UNL d   1      -1.492   1.315  -0.020  0.00  0.00     0.048 A 
ATOM      8  C   UNL d   1       1.989  -0.061   0.073  0.00  0.00     0.103 C 
ATOM      9  N   UNL d   1       3.149  -0.122   0.083  0.00  0.00    -0.191 NA
ENDROOT
BRANCH   2  10
ATOM     10  C   UNL d   1       0.615   2.620   0.024  0.00  0.00     0.419 C 
ATOM     11  F   UNL d   1       1.967   2.572   0.071  0.00  0.00    -0.166 F 
ATOM     12  F   UNL d   1       0.305   3.342  -1.089  0.00  0.00    -0.166 F 
ATOM     13  F   UNL d   1       0.232   3.390   1.080  0.00  0.00    -0.166 F 
ENDBRANCH   2  10
BRANCH   3  14
ATOM     14  S   UNL d   1       0.489  -2.768   0.070  0.00  0.00    -0.105 SA
BRANCH  14  15
ATOM     15  C   UNL d   1      -1.007  -3.818   0.120  0.00  0.00     0.138 C 
BRANCH  15  16
ATOM     16  C   UNL d   1      -0.669  -5.281   0.185  0.00  0.00     0.026 A 
ATOM     17  N   UNL d   1      -1.104  -6.125  -0.836  0.00  0.00    -0.352 N 
ATOM     18  C   UNL d   1      -0.768  -7.380  -0.588  0.00  0.00     0.091 A 
ATOM     19  HN  UNL d   1      -1.613  -5.816  -1.664  1.00  0.00     0.166 HD
ATOM     20  S   UNL d   1       0.092  -7.607   0.887  0.00  0.00    -0.081 SA
ATOM     21  C   UNL d   1      -0.003  -5.931   1.208  0.00  0.00     0.077 A 
BRANCH  18  22
ATOM     22  C   UNL d   1      -1.114  -8.456  -1.495  0.00  0.00     0.038 A 
ATOM     23  S   UNL d   1      -0.770 -10.114  -1.186  0.00  0.00    -0.099 SA
ATOM     24  C   UNL d   1      -1.464 -10.622  -2.662  0.00  0.00     0.050 A 
ATOM     25  C   UNL d   1      -1.958  -9.562  -3.386  0.00  0.00     0.008 A 
ATOM     26  C   UNL d   1      -1.761  -8.320  -2.713  0.00  0.00     0.022 A 
ENDBRANCH  18  22
ENDBRANCH  15  16
ENDBRANCH  14  15
ENDBRANCH   3  14
BRANCH   6  27
ATOM     27  C   UNL d   1      -3.658   0.079  -0.233  0.00  0.00     0.031 A 
ATOM     28  S   UNL d   1      -4.678   1.287   0.442  0.00  0.00    -0.100 SA
ATOM     29  C   UNL d   1      -6.076   0.610  -0.266  0.00  0.00     0.050 A 
ATOM     30  C   UNL d   1      -5.793  -0.540  -0.966  0.00  0.00     0.008 A 
ATOM     31  C   UNL d   1      -4.405  -0.859  -0.925  0.00  0.00     0.021 A 
ENDBRANCH   6  27
TORSDOF 6
