REMARK  5 active torsions:
REMARK  status: ('A' for Active; 'I' for Inactive)
REMARK    1  A    between atoms: C_15  and  C_3 
REMARK    2  A    between atoms: C_4  and  C_9 
REMARK    3  A    between atoms: O_20  and  C_8 
REMARK    4  A    between atoms: N_10  and  C_17 
REMARK    5  A    between atoms: C_19  and  C_15 
ROOT
ATOM      1  C   UNL d   1       5.533  -3.609   1.162  0.00  0.00     0.031 A 
ATOM      2  C   UNL d   1       2.867  -2.643   1.180  0.00  0.00    -0.057 A 
ATOM      3  C   UNL d   1       4.451  -4.489   1.083  0.00  0.00     0.030 A 
ATOM      4  C   UNL d   1       5.261  -2.239   1.258  0.00  0.00     0.030 A 
ATOM      5  C   UNL d   1       3.133  -4.015   1.085  0.00  0.00     0.009 A 
ATOM      6  C   UNL d   1       3.947  -1.762   1.288  0.00  0.00     0.009 A 
ENDROOT
BRANCH   1   7
ATOM      7  N   UNL d   1       6.830  -4.148   1.057  0.00  0.00    -0.365 N 
ATOM      8  C   UNL d   1       7.812  -3.559   1.663  0.00  0.00     0.102 C 
ATOM      9  HN  UNL d   1       6.995  -4.992   0.509  1.00  0.00     0.165 HD
BRANCH   8  10
ATOM     10  C   UNL d   1       9.201  -4.051   1.565  0.00  0.00     0.016 A 
ATOM     11  C   UNL d   1      10.227  -3.359   2.218  0.00  0.00     0.099 A 
ATOM     12  C   UNL d   1      11.543  -3.827   2.134  0.00  0.00     0.069 A 
ATOM     13 CL   UNL d   1      12.816  -2.987   2.940  0.00  0.00    -0.081 Cl
ATOM     14  C   UNL d   1      11.840  -4.975   1.403  0.00  0.00     0.050 A 
ATOM     15  C   UNL d   1      10.813  -5.655   0.750  0.00  0.00     0.036 A 
ATOM     16  C   UNL d   1       9.495  -5.201   0.825  0.00  0.00     0.039 A 
ATOM     17 CL   UNL d   1      11.179  -7.072  -0.154  0.00  0.00    -0.084 Cl
BRANCH  11  18
ATOM     18  O   UNL d   1       9.938  -2.227   2.934  0.00  0.00    -0.358 OA
ATOM     19  H   UNL d   1      10.769  -1.888   3.311  0.00  0.00     0.217 HD
ENDBRANCH  11  18
ENDBRANCH   8  10
ENDBRANCH   1   7
BRANCH   2  20
ATOM     20  C   UNL d   1       1.449  -2.109   1.157  0.00  0.00     0.057 C 
BRANCH  20  21
ATOM     21  C   UNL d   1       0.751  -1.989   2.514  0.00  0.00     0.117 A 
ATOM     22  C   UNL d   1       1.493  -1.034   3.467  0.00  0.00     0.231 A 
ATOM     23  N   UNL d   1       1.870  -1.769   4.584  0.00  0.00    -0.326 N 
ATOM     24  O   UNL d   1       1.705   0.157   3.291  0.00  0.00    -0.272 OA
ATOM     25  C   UNL d   1       1.424  -3.079   4.499  0.00  0.00     0.042 A 
ATOM     26  H   UNL d   1       2.390  -1.373   5.352  0.00  0.00     0.169 HD
ATOM     27  C   UNL d   1       1.609  -4.093   5.412  0.00  0.00     0.030 A 
ATOM     28  C   UNL d   1       0.717  -3.264   3.312  0.00  0.00    -0.018 A 
ATOM     29  C   UNL d   1       1.040  -5.333   5.112  0.00  0.00     0.002 A 
ATOM     30  C   UNL d   1       0.306  -5.525   3.926  0.00  0.00     0.001 A 
ATOM     31  C   UNL d   1       0.137  -4.483   3.012  0.00  0.00     0.010 A 
ENDBRANCH  20  21
ENDBRANCH   2  20
TORSDOF 5
