REMARK  6 active torsions:
REMARK  status: ('A' for Active; 'I' for Inactive)
REMARK    1  A    between atoms: C_17  and  C_3 
REMARK    2  A    between atoms: C_5  and  S_16 
REMARK    3  A    between atoms: C_21  and  C_8 
REMARK    4  A    between atoms: C_12  and  O_20 
REMARK    5  A    between atoms: S_16  and  C_21 
REMARK    6  A    between atoms: O_20  and  C_27 
ROOT
ATOM      1  C   UNL d   1       5.094  -3.976   0.252  0.00  0.00     0.084 A 
ATOM      2  C   UNL d   1       3.703  -3.804   0.172  0.00  0.00     0.091 A 
ATOM      3  N   UNL d   1       2.827  -4.841   0.147  0.00  0.00    -0.353 N 
ATOM      4  HN  UNL d   1       1.821  -4.684   0.086  1.00  0.00     0.166 HD
ATOM      5  C   UNL d   1       5.613  -5.277   0.314  0.00  0.00    -0.037 A 
ATOM      6  C   UNL d   1       5.978  -2.842   0.274  0.00  0.00     0.103 C 
ATOM      7  N   UNL d   1       6.719  -1.953   0.293  0.00  0.00    -0.191 NA
ATOM      8  C   UNL d   1       3.345  -6.095   0.207  0.00  0.00     0.006 A 
ATOM      9  C   UNL d   1       4.713  -6.346   0.290  0.00  0.00     0.033 A 
ATOM     10  C   UNL d   1       7.085  -5.574   0.409  0.00  0.00     0.050 C 
ATOM     11  C   UNL d   1       2.394  -7.258   0.192  0.00  0.00     0.068 C 
ENDROOT
BRANCH   2  12
ATOM     12  S   UNL d   1       3.049  -2.148   0.110  0.00  0.00    -0.103 SA
BRANCH  12  13
ATOM     13  C   UNL d   1       1.232  -2.345   0.018  0.00  0.00     0.167 C 
BRANCH  13  14
ATOM     14  C   UNL d   1       0.629  -0.978   0.005  0.00  0.00     0.158 A 
ATOM     15  N   UNL d   1       1.225   0.191   0.056  0.00  0.00    -0.322 N 
ATOM     16  C   UNL d   1       0.185   1.081   0.084  0.00  0.00     0.137 A 
ATOM     17  HN  UNL d   1       2.225   0.389   0.071  1.00  0.00     0.169 HD
ATOM     18  N   UNL d   1      -1.024   0.499   0.022  0.00  0.00    -0.242 N 
ATOM     19  O   UNL d   1      -0.732  -0.873  -0.030  0.00  0.00    -0.222 OA
ATOM     20  HN  UNL d   1      -1.940   0.948   0.014  1.00  0.00     0.196 HD
BRANCH  16  21
ATOM     21  C   UNL d   1       0.440   2.512   0.201  0.00  0.00     0.010 A 
ATOM     22  C   UNL d   1       1.765   2.976   0.245  0.00  0.00     0.018 A 
ATOM     23  C   UNL d   1       2.051   4.338   0.370  0.00  0.00     0.038 A 
ATOM     24  C   UNL d   1       1.016   5.266   0.415  0.00  0.00     0.078 A 
ATOM     25  C   UNL d   1      -0.307   4.809   0.411  0.00  0.00     0.038 A 
ATOM     26  C   UNL d   1      -0.596   3.444   0.297  0.00  0.00     0.018 A 
BRANCH  24  27
ATOM     27  O   UNL d   1       1.159   6.614   0.519  0.00  0.00    -0.255 OA
BRANCH  27  28
ATOM     28  C   UNL d   1       2.303   7.246  -0.043  0.00  0.00     0.530 C 
ATOM     29  F   UNL d   1       3.118   6.426  -0.739  0.00  0.00    -0.144 F 
ATOM     30  F   UNL d   1       1.885   8.216  -0.887  0.00  0.00    -0.144 F 
ATOM     31  F   UNL d   1       3.017   7.828   0.945  0.00  0.00    -0.144 F 
ENDBRANCH  27  28
ENDBRANCH  24  27
ENDBRANCH  16  21
ENDBRANCH  13  14
ENDBRANCH  12  13
ENDBRANCH   2  12
TORSDOF 6
