REMARK  5 active torsions:
REMARK  status: ('A' for Active; 'I' for Inactive)
REMARK    1  A    between atoms: N_3  and  S_1 
REMARK    2  A    between atoms: C_6  and  S_1 
REMARK    3  A    between atoms: C_2  and  N_5 
REMARK    4  A    between atoms: N_4  and  C_2 
REMARK    5  A    between atoms: N_5  and  C_12 
ROOT
ATOM      1  C   UNL d   1       0.348  -1.538   0.701  0.00  0.00     0.079 A 
ATOM      2  C   UNL d   1       0.525  -2.652  -0.125  0.00  0.00     0.027 A 
ATOM      3  C   UNL d   1      -0.110  -1.706   2.011  0.00  0.00     0.027 A 
ATOM      4  C   UNL d   1      -0.264  -4.111   1.645  0.00  0.00     0.034 A 
ATOM      5  C   UNL d   1      -0.400  -2.997   2.485  0.00  0.00     0.031 A 
ATOM      6  C   UNL d   1       0.203  -3.926   0.340  0.00  0.00     0.031 A 
ENDROOT
BRANCH   4   7
ATOM      7  N   UNL d   1      -0.500  -5.409   2.159  0.00  0.00    -0.333 N 
ATOM      8  H   UNL d   1      -0.589  -5.489   3.164  0.00  0.00     0.168 HD
BRANCH   7   9
ATOM      9  C   UNL d   1      -0.971  -6.513   1.456  0.00  0.00     0.174 C 
ATOM     10  S   UNL d   1      -2.112  -6.361   0.215  0.00  0.00    -0.041 SA
BRANCH   9  11
ATOM     11  N   UNL d   1      -0.482  -7.751   1.932  0.00  0.00    -0.354 N 
ATOM     12  C   UNL d   1      -0.830  -8.994   1.214  0.00  0.00     0.152 C 
ATOM     13  C   UNL d   1      -0.520 -10.233   2.002  0.00  0.00    -0.011 C 
ATOM     14  C   UNL d   1       0.125 -10.247   3.177  0.00  0.00    -0.027 C 
ATOM     15  C   UNL d   1       0.642  -8.983   3.785  0.00  0.00     0.047 C 
ATOM     16  C   UNL d   1       0.739  -7.852   2.755  0.00  0.00     0.129 C 
ENDBRANCH   9  11
ENDBRANCH   7   9
ENDBRANCH   4   7
BRANCH   1  17
ATOM     17  S   UNL d   1       0.873   0.062   0.100  0.00  0.00     0.260 S 
ATOM     18  O   UNL d   1       1.038   0.928   1.246  0.00  0.00    -0.200 OA
ATOM     19  O   UNL d   1       1.971  -0.181  -0.816  0.00  0.00    -0.200 OA
BRANCH  17  20
ATOM     20  N   UNL d   1      -0.463   0.623  -0.821  0.00  0.00    -0.307 N 
ATOM     21  C   UNL d   1      -1.587   1.190  -0.041  0.00  0.00     0.135 C 
ATOM     22  C   UNL d   1      -2.593   1.877  -0.965  0.00  0.00     0.021 C 
ATOM     23  C   UNL d   1      -3.068   0.939  -2.066  0.00  0.00     0.003 C 
ATOM     24  C   UNL d   1      -1.870   0.435  -2.860  0.00  0.00     0.021 C 
ATOM     25  C   UNL d   1      -0.873  -0.260  -1.943  0.00  0.00     0.135 C 
ENDBRANCH  17  20
ENDBRANCH   1  17
TORSDOF 5
