REMARK  4 active torsions:
REMARK  status: ('A' for Active; 'I' for Inactive)
REMARK    1  A    between atoms: C_2  and  C_1 
REMARK    2  A    between atoms: C_11  and  C_5 
REMARK    3  A    between atoms: N_16  and  N_20 
REMARK    4  A    between atoms: C_19  and  C_22 
ROOT
ATOM      1  C   UNL d   1      -1.523   2.255  -0.015  0.00  0.00     0.077 A 
ATOM      2  N   UNL d   1      -2.503   2.451   0.933  0.00  0.00    -0.333 N 
ATOM      3  HN  UNL d   1      -2.765   1.770   1.646  1.00  0.00     0.168 HD
ATOM      4  C   UNL d   1      -3.055   3.638   0.792  0.00  0.00     0.163 A 
ATOM      5  S   UNL d   1      -2.443   4.557  -0.533  0.00  0.00    -0.062 SA
ATOM      6  C   UNL d   1      -1.325   3.303  -0.886  0.00  0.00     0.085 A 
ATOM      7  N   UNL d   1      -4.010   4.152   1.614  0.00  0.00    -0.280 N 
ATOM      8  H   UNL d   1      -4.308   5.104   1.421  0.00  0.00     0.189 HD
ENDROOT
BRANCH   1   9
ATOM      9  C   UNL d   1      -0.771   0.977  -0.070  0.00  0.00     0.128 A 
ATOM     10  C   UNL d   1      -0.986  -0.109   0.743  0.00  0.00     0.074 A 
ATOM     11  C   UNL d   1      -0.092  -1.109   0.276  0.00  0.00     0.069 A 
ATOM     12  N   UNL d   1       0.632  -0.632  -0.749  0.00  0.00    -0.260 N 
ATOM     13  O   UNL d   1       0.218   0.670  -0.950  0.00  0.00    -0.235 OA
ATOM     14  HN  UNL d   1       1.347  -1.133  -1.275  1.00  0.00     0.195 HD
BRANCH  11  15
ATOM     15  C   UNL d   1       0.007  -2.498   0.731  0.00  0.00     0.014 A 
ATOM     16  C   UNL d   1       1.219  -3.207   0.826  0.00  0.00     0.048 A 
ATOM     17  C   UNL d   1       1.228  -4.553   1.217  0.00  0.00     0.048 A 
ATOM     18 CL   UNL d   1       2.768  -2.488   0.534  0.00  0.00    -0.083 Cl
ATOM     19  C   UNL d   1       0.035  -5.198   1.529  0.00  0.00     0.035 A 
ATOM     20  C   UNL d   1      -1.172  -4.511   1.466  0.00  0.00     0.025 A 
ATOM     21 CL   UNL d   1       0.051  -6.852   2.001  0.00  0.00    -0.084 Cl
ATOM     22  C   UNL d   1      -1.185  -3.171   1.068  0.00  0.00     0.017 A 
ENDBRANCH  11  15
ENDBRANCH   1   9
BRANCH   7  23
ATOM     23  N   UNL d   1      -4.144   3.663   2.876  0.00  0.00    -0.309 N 
ATOM     24  C   UNL d   1      -5.027   4.220   3.639  0.00  0.00     0.120 C 
ATOM     25  HN  UNL d   1      -3.572   2.886   3.207  1.00  0.00     0.186 HD
BRANCH  24  26
ATOM     26  C   UNL d   1      -5.151   3.791   5.052  0.00  0.00     0.002 A 
ATOM     27  C   UNL d   1      -6.125   4.312   5.908  0.00  0.00     0.045 A 
ATOM     28 CL   UNL d   1      -7.311   5.457   5.392  0.00  0.00    -0.083 Cl
ATOM     29  C   UNL d   1      -6.164   3.902   7.246  0.00  0.00     0.024 A 
ATOM     30  C   UNL d   1      -5.237   2.977   7.731  0.00  0.00     0.002 A 
ATOM     31  C   UNL d   1      -4.269   2.451   6.880  0.00  0.00     0.001 A 
ATOM     32  C   UNL d   1      -4.228   2.853   5.546  0.00  0.00     0.014 A 
ENDBRANCH  24  26
ENDBRANCH   7  23
TORSDOF 4
