REMARK  4 active torsions:
REMARK  status: ('A' for Active; 'I' for Inactive)
REMARK    1  A    between atoms: O_12  and  C_1 
REMARK    2  A    between atoms: N_4  and  C_6 
REMARK    3  A    between atoms: C_9  and  O_12 
REMARK    4  A    between atoms: N_13  and  C_14 
ROOT
ATOM      1  C   UNL d   1       4.269   2.251   1.029  0.00  0.00     0.136 A 
ATOM      2  C   UNL d   1       4.391   1.380  -0.058  0.00  0.00     0.113 A 
ATOM      3  C   UNL d   1       5.303   1.703  -1.078  0.00  0.00     0.069 A 
ATOM      4  C   UNL d   1       6.056   2.884  -1.085  0.00  0.00     0.033 A 
ATOM      5  C   UNL d   1       5.012   3.444   1.050  0.00  0.00     0.041 A 
ATOM      6  C   UNL d   1       5.886   3.749  -0.000  0.00  0.00     0.032 A 
ENDROOT
BRANCH   2   7
ATOM      7  O   UNL d   1       3.718   0.177  -0.105  0.00  0.00    -0.285 OA
BRANCH   7   8
ATOM      8  C   UNL d   1       3.312  -0.347  -1.268  0.00  0.00     0.193 A 
ATOM      9  N   UNL d   1       2.952   0.374  -2.305  0.00  0.00    -0.328 N 
ATOM     10  C   UNL d   1       2.599  -0.449  -3.369  0.00  0.00     0.074 A 
ATOM     11  HN  UNL d   1       2.934   1.394  -2.328  1.00  0.00     0.168 HD
ATOM     12  C   UNL d   1       2.149  -0.077  -4.656  0.00  0.00     0.063 A 
ATOM     13  C   UNL d   1       2.710  -1.819  -3.105  0.00  0.00     0.039 A 
ATOM     14  C   UNL d   1       1.813  -1.020  -5.626  0.00  0.00     0.050 A 
ATOM     15 CL   UNL d   1       2.032   1.602  -4.964  0.00  0.00    -0.082 Cl
ATOM     16  C   UNL d   1       1.940  -2.367  -5.322  0.00  0.00     0.037 A 
ATOM     17  C   UNL d   1       2.396  -2.795  -4.071  0.00  0.00     0.045 A 
ATOM     18 CL   UNL d   1       1.520  -3.544  -6.508  0.00  0.00    -0.084 Cl
ATOM     19  S   UNL d   1       3.250  -2.042  -1.484  0.00  0.00    -0.044 SA
ENDBRANCH   7   8
ENDBRANCH   2   7
BRANCH   1  20
ATOM     20  N   UNL d   1       3.416   1.953   2.187  0.00  0.00    -0.113 N 
ATOM     21  O   UNL d   1       2.829   0.864   2.233  0.00  0.00    -0.532 OA
ATOM     22  O   UNL d   1       3.330   2.815   3.074  0.00  0.00    -0.532 OA
ENDBRANCH   1  20
BRANCH   4  23
ATOM     23  N   UNL d   1       6.937   3.142  -2.116  0.00  0.00    -0.381 N 
ATOM     24  C   UNL d   1       8.176   3.888  -1.917  0.00  0.00     0.123 C 
ATOM     25  C   UNL d   1       8.121   5.198  -2.697  0.00  0.00     0.020 C 
ATOM     26  C   UNL d   1       7.790   4.948  -4.168  0.00  0.00     0.003 C 
ATOM     27  C   UNL d   1       6.509   4.128  -4.312  0.00  0.00     0.020 C 
ATOM     28  C   UNL d   1       6.581   2.833  -3.505  0.00  0.00     0.123 C 
ENDBRANCH   4  23
TORSDOF 4
