REMARK  8 active torsions:
REMARK  status: ('A' for Active; 'I' for Inactive)
REMARK    1  A    between atoms: C_7  and  S_1 
REMARK    2  A    between atoms: C_10  and  S_1 
REMARK    3  A    between atoms: C_2  and  C_3 
REMARK       I    between atoms: C_3  and  N_5 
REMARK    4  A    between atoms: C_4  and  C_16 
REMARK       I    between atoms: N_6  and  C_4 
REMARK    5  A    between atoms: N_5  and  N_6 
REMARK    6  A    between atoms: C_18  and  C_7 
REMARK    7  A    between atoms: S_15  and  C_18 
REMARK    8  A    between atoms: C_16  and  S_15 
ROOT
ATOM      1  C   UNL d   1       0.385  -0.774  -6.829  0.00  0.00     0.245 C 
ATOM      2  N   UNL d   1      -0.810  -0.353  -7.372  0.00  0.00    -0.267 N 
ATOM      3  O   UNL d   1       1.026  -1.719  -7.293  0.00  0.00    -0.271 OA
ATOM      4  H   UNL d   1      -1.356   0.442  -7.039  0.00  0.00     0.190 HD
ENDROOT
BRANCH   1   5
ATOM      5  C   UNL d   1       0.844  -0.004  -5.611  0.00  0.00     0.178 C 
BRANCH   5   6
ATOM      6  S   UNL d   1       0.258  -0.781  -4.073  0.00  0.00    -0.159 SA
BRANCH   6   7
ATOM      7  C   UNL d   1       1.156  -2.380  -4.151  0.00  0.00     0.089 C 
BRANCH   7   8
ATOM      8  C   UNL d   1       0.951  -3.104  -2.831  0.00  0.00     0.156 C 
BRANCH   8   9
ATOM      9  S   UNL d   1       1.700  -4.717  -2.861  0.00  0.00     0.176 S 
ATOM     10  O   UNL d   1       3.135  -4.554  -2.997  0.00  0.00    -0.223 OA
ATOM     11  O   UNL d   1       0.954  -5.558  -3.778  0.00  0.00    -0.223 OA
BRANCH   9  12
ATOM     12  C   UNL d   1       1.386  -5.321  -1.216  0.00  0.00     0.059 A 
ATOM     13  C   UNL d   1       0.187  -5.989  -0.944  0.00  0.00     0.023 A 
ATOM     14  C   UNL d   1      -0.060  -6.452   0.349  0.00  0.00     0.002 A 
ATOM     15  C   UNL d   1       0.887  -6.256   1.356  0.00  0.00     0.000 A 
ATOM     16  C   UNL d   1       2.089  -5.605   1.073  0.00  0.00     0.002 A 
ATOM     17  C   UNL d   1       2.345  -5.139  -0.217  0.00  0.00     0.023 A 
ENDBRANCH   9  12
ENDBRANCH   8   9
ENDBRANCH   7   8
ENDBRANCH   6   7
ENDBRANCH   5   6
ENDBRANCH   1   5
BRANCH   2  18
ATOM     18  N   UNL d   1      -1.270  -1.006  -8.515  0.00  0.00    -0.263 N 
ATOM     19  C   UNL d   1      -2.250  -0.425  -9.287  0.00  0.00     0.271 C 
ATOM     20  O   UNL d   1      -2.772   0.648  -8.991  0.00  0.00    -0.266 OA
ATOM     21  H   UNL d   1      -0.793  -1.873  -8.765  0.00  0.00     0.190 HD
BRANCH  19  22
ATOM     22  C   UNL d   1      -2.611  -1.123 -10.557  0.00  0.00     0.055 A 
ATOM     23  C   UNL d   1      -2.522  -2.507 -10.770  0.00  0.00     0.049 A 
ATOM     24 CL   UNL d   1      -2.067  -3.645  -9.550  0.00  0.00    -0.083 Cl
ATOM     25  C   UNL d   1      -2.846  -3.047 -12.023  0.00  0.00     0.025 A 
ATOM     26  C   UNL d   1      -3.273  -2.221 -13.062  0.00  0.00     0.002 A 
ATOM     27  C   UNL d   1      -3.388  -0.851 -12.853  0.00  0.00     0.001 A 
ATOM     28  C   UNL d   1      -3.063  -0.305 -11.609  0.00  0.00     0.019 A 
ENDBRANCH  19  22
ENDBRANCH   2  18
TORSDOF 8
