REMARK  4 active torsions:
REMARK  status: ('A' for Active; 'I' for Inactive)
REMARK    1  A    between atoms: C_2  and  C_1 
REMARK       I    between atoms: N_8  and  C_2 
REMARK    2  A    between atoms: C_15  and  C_5 
REMARK    3  A    between atoms: C_6  and  C_10 
REMARK    4  A    between atoms: C_11  and  N_8 
ROOT
ATOM      1  C   UNL d   1       0.157  -2.693  -0.022  0.00  0.00     0.261 C 
ATOM      2  N   UNL d   1       1.433  -3.198   0.184  0.00  0.00    -0.321 N 
ATOM      3  O   UNL d   1      -0.831  -3.388  -0.220  0.00  0.00    -0.267 OA
ATOM      4  H   UNL d   1       2.040  -2.596   0.722  0.00  0.00     0.169 HD
ENDROOT
BRANCH   1   5
ATOM      5  C   UNL d   1       0.044  -1.248   0.142  0.00  0.00     0.093 A 
ATOM      6  C   UNL d   1      -1.125  -0.470   0.470  0.00  0.00     0.083 A 
ATOM      7  N   UNL d   1      -0.822   0.840   0.475  0.00  0.00    -0.259 N 
ATOM      8  O   UNL d   1       0.511   0.941   0.190  0.00  0.00    -0.241 OA
ATOM      9  HN  UNL d   1      -1.464   1.611   0.657  1.00  0.00     0.195 HD
ATOM     10  C   UNL d   1       1.038  -0.292  -0.003  0.00  0.00     0.090 A 
ATOM     11  C   UNL d   1       2.482  -0.296  -0.317  0.00  0.00     0.080 C 
BRANCH   6  12
ATOM     12  C   UNL d   1      -2.489  -0.882   0.825  0.00  0.00    -0.006 A 
ATOM     13  C   UNL d   1      -3.582  -0.083   0.451  0.00  0.00     0.014 A 
ATOM     14  C   UNL d   1      -4.883  -0.419   0.837  0.00  0.00     0.001 A 
ATOM     15  C   UNL d   1      -5.110  -1.563   1.597  0.00  0.00     0.000 A 
ATOM     16  C   UNL d   1      -4.037  -2.366   1.976  0.00  0.00     0.001 A 
ATOM     17  C   UNL d   1      -2.735  -2.022   1.601  0.00  0.00     0.014 A 
ENDBRANCH   6  12
ENDBRANCH   1   5
BRANCH   2  18
ATOM     18  C   UNL d   1       1.815  -4.563   0.147  0.00  0.00     0.057 A 
ATOM     19  C   UNL d   1       1.297  -5.564  -0.695  0.00  0.00     0.061 A 
ATOM     20  C   UNL d   1       1.702  -6.899  -0.532  0.00  0.00     0.042 A 
ATOM     21 CL   UNL d   1       0.320  -5.242  -2.085  0.00  0.00    -0.082 Cl
ATOM     22  C   UNL d   1       2.659  -7.258   0.426  0.00  0.00     0.049 A 
ATOM     23  C   UNL d   1       3.243  -6.246   1.194  0.00  0.00     0.018 A 
ATOM     24  C   UNL d   1       2.829  -4.918   1.051  0.00  0.00     0.032 A 
BRANCH  22  25
ATOM     25  C   UNL d   1       3.086  -8.694   0.616  0.00  0.00     0.417 C 
ATOM     26  F   UNL d   1       2.344  -9.584  -0.097  0.00  0.00    -0.166 F 
ATOM     27  F   UNL d   1       4.380  -8.899   0.246  0.00  0.00    -0.166 F 
ATOM     28  F   UNL d   1       3.002  -9.091   1.915  0.00  0.00    -0.166 F 
ENDBRANCH  22  25
ENDBRANCH   2  18
TORSDOF 4
