REMARK  8 active torsions:
REMARK  status: ('A' for Active; 'I' for Inactive)
REMARK    1  A    between atoms: N_8  and  S_1 
REMARK    2  A    between atoms: C_10  and  S_1 
REMARK    3  A    between atoms: C_7  and  C_2 
REMARK    4  A    between atoms: C_4  and  C_11 
REMARK    5  A    between atoms: C_9  and  C_5 
REMARK    6  A    between atoms: C_14  and  N_8 
REMARK    7  A    between atoms: O_24  and  C_9 
REMARK    8  A    between atoms: C_23  and  C_14 
ROOT
ATOM      1  C   UNL d   1       0.451   0.253   1.639  0.00  0.00     0.079 A 
ATOM      2  C   UNL d   1      -0.415   0.342   4.324  0.00  0.00    -0.025 A 
ATOM      3  C   UNL d   1       0.181  -0.928   2.328  0.00  0.00     0.026 A 
ATOM      4  C   UNL d   1       0.310   1.480   2.283  0.00  0.00     0.026 A 
ATOM      5  C   UNL d   1      -0.216  -0.879   3.668  0.00  0.00     0.014 A 
ATOM      6  C   UNL d   1      -0.152   1.521   3.603  0.00  0.00     0.014 A 
ENDROOT
BRANCH   1   7
ATOM      7  S   UNL d   1       1.125   0.169  -0.009  0.00  0.00     0.259 S 
ATOM      8  O   UNL d   1       2.382   0.871   0.037  0.00  0.00    -0.201 OA
ATOM      9  O   UNL d   1       1.037  -1.220  -0.417  0.00  0.00    -0.201 OA
BRANCH   7  10
ATOM     10  N   UNL d   1      -0.013   0.989  -0.950  0.00  0.00    -0.307 N 
ATOM     11  H   UNL d   1      -0.953   0.653  -0.750  0.00  0.00     0.173 HD
BRANCH  10  12
ATOM     12  C   UNL d   1       0.086   2.452  -1.118  0.00  0.00     0.122 C 
ATOM     13  C   UNL d   1      -1.125   2.930  -1.933  0.00  0.00     0.038 C 
BRANCH  12  14
ATOM     14  C   UNL d   1       1.353   2.916  -1.805  0.00  0.00    -0.035 A 
ATOM     15  C   UNL d   1       1.703   2.449  -3.081  0.00  0.00     0.009 A 
ATOM     16  C   UNL d   1       2.843   2.931  -3.724  0.00  0.00     0.001 A 
ATOM     17  C   UNL d   1       3.660   3.865  -3.090  0.00  0.00     0.000 A 
ATOM     18  C   UNL d   1       3.350   4.302  -1.805  0.00  0.00     0.001 A 
ATOM     19  C   UNL d   1       2.203   3.832  -1.165  0.00  0.00     0.009 A 
ENDBRANCH  12  14
ENDBRANCH  10  12
ENDBRANCH   7  10
ENDBRANCH   1   7
BRANCH   2  20
ATOM     20  C   UNL d   1      -0.812   0.441   5.741  0.00  0.00    -0.002 A 
ATOM     21  C   UNL d   1      -1.656  -0.443   6.412  0.00  0.00     0.100 A 
ATOM     22  S   UNL d   1      -1.914   0.053   8.044  0.00  0.00    -0.079 SA
ATOM     23  C   UNL d   1      -0.945   1.442   7.884  0.00  0.00     0.081 A 
ATOM     24  C   UNL d   1      -0.398   1.509   6.620  0.00  0.00     0.038 A 
BRANCH  21  25
ATOM     25  C   UNL d   1      -2.354  -1.690   5.953  0.00  0.00     0.424 C 
ATOM     26  F   UNL d   1      -3.263  -2.167   6.845  0.00  0.00    -0.166 F 
ATOM     27  F   UNL d   1      -3.030  -1.494   4.791  0.00  0.00    -0.166 F 
ATOM     28  F   UNL d   1      -1.480  -2.709   5.738  0.00  0.00    -0.166 F 
ENDBRANCH  21  25
BRANCH  23  29
ATOM     29  C   UNL d   1      -0.797   2.353   9.005  0.00  0.00     0.299 C 
ATOM     30  O   UNL d   1      -1.315   2.240  10.109  0.00  0.00    -0.259 OA
BRANCH  29  31
ATOM     31  O   UNL d   1       0.014   3.393   8.646  0.00  0.00    -0.322 OA
ATOM     32  C   UNL d   1       0.226   4.351   9.683  0.00  0.00     0.213 C 
ENDBRANCH  29  31
ENDBRANCH  23  29
ENDBRANCH   2  20
TORSDOF 8
