REMARK  5 active torsions:
REMARK  status: ('A' for Active; 'I' for Inactive)
REMARK    1  A    between atoms: N_5  and  S_1 
REMARK    2  A    between atoms: C_7  and  S_1 
REMARK    3  A    between atoms: S_2  and  N_3 
REMARK    4  A    between atoms: C_8  and  S_2 
REMARK    5  A    between atoms: N_3  and  S_6 
ROOT
ATOM      1  N   UNL d   1       0.485   0.822   1.140  0.00  0.00    -0.305 N 
ATOM      2  S   UNL d   1      -0.743   3.649   0.225  0.00  0.00    -0.114 SA
ATOM      3  C   UNL d   1      -0.992   0.932   1.065  0.00  0.00     0.146 C 
ATOM      4  C   UNL d   1       1.089   2.054   1.702  0.00  0.00     0.146 C 
ATOM      5  C   UNL d   1       0.940   3.246   0.769  0.00  0.00     0.106 C 
ATOM      6  C   UNL d   1      -1.444   1.978   0.049  0.00  0.00     0.106 C 
ENDROOT
BRANCH   2   7
ATOM      7  N   UNL d   1      -1.398   4.091   1.624  0.00  0.00    -0.264 N 
ATOM      8  HN  UNL d   1      -0.883   4.075   2.504  1.00  0.00     0.186 HD
BRANCH   7   9
ATOM      9  S   UNL d   1      -3.057   4.600   1.515  0.00  0.00     0.267 S 
ATOM     10  O   UNL d   1      -3.297   5.323   0.282  0.00  0.00    -0.200 OA
ATOM     11  O   UNL d   1      -3.894   3.476   1.894  0.00  0.00    -0.200 OA
BRANCH   9  12
ATOM     12  C   UNL d   1      -3.140   5.795   2.834  0.00  0.00     0.080 A 
ATOM     13  C   UNL d   1      -2.902   7.147   2.557  0.00  0.00     0.027 A 
ATOM     14  C   UNL d   1      -3.047   8.095   3.574  0.00  0.00     0.025 A 
ATOM     15  C   UNL d   1      -3.438   7.688   4.850  0.00  0.00     0.034 A 
ATOM     16  C   UNL d   1      -3.689   6.342   5.120  0.00  0.00     0.025 A 
ATOM     17 CL   UNL d   1      -3.627   8.857   6.098  0.00  0.00    -0.084 Cl
ATOM     18  C   UNL d   1      -3.547   5.389   4.109  0.00  0.00     0.027 A 
ENDBRANCH   9  12
ENDBRANCH   7   9
ENDBRANCH   2   7
BRANCH   1  19
ATOM     19  S   UNL d   1       1.307   0.051  -0.135  0.00  0.00     0.260 S 
ATOM     20  O   UNL d   1       2.646   0.599  -0.209  0.00  0.00    -0.200 OA
ATOM     21  O   UNL d   1       0.451   0.019  -1.299  0.00  0.00    -0.200 OA
BRANCH  19  22
ATOM     22  C   UNL d   1       1.476  -1.639   0.421  0.00  0.00     0.079 A 
ATOM     23  C   UNL d   1       0.503  -2.586   0.078  0.00  0.00     0.027 A 
ATOM     24  C   UNL d   1       0.740  -3.943   0.323  0.00  0.00     0.025 A 
ATOM     25  C   UNL d   1       1.950  -4.346   0.891  0.00  0.00     0.034 A 
ATOM     26  C   UNL d   1       2.916  -3.403   1.242  0.00  0.00     0.025 A 
ATOM     27 CL   UNL d   1       2.271  -6.021   1.121  0.00  0.00    -0.084 Cl
ATOM     28  C   UNL d   1       2.680  -2.046   1.008  0.00  0.00     0.027 A 
ENDBRANCH  19  22
ENDBRANCH   1  19
TORSDOF 5
