REMARK  4 active torsions:
REMARK  status: ('A' for Active; 'I' for Inactive)
REMARK    1  A    between atoms: N_5  and  C_2 
REMARK    2  A    between atoms: S_16  and  C_3 
REMARK       I    between atoms: C_6  and  N_5 
REMARK       I    between atoms: N_12  and  C_6 
REMARK    3  A    between atoms: C_8  and  C_11 
REMARK    4  A    between atoms: C_15  and  N_12 
ROOT
ATOM      1  C   UNL d   1      -1.179  -0.600  -0.342  0.00  0.00     0.071 A 
ATOM      2  C   UNL d   1       1.049  -1.308  -0.321  0.00  0.00     0.080 A 
ATOM      3  C   UNL d   1      -0.530   0.568   0.014  0.00  0.00     0.063 A 
ATOM      4  S   UNL d   1       1.182   0.341   0.023  0.00  0.00    -0.064 SA
ATOM      5  C   UNL d   1      -0.261  -1.683  -0.514  0.00  0.00     0.062 A 
ATOM      6  C   UNL d   1      -2.592  -0.754  -0.502  0.00  0.00     0.101 C 
ATOM      7  N   UNL d   1      -3.741  -0.905  -0.612  0.00  0.00    -0.191 NA
ENDROOT
BRANCH   3   8
ATOM      8  S   UNL d   1      -1.186   2.163   0.388  0.00  0.00    -0.126 SA
ATOM      9  C   UNL d   1      -2.650   1.799   1.387  0.00  0.00     0.096 C 
ENDBRANCH   3   8
BRANCH   2  10
ATOM     10  N   UNL d   1       2.117  -2.176  -0.364  0.00  0.00    -0.303 N 
ATOM     11  C   UNL d   1       3.463  -2.046  -0.206  0.00  0.00     0.325 C 
ATOM     12  N   UNL d   1       4.013  -0.801  -0.164  0.00  0.00    -0.309 N 
ATOM     13  O   UNL d   1       4.092  -3.103  -0.139  0.00  0.00    -0.247 OA
ATOM     14  H   UNL d   1       3.406  -0.041  -0.438  0.00  0.00     0.170 HD
ATOM     15  H   UNL d   1       1.883  -3.159  -0.448  0.00  0.00     0.171 HD
BRANCH  12  16
ATOM     16  C   UNL d   1       5.350  -0.475   0.161  0.00  0.00     0.037 A 
ATOM     17  C   UNL d   1       6.257  -1.398   0.695  0.00  0.00     0.045 A 
ATOM     18  C   UNL d   1       7.535  -1.003   1.128  0.00  0.00     0.050 A 
ATOM     19  C   UNL d   1       7.922   0.334   0.968  0.00  0.00     0.016 A 
ATOM     20  C   UNL d   1       7.043   1.254   0.397  0.00  0.00     0.003 A 
ATOM     21  C   UNL d   1       5.761   0.853   0.007  0.00  0.00     0.029 A 
BRANCH  18  22
ATOM     22  C   UNL d   1       8.455  -1.986   1.808  0.00  0.00     0.417 C 
ATOM     23  F   UNL d   1       7.930  -3.236   1.942  0.00  0.00    -0.166 F 
ATOM     24  F   UNL d   1       9.637  -2.146   1.151  0.00  0.00    -0.166 F 
ATOM     25  F   UNL d   1       8.784  -1.590   3.071  0.00  0.00    -0.166 F 
ENDBRANCH  18  22
ENDBRANCH  12  16
ENDBRANCH   2  10
TORSDOF 4
