REMARK  2 active torsions:
REMARK  status: ('A' for Active; 'I' for Inactive)
REMARK    1  A    between atoms: C_3  and  C_1 
REMARK    2  A    between atoms: O_7  and  C_3 
ROOT
ATOM      1  C   UNL d   1       0.422   0.831   0.005  0.00  0.00     0.076 A 
ATOM      2  C   UNL d   1       0.588  -0.554  -0.001  0.00  0.00     0.139 A 
ATOM      3  C   UNL d   1      -0.509  -1.423  -0.006  0.00  0.00    -0.022 A 
ATOM      4  F   UNL d   1       1.826  -1.077  -0.003  0.00  0.00    -0.204 F 
ATOM      5  C   UNL d   1      -0.878   1.358   0.006  0.00  0.00     0.021 A 
ATOM      6  C   UNL d   1      -1.984   0.504   0.002  0.00  0.00     0.002 A 
ATOM      7  C   UNL d   1      -1.800  -0.879  -0.004  0.00  0.00     0.010 A 
ATOM      8  C   UNL d   1      -0.317  -2.909  -0.012  0.00  0.00     0.051 C 
ENDROOT
BRANCH   1   9
ATOM      9  C   UNL d   1       1.569   1.776   0.011  0.00  0.00     0.179 C 
ATOM     10  O   UNL d   1       1.407   2.987   0.016  0.00  0.00    -0.646 OA
BRANCH   9  11
ATOM     11  O   UNL d   1       2.797   1.218   0.011  0.00  0.00    -0.773 OA
ATOM     12  H   UNL d   1       2.819   0.239   0.007  0.00  0.00     0.167 HD
ENDBRANCH   9  11
ENDBRANCH   1   9
TORSDOF 2
