REMARK  4 active torsions:
REMARK  status: ('A' for Active; 'I' for Inactive)
REMARK       I    between atoms: N_5  and  C_1 
REMARK    1  A    between atoms: O_10  and  C_1 
REMARK    2  A    between atoms: N_2  and  O_10 
REMARK    3  A    between atoms: C_13  and  N_5 
REMARK    4  A    between atoms: C_14  and  C_12 
ROOT
ATOM      1  N   UNL d   1       3.050   0.882  -0.733  0.00  0.00    -0.267 N 
ATOM      2  HN  UNL d   1       2.523   1.704  -1.029  1.00  0.00     0.194 HD
ATOM      3  C   UNL d   1       4.284   0.598  -1.024  0.00  0.00     0.126 C 
ENDROOT
BRANCH   1   4
ATOM      4  O   UNL d   1       2.585  -0.182   0.082  0.00  0.00    -0.181 OA
BRANCH   4   5
ATOM      5  C   UNL d   1       1.315   0.002   0.593  0.00  0.00     0.387 C 
ATOM      6  N   UNL d   1       0.732   1.194   0.234  0.00  0.00    -0.301 N 
ATOM      7  H   UNL d   1       1.320   1.728  -0.396  0.00  0.00     0.171 HD
ATOM      8  O   UNL d   1       0.819  -0.870   1.299  0.00  0.00    -0.236 OA
BRANCH   6   9
ATOM      9  C   UNL d   1      -0.513   1.704   0.642  0.00  0.00     0.037 A 
ATOM     10  C   UNL d   1      -1.341   1.066   1.571  0.00  0.00     0.031 A 
ATOM     11  C   UNL d   1      -2.561   1.635   1.955  0.00  0.00     0.026 A 
ATOM     12  C   UNL d   1      -2.962   2.847   1.405  0.00  0.00     0.034 A 
ATOM     13  C   UNL d   1      -2.153   3.494   0.475  0.00  0.00     0.026 A 
ATOM     14 CL   UNL d   1      -4.459   3.549   1.879  0.00  0.00    -0.084 Cl
ATOM     15  C   UNL d   1      -0.929   2.925   0.097  0.00  0.00     0.031 A 
ENDBRANCH   6   9
ENDBRANCH   4   5
ENDBRANCH   1   4
BRANCH   3  16
ATOM     16  C   UNL d   1       5.147   1.417  -1.893  0.00  0.00    -0.018 A 
ATOM     17  C   UNL d   1       6.460   0.971  -2.108  0.00  0.00     0.022 A 
ATOM     18  C   UNL d   1       7.270   1.710  -2.951  0.00  0.00    -0.022 A 
ATOM     19  C   UNL d   1       8.647   1.434  -3.418  0.00  0.00     0.068 C 
ATOM     20  C   UNL d   1       6.794   2.854  -3.569  0.00  0.00     0.075 A 
ATOM     21  C   UNL d   1       8.951   2.776  -4.088  0.00  0.00     0.180 C 
ATOM     22  O   UNL d   1       7.708   3.450  -4.399  0.00  0.00    -0.350 OA
ATOM     23  C   UNL d   1       5.505   3.310  -3.374  0.00  0.00     0.038 A 
ATOM     24  C   UNL d   1       4.670   2.582  -2.518  0.00  0.00     0.015 A 
ENDBRANCH   3  16
TORSDOF 4
