REMARK  6 active torsions:
REMARK  status: ('A' for Active; 'I' for Inactive)
REMARK    1  A    between atoms: N_6  and  C_1 
REMARK    2  A    between atoms: C_2  and  C_8 
REMARK       I    between atoms: C_3  and  N_6 
REMARK       I    between atoms: N_10  and  C_3 
REMARK    3  A    between atoms: N_7  and  C_4 
REMARK    4  A    between atoms: C_5  and  O_12 
REMARK    5  A    between atoms: C_22  and  N_10 
REMARK    6  A    between atoms: O_12  and  C_23 
ROOT
ATOM      1  C   UNL d   1       4.370  -1.096   0.359  0.00  0.00     0.325 C 
ATOM      2  N   UNL d   1       3.539  -0.478  -0.536  0.00  0.00    -0.307 N 
ATOM      3  N   UNL d   1       5.471  -1.751  -0.120  0.00  0.00    -0.309 N 
ATOM      4  O   UNL d   1       4.238  -1.035   1.580  0.00  0.00    -0.247 OA
ATOM      5  H   UNL d   1       4.024   0.252  -1.038  0.00  0.00     0.170 HD
ATOM      6  H   UNL d   1       6.018  -2.078   0.668  0.00  0.00     0.170 HD
ENDROOT
BRANCH   2   7
ATOM      7  C   UNL d   1       2.186  -0.218  -0.179  0.00  0.00     0.063 A 
ATOM      8  C   UNL d   1       1.341  -1.262   0.282  0.00  0.00     0.057 A 
ATOM      9  C   UNL d   1       0.025  -0.929   0.640  0.00  0.00     0.032 A 
ATOM     10  C   UNL d   1      -0.439   0.387   0.563  0.00  0.00     0.018 A 
ATOM     11  C   UNL d   1       0.399   1.415   0.112  0.00  0.00     0.050 A 
ATOM     12  C   UNL d   1       1.707   1.095  -0.293  0.00  0.00     0.048 A 
BRANCH   8  13
ATOM     13  N   UNL d   1       1.801  -2.587   0.344  0.00  0.00    -0.375 N 
ATOM     14  C   UNL d   1       1.883  -3.279  -0.956  0.00  0.00     0.149 C 
ATOM     15  C   UNL d   1       2.741  -4.546  -0.790  0.00  0.00     0.187 C 
ATOM     16  O   UNL d   1       2.207  -5.412   0.230  0.00  0.00    -0.388 OA
ATOM     17  C   UNL d   1       2.167  -4.718   1.491  0.00  0.00     0.187 C 
ATOM     18  C   UNL d   1       1.285  -3.461   1.408  0.00  0.00     0.149 C 
ENDBRANCH   8  13
BRANCH  11  19
ATOM     19  C   UNL d   1      -0.111   2.834   0.097  0.00  0.00     0.417 C 
ATOM     20  F   UNL d   1       0.848   3.756  -0.194  0.00  0.00    -0.166 F 
ATOM     21  F   UNL d   1      -1.099   3.019  -0.822  0.00  0.00    -0.166 F 
ATOM     22  F   UNL d   1      -0.642   3.213   1.294  0.00  0.00    -0.166 F 
ENDBRANCH  11  19
ENDBRANCH   2   7
BRANCH   3  23
ATOM     23  C   UNL d   1       5.765  -2.352  -1.358  0.00  0.00     0.036 A 
ATOM     24  C   UNL d   1       5.048  -2.170  -2.537  0.00  0.00     0.032 A 
ATOM     25  C   UNL d   1       5.325  -2.961  -3.661  0.00  0.00     0.039 A 
ATOM     26  C   UNL d   1       6.313  -3.946  -3.625  0.00  0.00     0.078 A 
ATOM     27  C   UNL d   1       7.098  -4.070  -2.485  0.00  0.00     0.039 A 
ATOM     28  C   UNL d   1       6.819  -3.281  -1.361  0.00  0.00     0.032 A 
BRANCH  26  29
ATOM     29  O   UNL d   1       6.428  -4.688  -4.761  0.00  0.00    -0.255 OA
BRANCH  29  30
ATOM     30  C   UNL d   1       6.853  -6.041  -4.651  0.00  0.00     0.530 C 
ATOM     31  F   UNL d   1       6.733  -6.550  -3.407  0.00  0.00    -0.144 F 
ATOM     32  F   UNL d   1       6.091  -6.794  -5.478  0.00  0.00    -0.144 F 
ATOM     33  F   UNL d   1       8.138  -6.147  -5.049  0.00  0.00    -0.144 F 
ENDBRANCH  29  30
ENDBRANCH  26  29
ENDBRANCH   3  23
TORSDOF 6
