REMARK  1 active torsions:
REMARK  status: ('A' for Active; 'I' for Inactive)
REMARK    1  A    between atoms: C_13  and  C_6 
ROOT
ATOM      1  C   UNL d   1       1.644   1.561   0.372  0.00  0.00     0.027 C 
ATOM      2  N   UNL d   1       0.834   1.587  -0.648  0.00  0.00    -0.357 N 
ATOM      3  HN  UNL d   1       1.001   2.252  -1.404  1.00  0.00     0.166 HD
ATOM      4  C   UNL d   1       1.570   0.472   1.409  0.00  0.00     0.065 C 
ATOM      5  S   UNL d   1       1.123  -1.798  -0.142  0.00  0.00    -0.117 SA
ATOM      6  C   UNL d   1       2.319  -0.658   0.660  0.00  0.00     0.096 C 
ATOM      7  C   UNL d   1       2.868   2.423   0.371  0.00  0.00     0.004 A 
ATOM      8  S   UNL d   1       3.186   2.099   3.161  0.00  0.00    -0.128 SA
ATOM      9  C   UNL d   1      -0.273   0.709  -0.727  0.00  0.00     0.049 A 
ATOM     10  C   UNL d   1       1.908   0.879   2.832  0.00  0.00     0.091 C 
ATOM     11  C   UNL d   1      -0.274  -0.707  -0.570  0.00  0.00     0.028 A 
ATOM     12  C   UNL d   1       3.595   2.674   1.539  0.00  0.00     0.012 A 
ATOM     13  C   UNL d   1       3.375   2.861  -0.866  0.00  0.00     0.015 A 
ATOM     14  C   UNL d   1      -1.497   1.357  -0.968  0.00  0.00     0.031 A 
ATOM     15  C   UNL d   1      -1.504  -1.394  -0.638  0.00  0.00     0.021 A 
ATOM     16  C   UNL d   1       4.787   3.411   1.459  0.00  0.00     0.019 A 
ATOM     17  C   UNL d   1       4.588   3.551  -0.934  0.00  0.00     0.001 A 
ATOM     18  C   UNL d   1      -2.704   0.661  -1.008  0.00  0.00     0.002 A 
ATOM     19  C   UNL d   1      -2.707  -0.716  -0.839  0.00  0.00     0.002 A 
ATOM     20  C   UNL d   1       5.287   3.841   0.229  0.00  0.00     0.001 A 
ENDROOT
BRANCH   6  21
ATOM     21  C   UNL d   1       3.446  -1.324   1.409  0.00  0.00    -0.043 A 
ATOM     22  C   UNL d   1       4.774  -0.966   1.088  0.00  0.00     0.011 A 
ATOM     23  C   UNL d   1       5.850  -1.461   1.819  0.00  0.00     0.043 A 
ATOM     24  C   UNL d   1       5.609  -2.319   2.883  0.00  0.00     0.116 A 
ATOM     25  C   UNL d   1       4.314  -2.710   3.208  0.00  0.00     0.043 A 
ATOM     26  F   UNL d   1       6.638  -2.769   3.611  0.00  0.00    -0.206 F 
ATOM     27  C   UNL d   1       3.234  -2.224   2.468  0.00  0.00     0.011 A 
ENDBRANCH   6  21
TORSDOF 1
