REMARK  5 active torsions:
REMARK  status: ('A' for Active; 'I' for Inactive)
REMARK    1  A    between atoms: C_7  and  C_3 
REMARK    2  A    between atoms: C_14  and  N_4 
REMARK       I    between atoms: N_10  and  C_7 
REMARK    3  A    between atoms: C_8  and  C_11 
REMARK    4  A    between atoms: C_11  and  N_9 
REMARK    5  A    between atoms: C_16  and  N_10 
ROOT
ATOM      1  C   UNL d   1      -0.638  -2.545   0.831  0.00  0.00     0.270 C 
ATOM      2  N   UNL d   1       0.131  -3.331   0.004  0.00  0.00    -0.351 N 
ATOM      3  O   UNL d   1      -0.185  -1.713   1.609  0.00  0.00    -0.266 OA
ATOM      4  H   UNL d   1      -0.405  -4.050  -0.477  0.00  0.00     0.163 HD
ENDROOT
BRANCH   2   5
ATOM      5  C   UNL d   1       1.589  -3.413   0.037  0.00  0.00     0.088 C 
ATOM      6  C   UNL d   1       2.300  -2.082  -0.222  0.00  0.00     0.055 C 
ATOM      7  C   UNL d   1       2.044  -1.587  -1.643  0.00  0.00     0.275 C 
ATOM      8  N   UNL d   1       2.445  -2.570  -2.668  0.00  0.00     0.092 N 
ATOM      9  C   UNL d   1       1.838  -3.890  -2.431  0.00  0.00     0.275 C 
ATOM     10  C   UNL d   1       2.080  -4.412  -1.011  0.00  0.00     0.055 C 
BRANCH   8  11
ATOM     11  C   UNL d   1       2.085  -2.025  -3.999  0.00  0.00     0.315 C 
BRANCH  11  12
ATOM     12  C   UNL d   1       2.419  -2.929  -5.161  0.00  0.00     0.030 A 
ATOM     13  C   UNL d   1       3.733  -3.226  -5.550  0.00  0.00     0.045 A 
ATOM     14 CL   UNL d   1       5.104  -2.517  -4.775  0.00  0.00    -0.084 Cl
ATOM     15  C   UNL d   1       3.978  -4.120  -6.599  0.00  0.00     0.024 A 
ATOM     16  C   UNL d   1       2.919  -4.716  -7.287  0.00  0.00     0.005 A 
ATOM     17  C   UNL d   1       1.608  -4.399  -6.935  0.00  0.00     0.043 A 
ATOM     18  C   UNL d   1       1.375  -3.514  -5.888  0.00  0.00     0.126 A 
ATOM     19  F   UNL d   1       0.102  -3.243  -5.569  0.00  0.00    -0.205 F 
ENDBRANCH  11  12
ENDBRANCH   8  11
ENDBRANCH   2   5
BRANCH   1  20
ATOM     20  C   UNL d   1      -2.083  -2.819   0.714  0.00  0.00     0.118 C 
ATOM     21  N   UNL d   1      -2.579  -3.763  -0.110  0.00  0.00    -0.288 N 
ATOM     22  N   UNL d   1      -3.916  -3.809   0.171  0.00  0.00    -0.261 N 
ATOM     23  HN  UNL d   1      -2.069  -4.321  -0.794  1.00  0.00     0.188 HD
ATOM     24  C   UNL d   1      -4.294  -2.767   1.005  0.00  0.00     0.033 C 
ATOM     25  C   UNL d   1      -5.686  -2.345   1.314  0.00  0.00     0.070 C 
ATOM     26  C   UNL d   1      -3.121  -2.156   1.401  0.00  0.00     0.063 C 
BRANCH  22  27
ATOM     27  C   UNL d   1      -4.708  -4.856  -0.373  0.00  0.00     0.056 A 
ATOM     28  C   UNL d   1      -5.786  -5.394   0.343  0.00  0.00     0.031 A 
ATOM     29  C   UNL d   1      -6.559  -6.415  -0.217  0.00  0.00     0.002 A 
ATOM     30  C   UNL d   1      -6.264  -6.897  -1.494  0.00  0.00     0.000 A 
ATOM     31  C   UNL d   1      -5.180  -6.379  -2.201  0.00  0.00     0.002 A 
ATOM     32  C   UNL d   1      -4.389  -5.374  -1.639  0.00  0.00     0.031 A 
ENDBRANCH  22  27
ENDBRANCH   1  20
TORSDOF 5
