REMARK  5 active torsions:
REMARK  status: ('A' for Active; 'I' for Inactive)
REMARK    1  A    between atoms: N_4  and  C_1 
REMARK    2  A    between atoms: C_8  and  C_2 
REMARK    3  A    between atoms: S_3  and  N_4 
REMARK    4  A    between atoms: O_13  and  C_8 
REMARK    5  A    between atoms: C_16  and  O_13 
ROOT
ATOM      1  C   UNL d   1       1.107  -1.389   0.022  0.00  0.00     0.080 A 
ATOM      2  C   UNL d   1      -0.245  -1.696  -0.042  0.00  0.00     0.075 A 
ATOM      3  S   UNL d   1       1.419   0.279   0.054  0.00  0.00    -0.081 SA
ATOM      4  C   UNL d   1      -1.039  -0.458  -0.037  0.00  0.00    -0.031 A 
ATOM      5  C   UNL d   1      -0.232   0.671  -0.013  0.00  0.00    -0.013 A 
ATOM      6  C   UNL d   1      -2.537  -0.367  -0.024  0.00  0.00     0.050 C 
ATOM      7  C   UNL d   1      -0.658   2.104  -0.023  0.00  0.00     0.057 C 
ENDROOT
BRANCH   1   8
ATOM      8  N   UNL d   1       2.218  -2.293  -0.066  0.00  0.00    -0.178 NA
ATOM      9  H   UNL d   1       2.082  -3.108  -0.667  0.00  0.00     0.146 HD
BRANCH   8  10
ATOM     10  S   UNL d   1       2.796  -2.878   1.425  0.00  0.00     0.210 S 
ATOM     11  O   UNL d   1       1.762  -2.794   2.437  0.00  0.00    -0.211 OA
ATOM     12  O   UNL d   1       3.440  -4.137   1.124  0.00  0.00    -0.211 OA
ATOM     13  C   UNL d   1       4.054  -1.697   1.836  0.00  0.00     0.180 C 
ENDBRANCH   8  10
ENDBRANCH   1   8
BRANCH   2  14
ATOM     14  C   UNL d   1      -0.835  -3.039  -0.040  0.00  0.00     0.296 C 
ATOM     15  O   UNL d   1      -1.933  -3.291  -0.529  0.00  0.00    -0.259 OA
BRANCH  14  16
ATOM     16  O   UNL d   1      -0.101  -3.951   0.654  0.00  0.00    -0.318 OA
BRANCH  16  17
ATOM     17  C   UNL d   1      -0.846  -5.033   1.234  0.00  0.00     0.174 C 
ATOM     18  C   UNL d   1      -1.410  -4.586   2.577  0.00  0.00     0.034 C 
ENDBRANCH  16  17
ENDBRANCH  14  16
ENDBRANCH   2  14
TORSDOF 5
