REMARK  4 active torsions:
REMARK  status: ('A' for Active; 'I' for Inactive)
REMARK    1  A    between atoms: N_2  and  S_1 
REMARK    2  A    between atoms: C_8  and  N_2 
REMARK    3  A    between atoms: C_3  and  C_4 
REMARK    4  A    between atoms: O_11  and  C_3 
ROOT
ATOM      1  C   UNL d   1       2.578  -3.005   2.895  0.00  0.00     0.041 A 
ATOM      2  C   UNL d   1       2.271  -1.754   2.345  0.00  0.00     0.042 A 
ATOM      3  C   UNL d   1       0.953  -1.309   2.318  0.00  0.00     0.023 A 
ATOM      4  C   UNL d   1       1.552  -3.791   3.439  0.00  0.00     0.018 A 
ATOM      5  C   UNL d   1       0.231  -3.336   3.413  0.00  0.00     0.003 A 
ATOM      6  C   UNL d   1      -0.070  -2.098   2.842  0.00  0.00     0.024 A 
ENDROOT
BRANCH   3   7
ATOM      7  N   UNL d   1       0.653  -0.086   1.652  0.00  0.00    -0.186 NA
ATOM      8  H   UNL d   1      -0.088   0.473   2.079  0.00  0.00     0.145 HD
BRANCH   7   9
ATOM      9  S   UNL d   1       0.367  -0.178  -0.017  0.00  0.00     0.210 S 
ATOM     10  O   UNL d   1      -0.505   0.942  -0.310  0.00  0.00    -0.211 OA
ATOM     11  O   UNL d   1       0.007  -1.527  -0.388  0.00  0.00    -0.211 OA
ATOM     12  C   UNL d   1       1.973   0.204  -0.685  0.00  0.00     0.180 C 
ENDBRANCH   7   9
ENDBRANCH   3   7
BRANCH   1  13
ATOM     13  C   UNL d   1       3.965  -3.542   2.879  0.00  0.00     0.293 C 
ATOM     14  O   UNL d   1       4.290  -4.611   3.368  0.00  0.00    -0.259 OA
BRANCH  13  15
ATOM     15  O   UNL d   1       4.780  -2.687   2.211  0.00  0.00    -0.323 OA
ATOM     16  C   UNL d   1       6.120  -3.147   2.044  0.00  0.00     0.213 C 
ENDBRANCH  13  15
ENDBRANCH   1  13
TORSDOF 4
