REMARK  3 active torsions:
REMARK  status: ('A' for Active; 'I' for Inactive)
REMARK    1  A    between atoms: C_7  and  O_10 
REMARK    2  A    between atoms: C_12  and  C_8 
REMARK    3  A    between atoms: O_10  and  C_12 
ROOT
ATOM      1  N   UNL d   1       1.030   0.196   0.066  0.00  0.00    -0.197 NA
ATOM      2  C   UNL d   1       2.184   0.116   0.001  0.00  0.00     0.061 C 
ATOM      3  C   UNL d   1       3.674   0.016  -0.086  0.00  0.00     0.150 C 
ENDROOT
BRANCH   3   4
ATOM      4  C   UNL d   1       4.240   0.994  -1.128  0.00  0.00     0.189 C 
BRANCH   4   5
ATOM      5  O   UNL d   1       5.663   0.826  -1.206  0.00  0.00    -0.350 OA
BRANCH   5   6
ATOM      6  C   UNL d   1       6.332   1.642  -2.081  0.00  0.00     0.069 A 
ATOM      7  C   UNL d   1       7.527   1.117  -2.585  0.00  0.00     0.049 A 
ATOM      8  C   UNL d   1       8.347   1.863  -3.449  0.00  0.00    -0.023 A 
ATOM      9  C   UNL d   1       9.543   1.336  -3.964  0.00  0.00     0.012 A 
ATOM     10  C   UNL d   1       7.965   3.176  -3.799  0.00  0.00    -0.026 A 
ATOM     11  C   UNL d   1      10.358   2.098  -4.803  0.00  0.00     0.001 A 
ATOM     12  C   UNL d   1       9.988   3.397  -5.138  0.00  0.00     0.001 A 
ATOM     13  C   UNL d   1       8.798   3.933  -4.642  0.00  0.00     0.012 A 
ATOM     14  C   UNL d   1       6.764   3.695  -3.288  0.00  0.00     0.015 A 
ATOM     15  C   UNL d   1       5.953   2.935  -2.436  0.00  0.00     0.037 A 
ENDBRANCH   5   6
ENDBRANCH   4   5
ENDBRANCH   3   4
TORSDOF 3
