REMARK  3 active torsions:
REMARK  status: ('A' for Active; 'I' for Inactive)
REMARK    1  A    between atoms: S_2  and  C_1 
REMARK    2  A    between atoms: C_5  and  S_2 
REMARK    3  A    between atoms: N_15  and  C_11 
ROOT
ATOM      1  N   UNL d   1       4.006  -2.974  -0.795  0.00  0.00    -0.359 N 
ATOM      2  HN  UNL d   1       3.552  -3.498  -1.543  1.00  0.00     0.166 HD
ATOM      3  C   UNL d   1       3.305  -2.468   0.242  0.00  0.00     0.074 A 
ATOM      4  C   UNL d   1       5.346  -2.750  -0.792  0.00  0.00     0.112 A 
ATOM      5  C   UNL d   1       6.034  -2.011   0.171  0.00  0.00     0.021 A 
ATOM      6  C   UNL d   1       3.908  -1.774   1.284  0.00  0.00     0.039 A 
ATOM      7  C   UNL d   1       5.289  -1.578   1.262  0.00  0.00     0.027 A 
ENDROOT
BRANCH   3   8
ATOM      8  S   UNL d   1       1.529  -2.600   0.187  0.00  0.00    -0.071 SA
BRANCH   8   9
ATOM      9  C   UNL d   1       1.249  -4.313   0.623  0.00  0.00     0.030 A 
ATOM     10  C   UNL d   1       0.734  -5.150  -0.382  0.00  0.00     0.044 A 
ATOM     11  C   UNL d   1       0.378  -6.469  -0.095  0.00  0.00     0.035 A 
ATOM     12 CL   UNL d   1      -0.291  -7.465  -1.328  0.00  0.00    -0.084 Cl
ATOM     13  C   UNL d   1       0.535  -6.981   1.190  0.00  0.00     0.025 A 
ATOM     14  C   UNL d   1       1.048  -6.163   2.197  0.00  0.00     0.027 A 
ATOM     15  C   UNL d   1       1.395  -4.834   1.921  0.00  0.00     0.051 A 
ATOM     16 CL   UNL d   1       1.939  -3.885   3.261  0.00  0.00    -0.083 Cl
ENDBRANCH   8   9
ENDBRANCH   3   8
BRANCH   5  17
ATOM     17  N   UNL d   1       7.429  -1.901   0.177  0.00  0.00    -0.302 NA
ATOM     18  H   UNL d   1       7.777  -1.125   0.730  0.00  0.00     0.124 HD
ATOM     19  H   UNL d   1       7.850  -1.926  -0.748  0.00  0.00     0.124 HD
ENDBRANCH   5  17
TORSDOF 3
