REMARK  4 active torsions:
REMARK  status: ('A' for Active; 'I' for Inactive)
REMARK    1  A    between atoms: N_4  and  C_1 
REMARK    2  A    between atoms: C_2  and  C_3 
REMARK    3  A    between atoms: O_10  and  C_2 
REMARK    4  A    between atoms: C_7  and  N_4 
ROOT
ATOM      1  C   UNL d   1       2.734  -3.505  -1.994  0.00  0.00     0.041 A 
ATOM      2  C   UNL d   1       2.106  -2.486  -1.266  0.00  0.00     0.047 A 
ATOM      3  C   UNL d   1       1.029  -1.782  -1.812  0.00  0.00     0.035 A 
ATOM      4  C   UNL d   1       2.252  -3.838  -3.266  0.00  0.00     0.018 A 
ATOM      5  C   UNL d   1       1.145  -3.171  -3.793  0.00  0.00     0.003 A 
ATOM      6  C   UNL d   1       0.527  -2.155  -3.061  0.00  0.00     0.029 A 
ENDROOT
BRANCH   3   7
ATOM      7  N   UNL d   1       0.396  -0.724  -1.132  0.00  0.00    -0.333 N 
ATOM      8  H   UNL d   1      -0.591  -0.600  -1.333  0.00  0.00     0.168 HD
BRANCH   7   9
ATOM      9  C   UNL d   1       0.843   0.007  -0.081  0.00  0.00     0.171 C 
ATOM     10  S   UNL d   1      -0.248   0.625   1.020  0.00  0.00    -0.041 SA
ATOM     11  N   UNL d   1       2.156   0.321   0.053  0.00  0.00    -0.371 N 
ATOM     12  C   UNL d   1       3.114   0.483  -1.026  0.00  0.00     0.148 C 
ATOM     13  H   UNL d   1       2.352   0.858   0.891  0.00  0.00     0.161 HD
ENDBRANCH   7   9
ENDBRANCH   3   7
BRANCH   1  14
ATOM     14  C   UNL d   1       3.917  -4.236  -1.465  0.00  0.00     0.293 C 
ATOM     15  O   UNL d   1       4.475  -5.142  -2.064  0.00  0.00    -0.259 OA
BRANCH  14  16
ATOM     16  O   UNL d   1       4.286  -3.735  -0.260  0.00  0.00    -0.323 OA
ATOM     17  C   UNL d   1       5.440  -4.355   0.308  0.00  0.00     0.213 C 
ENDBRANCH  14  16
ENDBRANCH   1  14
TORSDOF 4
