REMARK  8 active torsions:
REMARK  status: ('A' for Active; 'I' for Inactive)
REMARK    1  A    between atoms: C_4  and  S_1 
REMARK    2  A    between atoms: C_10  and  S_1 
REMARK       I    between atoms: C_2  and  N_5 
REMARK       I    between atoms: N_6  and  C_2 
REMARK    3  A    between atoms: C_3  and  C_15 
REMARK       I    between atoms: N_7  and  C_3 
REMARK    4  A    between atoms: C_16  and  C_4 
REMARK    5  A    between atoms: N_5  and  N_7 
REMARK    6  A    between atoms: C_13  and  N_6 
REMARK    7  A    between atoms: S_14  and  C_16 
REMARK    8  A    between atoms: C_15  and  S_14 
ROOT
ATOM      1  C   UNL d   1       0.142  -0.664  -6.655  0.00  0.00     0.245 C 
ATOM      2  N   UNL d   1      -1.247  -0.743  -6.640  0.00  0.00    -0.265 N 
ATOM      3  O   UNL d   1       0.815  -1.054  -7.612  0.00  0.00    -0.271 OA
ATOM      4  H   UNL d   1      -1.758  -0.090  -6.057  0.00  0.00     0.190 HD
ENDROOT
BRANCH   1   5
ATOM      5  C   UNL d   1       0.780  -0.018  -5.444  0.00  0.00     0.178 C 
BRANCH   5   6
ATOM      6  S   UNL d   1       0.369  -0.893  -3.906  0.00  0.00    -0.159 SA
BRANCH   6   7
ATOM      7  C   UNL d   1       1.170  -2.517  -4.227  0.00  0.00     0.089 C 
BRANCH   7   8
ATOM      8  C   UNL d   1       1.032  -3.344  -2.960  0.00  0.00     0.156 C 
BRANCH   8   9
ATOM      9  S   UNL d   1       1.677  -4.986  -3.167  0.00  0.00     0.176 S 
ATOM     10  O   UNL d   1       3.099  -4.888  -3.439  0.00  0.00    -0.223 OA
ATOM     11  O   UNL d   1       0.793  -5.718  -4.057  0.00  0.00    -0.223 OA
BRANCH   9  12
ATOM     12  C   UNL d   1       1.490  -5.677  -1.535  0.00  0.00     0.059 A 
ATOM     13  C   UNL d   1       0.295  -6.310  -1.184  0.00  0.00     0.023 A 
ATOM     14  C   UNL d   1       0.148  -6.841   0.097  0.00  0.00     0.002 A 
ATOM     15  C   UNL d   1       1.196  -6.747   1.018  0.00  0.00     0.000 A 
ATOM     16  C   UNL d   1       2.393  -6.125   0.658  0.00  0.00     0.002 A 
ATOM     17  C   UNL d   1       2.547  -5.591  -0.622  0.00  0.00     0.023 A 
ENDBRANCH   9  12
ENDBRANCH   8   9
ENDBRANCH   7   8
ENDBRANCH   6   7
ENDBRANCH   5   6
ENDBRANCH   1   5
BRANCH   2  18
ATOM     18  N   UNL d   1      -1.813  -1.145  -7.854  0.00  0.00    -0.249 N 
ATOM     19  C   UNL d   1      -3.121  -1.440  -8.123  0.00  0.00     0.339 C 
ATOM     20  N   UNL d   1      -4.025  -1.213  -7.117  0.00  0.00    -0.308 N 
ATOM     21  O   UNL d   1      -3.385  -1.842  -9.257  0.00  0.00    -0.245 OA
ATOM     22  H   UNL d   1      -3.675  -0.759  -6.292  0.00  0.00     0.170 HD
ATOM     23  H   UNL d   1      -1.152  -1.390  -8.594  0.00  0.00     0.192 HD
BRANCH  20  24
ATOM     24  C   UNL d   1      -5.429  -1.360  -7.228  0.00  0.00     0.036 A 
ATOM     25  C   UNL d   1      -6.043  -2.098  -8.246  0.00  0.00     0.029 A 
ATOM     26  C   UNL d   1      -7.435  -2.127  -8.372  0.00  0.00     0.002 A 
ATOM     27  C   UNL d   1      -8.230  -1.424  -7.474  0.00  0.00     0.000 A 
ATOM     28  C   UNL d   1      -7.634  -0.726  -6.425  0.00  0.00     0.002 A 
ATOM     29  C   UNL d   1      -6.240  -0.708  -6.292  0.00  0.00     0.029 A 
ENDBRANCH  20  24
ENDBRANCH   2  18
TORSDOF 8
