REMARK  3 active torsions:
REMARK  status: ('A' for Active; 'I' for Inactive)
REMARK    1  A    between atoms: C_2  and  C_1 
REMARK       I    between atoms: N_5  and  C_2 
REMARK    2  A    between atoms: N_12  and  C_3 
REMARK    3  A    between atoms: C_9  and  N_5 
ROOT
ATOM      1  C   UNL d   1       1.038  -0.001  -0.121  0.00  0.00     0.127 C 
ATOM      2  C   UNL d   1       0.403   0.885   0.671  0.00  0.00     0.113 C 
ATOM      3  C   UNL d   1       0.349  -0.815  -1.052  0.00  0.00     0.106 C 
ATOM      4  N   UNL d   1      -0.150  -1.511  -1.839  0.00  0.00    -0.191 NA
ENDROOT
BRANCH   1   5
ATOM      5  C   UNL d   1       2.537  -0.075  -0.008  0.00  0.00     0.268 C 
ATOM      6  N   UNL d   1       3.151  -1.044  -0.788  0.00  0.00    -0.322 N 
ATOM      7  H   UNL d   1       2.593  -1.552  -1.467  0.00  0.00     0.169 HD
ATOM      8  O   UNL d   1       3.131   0.690   0.749  0.00  0.00    -0.266 OA
BRANCH   6   9
ATOM      9  C   UNL d   1       4.502  -1.464  -0.703  0.00  0.00     0.036 A 
ATOM     10  C   UNL d   1       5.403  -1.001   0.257  0.00  0.00     0.053 A 
ATOM     11  C   UNL d   1       6.698  -1.529   0.335  0.00  0.00     0.042 A 
ATOM     12 CL   UNL d   1       7.744  -0.919   1.570  0.00  0.00    -0.084 Cl
ATOM     13  C   UNL d   1       7.121  -2.530  -0.549  0.00  0.00    -0.040 A 
ATOM     14  C   UNL d   1       6.227  -2.966  -1.535  0.00  0.00     0.011 A 
ATOM     15  C   UNL d   1       8.488  -3.145  -0.452  0.00  0.00     0.050 C 
ATOM     16  C   UNL d   1       4.931  -2.441  -1.608  0.00  0.00     0.030 A 
ENDBRANCH   6   9
ENDBRANCH   1   5
BRANCH   2  17
ATOM     17  N   UNL d   1      -0.947   1.179   0.849  0.00  0.00    -0.397 N 
ATOM     18  C   UNL d   1      -2.001   0.162   0.889  0.00  0.00     0.148 C 
ATOM     19  C   UNL d   1      -1.373   2.498   1.324  0.00  0.00     0.148 C 
ENDBRANCH   2  17
TORSDOF 3
