REMARK  7 active torsions:
REMARK  status: ('A' for Active; 'I' for Inactive)
REMARK    1  A    between atoms: C_8  and  C_1 
REMARK    2  A    between atoms: C_7  and  C_2 
REMARK    3  A    between atoms: O_19  and  C_8 
REMARK    4  A    between atoms: O_22  and  C_11 
REMARK    5  A    between atoms: O_14  and  C_12 
REMARK    6  A    between atoms: C_21  and  O_14 
REMARK    7  A    between atoms: C_23  and  C_21 
ROOT
ATOM      1  C   UNL d   1       2.058  -1.304  -0.186  0.00  0.00     0.052 A 
ATOM      2  C   UNL d   1       0.560  -1.655  -0.288  0.00  0.00     0.098 A 
ATOM      3  C   UNL d   1      -0.342  -0.432  -0.209  0.00  0.00     0.023 A 
ATOM      4  C   UNL d   1       2.464  -0.018  -0.045  0.00  0.00     0.018 A 
ATOM      5  C   UNL d   1       0.156   0.814  -0.074  0.00  0.00     0.020 A 
ATOM      6  N   UNL d   1       1.521   1.001  -0.011  0.00  0.00    -0.362 N 
ATOM      7  C   UNL d   1      -1.819  -0.620  -0.258  0.00  0.00     0.158 C 
ATOM      8  O   UNL d   1      -2.317  -1.665  -0.669  0.00  0.00    -0.293 OA
ATOM      9  C   UNL d   1      -0.703   2.054   0.015  0.00  0.00     0.058 C 
ATOM     10  C   UNL d   1       3.890   0.461   0.091  0.00  0.00     0.069 C 
ATOM     11  C   UNL d   1      -2.671   0.517   0.252  0.00  0.00     0.084 C 
ATOM     12  C   UNL d   1      -2.165   1.814  -0.353  0.00  0.00     0.014 C 
ATOM     13  H   UNL d   1       1.865   1.951   0.107  0.00  0.00     0.165 HD
ENDROOT
BRANCH   2  14
ATOM     14  C   UNL d   1       0.175  -2.682   0.781  0.00  0.00    -0.042 A 
ATOM     15  C   UNL d   1      -0.311  -3.946   0.399  0.00  0.00     0.047 A 
ATOM     16  C   UNL d   1      -0.553  -4.944   1.352  0.00  0.00     0.102 A 
ATOM     17  C   UNL d   1      -0.292  -4.673   2.703  0.00  0.00     0.102 A 
ATOM     18  C   UNL d   1       0.091  -3.381   3.092  0.00  0.00     0.040 A 
ATOM     19  C   UNL d   1       0.337  -2.397   2.141  0.00  0.00     0.011 A 
BRANCH  16  20
ATOM     20  O   UNL d   1      -0.965  -6.213   1.027  0.00  0.00    -0.353 OA
ATOM     21  C   UNL d   1      -1.718  -6.342  -0.176  0.00  0.00     0.210 C 
ENDBRANCH  16  20
BRANCH  17  22
ATOM     22  O   UNL d   1      -0.422  -5.714   3.597  0.00  0.00    -0.344 OA
BRANCH  22  23
ATOM     23  C   UNL d   1       0.356  -5.563   4.789  0.00  0.00     0.214 C 
BRANCH  23  24
ATOM     24  C   UNL d   1       0.674  -6.873   5.468  0.00  0.00    -0.034 A 
ATOM     25  C   UNL d   1       0.704  -8.088   4.774  0.00  0.00     0.009 A 
ATOM     26  C   UNL d   1       1.117  -9.257   5.418  0.00  0.00     0.001 A 
ATOM     27  C   UNL d   1       1.511  -9.219   6.757  0.00  0.00     0.000 A 
ATOM     28  C   UNL d   1       1.488  -8.016   7.457  0.00  0.00     0.001 A 
ATOM     29  C   UNL d   1       1.074  -6.849   6.816  0.00  0.00     0.009 A 
ENDBRANCH  23  24
ENDBRANCH  22  23
ENDBRANCH  17  22
ENDBRANCH   2  14
BRANCH   1  30
ATOM     30  C   UNL d   1       3.017  -2.445  -0.149  0.00  0.00     0.291 C 
ATOM     31  O   UNL d   1       4.042  -2.467   0.515  0.00  0.00    -0.260 OA
BRANCH  30  32
ATOM     32  O   UNL d   1       2.562  -3.462  -0.923  0.00  0.00    -0.323 OA
ATOM     33  C   UNL d   1       3.291  -4.688  -0.803  0.00  0.00     0.213 C 
ENDBRANCH  30  32
ENDBRANCH   1  30
TORSDOF 7
