REMARK  2 active torsions:
REMARK  status: ('A' for Active; 'I' for Inactive)
REMARK    1  A    between atoms: O_11  and  N_3 
REMARK    2  A    between atoms: C_8  and  C_7 
ROOT
ATOM      1  C   UNL d   1      -0.110   0.708  -0.016  0.00  0.00     0.056 A 
ATOM      2  C   UNL d   1      -0.132  -0.692   0.021  0.00  0.00     0.055 A 
ATOM      3  C   UNL d   1      -1.309   1.424  -0.040  0.00  0.00     0.038 A 
ATOM      4  C   UNL d   1      -1.356  -1.370   0.036  0.00  0.00     0.026 A 
ATOM      5  C   UNL d   1      -2.530   0.741  -0.027  0.00  0.00    -0.017 A 
ATOM      6 CL   UNL d   1       1.365   1.609  -0.035  0.00  0.00    -0.083 Cl
ATOM      7 CL   UNL d   1       1.311  -1.642   0.046  0.00  0.00    -0.083 Cl
ATOM      8  C   UNL d   1      -2.557  -0.655   0.013  0.00  0.00     0.014 A 
ENDROOT
BRANCH   5   9
ATOM      9  C   UNL d   1      -3.806   1.479  -0.059  0.00  0.00     0.125 C 
ATOM     10  N   UNL d   1      -3.845   2.773  -0.107  0.00  0.00    -0.280 N 
ATOM     11  HN  UNL d   1      -3.034   3.390  -0.124  1.00  0.00     0.193 HD
BRANCH  10  12
ATOM     12  O   UNL d   1      -5.182   3.186  -0.130  0.00  0.00    -0.290 OA
ATOM     13  H   UNL d   1      -5.099   4.157  -0.171  0.00  0.00     0.244 HD
ENDBRANCH  10  12
ENDBRANCH   5   9
TORSDOF 2
