REMARK  2 active torsions:
REMARK  status: ('A' for Active; 'I' for Inactive)
REMARK    1  A    between atoms: C_6  and  C_1 
REMARK    2  A    between atoms: O_10  and  C_5 
ROOT
ATOM      1  C   UNL d   1      -0.338   1.043   0.240  0.00  0.00     0.201 A 
ATOM      2  C   UNL d   1       1.056   0.584  -0.036  0.00  0.00    -0.011 A 
ATOM      3  O   UNL d   1      -1.143  -0.136   0.089  0.00  0.00    -0.301 OA
ATOM      4  C   UNL d   1      -0.342  -1.205  -0.185  0.00  0.00     0.317 A 
ATOM      5  C   UNL d   1       1.056  -0.727  -0.272  0.00  0.00     0.146 A 
ATOM      6  O   UNL d   1      -0.729  -2.348  -0.346  0.00  0.00    -0.257 OA
ATOM      7  C   UNL d   1       2.200   1.527  -0.102  0.00  0.00     0.050 C 
ENDROOT
BRANCH   1   8
ATOM      8  C   UNL d   1      -0.580   1.627   1.612  0.00  0.00     0.036 A 
ATOM      9  C   UNL d   1      -0.382   0.841   2.757  0.00  0.00     0.127 A 
ATOM     10  F   UNL d   1       0.085  -0.411   2.642  0.00  0.00    -0.205 F 
ATOM     11  C   UNL d   1      -0.653   1.308   4.042  0.00  0.00     0.043 A 
ATOM     12  C   UNL d   1      -1.134   2.598   4.218  0.00  0.00     0.005 A 
ATOM     13  C   UNL d   1      -1.322   3.414   3.105  0.00  0.00     0.024 A 
ATOM     14  C   UNL d   1      -1.044   2.937   1.814  0.00  0.00     0.046 A 
ATOM     15 CL   UNL d   1      -1.296   4.040   0.507  0.00  0.00    -0.084 Cl
ENDBRANCH   1   8
BRANCH   5  16
ATOM     16  O   UNL d   1       2.120  -1.530  -0.560  0.00  0.00    -0.355 OA
ATOM     17  H   UNL d   1       2.936  -1.016  -0.454  0.00  0.00     0.218 HD
ENDBRANCH   5  16
TORSDOF 2
