REMARK  3 active torsions:
REMARK  status: ('A' for Active; 'I' for Inactive)
REMARK    1  A    between atoms: C_2  and  S_1 
REMARK    2  A    between atoms: C_4  and  S_1 
REMARK    3  A    between atoms: C_3  and  C_4 
ROOT
ATOM      1  S   UNL d   1       0.978   0.005   0.076  0.00  0.00     0.181 S 
ATOM      2  O   UNL d   1       0.571   0.836  -1.044  0.00  0.00    -0.222 OA
ATOM      3  O   UNL d   1       2.373  -0.248   0.374  0.00  0.00    -0.222 OA
ENDROOT
BRANCH   1   4
ATOM      4  C   UNL d   1       0.235  -1.595  -0.214  0.00  0.00     0.081 A 
ATOM      5  C   UNL d   1       0.635  -2.363  -1.311  0.00  0.00     0.057 A 
ATOM      6  C   UNL d   1       0.004  -3.587  -1.565  0.00  0.00     0.049 A 
ATOM      7 CL   UNL d   1       1.884  -1.897  -2.408  0.00  0.00    -0.083 Cl
ATOM      8  C   UNL d   1      -1.028  -4.046  -0.740  0.00  0.00     0.041 A 
ATOM      9  C   UNL d   1      -1.429  -3.295   0.371  0.00  0.00    -0.039 A 
ATOM     10 CL   UNL d   1      -1.774  -5.546  -1.154  0.00  0.00    -0.084 Cl
ATOM     11  C   UNL d   1      -0.780  -2.073   0.628  0.00  0.00     0.033 A 
ATOM     12  C   UNL d   1      -2.543  -3.693   1.302  0.00  0.00     0.050 C 
ENDBRANCH   1   4
BRANCH   1  13
ATOM     13  C   UNL d   1       0.204   0.650   1.552  0.00  0.00     0.189 C 
BRANCH  13  14
ATOM     14  C   UNL d   1       0.690   2.042   1.851  0.00  0.00     0.016 A 
ATOM     15  C   UNL d   1       1.853   2.205   2.611  0.00  0.00     0.125 A 
ATOM     16  F   UNL d   1       2.507   1.122   3.056  0.00  0.00    -0.205 F 
ATOM     17  C   UNL d   1       2.334   3.462   2.966  0.00  0.00     0.043 A 
ATOM     18  C   UNL d   1       1.646   4.601   2.561  0.00  0.00     0.005 A 
ATOM     19  C   UNL d   1       0.485   4.470   1.800  0.00  0.00     0.024 A 
ATOM     20  C   UNL d   1       0.012   3.201   1.443  0.00  0.00     0.044 A 
ATOM     21 CL   UNL d   1      -1.460   3.131   0.541  0.00  0.00    -0.084 Cl
ENDBRANCH  13  14
ENDBRANCH   1  13
TORSDOF 3
