REMARK  4 active torsions:
REMARK  status: ('A' for Active; 'I' for Inactive)
REMARK    1  A    between atoms: C_2  and  C_1 
REMARK    2  A    between atoms: C_5  and  C_1 
REMARK    3  A    between atoms: C_4  and  C_2 
REMARK    4  A    between atoms: N_6  and  C_5 
ROOT
ATOM      1  C   UNL d   1       1.039   0.069  -0.061  0.00  0.00     0.100 C 
ATOM      2  C   UNL d   1       0.401  -0.506   0.992  0.00  0.00     0.060 C 
ATOM      3  S   UNL d   1      -1.327  -0.741   1.109  0.00  0.00    -0.121 SA
ATOM      4  S   UNL d   1       1.311  -1.171   2.350  0.00  0.00    -0.121 SA
ATOM      5  C   UNL d   1      -0.891  -0.400   3.849  0.00  0.00     0.021 C 
ATOM      6  C   UNL d   1       0.607  -0.175   3.700  0.00  0.00     0.081 C 
ATOM      7  C   UNL d   1      -1.696   0.115   2.661  0.00  0.00     0.081 C 
ENDROOT
BRANCH   1   8
ATOM      8  C   UNL d   1       0.339   0.714  -1.232  0.00  0.00     0.205 C 
ATOM      9  O   UNL d   1      -0.854   0.562  -1.468  0.00  0.00    -0.286 OA
BRANCH   8  10
ATOM     10  C   UNL d   1       1.097   1.638  -2.119  0.00  0.00     0.037 A 
ATOM     11  C   UNL d   1       0.952   1.605  -3.516  0.00  0.00     0.048 A 
ATOM     12 CL   UNL d   1      -0.049   0.466  -4.345  0.00  0.00    -0.083 Cl
ATOM     13  C   UNL d   1       1.664   2.510  -4.314  0.00  0.00     0.025 A 
ATOM     14  C   UNL d   1       2.523   3.440  -3.734  0.00  0.00     0.002 A 
ATOM     15  C   UNL d   1       2.648   3.499  -2.350  0.00  0.00     0.001 A 
ATOM     16  C   UNL d   1       1.919   2.624  -1.545  0.00  0.00     0.017 A 
ENDBRANCH   8  10
ENDBRANCH   1   8
BRANCH   1  17
ATOM     17  C   UNL d   1       2.559   0.069  -0.061  0.00  0.00    -0.031 C 
BRANCH  17  18
ATOM     18  N   UNL d   1       3.820   0.069  -0.061  0.00  0.00    -0.365 N 
ATOM     19  HN2 UNL d   1       2.800   0.069  -0.061  1.00  0.00     0.165 HD
ATOM     20  HN1 UNL d   1       4.840   0.069  -0.061  1.00  0.00     0.165 HD
ENDBRANCH  17  18
ENDBRANCH   1  17
TORSDOF 4
