REMARK  10 active torsions:
REMARK  status: ('A' for Active; 'I' for Inactive)
REMARK    1  A    between atoms: C_8  and  C_1 
REMARK    2  A    between atoms: C_2  and  C_7 
REMARK       I    between atoms: C_7  and  N_10 
REMARK       I    between atoms: N_9  and  C_8 
REMARK    3  A    between atoms: C_22  and  N_9 
REMARK    4  A    between atoms: N_10  and  C_23 
REMARK    5  A    between atoms: C_11  and  C_13 
REMARK    6  A    between atoms: C_12  and  C_11 
REMARK    7  A    between atoms: O_16  and  C_27 
REMARK    8  A    between atoms: C_24  and  O_16 
REMARK    9  A    between atoms: O_17  and  C_25 
REMARK   10  A    between atoms: C_26  and  O_17 
ROOT
ATOM      1  C   UNL d   1      -4.353  -1.085  -8.352  0.00  0.00     0.007 C 
ATOM      2  C   UNL d   1      -3.481  -2.381  -8.377  0.00  0.00     0.025 C 
ATOM      3  C   UNL d   1      -5.748  -1.623  -7.914  0.00  0.00     0.025 C 
ENDROOT
BRANCH   1   4
ATOM      4  C   UNL d   1      -3.816  -0.068  -7.314  0.00  0.00    -0.045 A 
ATOM      5  C   UNL d   1      -4.663   0.869  -6.685  0.00  0.00     0.011 A 
ATOM      6  C   UNL d   1      -4.168   1.823  -5.785  0.00  0.00     0.038 A 
ATOM      7  C   UNL d   1      -2.808   1.873  -5.505  0.00  0.00     0.076 A 
ATOM      8  C   UNL d   1      -1.963   0.906  -6.051  0.00  0.00     0.038 A 
ATOM      9  C   UNL d   1      -2.454  -0.023  -6.971  0.00  0.00     0.011 A 
BRANCH   7  10
ATOM     10  O   UNL d   1      -2.368   2.908  -4.704  0.00  0.00    -0.311 OA
BRANCH  10  11
ATOM     11  C   UNL d   1      -1.108   3.400  -4.969  0.00  0.00     0.076 C 
ATOM     12  C   UNL d   1      -0.665   3.665  -6.268  0.00  0.00     0.039 C 
ATOM     13  C   UNL d   1       0.680   3.956  -6.494  0.00  0.00     0.032 C 
ATOM     14  C   UNL d   1       1.577   4.035  -5.424  0.00  0.00     0.034 C 
ATOM     15  C   UNL d   1       1.088   3.916  -4.119  0.00  0.00     0.032 C 
ATOM     16  C   UNL d   1      -0.254   3.596  -3.890  0.00  0.00     0.039 C 
BRANCH  14  17
ATOM     17  N   UNL d   1       2.936   4.198  -5.742  0.00  0.00    -0.327 N 
ATOM     18  C   UNL d   1       3.999   4.261  -4.862  0.00  0.00     0.227 C 
ATOM     19  O   UNL d   1       3.942   4.196  -3.641  0.00  0.00    -0.273 OA
ATOM     20  H   UNL d   1       3.161   4.256  -6.727  0.00  0.00     0.169 HD
BRANCH  18  21
ATOM     21  C   UNL d   1       5.351   4.407  -5.474  0.00  0.00     0.086 A 
ATOM     22  C   UNL d   1       5.795   5.727  -6.102  0.00  0.00    -0.035 A 
ATOM     23  C   UNL d   1       7.164   6.234  -5.725  0.00  0.00     0.015 C 
ATOM     24  C   UNL d   1       4.815   6.827  -6.433  0.00  0.00     0.015 C 
ATOM     25  C   UNL d   1       5.700   4.469  -6.938  0.00  0.00     0.024 A 
ENDBRANCH  18  21
ENDBRANCH  14  17
ENDBRANCH  10  11
ENDBRANCH   7  10
ENDBRANCH   1   4
BRANCH   1  26
ATOM     26  C   UNL d   1      -4.414  -0.437  -9.764  0.00  0.00    -0.045 A 
ATOM     27  C   UNL d   1      -3.333  -0.527 -10.665  0.00  0.00     0.011 A 
ATOM     28  C   UNL d   1      -3.404   0.004 -11.960  0.00  0.00     0.038 A 
ATOM     29  C   UNL d   1      -4.532   0.708 -12.367  0.00  0.00     0.076 A 
ATOM     30  C   UNL d   1      -5.610   0.829 -11.494  0.00  0.00     0.038 A 
ATOM     31  C   UNL d   1      -5.547   0.273 -10.207  0.00  0.00     0.011 A 
BRANCH  29  32
ATOM     32  O   UNL d   1      -4.686   1.219 -13.634  0.00  0.00    -0.311 OA
BRANCH  32  33
ATOM     33  C   UNL d   1      -3.709   2.022 -14.184  0.00  0.00     0.076 A 
ATOM     34  C   UNL d   1      -3.822   2.262 -15.555  0.00  0.00     0.039 A 
ATOM     35  C   UNL d   1      -2.922   3.116 -16.210  0.00  0.00     0.032 A 
ATOM     36  C   UNL d   1      -1.895   3.747 -15.498  0.00  0.00     0.034 A 
ATOM     37  C   UNL d   1      -1.772   3.480 -14.134  0.00  0.00     0.032 A 
ATOM     38  C   UNL d   1      -2.684   2.647 -13.476  0.00  0.00     0.039 A 
BRANCH  36  39
ATOM     39  N   UNL d   1      -1.071   4.663 -16.193  0.00  0.00    -0.327 N 
ATOM     40  C   UNL d   1      -0.098   5.478 -15.640  0.00  0.00     0.227 C 
ATOM     41  O   UNL d   1       0.305   5.449 -14.487  0.00  0.00    -0.273 OA
ATOM     42  H   UNL d   1      -1.286   4.800 -17.171  0.00  0.00     0.169 HD
BRANCH  40  43
ATOM     43  C   UNL d   1       0.422   6.520 -16.588  0.00  0.00     0.086 A 
ATOM     44  C   UNL d   1       1.880   6.968 -16.686  0.00  0.00    -0.035 A 
ATOM     45  C   UNL d   1       2.378   7.397 -18.044  0.00  0.00     0.015 C 
ATOM     46  C   UNL d   1       2.964   6.388 -15.810  0.00  0.00     0.015 C 
ATOM     47  C   UNL d   1       0.856   7.851 -16.012  0.00  0.00     0.024 A 
ENDBRANCH  40  43
ENDBRANCH  36  39
ENDBRANCH  32  33
ENDBRANCH  29  32
ENDBRANCH   1  26
TORSDOF 10
