REMARK  6 active torsions:
REMARK  status: ('A' for Active; 'I' for Inactive)
REMARK    1  A    between atoms: C_2  and  S_1 
REMARK    2  A    between atoms: C_17  and  S_1 
REMARK    3  A    between atoms: N_8  and  C_3 
REMARK    4  A    between atoms: C_5  and  C_4 
REMARK    5  A    between atoms: C_6  and  C_5 
REMARK    6  A    between atoms: C_7  and  N_8 
ROOT
ATOM      1  C   UNL d   1      -1.376  -3.050  -1.931  0.00  0.00     0.111 C 
ATOM      2  C   UNL d   1      -0.821  -1.850  -1.670  0.00  0.00     0.115 C 
ATOM      3  C   UNL d   1      -1.587  -3.942  -0.844  0.00  0.00     0.105 C 
ATOM      4  N   UNL d   1      -1.754  -4.668   0.044  0.00  0.00    -0.191 NA
ENDROOT
BRANCH   1   5
ATOM      5  C   UNL d   1      -1.733  -3.469  -3.328  0.00  0.00     0.210 C 
ATOM      6  O   UNL d   1      -1.248  -2.834  -4.270  0.00  0.00    -0.285 OA
BRANCH   5   7
ATOM      7  C   UNL d   1      -2.641  -4.602  -3.515  0.00  0.00     0.056 A 
ATOM      8  S   UNL d   1      -2.416  -5.635  -4.868  0.00  0.00    -0.098 SA
ATOM      9  C   UNL d   1      -3.690  -6.668  -4.383  0.00  0.00     0.050 A 
ATOM     10  C   UNL d   1      -4.311  -6.218  -3.241  0.00  0.00     0.009 A 
ATOM     11  C   UNL d   1      -3.726  -5.012  -2.757  0.00  0.00     0.023 A 
ENDBRANCH   5   7
ENDBRANCH   1   5
BRANCH   2  12
ATOM     12  N   UNL d   1      -0.429  -0.827  -2.508  0.00  0.00    -0.363 N 
ATOM     13  H   UNL d   1      -0.668  -1.047  -3.487  0.00  0.00     0.165 HD
BRANCH  12  14
ATOM     14  C   UNL d   1      -0.087   0.464  -2.213  0.00  0.00     0.060 A 
ATOM     15  C   UNL d   1       0.546   1.056  -1.057  0.00  0.00     0.093 A 
ATOM     16  C   UNL d   1       0.629   2.434  -1.173  0.00  0.00     0.075 A 
ATOM     17  S   UNL d   1       0.053   3.013  -2.665  0.00  0.00    -0.110 SA
ATOM     18  C   UNL d   1      -0.343   1.433  -3.169  0.00  0.00     0.080 A 
BRANCH  15  19
ATOM     19  S   UNL d   1       1.251   0.281   0.337  0.00  0.00     0.181 S 
ATOM     20  O   UNL d   1       0.153  -0.418   0.971  0.00  0.00    -0.222 OA
ATOM     21  O   UNL d   1       1.954   1.338   1.040  0.00  0.00    -0.222 OA
BRANCH  19  22
ATOM     22  C   UNL d   1       2.460  -0.880  -0.315  0.00  0.00     0.105 C 
ATOM     23  C   UNL d   1       3.586  -0.153  -1.044  0.00  0.00     0.026 C 
ATOM     24  C   UNL d   1       3.027  -1.727   0.823  0.00  0.00     0.026 C 
ENDBRANCH  19  22
ENDBRANCH  15  19
ENDBRANCH  12  14
ENDBRANCH   2  12
TORSDOF 6
