REMARK  6 active torsions:
REMARK  status: ('A' for Active; 'I' for Inactive)
REMARK    1  A    between atoms: O_7  and  C_1 
REMARK    2  A    between atoms: C_11  and  N_2 
REMARK    3  A    between atoms: C_6  and  O_7 
REMARK    4  A    between atoms: C_8  and  C_6 
REMARK    5  A    between atoms: S_15  and  C_10 
REMARK    6  A    between atoms: C_21  and  S_15 
ROOT
ATOM      1  C   UNL d   1      -0.477  -1.036   0.088  0.00  0.00     0.175 C 
ATOM      2  N   UNL d   1       0.870  -0.661   0.083  0.00  0.00    -0.234 N 
ATOM      3  N   UNL d   1       0.994   0.697   0.160  0.00  0.00    -0.296 N 
ATOM      4  HN  UNL d   1       1.856   1.241   0.121  1.00  0.00     0.187 HD
ATOM      5  C   UNL d   1      -1.190   0.120   0.340  0.00  0.00     0.084 C 
ATOM      6  C   UNL d   1      -0.248   1.160   0.296  0.00  0.00     0.026 C 
ATOM      7  C   UNL d   1      -0.504   2.619   0.312  0.00  0.00     0.070 C 
ENDROOT
BRANCH   1   8
ATOM      8  O   UNL d   1      -0.869  -2.258  -0.244  0.00  0.00    -0.255 OA
BRANCH   8   9
ATOM      9  C   UNL d   1      -2.171  -2.595  -0.084  0.00  0.00     0.302 C 
ATOM     10  O   UNL d   1      -2.862  -2.307   0.875  0.00  0.00    -0.259 OA
BRANCH   9  11
ATOM     11  C   UNL d   1      -2.609  -3.344  -1.305  0.00  0.00     0.073 A 
ATOM     12  C   UNL d   1      -3.952  -3.533  -1.645  0.00  0.00     0.086 A 
ATOM     13  N   UNL d   1      -4.316  -4.132  -2.816  0.00  0.00    -0.360 N 
ATOM     14  C   UNL d   1      -3.358  -4.554  -3.664  0.00  0.00     0.089 A 
ATOM     15  HN  UNL d   1      -5.302  -4.258  -3.047  1.00  0.00     0.166 HD
ATOM     16  C   UNL d   1      -2.013  -4.437  -3.400  0.00  0.00     0.018 A 
ATOM     17  C   UNL d   1      -1.637  -3.835  -2.206  0.00  0.00     0.022 A 
BRANCH  12  18
ATOM     18  S   UNL d   1      -5.343  -2.957  -0.679  0.00  0.00    -0.112 SA
BRANCH  18  19
ATOM     19  C   UNL d   1      -6.630  -4.135  -1.216  0.00  0.00     0.076 C 
ATOM     20  C   UNL d   1      -7.937  -3.855  -0.496  0.00  0.00     0.016 C 
ENDBRANCH  18  19
ENDBRANCH  12  18
ENDBRANCH   9  11
ENDBRANCH   8   9
ENDBRANCH   1   8
BRANCH   2  21
ATOM     21  C   UNL d   1       2.048  -1.466  -0.045  0.00  0.00     0.059 A 
ATOM     22  C   UNL d   1       2.003  -2.866  -0.073  0.00  0.00     0.031 A 
ATOM     23  C   UNL d   1       3.181  -3.610  -0.220  0.00  0.00     0.002 A 
ATOM     24  C   UNL d   1       4.412  -2.967  -0.321  0.00  0.00     0.000 A 
ATOM     25  C   UNL d   1       4.473  -1.578  -0.272  0.00  0.00     0.002 A 
ATOM     26  C   UNL d   1       3.300  -0.831  -0.135  0.00  0.00     0.031 A 
ENDBRANCH   2  21
TORSDOF 6
