REMARK  8 active torsions:
REMARK  status: ('A' for Active; 'I' for Inactive)
REMARK    1  A    between atoms: C_7  and  C_1 
REMARK    2  A    between atoms: C_4  and  C_13 
REMARK    3  A    between atoms: C_23  and  C_5 
REMARK    4  A    between atoms: O_12  and  N_8 
REMARK    5  A    between atoms: C_11  and  O_12 
REMARK    6  A    between atoms: C_14  and  C_11 
REMARK    7  A    between atoms: O_24  and  C_23 
REMARK    8  A    between atoms: C_25  and  O_24 
ROOT
ATOM      1  C   UNL d   1       2.478   1.721  -0.006  0.00  0.00     0.056 C 
ATOM      2  N   UNL d   1       2.390   3.019   0.003  0.00  0.00    -0.260 N 
ATOM      3  HN  UNL d   1       3.197   3.642  -0.018  1.00  0.00     0.194 HD
ATOM      4  C   UNL d   1       1.262   0.822   0.002  0.00  0.00     0.072 C 
ENDROOT
BRANCH   1   5
ATOM      5  C   UNL d   1       3.825   1.127   0.003  0.00  0.00     0.063 A 
ATOM      6  N   UNL d   1       4.919   1.754  -0.601  0.00  0.00    -0.350 N 
ATOM      7  C   UNL d   1       6.014   1.031  -0.463  0.00  0.00     0.075 A 
ATOM      8  HN  UNL d   1       4.876   2.651  -1.084  1.00  0.00     0.166 HD
ATOM      9  S   UNL d   1       5.805  -0.445   0.396  0.00  0.00    -0.084 SA
ATOM     10  C   UNL d   1       4.140  -0.090   0.583  0.00  0.00     0.083 A 
BRANCH   7  11
ATOM     11  C   UNL d   1       7.355   1.362  -1.059  0.00  0.00     0.240 C 
BRANCH  11  12
ATOM     12  O   UNL d   1       8.113   2.082  -0.083  0.00  0.00    -0.345 OA
BRANCH  12  13
ATOM     13  C   UNL d   1       9.357   2.508  -0.468  0.00  0.00     0.069 A 
ATOM     14  C   UNL d   1       9.985   2.219  -1.683  0.00  0.00     0.038 A 
ATOM     15  C   UNL d   1      11.267   2.713  -1.950  0.00  0.00     0.026 A 
ATOM     16  C   UNL d   1      11.923   3.497  -1.004  0.00  0.00     0.034 A 
ATOM     17  C   UNL d   1      11.307   3.791   0.210  0.00  0.00     0.026 A 
ATOM     18 CL   UNL d   1      13.498   4.102  -1.338  0.00  0.00    -0.084 Cl
ATOM     19  C   UNL d   1      10.027   3.294   0.474  0.00  0.00     0.038 A 
ENDBRANCH  12  13
ENDBRANCH  11  12
ENDBRANCH   7  11
ENDBRANCH   1   5
BRANCH   2  20
ATOM     20  O   UNL d   1       1.046   3.469   0.046  0.00  0.00    -0.195 OA
BRANCH  20  21
ATOM     21  C   UNL d   1       0.998   4.705   0.636  0.00  0.00     0.315 C 
ATOM     22  O   UNL d   1       1.927   5.312   1.146  0.00  0.00    -0.257 OA
BRANCH  21  23
ATOM     23  C   UNL d   1      -0.389   5.266   0.640  0.00  0.00     0.041 A 
ATOM     24  C   UNL d   1      -0.572   6.511   1.262  0.00  0.00     0.018 A 
ATOM     25  C   UNL d   1      -1.829   7.121   1.301  0.00  0.00     0.017 A 
ATOM     26  C   UNL d   1      -2.939   6.497   0.718  0.00  0.00     0.048 A 
ATOM     27  C   UNL d   1      -2.760   5.245   0.102  0.00  0.00     0.017 A 
ATOM     28  C   UNL d   1      -1.495   4.631   0.063  0.00  0.00     0.018 A 
BRANCH  26  29
ATOM     29  C   UNL d   1      -4.297   7.159   0.740  0.00  0.00     0.417 C 
ATOM     30  F   UNL d   1      -4.306   8.365   1.375  0.00  0.00    -0.166 F 
ATOM     31  F   UNL d   1      -4.783   7.396  -0.511  0.00  0.00    -0.166 F 
ATOM     32  F   UNL d   1      -5.238   6.402   1.369  0.00  0.00    -0.166 F 
ENDBRANCH  26  29
ENDBRANCH  21  23
ENDBRANCH  20  21
ENDBRANCH   2  20
TORSDOF 8
