REMARK  5 active torsions:
REMARK  status: ('A' for Active; 'I' for Inactive)
REMARK    1  A    between atoms: C_5  and  C_1 
REMARK    2  A    between atoms: C_2  and  C_4 
REMARK    3  A    between atoms: C_3  and  S_8 
REMARK       I    between atoms: N_9  and  C_3 
REMARK    4  A    between atoms: S_8  and  C_7 
REMARK    5  A    between atoms: C_19  and  N_9 
ROOT
ATOM      1  C   UNL d   1       1.321   4.223  -0.131  0.00  0.00     0.050 A 
ATOM      2  C   UNL d   1       1.320   1.793  -0.345  0.00  0.00     0.050 A 
ATOM      3  C   UNL d   1       1.994   3.024  -0.399  0.00  0.00     0.032 A 
ATOM      4  C   UNL d   1      -0.749   2.962   0.233  0.00  0.00     0.011 A 
ATOM      5  C   UNL d   1      -0.050   1.777  -0.014  0.00  0.00     0.035 A 
ATOM      6  C   UNL d   1      -0.047   4.174   0.182  0.00  0.00     0.035 A 
ENDROOT
BRANCH   4   7
ATOM      7  S   UNL d   1      -2.466   3.070   0.706  0.00  0.00    -0.029 SA
BRANCH   7   8
ATOM      8  C   UNL d   1      -3.256   1.646   0.052  0.00  0.00     0.289 C 
ATOM      9  N   UNL d   1      -4.363   1.397   0.816  0.00  0.00    -0.318 N 
ATOM     10  H   UNL d   1      -4.506   2.060   1.565  0.00  0.00     0.169 HD
ATOM     11  O   UNL d   1      -2.818   1.016  -0.898  0.00  0.00    -0.260 OA
BRANCH   9  12
ATOM     12  C   UNL d   1      -5.172   0.249   0.805  0.00  0.00     0.035 A 
ATOM     13  C   UNL d   1      -6.042   0.072   1.889  0.00  0.00     0.029 A 
ATOM     14  C   UNL d   1      -6.779  -1.108   2.021  0.00  0.00     0.002 A 
ATOM     15  C   UNL d   1      -6.675  -2.103   1.054  0.00  0.00     0.000 A 
ATOM     16  C   UNL d   1      -5.857  -1.907  -0.058  0.00  0.00     0.002 A 
ATOM     17  C   UNL d   1      -5.109  -0.734  -0.183  0.00  0.00     0.029 A 
ENDBRANCH   9  12
ENDBRANCH   7   8
ENDBRANCH   4   7
BRANCH   2  18
ATOM     18  C   UNL d   1       2.044   0.499  -0.640  0.00  0.00     0.417 C 
ATOM     19  F   UNL d   1       3.377   0.668  -0.868  0.00  0.00    -0.166 F 
ATOM     20  F   UNL d   1       1.556  -0.137  -1.739  0.00  0.00    -0.166 F 
ATOM     21  F   UNL d   1       1.955  -0.392   0.385  0.00  0.00    -0.166 F 
ENDBRANCH   2  18
BRANCH   1  22
ATOM     22  C   UNL d   1       2.034   5.553  -0.145  0.00  0.00     0.417 C 
ATOM     23  F   UNL d   1       3.313   5.479  -0.605  0.00  0.00    -0.166 F 
ATOM     24  F   UNL d   1       1.406   6.473  -0.926  0.00  0.00    -0.166 F 
ATOM     25  F   UNL d   1       2.113   6.106   1.097  0.00  0.00    -0.166 F 
ENDBRANCH   1  22
TORSDOF 5
