REMARK  4 active torsions:
REMARK  status: ('A' for Active; 'I' for Inactive)
REMARK       I    between atoms: N_8  and  C_5 
REMARK    1  A    between atoms: C_12  and  C_5 
REMARK    2  A    between atoms: C_12  and  N_9 
REMARK    3  A    between atoms: C_13  and  N_10 
REMARK    4  A    between atoms: O_29  and  C_24 
ROOT
ATOM      1  C   UNL d   1       7.195  -3.701   0.202  0.00  0.00     0.310 C 
ATOM      2  C   UNL d   1       7.726  -4.805  -0.735  0.00  0.00     0.053 C 
ENDROOT
BRANCH   1   3
ATOM      3  N   UNL d   1       8.143  -3.458   1.326  0.00  0.00     0.104 N 
ATOM      4  C   UNL d   1       7.635  -2.436   2.285  0.00  0.00     0.293 C 
ATOM      5  C   UNL d   1       8.640  -2.153   3.427  0.00  0.00     0.155 C 
ATOM      6  N   UNL d   1       9.945  -1.763   2.884  0.00  0.00    -0.358 N 
ATOM      7  C   UNL d   1      10.537  -0.600   3.240  0.00  0.00     0.148 A 
ATOM      8  C   UNL d   1      10.491  -2.683   1.890  0.00  0.00     0.155 C 
ATOM      9  N   UNL d   1       9.902   0.382   3.856  0.00  0.00    -0.335 N 
ATOM     10  S   UNL d   1      12.209  -0.260   2.951  0.00  0.00    -0.052 SA
ATOM     11  C   UNL d   1      10.740   1.458   4.082  0.00  0.00     0.053 A 
ATOM     12  HN  UNL d   1       8.920   0.350   4.130  1.00  0.00     0.168 HD
ATOM     13  C   UNL d   1      10.373   2.676   4.690  0.00  0.00     0.054 A 
ATOM     14  C   UNL d   1      12.053   1.288   3.659  0.00  0.00     0.035 A 
ATOM     15  C   UNL d   1      11.341   3.673   4.855  0.00  0.00     0.036 A 
ATOM     16 CL   UNL d   1      10.899   5.164   5.598  0.00  0.00    -0.084 Cl
ATOM     17  C   UNL d   1      12.649   3.481   4.432  0.00  0.00     0.025 A 
ATOM     18  C   UNL d   1      13.031   2.284   3.823  0.00  0.00     0.023 A 
ATOM     19  C   UNL d   1       9.444  -2.964   0.797  0.00  0.00     0.293 C 
ENDBRANCH   1   3
BRANCH   1  20
ATOM     20  C   UNL d   1       5.772  -4.152   0.636  0.00  0.00     0.253 C 
ATOM     21  N   UNL d   1       4.802  -4.141  -0.375  0.00  0.00    -0.347 N 
ATOM     22  C   UNL d   1       3.419  -4.512  -0.022  0.00  0.00     0.145 C 
ATOM     23  C   UNL d   1       4.933  -3.327  -1.593  0.00  0.00     0.145 C 
ATOM     24  C   UNL d   1       2.562  -4.978  -1.236  0.00  0.00     0.143 C 
ATOM     25  N   UNL d   1       2.753  -4.037  -2.356  0.00  0.00    -0.376 N 
ATOM     26  C   UNL d   1       4.157  -3.926  -2.760  0.00  0.00     0.143 C 
ATOM     27  O   UNL d   1       5.500  -4.553   1.772  0.00  0.00    -0.271 OA
BRANCH  25  28
ATOM     28  C   UNL d   1       1.765  -3.763  -3.292  0.00  0.00     0.064 A 
ATOM     29  C   UNL d   1       0.497  -3.230  -2.980  0.00  0.00     0.094 A 
ATOM     30  C   UNL d   1      -0.379  -2.829  -4.007  0.00  0.00     0.039 A 
ATOM     31  C   UNL d   1      -0.030  -2.950  -5.350  0.00  0.00     0.003 A 
ATOM     32  C   UNL d   1       1.181  -3.526  -5.682  0.00  0.00     0.002 A 
ATOM     33  C   UNL d   1       2.052  -3.933  -4.669  0.00  0.00     0.032 A 
BRANCH  29  34
ATOM     34  O   UNL d   1      -0.062  -3.083  -1.736  0.00  0.00    -0.354 OA
ATOM     35  C   UNL d   1       0.705  -2.410  -0.751  0.00  0.00     0.210 C 
ENDBRANCH  29  34
ENDBRANCH  25  28
ENDBRANCH   1  20
TORSDOF 4
