REMARK  3 active torsions:
REMARK  status: ('A' for Active; 'I' for Inactive)
REMARK    1  A    between atoms: C_6  and  S_1 
REMARK    2  A    between atoms: C_10  and  S_1 
REMARK    3  A    between atoms: C_2  and  C_11 
ROOT
ATOM      1  C   UNL d   1       0.379  -0.762  -1.480  0.00  0.00     0.064 A 
ATOM      2  C   UNL d   1      -0.448  -2.058  -3.830  0.00  0.00    -0.008 A 
ATOM      3  C   UNL d   1       0.684  -2.110  -1.671  0.00  0.00     0.025 A 
ATOM      4  C   UNL d   1      -0.327  -0.050  -2.453  0.00  0.00     0.025 A 
ATOM      5  C   UNL d   1       0.266  -2.752  -2.840  0.00  0.00     0.015 A 
ATOM      6  C   UNL d   1      -0.746  -0.702  -3.617  0.00  0.00     0.015 A 
ENDROOT
BRANCH   1   7
ATOM      7  S   UNL d   1       0.971   0.081  -0.029  0.00  0.00     0.206 S 
ATOM      8  O   UNL d   1       1.242   1.454  -0.419  0.00  0.00    -0.217 OA
ATOM      9  O   UNL d   1       2.025  -0.733   0.548  0.00  0.00    -0.217 OA
BRANCH   7  10
ATOM     10  C   UNL d   1      -0.373   0.108   1.135  0.00  0.00     0.064 A 
ATOM     11  C   UNL d   1      -0.530  -0.952   2.033  0.00  0.00     0.024 A 
ATOM     12  C   UNL d   1      -1.549  -0.898   2.985  0.00  0.00     0.002 A 
ATOM     13  C   UNL d   1      -2.398   0.209   3.039  0.00  0.00     0.000 A 
ATOM     14  C   UNL d   1      -2.232   1.268   2.146  0.00  0.00     0.002 A 
ATOM     15  C   UNL d   1      -1.213   1.224   1.194  0.00  0.00     0.024 A 
ENDBRANCH   7  10
ENDBRANCH   1   7
BRANCH   2  16
ATOM     16  C   UNL d   1      -0.861  -2.743  -5.054  0.00  0.00     0.059 A 
ATOM     17  N   UNL d   1      -1.010  -2.120  -6.269  0.00  0.00    -0.300 N 
ATOM     18  N   UNL d   1      -1.400  -2.935  -7.264  0.00  0.00    -0.311 N 
ATOM     19  H   UNL d   1      -0.849  -1.144  -6.490  0.00  0.00     0.187 HD
ATOM     20  C   UNL d   1      -1.478  -4.128  -6.676  0.00  0.00     0.109 A 
ATOM     21  HN  UNL d   1      -1.591  -2.697  -8.237  1.00  0.00     0.186 HD
ATOM     22  C   UNL d   1      -1.146  -4.072  -5.311  0.00  0.00     0.050 A 
ENDBRANCH   2  16
TORSDOF 3
