REMARK  5 active torsions:
REMARK  status: ('A' for Active; 'I' for Inactive)
REMARK    1  A    between atoms: C_7  and  C_1 
REMARK       I    between atoms: C_2  and  N_6 
REMARK    2  A    between atoms: N_6  and  C_15 
REMARK    3  A    between atoms: S_10  and  C_7 
REMARK    4  A    between atoms: C_16  and  S_10 
REMARK    5  A    between atoms: C_15  and  C_16 
ROOT
ATOM      1  C   UNL d   1      -0.197   2.366   0.080  0.00  0.00     0.117 C 
ENDROOT
BRANCH   1   2
ATOM      2  C   UNL d   1      -0.351   0.872  -0.037  0.00  0.00     0.011 A 
ATOM      3  C   UNL d   1      -0.448   0.203  -1.266  0.00  0.00     0.044 A 
ATOM      4 CL   UNL d   1      -0.348   1.041  -2.775  0.00  0.00    -0.084 Cl
ATOM      5  C   UNL d   1      -0.629  -1.186  -1.315  0.00  0.00     0.024 A 
ATOM      6  C   UNL d   1      -0.720  -1.928  -0.137  0.00  0.00     0.005 A 
ATOM      7  C   UNL d   1      -0.628  -1.280   1.089  0.00  0.00     0.043 A 
ATOM      8  C   UNL d   1      -0.447   0.102   1.128  0.00  0.00     0.125 A 
ATOM      9  F   UNL d   1      -0.361   0.695   2.329  0.00  0.00    -0.205 F 
ENDBRANCH   1   2
BRANCH   1  10
ATOM     10  S   UNL d   1      -1.818   3.196   0.016  0.00  0.00    -0.163 SA
BRANCH  10  11
ATOM     11  C   UNL d   1      -1.260   4.931   0.127  0.00  0.00     0.093 C 
BRANCH  11  12
ATOM     12  C   UNL d   1      -2.486   5.848   0.161  0.00  0.00     0.132 C 
BRANCH  12  13
ATOM     13  N   UNL d   1      -2.163   7.266   0.157  0.00  0.00    -0.361 N 
ATOM     14  C   UNL d   1      -1.611   7.880   1.258  0.00  0.00     0.213 C 
ATOM     15  O   UNL d   1      -1.209   7.272   2.244  0.00  0.00    -0.274 OA
ATOM     16  C   UNL d   1      -1.527   9.380   1.159  0.00  0.00     0.117 C 
ATOM     17  H   UNL d   1      -2.622   7.845  -0.535  0.00  0.00     0.162 HD
ENDBRANCH  12  13
ENDBRANCH  11  12
ENDBRANCH  10  11
ENDBRANCH   1  10
TORSDOF 5
