REMARK  4 active torsions:
REMARK  status: ('A' for Active; 'I' for Inactive)
REMARK    1  A    between atoms: C_7  and  C_2 
REMARK    2  A    between atoms: O_8  and  C_7 
REMARK    3  A    between atoms: C_9  and  O_8 
REMARK    4  A    between atoms: C_12  and  C_10 
ROOT
ATOM      1  C   UNL d   1      -4.213   0.221  -1.322  0.00  0.00     0.081 A 
ATOM      2  C   UNL d   1      -3.605   1.504  -1.345  0.00  0.00     0.007 A 
ATOM      3  C   UNL d   1      -5.567   0.084  -1.677  0.00  0.00     0.037 A 
ATOM      4  C   UNL d   1      -4.419   2.596  -1.740  0.00  0.00     0.015 A 
ATOM      5  C   UNL d   1      -6.338   1.189  -2.042  0.00  0.00     0.003 A 
ATOM      6  C   UNL d   1      -5.763   2.448  -2.076  0.00  0.00     0.001 A 
ENDROOT
BRANCH   1   7
ATOM      7  O   UNL d   1      -3.420  -0.854  -0.981  0.00  0.00    -0.338 OA
BRANCH   7   8
ATOM      8  C   UNL d   1      -4.037  -2.053  -0.512  0.00  0.00     0.194 C 
ATOM      9  C   UNL d   1      -3.063  -3.214  -0.681  0.00  0.00     0.048 C 
BRANCH   8  10
ATOM     10  C   UNL d   1      -4.533  -1.871   0.915  0.00  0.00     0.129 A 
ATOM     11  N   UNL d   1      -3.750  -1.603   1.988  0.00  0.00    -0.314 N 
ATOM     12  C   UNL d   1      -4.626  -1.401   3.027  0.00  0.00     0.194 A 
ATOM     13  C   UNL d   1      -2.313  -1.419   2.059  0.00  0.00     0.160 C 
ATOM     14  N   UNL d   1      -5.890  -1.640   2.515  0.00  0.00    -0.275 N 
ATOM     15  S   UNL d   1      -4.340  -0.946   4.594  0.00  0.00    -0.039 SA
ATOM     16  N   UNL d   1      -5.815  -1.919   1.187  0.00  0.00    -0.284 N 
ATOM     17  H   UNL d   1      -6.773  -1.515   2.996  0.00  0.00     0.189 HD
ATOM     18  HN  UNL d   1      -6.583  -2.120   0.547  1.00  0.00     0.188 HD
ENDBRANCH   8  10
ENDBRANCH   7   8
ENDBRANCH   1   7
BRANCH   2  19
ATOM     19  C   UNL d   1      -2.183   1.776  -0.982  0.00  0.00    -0.023 A 
ATOM     20  C   UNL d   1      -1.134   0.905  -1.324  0.00  0.00     0.012 A 
ATOM     21  C   UNL d   1       0.200   1.204  -1.019  0.00  0.00     0.001 A 
ATOM     22  C   UNL d   1       0.524   2.400  -0.386  0.00  0.00     0.000 A 
ATOM     23  C   UNL d   1      -0.488   3.284  -0.035  0.00  0.00     0.001 A 
ATOM     24  C   UNL d   1      -1.821   2.965  -0.313  0.00  0.00     0.012 A 
ENDBRANCH   2  19
TORSDOF 4
