REMARK  3 active torsions:
REMARK  status: ('A' for Active; 'I' for Inactive)
REMARK    1  A    between atoms: C_2  and  C_1 
REMARK    2  A    between atoms: C_5  and  C_1 
REMARK    3  A    between atoms: C_10  and  C_3 
ROOT
ATOM      1  C   UNL d   1       0.278  -1.172   0.043  0.00  0.00     0.015 A 
ATOM      2  C   UNL d   1      -1.227  -3.580   0.034  0.00  0.00    -0.026 A 
ATOM      3  C   UNL d   1       0.512  -2.153   1.011  0.00  0.00     0.016 A 
ATOM      4  C   UNL d   1      -0.684  -1.400  -0.944  0.00  0.00     0.016 A 
ATOM      5  C   UNL d   1      -0.237  -3.337   1.005  0.00  0.00     0.013 A 
ATOM      6  C   UNL d   1      -1.432  -2.583  -0.937  0.00  0.00     0.013 A 
ENDROOT
BRANCH   1   7
ATOM      7  C   UNL d   1       1.056   0.093   0.002  0.00  0.00     0.192 C 
ATOM      8  O   UNL d   1       1.313   0.603  -1.085  0.00  0.00    -0.287 OA
BRANCH   7   9
ATOM      9  C   UNL d   1       1.533   0.752   1.245  0.00  0.00     0.015 A 
ATOM     10  C   UNL d   1       0.781   0.731   2.426  0.00  0.00     0.015 A 
ATOM     11  C   UNL d   1       1.268   1.357   3.575  0.00  0.00     0.001 A 
ATOM     12  C   UNL d   1       2.496   2.020   3.542  0.00  0.00     0.000 A 
ATOM     13  C   UNL d   1       3.234   2.069   2.360  0.00  0.00     0.001 A 
ATOM     14  C   UNL d   1       2.752   1.442   1.210  0.00  0.00     0.015 A 
ENDBRANCH   7   9
ENDBRANCH   1   7
BRANCH   2  15
ATOM     15  C   UNL d   1      -1.999  -4.845   0.025  0.00  0.00    -0.026 A 
ATOM     16  C   UNL d   1      -2.370  -5.469  -1.180  0.00  0.00     0.012 A 
ATOM     17  C   UNL d   1      -3.082  -6.673  -1.193  0.00  0.00     0.001 A 
ATOM     18  C   UNL d   1      -3.433  -7.289   0.004  0.00  0.00     0.000 A 
ATOM     19  C   UNL d   1      -3.082  -6.695   1.211  0.00  0.00     0.001 A 
ATOM     20  C   UNL d   1      -2.380  -5.485   1.220  0.00  0.00     0.012 A 
ENDBRANCH   2  15
TORSDOF 3
