REMARK  3 active torsions:
REMARK  status: ('A' for Active; 'I' for Inactive)
REMARK    1  A    between atoms: C_2  and  N_1 
REMARK    2  A    between atoms: S_3  and  C_6 
REMARK    3  A    between atoms: C_8  and  S_3 
ROOT
ATOM      1  C   UNL d   1       0.223   1.260  -0.526  0.00  0.00     0.118 A 
ATOM      2  N   UNL d   1      -1.560   2.861  -0.252  0.00  0.00    -0.358 N 
ATOM      3  HN  UNL d   1      -2.348   3.220   0.287  1.00  0.00     0.166 HD
ATOM      4  C   UNL d   1      -1.183   3.446  -1.418  0.00  0.00     0.075 A 
ATOM      5  C   UNL d   1      -0.853   1.783   0.172  0.00  0.00     0.124 A 
ATOM      6  C   UNL d   1       0.607   1.863  -1.723  0.00  0.00     0.040 A 
ATOM      7  C   UNL d   1      -0.116   2.968  -2.177  0.00  0.00     0.040 A 
ENDROOT
BRANCH   4   8
ATOM      8  S   UNL d   1      -2.203   4.786  -1.981  0.00  0.00    -0.055 SA
BRANCH   8   9
ATOM      9  C   UNL d   1      -1.048   6.140  -1.995  0.00  0.00     0.075 A 
ATOM     10  N   UNL d   1      -0.004   6.069  -2.855  0.00  0.00    -0.360 N 
ATOM     11  C   UNL d   1       0.826   7.134  -2.907  0.00  0.00     0.089 A 
ATOM     12  HN  UNL d   1       0.149   5.247  -3.439  1.00  0.00     0.166 HD
ATOM     13  C   UNL d   1       0.665   8.277  -2.143  0.00  0.00     0.017 A 
ATOM     14  C   UNL d   1      -0.413   8.333  -1.269  0.00  0.00     0.004 A 
ATOM     15  C   UNL d   1      -1.286   7.251  -1.193  0.00  0.00     0.037 A 
ENDBRANCH   8   9
ENDBRANCH   4   8
BRANCH   1  16
ATOM     16  N   UNL d   1       0.925   0.092  -0.014  0.00  0.00    -0.114 N 
ATOM     17  O   UNL d   1       0.524  -0.402   1.049  0.00  0.00    -0.532 OA
ATOM     18  O   UNL d   1       1.882  -0.338  -0.672  0.00  0.00    -0.532 OA
ENDBRANCH   1  16
TORSDOF 3
