REMARK  3 active torsions:
REMARK  status: ('A' for Active; 'I' for Inactive)
REMARK    1  A    between atoms: C4_7  and  C1_3 
REMARK    2  A    between atoms: C5_8  and  C2_5 
REMARK    3  A    between atoms: O1_9  and  C5_8 
ROOT
ATOM      1  N1  <1> d   1       1.313  -0.554   0.417  0.00  0.00    -0.351 N 
ATOM      2  H1  <1> d   1       2.101  -1.049   0.834  1.00  0.00     0.166 HD
ATOM      3  C1  <1> d   1       0.225  -1.133  -0.059  0.00  0.00     0.084 A 
ATOM      4  S1  <1> d   1      -0.968  -0.034  -0.654  0.00  0.00    -0.081 SA
ATOM      5  C2  <1> d   1       1.233   0.830   0.269  0.00  0.00     0.040 A 
ATOM      6  C3  <1> d   1       0.057   1.284  -0.291  0.00  0.00     0.079 A 
ENDROOT
BRANCH   3   7
ATOM      7  C4  <1> d   1      -0.025  -2.585  -0.056  0.00  0.00    -0.002 A 
ATOM      8  C6  <1> d   1       0.505  -3.378   0.974  0.00  0.00     0.014 A 
ATOM      9  C9  <1> d   1       0.267  -4.756   1.016  0.00  0.00     0.001 A 
ATOM     10  C10 <1> d   1      -0.495  -5.363   0.021  0.00  0.00     0.000 A 
ATOM     11  C8  <1> d   1      -1.012  -4.597  -1.020  0.00  0.00     0.001 A 
ATOM     12  C7  <1> d   1      -0.777  -3.220  -1.059  0.00  0.00     0.014 A 
ENDBRANCH   3   7
BRANCH   5  13
ATOM     13  C5  <1> d   1       2.388   1.667   0.714  0.00  0.00     0.221 C 
BRANCH  13  14
ATOM     14  O1  <1> d   1       3.622   0.961   0.599  0.00  0.00    -0.395 OA
ATOM     15  H4  <1> d   1       3.374   0.017   0.653  0.00  0.00     0.209 HD
ENDBRANCH  13  14
ENDBRANCH   5  13
TORSDOF 3
