REMARK  4 active torsions:
REMARK  status: ('A' for Active; 'I' for Inactive)
REMARK    1  A    between atoms: C_6  and  C_1 
REMARK    2  A    between atoms: C_3  and  C_2 
REMARK       I    between atoms: N_8  and  C_3 
REMARK    3  A    between atoms: N_12  and  N_8 
REMARK    4  A    between atoms: C_11  and  N_12 
ROOT
ATOM      1  C   UNL d   1      -2.620  -5.314   1.707  0.00  0.00     0.094 A 
ATOM      2  C   UNL d   1      -1.876  -5.801   0.594  0.00  0.00     0.072 A 
ATOM      3  C   UNL d   1      -2.535  -3.943   2.135  0.00  0.00     0.103 C 
ATOM      4  N   UNL d   1      -2.506  -2.822   2.425  0.00  0.00    -0.191 NA
ATOM      5  C   UNL d   1      -3.492  -6.157   2.421  0.00  0.00     0.057 A 
ATOM      6 CL   UNL d   1      -4.411  -5.604   3.786  0.00  0.00    -0.083 Cl
ATOM      7  C   UNL d   1      -2.104  -7.157   0.252  0.00  0.00     0.033 A 
ATOM      8  C   UNL d   1      -2.983  -7.985   0.958  0.00  0.00     0.004 A 
ATOM      9  C   UNL d   1      -3.671  -7.491   2.046  0.00  0.00     0.025 A 
ENDROOT
BRANCH   2  10
ATOM     10  N   UNL d   1      -0.999  -5.034  -0.203  0.00  0.00    -0.292 N 
ATOM     11  C   UNL d   1       0.134  -5.619  -0.931  0.00  0.00     0.178 C 
BRANCH  10  12
ATOM     12  N   UNL d   1      -1.036  -3.627  -0.098  0.00  0.00    -0.263 N 
ATOM     13  C   UNL d   1       0.083  -2.871   0.241  0.00  0.00     0.275 C 
ATOM     14  O   UNL d   1       1.158  -3.391   0.541  0.00  0.00    -0.266 OA
ATOM     15  H   UNL d   1      -1.909  -3.193  -0.356  0.00  0.00     0.190 HD
BRANCH  13  16
ATOM     16  C   UNL d   1      -0.074  -1.415   0.201  0.00  0.00     0.094 A 
ATOM     17  C   UNL d   1      -1.024  -0.502  -0.397  0.00  0.00     0.086 A 
ATOM     18  N   UNL d   1      -0.607   0.764  -0.223  0.00  0.00    -0.259 N 
ATOM     19  O   UNL d   1       0.489   0.724   0.582  0.00  0.00    -0.241 OA
ATOM     20  HN  UNL d   1      -1.034   1.600  -0.622  1.00  0.00     0.195 HD
ATOM     21  C   UNL d   1       0.820  -0.559   0.843  0.00  0.00     0.090 A 
ATOM     22  C   UNL d   1       1.997  -0.707   1.724  0.00  0.00     0.080 C 
BRANCH  17  23
ATOM     23  C   UNL d   1      -2.285  -0.692  -1.144  0.00  0.00     0.037 A 
ATOM     24  C   UNL d   1      -3.443   0.058  -0.807  0.00  0.00     0.048 A 
ATOM     25 CL   UNL d   1      -3.511   1.207   0.493  0.00  0.00    -0.083 Cl
ATOM     26  C   UNL d   1      -4.643  -0.088  -1.522  0.00  0.00     0.025 A 
ATOM     27  C   UNL d   1      -4.741  -1.012  -2.552  0.00  0.00     0.003 A 
ATOM     28  C   UNL d   1      -3.617  -1.746  -2.913  0.00  0.00     0.025 A 
ATOM     29  C   UNL d   1      -2.390  -1.550  -2.255  0.00  0.00     0.048 A 
ATOM     30 CL   UNL d   1      -1.031  -2.364  -2.953  0.00  0.00    -0.083 Cl
ENDBRANCH  17  23
ENDBRANCH  13  16
ENDBRANCH  10  12
ENDBRANCH   2  10
TORSDOF 4
