REMARK  3 active torsions:
REMARK  status: ('A' for Active; 'I' for Inactive)
REMARK    1  A    between atoms: N_2  and  S_1 
REMARK    2  A    between atoms: C_7  and  S_1 
REMARK       I    between atoms: C_4  and  N_2 
REMARK       I    between atoms: N_5  and  C_4 
REMARK    3  A    between atoms: C_10  and  N_5 
ROOT
ATOM      1  N   UNL d   1       1.501  -1.417  -0.356  0.00  0.00    -0.265 N 
ATOM      2  HN  UNL d   1       2.387  -1.709   0.058  1.00  0.00     0.180 HD
ATOM      3  C   UNL d   1       0.999  -2.147  -1.422  0.00  0.00     0.332 C 
ATOM      4  N   UNL d   1       1.930  -3.032  -1.887  0.00  0.00    -0.308 N 
ATOM      5  O   UNL d   1      -0.134  -2.039  -1.859  0.00  0.00    -0.246 OA
ATOM      6  H   UNL d   1       2.678  -3.174  -1.227  0.00  0.00     0.170 HD
ENDROOT
BRANCH   1   7
ATOM      7  S   UNL d   1       0.789  -0.189   0.233  0.00  0.00     0.056 S 
ATOM      8  O   UNL d   1      -0.327  -0.227   1.160  0.00  0.00    -0.245 OA
ATOM      9  C   UNL d   1       2.065   0.730   1.065  0.00  0.00     0.142 C 
BRANCH   7  10
ATOM     10  C   UNL d   1       0.268   0.859  -1.121  0.00  0.00     0.038 A 
ATOM     11  C   UNL d   1      -1.061   0.756  -1.552  0.00  0.00     0.022 A 
ATOM     12  C   UNL d   1      -1.503   1.520  -2.632  0.00  0.00     0.001 A 
ATOM     13  C   UNL d   1      -0.629   2.404  -3.257  0.00  0.00     0.000 A 
ATOM     14  C   UNL d   1       0.689   2.527  -2.808  0.00  0.00     0.001 A 
ATOM     15  C   UNL d   1       1.147   1.748  -1.741  0.00  0.00     0.022 A 
ENDBRANCH   7  10
ENDBRANCH   1   7
BRANCH   4  16
ATOM     16  C   UNL d   1       1.820  -3.848  -3.019  0.00  0.00     0.036 A 
ATOM     17  C   UNL d   1       0.967  -3.542  -4.082  0.00  0.00     0.029 A 
ATOM     18  C   UNL d   1       0.845  -4.416  -5.162  0.00  0.00     0.002 A 
ATOM     19  C   UNL d   1       1.577  -5.598  -5.186  0.00  0.00     0.000 A 
ATOM     20  C   UNL d   1       2.468  -5.885  -4.154  0.00  0.00     0.002 A 
ATOM     21  C   UNL d   1       2.606  -5.001  -3.080  0.00  0.00     0.029 A 
ENDBRANCH   4  16
TORSDOF 3
