REMARK  7 active torsions:
REMARK  status: ('A' for Active; 'I' for Inactive)
REMARK    1  A    between atoms: C_8  and  C_4 
REMARK    2  A    between atoms: C_9  and  C_5 
REMARK    3  A    between atoms: C_7  and  C_6 
REMARK    4  A    between atoms: O_22  and  C_8 
REMARK    5  A    between atoms: O_21  and  C_9 
REMARK    6  A    between atoms: O_23  and  C_15 
REMARK    7  A    between atoms: O_24  and  C_17 
ROOT
ATOM      1  S   UNL d   1       0.905   1.525  -0.427  0.00  0.00     0.171 S 
ATOM      2  S   UNL d   1       0.900  -1.407  -0.335  0.00  0.00     0.171 S 
ATOM      3  C   UNL d   1       1.750   0.073   0.076  0.00  0.00     0.281 C 
ATOM      4  C   UNL d   1      -0.694  -1.230   0.424  0.00  0.00     0.218 C 
ATOM      5  C   UNL d   1      -0.763   1.376   0.170  0.00  0.00     0.218 C 
ATOM      6  C   UNL d   1      -1.433   0.014  -0.120  0.00  0.00     0.075 C 
ATOM      7  O   UNL d   1       1.529   2.616   0.299  0.00  0.00    -0.226 OA
ATOM      8  O   UNL d   1       0.894   1.547  -1.875  0.00  0.00    -0.226 OA
ATOM      9  O   UNL d   1       0.697  -1.464  -1.768  0.00  0.00    -0.226 OA
ATOM     10  O   UNL d   1       1.598  -2.497   0.322  0.00  0.00    -0.226 OA
ENDROOT
BRANCH   6  11
ATOM     11  C   UNL d   1      -2.896  -0.035   0.335  0.00  0.00    -0.048 A 
ATOM     12  C   UNL d   1      -3.855  -0.621  -0.515  0.00  0.00     0.047 A 
ATOM     13  C   UNL d   1      -5.207  -0.664  -0.159  0.00  0.00     0.101 A 
ATOM     14  C   UNL d   1      -5.599  -0.148   1.080  0.00  0.00     0.099 A 
ATOM     15  C   UNL d   1      -4.666   0.430   1.937  0.00  0.00     0.040 A 
ATOM     16  C   UNL d   1      -3.321   0.485   1.567  0.00  0.00     0.010 A 
BRANCH  13  17
ATOM     17  O   UNL d   1      -6.184  -1.231  -0.935  0.00  0.00    -0.353 OA
ATOM     18  C   UNL d   1      -5.981  -1.151  -2.341  0.00  0.00     0.210 C 
ENDBRANCH  13  17
BRANCH  14  19
ATOM     19  O   UNL d   1      -6.917  -0.202   1.444  0.00  0.00    -0.358 OA
ATOM     20  H   UNL d   1      -7.019   0.155   2.339  0.00  0.00     0.217 HD
ENDBRANCH  14  19
ENDBRANCH   6  11
BRANCH   4  21
ATOM     21  C   UNL d   1      -0.455  -1.221   1.905  0.00  0.00     0.278 C 
ATOM     22  O   UNL d   1      -0.139  -0.205   2.515  0.00  0.00    -0.264 OA
BRANCH  21  23
ATOM     23  O   UNL d   1      -0.558  -2.454   2.451  0.00  0.00    -0.325 OA
ATOM     24  C   UNL d   1      -0.182  -2.562   3.830  0.00  0.00     0.213 C 
ENDBRANCH  21  23
ENDBRANCH   4  21
BRANCH   5  25
ATOM     25  C   UNL d   1      -1.526   2.510  -0.476  0.00  0.00     0.278 C 
ATOM     26  O   UNL d   1      -2.096   2.446  -1.555  0.00  0.00    -0.264 OA
BRANCH  25  27
ATOM     27  O   UNL d   1      -1.535   3.594   0.349  0.00  0.00    -0.325 OA
ATOM     28  C   UNL d   1      -2.239   4.728  -0.163  0.00  0.00     0.213 C 
ENDBRANCH  25  27
ENDBRANCH   5  25
TORSDOF 7
