REMARK  3 active torsions:
REMARK  status: ('A' for Active; 'I' for Inactive)
REMARK    1  A    between atoms: C_9  and  N_2 
REMARK    2  A    between atoms: C_8  and  C_6 
REMARK    3  A    between atoms: N_11  and  C_7 
ROOT
ATOM      1  C   UNL d   1      -0.630  -1.239  -0.013  0.00  0.00     0.074 A 
ATOM      2  N   UNL d   1       0.676   0.277  -1.083  0.00  0.00    -0.220 N 
ATOM      3  C   UNL d   1       0.729  -1.038  -0.603  0.00  0.00     0.280 A 
ATOM      4  N   UNL d   1      -0.520   0.919  -0.822  0.00  0.00    -0.293 N 
ATOM      5  HN  UNL d   1      -0.752   1.882  -1.069  1.00  0.00     0.187 HD
ATOM      6  C   UNL d   1      -1.306   0.071  -0.200  0.00  0.00     0.051 A 
ATOM      7  C   UNL d   1      -0.894  -2.454   0.489  0.00  0.00     0.103 C 
ATOM      8  O   UNL d   1       1.613  -1.873  -0.654  0.00  0.00    -0.265 OA
ENDROOT
BRANCH   2   9
ATOM      9  C   UNL d   1       1.605   0.932  -1.931  0.00  0.00     0.060 A 
ATOM     10  C   UNL d   1       2.725   0.273  -2.453  0.00  0.00     0.031 A 
ATOM     11  C   UNL d   1       3.569   0.909  -3.371  0.00  0.00     0.002 A 
ATOM     12  C   UNL d   1       3.316   2.220  -3.767  0.00  0.00     0.000 A 
ATOM     13  C   UNL d   1       2.227   2.902  -3.234  0.00  0.00     0.002 A 
ATOM     14  C   UNL d   1       1.381   2.263  -2.323  0.00  0.00     0.031 A 
ENDBRANCH   2   9
BRANCH   6  15
ATOM     15  C   UNL d   1      -2.753   0.462   0.115  0.00  0.00    -0.006 C 
ATOM     16  C   UNL d   1      -3.619  -0.043  -1.051  0.00  0.00     0.021 C 
ATOM     17  C   UNL d   1      -3.261  -0.021   1.477  0.00  0.00     0.021 C 
ATOM     18  C   UNL d   1      -2.888   2.007   0.149  0.00  0.00     0.021 C 
ENDBRANCH   6  15
BRANCH   7  19
ATOM     19  N   UNL d   1      -2.020  -3.045   1.056  0.00  0.00    -0.398 N 
ATOM     20  C   UNL d   1      -3.163  -3.417   0.211  0.00  0.00     0.148 C 
ATOM     21  C   UNL d   1      -1.834  -3.992   2.168  0.00  0.00     0.148 C 
ENDBRANCH   7  19
TORSDOF 3
