REMARK  6 active torsions:
REMARK  status: ('A' for Active; 'I' for Inactive)
REMARK    1  A    between atoms: C_7  and  N_1 
REMARK       I    between atoms: C_2  and  N_3 
REMARK    2  A    between atoms: C_4  and  C_2 
REMARK    3  A    between atoms: N_3  and  C_5 
REMARK    4  A    between atoms: C_5  and  N_11 
REMARK    5  A    between atoms: C_6  and  C_9 
REMARK       I    between atoms: N_8  and  C_6 
REMARK    6  A    between atoms: N_11  and  N_8 
ROOT
ATOM      1  N   UNL d   1      -1.906   2.007  -5.664  0.00  0.00    -0.273 N 
ATOM      2  H   UNL d   1      -2.627   1.406  -5.260  0.00  0.00     0.189 HD
ENDROOT
BRANCH   1   3
ATOM      3  C   UNL d   1      -2.205   2.851  -6.700  0.00  0.00     0.193 C 
ATOM      4  S   UNL d   1      -1.229   4.095  -7.256  0.00  0.00    -0.039 SA
BRANCH   3   5
ATOM      5  N   UNL d   1      -3.378   2.606  -7.375  0.00  0.00    -0.298 N 
ATOM      6  C   UNL d   1      -4.227   1.512  -7.300  0.00  0.00     0.259 C 
ATOM      7  O   UNL d   1      -4.194   0.687  -6.390  0.00  0.00    -0.267 OA
ATOM      8  H   UNL d   1      -3.500   3.240  -8.155  0.00  0.00     0.171 HD
BRANCH   6   9
ATOM      9  C   UNL d   1      -5.286   1.441  -8.347  0.00  0.00     0.054 A 
ATOM     10  C   UNL d   1      -5.118   1.870  -9.674  0.00  0.00     0.049 A 
ATOM     11 CL   UNL d   1      -3.598   2.369 -10.331  0.00  0.00    -0.083 Cl
ATOM     12  C   UNL d   1      -6.207   1.883 -10.553  0.00  0.00     0.025 A 
ATOM     13  C   UNL d   1      -7.459   1.440 -10.128  0.00  0.00     0.002 A 
ATOM     14  C   UNL d   1      -7.620   0.954  -8.834  0.00  0.00     0.001 A 
ATOM     15  C   UNL d   1      -6.537   0.951  -7.948  0.00  0.00     0.019 A 
ENDBRANCH   6   9
ENDBRANCH   3   5
ENDBRANCH   1   3
BRANCH   1  16
ATOM     16  N   UNL d   1      -0.654   2.030  -5.052  0.00  0.00    -0.264 N 
ATOM     17  C   UNL d   1      -0.546   2.229  -3.692  0.00  0.00     0.270 C 
ATOM     18  O   UNL d   1      -1.493   2.400  -2.933  0.00  0.00    -0.266 OA
ATOM     19  H   UNL d   1       0.136   1.814  -5.650  0.00  0.00     0.190 HD
BRANCH  17  20
ATOM     20  C   UNL d   1       0.842   2.132  -3.156  0.00  0.00     0.036 A 
ATOM     21  C   UNL d   1       1.957   2.527  -3.908  0.00  0.00     0.053 A 
ATOM     22  C   UNL d   1       3.243   2.304  -3.395  0.00  0.00     0.103 A 
ATOM     23  C   UNL d   1       3.421   1.715  -2.135  0.00  0.00     0.036 A 
ATOM     24  C   UNL d   1       2.305   1.366  -1.375  0.00  0.00     0.003 A 
ATOM     25  C   UNL d   1       1.020   1.579  -1.881  0.00  0.00     0.017 A 
BRANCH  22  26
ATOM     26  N   UNL d   1       4.418   2.664  -4.200  0.00  0.00    -0.116 N 
ATOM     27  O   UNL d   1       4.218   3.214  -5.291  0.00  0.00    -0.532 OA
ATOM     28  O   UNL d   1       5.536   2.383  -3.747  0.00  0.00    -0.532 OA
ENDBRANCH  22  26
ENDBRANCH  17  20
ENDBRANCH   1  16
TORSDOF 6
