REMARK  0 active torsions:
REMARK  status: ('A' for Active; 'I' for Inactive)
ROOT
ATOM      1  N   UNL d   1      -0.007  -0.856   1.072  0.00  0.00    -0.355 N 
ATOM      2  C   UNL d   1       1.242  -0.502   0.504  0.00  0.00     0.043 A 
ATOM      3  C   UNL d   1      -1.253  -0.483   0.512  0.00  0.00     0.043 A 
ATOM      4  C   UNL d   1       0.683   1.966   0.336  0.00  0.00     0.014 C 
ATOM      5  C   UNL d   1      -0.658   1.974   0.334  0.00  0.00     0.014 C 
ATOM      6  C   UNL d   1       1.555   0.806   0.092  0.00  0.00    -0.009 A 
ATOM      7  C   UNL d   1      -1.546   0.828   0.094  0.00  0.00    -0.009 A 
ATOM      8  C   UNL d   1       2.176  -1.531   0.279  0.00  0.00     0.030 A 
ATOM      9  C   UNL d   1      -2.207  -1.496   0.299  0.00  0.00     0.030 A 
ATOM     10  C   UNL d   1       2.798   1.054  -0.516  0.00  0.00     0.013 A 
ATOM     11  C   UNL d   1      -2.787   1.091  -0.514  0.00  0.00     0.013 A 
ATOM     12  C   UNL d   1       3.394  -1.275  -0.351  0.00  0.00     0.002 A 
ATOM     13  C   UNL d   1      -3.422  -1.225  -0.327  0.00  0.00     0.002 A 
ATOM     14  C   UNL d   1       3.704   0.019  -0.749  0.00  0.00     0.001 A 
ATOM     15  C   UNL d   1      -3.713   0.070  -0.735  0.00  0.00     0.001 A 
ATOM     16  H   UNL d   1      -0.013  -1.806   1.423  0.00  0.00     0.166 HD
ENDROOT
TORSDOF 0
