REMARK  3 active torsions:
REMARK  status: ('A' for Active; 'I' for Inactive)
REMARK    1  A    between atoms: C_2  and  S_1 
REMARK    2  A    between atoms: O_14  and  S_1 
REMARK    3  A    between atoms: C_13  and  O_14 
ROOT
ATOM      1  C   UNL d   1       0.066  -2.944  -3.637  0.00  0.00     0.088 A 
ATOM      2  C   UNL d   1       1.430  -2.918  -4.147  0.00  0.00     0.085 A 
ATOM      3  C   UNL d   1      -0.271  -2.457  -2.360  0.00  0.00     0.072 A 
ATOM      4  O   UNL d   1       0.114  -3.787  -5.639  0.00  0.00    -0.156 OA
ATOM      5  N   UNL d   1      -0.720  -3.489  -4.573  0.00  0.00    -0.239 N 
ATOM      6  HN  UNL d   1      -1.725  -3.651  -4.515  1.00  0.00     0.197 HD
ATOM      7  N   UNL d   1       1.430  -3.443  -5.378  0.00  0.00    -0.240 N 
ATOM      8  HN  UNL d   1       2.233  -3.565  -5.995  1.00  0.00     0.197 HD
ATOM      9  C   UNL d   1       0.810  -1.926  -1.627  0.00  0.00     0.092 A 
ATOM     10  C   UNL d   1       2.502  -2.411  -3.394  0.00  0.00     0.037 A 
ATOM     11  C   UNL d   1       2.146  -1.924  -2.119  0.00  0.00     0.040 A 
ENDROOT
BRANCH   9  12
ATOM     12  O   UNL d   1       0.482  -1.453  -0.372  0.00  0.00    -0.229 OA
BRANCH  12  13
ATOM     13  S   UNL d   1       1.246  -0.152   0.255  0.00  0.00     0.309 S 
ATOM     14  O   UNL d   1       2.560  -0.536   0.728  0.00  0.00    -0.192 OA
ATOM     15  O   UNL d   1       1.025   1.013  -0.573  0.00  0.00    -0.192 OA
BRANCH  13  16
ATOM     16  C   UNL d   1       0.311   0.120   1.744  0.00  0.00     0.129 A 
ATOM     17  S   UNL d   1      -1.359   0.457   1.555  0.00  0.00    -0.064 SA
ATOM     18  C   UNL d   1      -1.565   0.611   3.228  0.00  0.00     0.076 A 
ATOM     19 CL   UNL d   1      -3.114   0.985   3.867  0.00  0.00    -0.076 Cl
ATOM     20  C   UNL d   1      -0.414   0.410   3.945  0.00  0.00     0.033 A 
ATOM     21  C   UNL d   1       0.682   0.126   3.079  0.00  0.00     0.035 A 
ENDBRANCH  13  16
ENDBRANCH  12  13
ENDBRANCH   9  12
TORSDOF 3
