REMARK  5 active torsions:
REMARK  status: ('A' for Active; 'I' for Inactive)
REMARK    1  A    between atoms: C_5  and  C_7 
REMARK    2  A    between atoms: O_14  and  C_5 
REMARK    3  A    between atoms: O_9  and  C_6 
REMARK    4  A    between atoms: C_13  and  O_9 
REMARK    5  A    between atoms: C_19  and  O_14 
ROOT
ATOM      1  C   UNL d   1      -5.605   3.304   0.133  0.00  0.00     0.039 A 
ATOM      2  C   UNL d   1      -4.720   3.134  -0.940  0.00  0.00     0.020 A 
ATOM      3  C   UNL d   1      -5.637   2.361   1.166  0.00  0.00     0.020 A 
ATOM      4  C   UNL d   1      -3.916   1.076   0.044  0.00  0.00     0.077 A 
ATOM      5  C   UNL d   1      -4.781   1.255   1.128  0.00  0.00     0.038 A 
ATOM      6  C   UNL d   1      -3.864   2.035  -0.972  0.00  0.00     0.038 A 
ENDROOT
BRANCH   4   7
ATOM      7  O   UNL d   1      -3.100  -0.035   0.079  0.00  0.00    -0.293 OA
BRANCH   7   8
ATOM      8  C   UNL d   1      -2.822  -0.665  -1.125  0.00  0.00     0.162 A 
ATOM      9  N   UNL d   1      -3.717  -0.628  -2.136  0.00  0.00    -0.280 N 
ATOM     10  N   UNL d   1      -3.407  -1.200  -3.336  0.00  0.00    -0.303 N 
ATOM     11  HN  UNL d   1      -4.621  -0.176  -2.003  1.00  0.00     0.189 HD
ATOM     12  C   UNL d   1      -2.222  -1.828  -3.495  0.00  0.00     0.022 A 
ATOM     13  HN  UNL d   1      -4.068  -1.152  -4.111  1.00  0.00     0.186 HD
ATOM     14  C   UNL d   1      -1.935  -2.416  -4.840  0.00  0.00     0.069 C 
ATOM     15  C   UNL d   1      -1.307  -1.924  -2.455  0.00  0.00     0.030 A 
ATOM     16  C   UNL d   1      -1.616  -1.330  -1.236  0.00  0.00     0.060 A 
ENDBRANCH   7   8
ENDBRANCH   4   7
BRANCH   1  17
ATOM     17  C   UNL d   1      -6.564   4.435   0.156  0.00  0.00     0.293 C 
ATOM     18  O   UNL d   1      -7.638   4.410   0.730  0.00  0.00    -0.259 OA
BRANCH  17  19
ATOM     19  O   UNL d   1      -6.065   5.445  -0.601  0.00  0.00    -0.318 OA
BRANCH  19  20
ATOM     20  C   UNL d   1      -7.009   6.434  -1.027  0.00  0.00     0.174 C 
ATOM     21  C   UNL d   1      -7.555   5.994  -2.373  0.00  0.00     0.034 C 
ENDBRANCH  19  20
ENDBRANCH  17  19
ENDBRANCH   1  17
TORSDOF 5
