REMARK  12 active torsions:
REMARK  status: ('A' for Active; 'I' for Inactive)
REMARK    1  A    between atoms: C_14  and  C_1 
REMARK    2  A    between atoms: C_20  and  N_2 
REMARK    3  A    between atoms: C_16  and  C_4 
REMARK    4  A    between atoms: C_17  and  C_7 
REMARK    5  A    between atoms: C_8  and  S_15 
REMARK    6  A    between atoms: O_19  and  C_9 
REMARK    7  A    between atoms: O_21  and  C_14 
REMARK    8  A    between atoms: S_15  and  C_16 
REMARK    9  A    between atoms: C_25  and  C_20 
REMARK   10  A    between atoms: C_24  and  O_21 
REMARK   11  A    between atoms: C_27  and  C_25 
REMARK   12  A    between atoms: C_26  and  C_27 
ROOT
ATOM      1  C   UNL d   1       0.451   0.590   1.884  0.00  0.00     0.105 A 
ATOM      2  S   UNL d   1      -0.948  -0.282   1.369  0.00  0.00    -0.064 SA
ATOM      3  C   UNL d   1       1.398   0.570   0.865  0.00  0.00     0.043 A 
ATOM      4  N   UNL d   1       0.963  -0.060  -0.306  0.00  0.00    -0.351 N 
ATOM      5  HN  UNL d   1       1.507  -0.106  -1.168  1.00  0.00     0.166 HD
ATOM      6  C   UNL d   1      -0.234  -0.587  -0.157  0.00  0.00     0.085 A 
ENDROOT
BRANCH   3   7
ATOM      7  C   UNL d   1       2.752   1.216   0.808  0.00  0.00     0.141 C 
BRANCH   7   8
ATOM      8  S   UNL d   1       4.098   0.072   0.366  0.00  0.00    -0.086 SA
BRANCH   8   9
ATOM      9  C   UNL d   1       4.361  -0.767   1.851  0.00  0.00     0.164 A 
ATOM     10  N   UNL d   1       5.485  -1.500   2.140  0.00  0.00    -0.291 N 
ATOM     11  C   UNL d   1       5.285  -1.944   3.426  0.00  0.00     0.240 A 
ATOM     12  N   UNL d   1       4.122  -1.530   3.869  0.00  0.00    -0.263 N 
ATOM     13  N   UNL d   1       3.540  -0.782   2.873  0.00  0.00    -0.277 N 
ATOM     14  HN  UNL d   1       3.722  -1.727   4.786  1.00  0.00     0.190 HD
ATOM     15  HN  UNL d   1       2.632  -0.321   2.921  1.00  0.00     0.189 HD
BRANCH  10  16
ATOM     16  C   UNL d   1       6.701  -1.650   1.366  0.00  0.00     0.135 C 
BRANCH  16  17
ATOM     17  C   UNL d   1       6.890  -3.024   0.712  0.00  0.00     0.020 C 
BRANCH  17  18
ATOM     18  C   UNL d   1       6.029  -3.296  -0.526  0.00  0.00     0.001 C 
BRANCH  18  19
ATOM     19  C   UNL d   1       6.231  -2.345  -1.710  0.00  0.00    -0.004 C 
ATOM     20  C   UNL d   1       7.622  -2.392  -2.321  0.00  0.00     0.005 C 
ENDBRANCH  18  19
ENDBRANCH  17  18
ENDBRANCH  16  17
ENDBRANCH  10  16
BRANCH  11  21
ATOM     21  O   UNL d   1       6.122  -2.660   4.160  0.00  0.00    -0.331 OA
ATOM     22  H   UNL d   1       6.921  -2.860   3.654  0.00  0.00     0.221 HD
ENDBRANCH  11  21
ENDBRANCH   8   9
ENDBRANCH   7   8
ENDBRANCH   3   7
BRANCH   1  23
ATOM     23  C   UNL d   1       0.403   1.208   3.200  0.00  0.00     0.302 C 
ATOM     24  O   UNL d   1      -0.590   1.275   3.915  0.00  0.00    -0.259 OA
BRANCH  23  25
ATOM     25  O   UNL d   1       1.593   1.794   3.521  0.00  0.00    -0.317 OA
BRANCH  25  26
ATOM     26  C   UNL d   1       1.587   2.621   4.696  0.00  0.00     0.174 C 
ATOM     27  C   UNL d   1       1.766   1.823   5.976  0.00  0.00     0.034 C 
ENDBRANCH  25  26
ENDBRANCH  23  25
ENDBRANCH   1  23
BRANCH   6  28
ATOM     28  C   UNL d   1      -0.944  -1.330  -1.216  0.00  0.00    -0.002 A 
ATOM     29  C   UNL d   1      -0.652  -1.046  -2.561  0.00  0.00     0.014 A 
ATOM     30  C   UNL d   1      -1.261  -1.758  -3.600  0.00  0.00     0.001 A 
ATOM     31  C   UNL d   1      -2.170  -2.771  -3.308  0.00  0.00     0.000 A 
ATOM     32  C   UNL d   1      -2.479  -3.063  -1.982  0.00  0.00     0.001 A 
ATOM     33  C   UNL d   1      -1.873  -2.346  -0.943  0.00  0.00     0.014 A 
ENDBRANCH   6  28
TORSDOF 12
