REMARK  2 active torsions:
REMARK  status: ('A' for Active; 'I' for Inactive)
REMARK    1  A    between atoms: C_7  and  N_1 
REMARK    2  A    between atoms: S_8  and  C_2 
ROOT
ATOM      1  N   UNL d   1      -0.043  -1.382  -0.035  0.00  0.00    -0.219 N 
ATOM      2  C   UNL d   1       1.009  -0.659   0.511  0.00  0.00     0.177 A 
ATOM      3  N   UNL d   1       0.856   0.614   0.216  0.00  0.00    -0.264 N 
ATOM      4  HN  UNL d   1       1.453   1.387   0.510  1.00  0.00     0.186 HD
ATOM      5  N   UNL d   1      -0.261   0.691  -0.565  0.00  0.00    -0.006 NA
ATOM      6  N   UNL d   1      -0.786  -0.507  -0.768  0.00  0.00     0.001 NA
ENDROOT
BRANCH   1   7
ATOM      7  C   UNL d   1      -0.421  -2.751   0.044  0.00  0.00     0.056 A 
ATOM      8  C   UNL d   1       0.001  -3.578   1.091  0.00  0.00     0.031 A 
ATOM      9  C   UNL d   1      -0.378  -4.923   1.122  0.00  0.00     0.002 A 
ATOM     10  C   UNL d   1      -1.180  -5.451   0.113  0.00  0.00     0.000 A 
ATOM     11  C   UNL d   1      -1.628  -4.629  -0.919  0.00  0.00     0.002 A 
ATOM     12  C   UNL d   1      -1.262  -3.281  -0.949  0.00  0.00     0.031 A 
ENDBRANCH   1   7
BRANCH   2  13
ATOM     13  S   UNL d   1       2.413  -1.325   1.284  0.00  0.00    -0.096 SA
ATOM     14  C   UNL d   1       3.459   0.139   1.435  0.00  0.00     0.099 C 
ENDBRANCH   2  13
TORSDOF 2
