REMARK  4 active torsions:
REMARK  status: ('A' for Active; 'I' for Inactive)
REMARK    1  A    between atoms: S_7  and  C_1 
REMARK    2  A    between atoms: C_10  and  S_7 
REMARK    3  A    between atoms: C_8  and  C_10 
REMARK    4  A    between atoms: O_11  and  C_8 
ROOT
ATOM      1  C   UNL d   1      -2.346   0.023  -0.015  0.00  0.00     0.145 A 
ATOM      2  N   UNL d   1      -1.626   1.118  -0.039  0.00  0.00    -0.335 N 
ATOM      3  HN  UNL d   1      -1.956   2.082  -0.062  1.00  0.00     0.168 HD
ATOM      4  N   UNL d   1      -1.583  -1.106  -0.005  0.00  0.00    -0.335 N 
ATOM      5  C   UNL d   1      -0.323   0.673  -0.027  0.00  0.00     0.061 A 
ATOM      6  C   UNL d   1      -0.267  -0.718  -0.011  0.00  0.00     0.061 A 
ATOM      7  C   UNL d   1       0.875   1.405  -0.025  0.00  0.00     0.032 A 
ATOM      8  C   UNL d   1       0.930  -1.439  -0.003  0.00  0.00     0.032 A 
ATOM      9  C   UNL d   1       2.113  -0.691  -0.004  0.00  0.00     0.002 A 
ATOM     10  C   UNL d   1       2.090   0.706  -0.012  0.00  0.00     0.002 A 
ATOM     11  H   UNL d   1      -1.938  -2.049  -0.001  0.00  0.00     0.168 HD
ENDROOT
BRANCH   1  12
ATOM     12  S   UNL d   1      -4.065  -0.095   0.001  0.00  0.00    -0.084 SA
BRANCH  12  13
ATOM     13  C   UNL d   1      -4.498   1.453  -0.851  0.00  0.00     0.193 C 
BRANCH  13  14
ATOM     14  C   UNL d   1      -4.015   1.452  -2.286  0.00  0.00     0.268 C 
ATOM     15  O   UNL d   1      -3.852   0.462  -2.989  0.00  0.00    -0.264 OA
BRANCH  14  16
ATOM     16  O   UNL d   1      -3.862   2.738  -2.723  0.00  0.00    -0.326 OA
ATOM     17  C   UNL d   1      -3.387   2.835  -4.066  0.00  0.00     0.213 C 
ENDBRANCH  14  16
ENDBRANCH  13  14
ENDBRANCH  12  13
ENDBRANCH   1  12
TORSDOF 4
