REMARK  3 active torsions:
REMARK  status: ('A' for Active; 'I' for Inactive)
REMARK    1  A    between atoms: C_2  and  C_1 
REMARK    2  A    between atoms: C_19  and  C_7 
REMARK    3  A    between atoms: C_11  and  N_14 
ROOT
ATOM      1  C   UNL d   1       0.282  -2.688  -0.065  0.00  0.00     0.056 A 
ATOM      2  N   UNL d   1       1.018  -3.176   0.996  0.00  0.00    -0.335 N 
ATOM      3  HN  UNL d   1       1.283  -2.633   1.817  1.00  0.00     0.168 HD
ATOM      4  C   UNL d   1       1.331  -4.439   0.801  0.00  0.00     0.149 A 
ATOM      5  S   UNL d   1       0.667  -5.125  -0.641  0.00  0.00    -0.064 SA
ATOM      6  C   UNL d   1       0.060  -3.588  -1.085  0.00  0.00     0.083 A 
ATOM      7  N   UNL d   1       2.126  -5.200   1.588  0.00  0.00    -0.336 N 
ATOM      8  H   UNL d   1       2.303  -6.142   1.258  0.00  0.00     0.168 HD
ENDROOT
BRANCH   1   9
ATOM      9  C   UNL d   1      -0.147  -1.295  -0.016  0.00  0.00     0.052 A 
ATOM     10  C   UNL d   1      -1.376  -0.736  -0.481  0.00  0.00     0.080 A 
ATOM     11  N   UNL d   1      -1.362   0.599  -0.313  0.00  0.00    -0.259 N 
ATOM     12  O   UNL d   1      -0.168   0.906   0.303  0.00  0.00    -0.241 OA
ATOM     13  HN  UNL d   1      -2.093   1.255  -0.588  1.00  0.00     0.195 HD
ATOM     14  C   UNL d   1       0.555  -0.228   0.492  0.00  0.00     0.087 A 
ATOM     15  C   UNL d   1       1.873  -0.065   1.133  0.00  0.00     0.080 C 
BRANCH  10  16
ATOM     16  C   UNL d   1      -2.544  -1.394  -1.072  0.00  0.00    -0.007 A 
ATOM     17  C   UNL d   1      -3.244  -0.779  -2.119  0.00  0.00     0.014 A 
ATOM     18  C   UNL d   1      -4.330  -1.420  -2.722  0.00  0.00     0.001 A 
ATOM     19  C   UNL d   1      -4.723  -2.684  -2.287  0.00  0.00     0.000 A 
ATOM     20  C   UNL d   1      -4.054  -3.295  -1.230  0.00  0.00     0.001 A 
ATOM     21  C   UNL d   1      -2.985  -2.644  -0.612  0.00  0.00     0.014 A 
ENDBRANCH  10  16
ENDBRANCH   1   9
BRANCH   7  22
ATOM     22  C   UNL d   1       3.219  -4.726   2.354  0.00  0.00     0.046 A 
ATOM     23  C   UNL d   1       3.442  -5.329   3.621  0.00  0.00    -0.034 A 
ATOM     24  C   UNL d   1       4.571  -4.977   4.386  0.00  0.00     0.015 A 
ATOM     25  C   UNL d   1       2.526  -6.378   4.201  0.00  0.00     0.050 C 
ATOM     26  C   UNL d   1       5.485  -4.035   3.926  0.00  0.00    -0.061 A 
ATOM     27  C   UNL d   1       5.277  -3.456   2.676  0.00  0.00     0.015 A 
ATOM     28  C   UNL d   1       6.695  -3.686   4.742  0.00  0.00     0.048 C 
ATOM     29  C   UNL d   1       4.175  -3.801   1.872  0.00  0.00    -0.034 A 
ATOM     30  C   UNL d   1       4.179  -3.169   0.503  0.00  0.00     0.050 C 
ENDBRANCH   7  22
TORSDOF 3
