REMARK  4 active torsions:
REMARK  status: ('A' for Active; 'I' for Inactive)
REMARK    1  A    between atoms: C_2  and  S_1 
REMARK    2  A    between atoms: N_6  and  S_1 
REMARK    3  A    between atoms: N_9  and  C_4 
REMARK       I    between atoms: C_8  and  N_9 
REMARK       I    between atoms: N_12  and  C_8 
REMARK    4  A    between atoms: C_14  and  N_12 
ROOT
ATOM      1  C   UNL d   1       0.068  -0.511   1.423  0.00  0.00     0.187 C 
ATOM      2  C   UNL d   1       0.069  -0.112   2.752  0.00  0.00     0.083 C 
ATOM      3  C   UNL d   1      -0.439  -1.190   3.530  0.00  0.00     0.069 C 
ATOM      4  O   UNL d   1      -0.606  -1.704   1.350  0.00  0.00    -0.300 OA
ATOM      5  C   UNL d   1      -0.910  -2.107   2.610  0.00  0.00     0.077 C 
ATOM      6  C   UNL d   1      -1.550  -3.435   2.667  0.00  0.00     0.079 C 
ENDROOT
BRANCH   3   7
ATOM      7  N   UNL d   1      -0.433  -1.362   4.917  0.00  0.00    -0.306 N 
ATOM      8  C   UNL d   1       0.340  -0.586   5.763  0.00  0.00     0.325 C 
ATOM      9  N   UNL d   1       0.223  -0.956   7.100  0.00  0.00    -0.309 N 
ATOM     10  O   UNL d   1       1.058   0.332   5.369  0.00  0.00    -0.247 OA
ATOM     11  H   UNL d   1      -0.322  -1.782   7.307  0.00  0.00     0.170 HD
ATOM     12  H   UNL d   1      -0.866  -2.199   5.274  0.00  0.00     0.171 HD
BRANCH   9  13
ATOM     13  C   UNL d   1       0.699  -0.228   8.222  0.00  0.00     0.036 A 
ATOM     14  C   UNL d   1       1.261   1.051   8.125  0.00  0.00     0.032 A 
ATOM     15  C   UNL d   1       1.468   1.829   9.268  0.00  0.00     0.044 A 
ATOM     16  C   UNL d   1       1.161   1.310  10.515  0.00  0.00     0.116 A 
ATOM     17  C   UNL d   1       0.720   0.000  10.645  0.00  0.00     0.044 A 
ATOM     18  F   UNL d   1       1.274   2.086  11.601  0.00  0.00    -0.206 F 
ATOM     19  C   UNL d   1       0.493  -0.771   9.498  0.00  0.00     0.032 A 
ENDBRANCH   9  13
ENDBRANCH   3   7
BRANCH   1  20
ATOM     20  S   UNL d   1       0.891   0.152  -0.027  0.00  0.00     0.266 S 
ATOM     21  O   UNL d   1       1.062   1.560   0.239  0.00  0.00    -0.204 OA
ATOM     22  O   UNL d   1       0.120  -0.329  -1.157  0.00  0.00    -0.204 OA
BRANCH  20  23
ATOM     23  N   UNL d   1       2.437  -0.602  -0.068  0.00  0.00    -0.205 NA
ATOM     24  C   UNL d   1       3.365  -0.163   1.007  0.00  0.00     0.107 C 
ATOM     25  C   UNL d   1       4.778  -0.646   0.689  0.00  0.00     0.015 C 
ATOM     26  C   UNL d   1       4.819  -2.159   0.506  0.00  0.00     0.002 C 
ATOM     27  C   UNL d   1       3.806  -2.597  -0.549  0.00  0.00     0.015 C 
ATOM     28  C   UNL d   1       2.405  -2.083  -0.221  0.00  0.00     0.107 C 
ENDBRANCH  20  23
ENDBRANCH   1  20
TORSDOF 4
