REMARK  3 active torsions:
REMARK  status: ('A' for Active; 'I' for Inactive)
REMARK    1  A    between atoms: N_6  and  C_1 
REMARK    2  A    between atoms: C_10  and  N_4 
REMARK       I    between atoms: C_7  and  N_6 
REMARK    3  A    between atoms: C_8  and  C_7 
ROOT
ATOM      1  C   UNL d   1      -0.309  -1.135  -0.123  0.00  0.00     0.130 C 
ATOM      2  C   UNL d   1       1.011  -0.567  -0.536  0.00  0.00     0.295 C 
ATOM      3  N   UNL d   1      -0.332   1.117   0.260  0.00  0.00    -0.289 N 
ATOM      4  N   UNL d   1       0.958   0.799  -0.257  0.00  0.00    -0.217 N 
ATOM      5  C   UNL d   1      -1.072  -0.082   0.224  0.00  0.00     0.057 C 
ATOM      6  O   UNL d   1       1.914  -1.270  -0.969  0.00  0.00    -0.264 OA
ATOM      7  C   UNL d   1      -0.879   2.420  -0.127  0.00  0.00     0.178 C 
ATOM      8  C   UNL d   1      -2.552  -0.124   0.450  0.00  0.00     0.072 C 
ENDROOT
BRANCH   1   9
ATOM      9  N   UNL d   1      -0.508  -2.493  -0.163  0.00  0.00    -0.317 N 
ATOM     10  C   UNL d   1      -1.410  -3.208   0.599  0.00  0.00     0.257 C 
ATOM     11  O   UNL d   1      -2.208  -2.722   1.396  0.00  0.00    -0.267 OA
ATOM     12  H   UNL d   1       0.239  -2.991  -0.636  0.00  0.00     0.169 HD
BRANCH  10  13
ATOM     13  C   UNL d   1      -1.392  -4.683   0.463  0.00  0.00     0.047 A 
ATOM     14  C   UNL d   1      -2.548  -5.379   0.811  0.00  0.00     0.104 A 
ATOM     15  N   UNL d   1      -2.683  -6.721   0.732  0.00  0.00    -0.374 N 
ATOM     16  C   UNL d   1      -1.610  -7.412   0.304  0.00  0.00     0.087 A 
ATOM     17  HN  UNL d   1      -3.554  -7.187   0.985  1.00  0.00     0.164 HD
ATOM     18  C   UNL d   1      -0.403  -6.820  -0.040  0.00  0.00     0.018 A 
ATOM     19  C   UNL d   1      -0.292  -5.432   0.041  0.00  0.00     0.020 A 
ENDBRANCH  10  13
ENDBRANCH   1   9
BRANCH   4  20
ATOM     20  C   UNL d   1       2.076   1.660  -0.178  0.00  0.00     0.060 A 
ATOM     21  C   UNL d   1       3.151   1.496  -1.063  0.00  0.00     0.031 A 
ATOM     22  C   UNL d   1       4.252   2.358  -1.024  0.00  0.00     0.002 A 
ATOM     23  C   UNL d   1       4.301   3.383  -0.084  0.00  0.00     0.000 A 
ATOM     24  C   UNL d   1       3.255   3.541   0.822  0.00  0.00     0.002 A 
ATOM     25  C   UNL d   1       2.151   2.685   0.773  0.00  0.00     0.031 A 
ENDBRANCH   4  20
TORSDOF 3
