REMARK  4 active torsions:
REMARK  status: ('A' for Active; 'I' for Inactive)
REMARK    1  A    between atoms: C_3  and  C_1 
REMARK    2  A    between atoms: S_15  and  C_6 
REMARK    3  A    between atoms: C_11  and  C_16 
REMARK    4  A    between atoms: C_16  and  S_15 
ROOT
ATOM      1  C   UNL d   1       0.035   1.124   0.040  0.00  0.00     0.151 A 
ATOM      2  N   UNL d   1       0.843   0.018  -0.088  0.00  0.00    -0.314 N 
ATOM      3  N   UNL d   1      -1.214   0.719   0.199  0.00  0.00    -0.281 N 
ATOM      4  HN  UNL d   1      -2.018   1.320   0.380  1.00  0.00     0.188 HD
ATOM      5  C   UNL d   1      -0.010  -1.052  -0.117  0.00  0.00     0.163 A 
ATOM      6  N   UNL d   1      -1.243  -0.649   0.080  0.00  0.00    -0.278 N 
ATOM      7  HN  UNL d   1      -2.071  -1.242   0.136  1.00  0.00     0.189 HD
ATOM      8  C   UNL d   1       2.279  -0.037  -0.137  0.00  0.00     0.160 C 
ENDROOT
BRANCH   5   9
ATOM      9  S   UNL d   1       0.490  -2.684  -0.410  0.00  0.00    -0.088 SA
BRANCH   9  10
ATOM     10  C   UNL d   1      -1.099  -3.399  -0.939  0.00  0.00     0.124 C 
BRANCH  10  11
ATOM     11  C   UNL d   1      -0.959  -4.818  -1.441  0.00  0.00    -0.005 A 
ATOM     12  C   UNL d   1      -1.168  -5.923  -0.593  0.00  0.00     0.042 A 
ATOM     13 CL   UNL d   1      -1.541  -5.740   1.087  0.00  0.00    -0.084 Cl
ATOM     14  C   UNL d   1      -1.083  -7.236  -1.077  0.00  0.00     0.024 A 
ATOM     15  C   UNL d   1      -0.774  -7.476  -2.412  0.00  0.00     0.003 A 
ATOM     16  C   UNL d   1      -0.534  -6.402  -3.261  0.00  0.00     0.024 A 
ATOM     17  C   UNL d   1      -0.621  -5.088  -2.783  0.00  0.00     0.042 A 
ATOM     18 CL   UNL d   1      -0.295  -3.826  -3.922  0.00  0.00    -0.084 Cl
ENDBRANCH  10  11
ENDBRANCH   9  10
ENDBRANCH   5   9
BRANCH   1  19
ATOM     19  C   UNL d   1       0.423   2.565  -0.022  0.00  0.00     0.085 A 
ATOM     20  N   UNL d   1       1.690   2.989  -0.376  0.00  0.00    -0.351 N 
ATOM     21  C   UNL d   1       1.729   4.306  -0.413  0.00  0.00     0.047 A 
ATOM     22  HN  UNL d   1       2.479   2.374  -0.577  1.00  0.00     0.166 HD
ATOM     23  C   UNL d   1       2.924   5.103  -0.803  0.00  0.00     0.076 C 
ATOM     24  S   UNL d   1       0.269   5.101   0.021  0.00  0.00    -0.087 SA
ATOM     25  C   UNL d   1      -0.484   3.578   0.228  0.00  0.00     0.084 A 
ENDBRANCH   1  19
TORSDOF 4
