REMARK  5 active torsions:
REMARK  status: ('A' for Active; 'I' for Inactive)
REMARK    1  A    between atoms: S_17  and  C_4 
REMARK    2  A    between atoms: S_20  and  C_5 
REMARK    3  A    between atoms: C_14  and  C_10 
REMARK    4  A    between atoms: C_11  and  C_22 
REMARK    5  A    between atoms: C_22  and  S_17 
ROOT
ATOM      1  N   UNL d   1       3.491   5.259  -0.379  0.00  0.00    -0.352 N 
ATOM      2  HN  UNL d   1       4.308   4.691  -0.601  1.00  0.00     0.166 HD
ATOM      3  C   UNL d   1       3.496   6.641  -0.271  0.00  0.00     0.049 A 
ATOM      4  C   UNL d   1       2.283   4.782  -0.153  0.00  0.00     0.060 A 
ATOM      5  S   UNL d   1       1.091   5.971   0.218  0.00  0.00    -0.086 SA
ATOM      6  C   UNL d   1       2.266   7.200   0.013  0.00  0.00     0.081 A 
ENDROOT
BRANCH   4   7
ATOM      7  C   UNL d   1       1.944   3.318  -0.138  0.00  0.00     0.146 C 
BRANCH   7   8
ATOM      8  S   UNL d   1       0.629   2.845  -1.301  0.00  0.00    -0.097 SA
BRANCH   8   9
ATOM      9  C   UNL d   1       1.421   3.128  -2.830  0.00  0.00     0.129 A 
ATOM     10  S   UNL d   1       0.560   3.522  -4.256  0.00  0.00    -0.038 SA
ATOM     11  C   UNL d   1       2.072   3.562  -5.060  0.00  0.00     0.128 A 
ATOM     12  N   UNL d   1       3.103   3.288  -4.291  0.00  0.00    -0.287 N 
ATOM     13  N   UNL d   1       2.722   3.027  -2.988  0.00  0.00    -0.287 N 
ATOM     14  HN  UNL d   1       4.070   3.271  -4.617  1.00  0.00     0.188 HD
ATOM     15  HN  UNL d   1       3.372   2.785  -2.240  1.00  0.00     0.188 HD
BRANCH  11  16
ATOM     16  S   UNL d   1       2.226   3.930  -6.763  0.00  0.00    -0.108 SA
ATOM     17  C   UNL d   1       4.018   3.824  -6.965  0.00  0.00     0.097 C 
ENDBRANCH  11  16
ENDBRANCH   8   9
ENDBRANCH   7   8
ENDBRANCH   4   7
BRANCH   3  18
ATOM     18  C   UNL d   1       4.721   7.409  -0.462  0.00  0.00    -0.007 A 
ATOM     19  C   UNL d   1       5.734   6.907  -1.293  0.00  0.00     0.039 A 
ATOM     20  C   UNL d   1       6.917   7.628  -1.493  0.00  0.00     0.056 A 
ATOM     21 CL   UNL d   1       8.107   6.950  -2.546  0.00  0.00    -0.083 Cl
ATOM     22  C   UNL d   1       7.102   8.858  -0.853  0.00  0.00     0.055 A 
ATOM     23  C   UNL d   1       6.106   9.358  -0.011  0.00  0.00     0.026 A 
ATOM     24 CL   UNL d   1       8.531   9.808  -1.053  0.00  0.00    -0.083 Cl
ATOM     25  C   UNL d   1       4.924   8.637   0.184  0.00  0.00     0.015 A 
ENDBRANCH   3  18
TORSDOF 5
