REMARK  4 active torsions:
REMARK  status: ('A' for Active; 'I' for Inactive)
REMARK    1  A    between atoms: N_3  and  C_1 
REMARK    2  A    between atoms: O_6  and  C_2 
REMARK    3  A    between atoms: C_10  and  O_6 
REMARK    4  A    between atoms: O_16  and  C_11 
ROOT
ATOM      1  O   UNL d   1      -0.036   2.544  -0.054  0.00  0.00    -0.301 OA
ENDROOT
BRANCH   1   2
ATOM      2  C   UNL d   1       0.269   1.279  -0.396  0.00  0.00     0.149 A 
ATOM      3  C   UNL d   1      -0.607   0.281  -0.802  0.00  0.00     0.144 A 
ATOM      4  C   UNL d   1       0.067  -0.948  -1.121  0.00  0.00     0.046 A 
ATOM      5  C   UNL d   1       1.421  -0.875  -0.899  0.00  0.00     0.055 A 
ATOM      6  S   UNL d   1       1.875   0.638  -0.268  0.00  0.00    -0.074 SA
BRANCH   3   7
ATOM      7  N   UNL d   1      -2.038   0.460  -0.920  0.00  0.00    -0.112 N 
ATOM      8  O   UNL d   1      -2.525   1.547  -0.593  0.00  0.00    -0.532 OA
ATOM      9  O   UNL d   1      -2.679  -0.513  -1.342  0.00  0.00    -0.532 OA
ENDBRANCH   3   7
ENDBRANCH   1   2
BRANCH   1  10
ATOM     10  C   UNL d   1       0.863   3.575  -0.190  0.00  0.00     0.077 A 
ATOM     11  C   UNL d   1       1.589   3.786  -1.364  0.00  0.00     0.040 A 
ATOM     12  C   UNL d   1       2.520   4.825  -1.433  0.00  0.00     0.039 A 
ATOM     13  C   UNL d   1       2.704   5.675  -0.341  0.00  0.00     0.068 A 
ATOM     14  C   UNL d   1       1.916   5.504   0.802  0.00  0.00     0.039 A 
ATOM     15  C   UNL d   1       0.994   4.458   0.879  0.00  0.00     0.040 A 
BRANCH  13  16
ATOM     16  O   UNL d   1       3.600   6.707  -0.276  0.00  0.00    -0.356 OA
ATOM     17  C   UNL d   1       4.621   6.717  -1.267  0.00  0.00     0.210 C 
ENDBRANCH  13  16
ENDBRANCH   1  10
TORSDOF 4
