REMARK  2 active torsions:
REMARK  status: ('A' for Active; 'I' for Inactive)
REMARK    1  A    between atoms: S_14  and  C_3 
REMARK    2  A    between atoms: C_12  and  C_8 
ROOT
ATOM      1  C   UNL d   1       0.068  -0.763  -0.158  0.00  0.00     0.042 A 
ATOM      2  C   UNL d   1       0.442   0.642  -0.160  0.00  0.00    -0.014 A 
ATOM      3  C   UNL d   1       1.181  -1.585  -0.159  0.00  0.00     0.056 A 
ATOM      4  C   UNL d   1       1.812   0.817  -0.184  0.00  0.00     0.093 A 
ATOM      5  S   UNL d   1       2.636  -0.674  -0.167  0.00  0.00    -0.071 SA
ATOM      6  C   UNL d   1      -1.345  -1.169  -0.165  0.00  0.00     0.162 C 
ATOM      7  C   UNL d   1      -0.604   1.734  -0.127  0.00  0.00     0.051 C 
ATOM      8  C   UNL d   1      -1.953   1.220   0.438  0.00  0.00     0.030 C 
ATOM      9  C   UNL d   1       2.494   2.077  -0.213  0.00  0.00     0.107 C 
ATOM     10  C   UNL d   1      -2.357  -0.048  -0.343  0.00  0.00     0.093 C 
ATOM     11  N   UNL d   1       3.014   3.112  -0.233  0.00  0.00    -0.191 NA
ATOM     12  O   UNL d   1      -1.722  -2.337  -0.108  0.00  0.00    -0.292 OA
ENDROOT
BRANCH   3  13
ATOM     13  S   UNL d   1       1.281  -3.341  -0.244  0.00  0.00    -0.126 SA
ATOM     14  C   UNL d   1       0.705  -3.829   1.398  0.00  0.00     0.096 C 
ENDBRANCH   3  13
BRANCH   8  15
ATOM     15  C   UNL d   1      -2.007   0.999   1.951  0.00  0.00    -0.053 A 
ATOM     16  C   UNL d   1      -0.892   1.142   2.789  0.00  0.00     0.008 A 
ATOM     17  C   UNL d   1      -0.980   0.899   4.162  0.00  0.00     0.007 A 
ATOM     18  C   UNL d   1      -2.192   0.522   4.742  0.00  0.00    -0.062 A 
ATOM     19  C   UNL d   1      -3.317   0.396   3.925  0.00  0.00     0.007 A 
ATOM     20  C   UNL d   1      -2.260   0.261   6.216  0.00  0.00     0.048 C 
ATOM     21  C   UNL d   1      -3.227   0.637   2.550  0.00  0.00     0.008 A 
ENDBRANCH   8  15
TORSDOF 2
