REMARK  5 active torsions:
REMARK  status: ('A' for Active; 'I' for Inactive)
REMARK    1  A    between atoms: C_3  and  S_1 
REMARK    2  A    between atoms: N_10  and  S_1 
REMARK    3  A    between atoms: N_4  and  C_17 
REMARK    4  A    between atoms: C_15  and  N_10 
REMARK    5  A    between atoms: C_17  and  C_15 
ROOT
ATOM      1  S   UNL d   1       0.884  -0.141   0.089  0.00  0.00     0.258 S 
ATOM      2  O   UNL d   1       0.553  -0.728  -1.186  0.00  0.00    -0.201 OA
ATOM      3  O   UNL d   1       0.459  -0.711   1.348  0.00  0.00    -0.201 OA
ENDROOT
BRANCH   1   4
ATOM      4  C   UNL d   1       0.362   1.560   0.045  0.00  0.00     0.081 A 
ATOM      5  C   UNL d   1      -0.403   2.078   1.094  0.00  0.00     0.052 A 
ATOM      6  C   UNL d   1      -0.712   3.437   1.094  0.00  0.00     0.074 A 
ATOM      7 CL   UNL d   1      -1.639   4.090   2.389  0.00  0.00    -0.081 Cl
ATOM      8  C   UNL d   1      -0.256   4.259   0.061  0.00  0.00     0.138 A 
ATOM      9  C   UNL d   1       0.503   3.736  -0.984  0.00  0.00     0.045 A 
ATOM     10  F   UNL d   1      -0.535   5.570   0.057  0.00  0.00    -0.204 F 
ATOM     11  C   UNL d   1       0.811   2.377  -1.000  0.00  0.00     0.028 A 
ENDBRANCH   1   4
BRANCH   1  12
ATOM     12  N   UNL d   1       2.563   0.017   0.141  0.00  0.00    -0.314 N 
ATOM     13  H   UNL d   1       2.967   0.110  -0.792  0.00  0.00     0.172 HD
BRANCH  12  14
ATOM     14  C   UNL d   1       3.130   0.843   1.224  0.00  0.00     0.152 C 
BRANCH  14  15
ATOM     15  C   UNL d   1       4.657   0.812   1.198  0.00  0.00     0.148 C 
BRANCH  15  16
ATOM     16  N   UNL d   1       5.251   1.681   2.196  0.00  0.00    -0.331 N 
ATOM     17  C   UNL d   1       5.445   3.052   2.020  0.00  0.00     0.318 C 
ATOM     18  N   UNL d   1       5.887   3.562   3.235  0.00  0.00    -0.341 N 
ATOM     19  O   UNL d   1       5.267   3.694   1.005  0.00  0.00    -0.247 OA
ATOM     20  C   UNL d   1       6.186   2.489   4.146  0.00  0.00     0.144 C 
ATOM     21  H   UNL d   1       6.274   4.496   3.271  0.00  0.00     0.164 HD
ATOM     22  C   UNL d   1       5.348   1.341   3.599  0.00  0.00     0.147 C 
ENDBRANCH  15  16
ENDBRANCH  14  15
ENDBRANCH  12  14
ENDBRANCH   1  12
TORSDOF 5
