REMARK  3 active torsions:
REMARK  status: ('A' for Active; 'I' for Inactive)
REMARK    1  A    between atoms: N_5  and  C_1 
REMARK    2  A    between atoms: N_7  and  C_2 
REMARK    3  A    between atoms: C_8  and  C_6 
ROOT
ATOM      1  C   UNL d   1       1.513   0.755   0.037  0.00  0.00     0.138 A 
ATOM      2  C   UNL d   1       0.251   1.331  -0.018  0.00  0.00     0.106 A 
ATOM      3  S   UNL d   1      -0.941   0.082   0.006  0.00  0.00    -0.067 SA
ATOM      4  C   UNL d   1       1.495  -0.677   0.015  0.00  0.00     0.061 A 
ATOM      5  C   UNL d   1       0.213  -1.188   0.005  0.00  0.00     0.054 A 
ENDROOT
BRANCH   2   6
ATOM      6  N   UNL d   1      -0.064   2.664  -0.068  0.00  0.00    -0.369 N 
ATOM      7  C   UNL d   1      -1.330   3.191   0.475  0.00  0.00     0.149 C 
ATOM      8  C   UNL d   1      -1.114   4.658   0.898  0.00  0.00     0.187 C 
ATOM      9  O   UNL d   1      -0.623   5.462  -0.189  0.00  0.00    -0.388 OA
ATOM     10  C   UNL d   1       0.621   4.936  -0.681  0.00  0.00     0.187 C 
ATOM     11  C   UNL d   1       0.446   3.494  -1.179  0.00  0.00     0.149 C 
ENDBRANCH   2   6
BRANCH   1  12
ATOM     12  N   UNL d   1       2.731   1.513   0.115  0.00  0.00    -0.113 N 
ATOM     13  O   UNL d   1       2.843   2.326   1.039  0.00  0.00    -0.532 OA
ATOM     14  O   UNL d   1       3.588   1.250  -0.738  0.00  0.00    -0.532 OA
ENDBRANCH   1  12
BRANCH   5  15
ATOM     15  C   UNL d   1      -0.253  -2.572   0.002  0.00  0.00     0.162 C 
ATOM     16  O   UNL d   1      -1.443  -2.889   0.005  0.00  0.00    -0.292 OA
ATOM     17  C   UNL d   1       0.777  -3.682  -0.007  0.00  0.00     0.097 C 
ENDBRANCH   5  15
TORSDOF 3
