REMARK  6 active torsions:
REMARK  status: ('A' for Active; 'I' for Inactive)
REMARK    1  A    between atoms: C_6  and  C_1 
REMARK    2  A    between atoms: N_18  and  C_4 
REMARK    3  A    between atoms: C_5  and  C_7 
REMARK       I    between atoms: C_7  and  N_19 
REMARK    4  A    between atoms: C_23  and  N_18 
REMARK    5  A    between atoms: N_19  and  C_22 
REMARK    6  A    between atoms: C_22  and  C_23 
ROOT
ATOM      1  N   UNL d   1      -1.118  -2.107   3.758  0.00  0.00    -0.224 N 
ATOM      2  H   UNL d   1      -1.849  -1.645   3.236  0.00  0.00     0.177 HD
ENDROOT
BRANCH   1   3
ATOM      3  C   UNL d   1      -0.024  -1.314   3.975  0.00  0.00     0.678 A 
ATOM      4  N   UNL d   1       0.083  -0.235   3.191  0.00  0.00    -0.187 N 
ATOM      5  C   UNL d   1       1.199   0.533   3.310  0.00  0.00     0.133 A 
ATOM      6  HN  UNL d   1      -0.651   0.004   2.523  1.00  0.00     0.184 HD
ATOM      7  C   UNL d   1       2.187   0.240   4.231  0.00  0.00     0.052 A 
ATOM      8  C   UNL d   1       1.970  -0.866   5.011  0.00  0.00     0.108 A 
ATOM      9  N   UNL d   1       0.882  -1.647   4.902  0.00  0.00    -0.202 N 
ATOM     10  HN  UNL d   1       0.752  -2.462   5.501  1.00  0.00     0.183 HD
BRANCH   5  11
ATOM     11  C   UNL d   1       1.387   1.733   2.397  0.00  0.00     0.433 C 
ATOM     12  F   UNL d   1       0.361   1.953   1.529  0.00  0.00    -0.165 F 
ATOM     13  F   UNL d   1       2.511   1.627   1.628  0.00  0.00    -0.165 F 
ATOM     14  F   UNL d   1       1.538   2.896   3.097  0.00  0.00    -0.165 F 
ENDBRANCH   5  11
ENDBRANCH   1   3
BRANCH   1  15
ATOM     15  C   UNL d   1      -1.445  -3.207   4.642  0.00  0.00     0.157 C 
BRANCH  15  16
ATOM     16  C   UNL d   1      -2.234  -2.750   5.879  0.00  0.00     0.143 C 
BRANCH  16  17
ATOM     17  N   UNL d   1      -2.445  -3.802   6.861  0.00  0.00    -0.355 N 
ATOM     18  C   UNL d   1      -3.205  -4.926   6.612  0.00  0.00     0.258 C 
ATOM     19  O   UNL d   1      -3.728  -5.113   5.515  0.00  0.00    -0.267 OA
ATOM     20  H   UNL d   1      -2.070  -3.682   7.793  0.00  0.00     0.162 HD
BRANCH  18  21
ATOM     21  C   UNL d   1      -3.339  -5.867   7.720  0.00  0.00     0.072 A 
ATOM     22  S   UNL d   1      -2.656  -5.572   9.266  0.00  0.00    -0.097 SA
ATOM     23  C   UNL d   1      -3.249  -7.049   9.891  0.00  0.00     0.050 A 
ATOM     24  C   UNL d   1      -3.953  -7.763   8.946  0.00  0.00     0.009 A 
ATOM     25  C   UNL d   1      -4.004  -7.080   7.696  0.00  0.00     0.025 A 
ENDBRANCH  18  21
ENDBRANCH  16  17
ENDBRANCH  15  16
ENDBRANCH   1  15
TORSDOF 6
