REMARK  1 active torsions:
REMARK  status: ('A' for Active; 'I' for Inactive)
REMARK    1  A    between atoms: O_13  and  C_6 
ROOT
ATOM      1  N   UNL d   1       0.034  -0.713  -0.002  0.00  0.00    -0.274 N 
ATOM      2  C   UNL d   1       1.211  -1.451   0.007  0.00  0.00     0.263 A 
ATOM      3  N   UNL d   1       1.185   1.365  -0.013  0.00  0.00    -0.322 N 
ATOM      4  HN  UNL d   1       1.172   2.385  -0.000  1.00  0.00     0.169 HD
ATOM      5  C   UNL d   1       2.466  -0.662  -0.040  0.00  0.00     0.057 A 
ATOM      6  C   UNL d   1       2.352   0.670  -0.037  0.00  0.00     0.153 A 
ATOM      7  C   UNL d   1       0.087   0.674  -0.008  0.00  0.00     0.116 A 
ATOM      8  C   UNL d   1      -1.187  -1.381   0.001  0.00  0.00     0.102 A 
ATOM      9  O   UNL d   1       1.256  -2.681   0.048  0.00  0.00    -0.267 OA
ATOM     10  C   UNL d   1      -1.215   1.402  -0.013  0.00  0.00     0.049 A 
ATOM     11  C   UNL d   1      -2.353  -0.723  -0.011  0.00  0.00     0.018 A 
ATOM     12  C   UNL d   1      -2.364   0.715  -0.021  0.00  0.00     0.005 A 
ATOM     13  C   UNL d   1       3.777  -1.379  -0.103  0.00  0.00     0.059 C 
ENDROOT
BRANCH   6  14
ATOM     14  O   UNL d   1       3.474   1.457  -0.072  0.00  0.00    -0.346 OA
ATOM     15  H   UNL d   1       3.093   2.354  -0.059  0.00  0.00     0.219 HD
ENDBRANCH   6  14
TORSDOF 1
