REMARK  2 active torsions:
REMARK  status: ('A' for Active; 'I' for Inactive)
REMARK    1  A    between atoms: N_8  and  C_2 
REMARK    2  A    between atoms: C_7  and  C_5 
ROOT
ATOM      1  C   UNL d   1      -0.617   1.261   0.049  0.00  0.00     0.136 A 
ATOM      2  C   UNL d   1      -1.391   0.149  -0.007  0.00  0.00     0.060 A 
ATOM      3  C   UNL d   1      -0.682  -1.124  -0.063  0.00  0.00     0.069 A 
ATOM      4  C   UNL d   1       0.875   1.194   0.031  0.00  0.00     0.312 A 
ATOM      5  C   UNL d   1       0.653  -1.203  -0.030  0.00  0.00     0.092 A 
ATOM      6  O   UNL d   1       1.448  -0.045   0.026  0.00  0.00    -0.273 OA
ATOM      7  O   UNL d   1       1.582   2.201   0.035  0.00  0.00    -0.258 OA
ATOM      8 CL   UNL d   1      -1.256   2.865   0.251  0.00  0.00    -0.075 Cl
ENDROOT
BRANCH   5   9
ATOM      9  C   UNL d   1       1.403  -2.478  -0.003  0.00  0.00    -0.000 A 
ATOM     10  C   UNL d   1       0.907  -3.644  -0.609  0.00  0.00     0.040 A 
ATOM     11  C   UNL d   1       1.611  -4.853  -0.535  0.00  0.00     0.056 A 
ATOM     12 CL   UNL d   1       0.897  -6.239  -1.284  0.00  0.00    -0.083 Cl
ATOM     13  C   UNL d   1       2.836  -4.911   0.133  0.00  0.00     0.055 A 
ATOM     14  C   UNL d   1       3.355  -3.757   0.717  0.00  0.00     0.026 A 
ATOM     15 CL   UNL d   1       3.748  -6.370   0.278  0.00  0.00    -0.083 Cl
ATOM     16  C   UNL d   1       2.643  -2.550   0.649  0.00  0.00     0.016 A 
ENDBRANCH   5   9
BRANCH   2  17
ATOM     17  N   UNL d   1      -2.802   0.071  -0.006  0.00  0.00    -0.388 N 
ATOM     18  C   UNL d   1      -3.678   1.055  -0.651  0.00  0.00     0.149 C 
ATOM     19  C   UNL d   1      -3.564  -1.026   0.607  0.00  0.00     0.149 C 
ENDBRANCH   2  17
TORSDOF 2
