REMARK  7 active torsions:
REMARK  status: ('A' for Active; 'I' for Inactive)
REMARK    1  A    between atoms: C_5  and  C_1 
REMARK       I    between atoms: N_7  and  C_5 
REMARK       I    between atoms: C_8  and  N_7 
REMARK    2  A    between atoms: O_11  and  C_8 
REMARK    3  A    between atoms: C_14  and  O_11 
REMARK    4  A    between atoms: C_19  and  C_14 
REMARK    5  A    between atoms: C_20  and  C_14 
REMARK    6  A    between atoms: S_17  and  C_19 
REMARK    7  A    between atoms: S_18  and  C_20 
ROOT
ATOM      1  C   UNL d   1       1.427  -3.088   0.445  0.00  0.00     0.081 A 
ATOM      2  S   UNL d   1       1.598  -4.757   0.837  0.00  0.00    -0.072 SA
ATOM      3  C   UNL d   1       2.664  -2.532   0.118  0.00  0.00    -0.031 A 
ATOM      4  C   UNL d   1       3.284  -4.736   0.650  0.00  0.00     0.092 A 
ATOM      5  C   UNL d   1       3.751  -3.494   0.259  0.00  0.00    -0.027 A 
ATOM      6  C   UNL d   1       4.082  -5.902   0.887  0.00  0.00     0.107 C 
ATOM      7  N   UNL d   1       4.733  -6.840   1.080  0.00  0.00    -0.191 NA
ATOM      8  C   UNL d   1       2.913  -1.113  -0.314  0.00  0.00     0.050 C 
ATOM      9  C   UNL d   1       5.198  -3.161   0.028  0.00  0.00     0.051 C 
ENDROOT
BRANCH   1  10
ATOM     10  C   UNL d   1       0.086  -2.468   0.490  0.00  0.00     0.267 C 
ATOM     11  N   UNL d   1      -0.907  -3.307   0.978  0.00  0.00    -0.268 N 
ATOM     12  C   UNL d   1      -2.228  -3.285   0.627  0.00  0.00     0.367 C 
ATOM     13  H   UNL d   1      -0.609  -4.264   1.092  0.00  0.00     0.174 HD
ATOM     14  O   UNL d   1      -2.827  -4.346   0.494  0.00  0.00    -0.238 OA
ATOM     15  O   UNL d   1      -0.115  -1.288   0.220  0.00  0.00    -0.267 OA
BRANCH  12  16
ATOM     16  O   UNL d   1      -2.758  -2.056   0.456  0.00  0.00    -0.297 OA
BRANCH  16  17
ATOM     17  C   UNL d   1      -4.109  -1.896  -0.065  0.00  0.00     0.152 C 
BRANCH  17  18
ATOM     18  C   UNL d   1      -4.100  -1.674  -1.593  0.00  0.00     0.107 C 
BRANCH  18  19
ATOM     19  S   UNL d   1      -2.896  -2.609  -2.613  0.00  0.00    -0.171 SA
ATOM     20  C   UNL d   1      -3.718  -4.213  -2.726  0.00  0.00     0.089 C 
ENDBRANCH  18  19
ENDBRANCH  17  18
BRANCH  17  21
ATOM     21  C   UNL d   1      -5.151  -2.910   0.453  0.00  0.00     0.107 C 
BRANCH  21  22
ATOM     22  S   UNL d   1      -6.882  -2.356   0.201  0.00  0.00    -0.171 SA
ATOM     23  C   UNL d   1      -7.490  -3.749  -0.785  0.00  0.00     0.089 C 
ENDBRANCH  21  22
ENDBRANCH  17  21
ENDBRANCH  16  17
ENDBRANCH  12  16
ENDBRANCH   1  10
TORSDOF 7
