REMARK  6 active torsions:
REMARK  status: ('A' for Active; 'I' for Inactive)
REMARK    1  A    between atoms: N_6  and  C_1 
REMARK    2  A    between atoms: C_7  and  C_2 
REMARK       I    between atoms: C_8  and  N_6 
REMARK    3  A    between atoms: O_14  and  C_7 
REMARK    4  A    between atoms: C_11  and  C_8 
REMARK    5  A    between atoms: N_9  and  C_11 
REMARK    6  A    between atoms: C_21  and  O_14 
ROOT
ATOM      1  C   UNL d   1      -2.067  -1.017  -1.036  0.00  0.00     0.094 A 
ATOM      2  C   UNL d   1      -1.000  -1.879  -0.794  0.00  0.00     0.080 A 
ATOM      3  S   UNL d   1      -1.588   0.613  -1.114  0.00  0.00    -0.075 SA
ATOM      4  C   UNL d   1       0.225  -1.122  -0.573  0.00  0.00    -0.026 A 
ATOM      5  C   UNL d   1       0.015   0.235  -0.720  0.00  0.00    -0.008 A 
ATOM      6  C   UNL d   1       1.591  -1.657  -0.223  0.00  0.00     0.041 C 
ATOM      7  C   UNL d   1       1.040   1.306  -0.507  0.00  0.00     0.047 C 
ATOM      8  C   UNL d   1       2.541  -0.569   0.298  0.00  0.00     0.005 C 
ATOM      9  C   UNL d   1       2.455   0.715  -0.531  0.00  0.00     0.005 C 
ENDROOT
BRANCH   1  10
ATOM     10  N   UNL d   1      -3.393  -1.349  -1.296  0.00  0.00    -0.319 N 
ATOM     11  C   UNL d   1      -4.482  -0.571  -0.926  0.00  0.00     0.251 C 
ATOM     12  O   UNL d   1      -4.433   0.466  -0.262  0.00  0.00    -0.271 OA
ATOM     13  H   UNL d   1      -3.565  -2.335  -1.449  0.00  0.00     0.169 HD
BRANCH  11  14
ATOM     14  C   UNL d   1      -5.842  -1.101  -1.431  0.00  0.00     0.375 C 
BRANCH  14  15
ATOM     15  N   UNL d   1      -6.442  -2.107  -0.526  0.00  0.00     0.100 N 
ATOM     16  C   UNL d   1      -5.886  -3.466  -0.678  0.00  0.00     0.302 C 
ATOM     17  C   UNL d   1      -6.239  -4.137  -2.023  0.00  0.00     0.299 C 
ATOM     18  N   UNL d   1      -7.689  -4.287  -2.178  0.00  0.00     0.086 N 
ATOM     19  C   UNL d   1      -8.376  -3.004  -1.972  0.00  0.00     0.299 C 
ATOM     20  H   UNL d   1      -7.905  -4.652  -3.104  0.00  0.00     0.315 HD
ATOM     21  C   UNL d   1      -7.910  -2.209  -0.722  0.00  0.00     0.302 C 
ENDBRANCH  14  15
ENDBRANCH  11  14
ENDBRANCH   1  10
BRANCH   2  22
ATOM     22  C   UNL d   1      -1.172  -3.329  -0.677  0.00  0.00     0.296 C 
ATOM     23  O   UNL d   1      -2.256  -3.892  -0.813  0.00  0.00    -0.259 OA
BRANCH  22  24
ATOM     24  O   UNL d   1      -0.020  -3.967  -0.336  0.00  0.00    -0.318 OA
BRANCH  24  25
ATOM     25  C   UNL d   1      -0.142  -5.224   0.340  0.00  0.00     0.174 C 
ATOM     26  C   UNL d   1      -0.236  -4.949   1.830  0.00  0.00     0.034 C 
ENDBRANCH  24  25
ENDBRANCH  22  24
ENDBRANCH   2  22
TORSDOF 6
