REMARK  3 active torsions:
REMARK  status: ('A' for Active; 'I' for Inactive)
REMARK    1  A    between atoms: C_5  and  N_1 
REMARK    2  A    between atoms: S_2  and  C_8 
REMARK    3  A    between atoms: N_6  and  S_2 
ROOT
ATOM      1  C   UNL d   1       2.857  -1.613   0.135  0.00  0.00     0.067 A 
ATOM      2  C   UNL d   1       5.050  -3.346   0.344  0.00  0.00     0.076 A 
ATOM      3  C   UNL d   1       3.118  -2.560  -0.874  0.00  0.00     0.062 A 
ATOM      4  C   UNL d   1       4.217  -3.417  -0.777  0.00  0.00     0.051 A 
ATOM      5  C   UNL d   1       3.731  -1.531   1.233  0.00  0.00     0.033 A 
ATOM      6  C   UNL d   1       4.815  -2.409   1.350  0.00  0.00     0.027 A 
ATOM      7 CL   UNL d   1       2.207  -2.614  -2.345  0.00  0.00    -0.082 Cl
ENDROOT
BRANCH   1   8
ATOM      8  N   UNL d   1       1.744  -0.743   0.066  0.00  0.00    -0.250 N 
ATOM      9  C   UNL d   1       1.833   0.620   0.161  0.00  0.00     0.232 C 
ATOM     10  C   UNL d   1       0.465   1.211  -0.049  0.00  0.00     0.123 C 
ATOM     11  O   UNL d   1       2.840   1.297   0.326  0.00  0.00    -0.273 OA
ATOM     12  C   UNL d   1      -0.476   0.007  -0.008  0.00  0.00     0.050 C 
ATOM     13  C   UNL d   1       0.448  -1.191  -0.002  0.00  0.00     0.240 C 
ATOM     14  C   UNL d   1      -1.471  -0.048  -1.167  0.00  0.00     0.020 C 
ATOM     15  C   UNL d   1      -1.390   0.018   1.222  0.00  0.00     0.020 C 
ATOM     16  O   UNL d   1       0.064  -2.354   0.040  0.00  0.00    -0.272 OA
ATOM     17  C   UNL d   1      -2.654   0.802  -0.719  0.00  0.00     0.001 C 
ATOM     18  C   UNL d   1      -2.610   0.835   0.806  0.00  0.00     0.001 C 
ENDBRANCH   1   8
BRANCH   2  19
ATOM     19  S   UNL d   1       6.463  -4.424   0.419  0.00  0.00     0.243 S 
ATOM     20  O   UNL d   1       7.255  -4.128  -0.750  0.00  0.00    -0.206 OA
ATOM     21  O   UNL d   1       7.014  -4.365   1.754  0.00  0.00    -0.206 OA
BRANCH  19  22
ATOM     22  N   UNL d   1       5.758  -5.978   0.220  0.00  0.00    -0.205 NA
ATOM     23  C   UNL d   1       5.028  -6.478   1.431  0.00  0.00     0.117 C 
ATOM     24  C   UNL d   1       4.115  -7.654   1.082  0.00  0.00     0.089 C 
ATOM     25  S   UNL d   1       5.059  -9.093   0.485  0.00  0.00    -0.167 SA
ATOM     26  C   UNL d   1       5.992  -8.238  -0.826  0.00  0.00     0.089 C 
ATOM     27  C   UNL d   1       6.723  -6.999  -0.303  0.00  0.00     0.117 C 
ENDBRANCH  19  22
ENDBRANCH   2  19
TORSDOF 3
