REMARK  2 active torsions:
REMARK  status: ('A' for Active; 'I' for Inactive)
REMARK    1  A    between atoms: C_8  and  N_2 
REMARK    2  A    between atoms: N_10  and  C_7 
ROOT
ATOM      1  C   UNL d   1       0.148  -0.657   0.125  0.00  0.00     0.072 A 
ATOM      2  N   UNL d   1      -1.183   1.166  -0.024  0.00  0.00    -0.220 N 
ATOM      3  C   UNL d   1      -1.274  -0.220   0.178  0.00  0.00     0.280 A 
ATOM      4  N   UNL d   1       0.121   1.633  -0.168  0.00  0.00    -0.294 N 
ATOM      5  HN  UNL d   1       0.409   2.597  -0.335  1.00  0.00     0.187 HD
ATOM      6  C   UNL d   1       0.902   0.592  -0.048  0.00  0.00     0.039 A 
ATOM      7  C   UNL d   1       0.477  -1.946   0.268  0.00  0.00     0.103 C 
ATOM      8  O   UNL d   1      -2.231  -0.952   0.353  0.00  0.00    -0.265 OA
ATOM      9  C   UNL d   1       2.386   0.717  -0.039  0.00  0.00     0.071 C 
ENDROOT
BRANCH   2  10
ATOM     10  C   UNL d   1      -2.231   2.119   0.026  0.00  0.00     0.060 A 
ATOM     11  C   UNL d   1      -3.532   1.772   0.412  0.00  0.00     0.031 A 
ATOM     12  C   UNL d   1      -4.537   2.742   0.508  0.00  0.00     0.002 A 
ATOM     13  C   UNL d   1      -4.260   4.072   0.202  0.00  0.00     0.000 A 
ATOM     14  C   UNL d   1      -2.979   4.433  -0.204  0.00  0.00     0.002 A 
ATOM     15  C   UNL d   1      -1.974   3.465  -0.287  0.00  0.00     0.031 A 
ENDBRANCH   2  10
BRANCH   7  16
ATOM     16  N   UNL d   1       1.676  -2.651   0.239  0.00  0.00    -0.398 N 
ATOM     17  C   UNL d   1       2.736  -2.393  -0.736  0.00  0.00     0.148 C 
ATOM     18  C   UNL d   1       1.767  -3.980   0.858  0.00  0.00     0.148 C 
ENDBRANCH   7  16
TORSDOF 2
