REMARK  7 active torsions:
REMARK  status: ('A' for Active; 'I' for Inactive)
REMARK    1  A    between atoms: S_5  and  C_1 
REMARK    2  A    between atoms: C_7  and  C_2 
REMARK       I    between atoms: N_8  and  C_7 
REMARK    3  A    between atoms: C_9  and  N_8 
REMARK    4  A    between atoms: N_11  and  C_9 
REMARK    5  A    between atoms: C_10  and  O_17 
REMARK    6  A    between atoms: C_22  and  N_11 
REMARK    7  A    between atoms: O_17  and  C_23 
ROOT
ATOM      1  C   UNL d   1      -3.194  -1.993  -0.276  0.00  0.00     0.265 C 
ATOM      2  N   UNL d   1      -2.445  -3.172  -0.281  0.00  0.00    -0.299 N 
ATOM      3  O   UNL d   1      -4.419  -2.006  -0.181  0.00  0.00    -0.267 OA
ATOM      4  H   UNL d   1      -1.445  -3.035  -0.255  0.00  0.00     0.171 HD
ENDROOT
BRANCH   2   5
ATOM      5  C   UNL d   1      -2.767  -4.515  -0.368  0.00  0.00     0.179 C 
ATOM      6  S   UNL d   1      -1.443  -5.544  -0.309  0.00  0.00    -0.040 SA
BRANCH   5   7
ATOM      7  N   UNL d   1      -4.100  -4.834  -0.462  0.00  0.00    -0.333 N 
ATOM      8  H   UNL d   1      -4.732  -4.114  -0.112  0.00  0.00     0.168 HD
BRANCH   7   9
ATOM      9  C   UNL d   1      -4.693  -6.087  -0.769  0.00  0.00     0.034 A 
ATOM     10  C   UNL d   1      -5.960  -6.374  -0.255  0.00  0.00     0.032 A 
ATOM     11  C   UNL d   1      -6.580  -7.604  -0.527  0.00  0.00     0.039 A 
ATOM     12  C   UNL d   1      -5.968  -8.558  -1.347  0.00  0.00     0.078 A 
ATOM     13  C   UNL d   1      -4.721  -8.264  -1.887  0.00  0.00     0.039 A 
ATOM     14  C   UNL d   1      -4.098  -7.036  -1.606  0.00  0.00     0.032 A 
BRANCH  12  15
ATOM     15  O   UNL d   1      -6.691  -9.698  -1.544  0.00  0.00    -0.255 OA
BRANCH  15  16
ATOM     16  C   UNL d   1      -6.160 -10.683  -2.416  0.00  0.00     0.530 C 
ATOM     17  F   UNL d   1      -5.921 -10.179  -3.646  0.00  0.00    -0.144 F 
ATOM     18  F   UNL d   1      -5.022 -11.212  -1.917  0.00  0.00    -0.144 F 
ATOM     19  F   UNL d   1      -7.064 -11.681  -2.545  0.00  0.00    -0.144 F 
ENDBRANCH  15  16
ENDBRANCH  12  15
ENDBRANCH   7   9
ENDBRANCH   5   7
ENDBRANCH   2   5
BRANCH   1  20
ATOM     20  C   UNL d   1      -2.378  -0.764  -0.331  0.00  0.00     0.081 A 
ATOM     21  S   UNL d   1      -0.701  -0.853  -0.731  0.00  0.00    -0.071 SA
ATOM     22  C   UNL d   1      -0.459   0.834  -0.595  0.00  0.00     0.111 A 
ATOM     23  C   UNL d   1      -1.637   1.460  -0.243  0.00  0.00    -0.000 A 
ATOM     24  C   UNL d   1      -2.750   0.556  -0.102  0.00  0.00    -0.023 A 
ATOM     25  C   UNL d   1      -1.793   2.858  -0.001  0.00  0.00     0.010 C 
ATOM     26  C   UNL d   1      -4.126   1.053   0.264  0.00  0.00     0.045 C 
ATOM     27  C   UNL d   1      -4.192   2.547   0.657  0.00  0.00     0.032 C 
ATOM     28  C   UNL d   1      -2.960   3.374   0.413  0.00  0.00    -0.025 C 
BRANCH  22  29
ATOM     29  S   UNL d   1       1.218   1.402  -0.845  0.00  0.00     0.179 S 
ATOM     30  O   UNL d   1       1.120   2.822  -1.116  0.00  0.00    -0.222 OA
ATOM     31  O   UNL d   1       1.962   0.891   0.288  0.00  0.00    -0.222 OA
ATOM     32  C   UNL d   1       1.800   0.615  -2.321  0.00  0.00     0.167 C 
ENDBRANCH  22  29
ENDBRANCH   1  20
TORSDOF 7
