REMARK  4 active torsions:
REMARK  status: ('A' for Active; 'I' for Inactive)
REMARK    1  A    between atoms: C_6  and  C_1 
REMARK    2  A    between atoms: C_11  and  C_2 
REMARK    3  A    between atoms: C_3  and  C_9 
REMARK       I    between atoms: C_9  and  N_16 
REMARK       I    between atoms: N_17  and  C_11 
REMARK    4  A    between atoms: N_16  and  N_17 
ROOT
ATOM      1  C   UNL d   1      -1.362  -0.714   0.060  0.00  0.00     0.086 A 
ATOM      2  C   UNL d   1      -0.066  -1.336   0.125  0.00  0.00     0.094 A 
ATOM      3  N   UNL d   1      -1.222   0.589  -0.240  0.00  0.00    -0.259 N 
ATOM      4  HN  UNL d   1      -1.976   1.255  -0.413  1.00  0.00     0.195 HD
ATOM      5  O   UNL d   1       0.117   0.856  -0.269  0.00  0.00    -0.241 OA
ATOM      6  C   UNL d   1       0.817  -0.282  -0.053  0.00  0.00     0.090 A 
ATOM      7  C   UNL d   1       2.284  -0.100  -0.031  0.00  0.00     0.080 C 
ENDROOT
BRANCH   2   8
ATOM      8  C   UNL d   1       0.292  -2.728   0.350  0.00  0.00     0.275 C 
ATOM      9  N   UNL d   1       1.312  -3.174  -0.467  0.00  0.00    -0.263 N 
ATOM     10  H   UNL d   1       1.694  -2.609  -1.225  0.00  0.00     0.190 HD
ATOM     11  O   UNL d   1      -0.284  -3.440   1.163  0.00  0.00    -0.266 OA
BRANCH   9  12
ATOM     12  N   UNL d   1       1.797  -4.493  -0.399  0.00  0.00    -0.262 N 
ATOM     13  C   UNL d   1       2.924  -4.803  -1.141  0.00  0.00     0.287 C 
ATOM     14  O   UNL d   1       3.474  -3.967  -1.862  0.00  0.00    -0.264 OA
ATOM     15  H   UNL d   1       1.343  -5.169   0.213  0.00  0.00     0.190 HD
BRANCH  13  16
ATOM     16  C   UNL d   1       3.411  -6.178  -1.005  0.00  0.00     0.109 A 
ATOM     17  N   UNL d   1       2.778  -7.137  -0.208  0.00  0.00    -0.349 N 
ATOM     18  C   UNL d   1       3.435  -8.280  -0.275  0.00  0.00     0.047 A 
ATOM     19  HN  UNL d   1       1.935  -6.977   0.343  1.00  0.00     0.166 HD
ATOM     20  C   UNL d   1       3.058  -9.531   0.446  0.00  0.00     0.076 C 
ATOM     21  S   UNL d   1       4.836  -8.276  -1.271  0.00  0.00    -0.087 SA
ATOM     22  C   UNL d   1       4.543  -6.638  -1.656  0.00  0.00     0.086 A 
ENDBRANCH  13  16
ENDBRANCH   9  12
ENDBRANCH   2   8
BRANCH   1  23
ATOM     23  C   UNL d   1      -2.722  -1.260   0.193  0.00  0.00     0.037 A 
ATOM     24  C   UNL d   1      -3.688  -0.604   0.996  0.00  0.00     0.048 A 
ATOM     25 CL   UNL d   1      -3.324   0.760   2.009  0.00  0.00    -0.083 Cl
ATOM     26  C   UNL d   1      -5.023  -1.034   1.030  0.00  0.00     0.025 A 
ATOM     27  C   UNL d   1      -5.421  -2.149   0.305  0.00  0.00     0.003 A 
ATOM     28  C   UNL d   1      -4.486  -2.826  -0.469  0.00  0.00     0.025 A 
ATOM     29  C   UNL d   1      -3.157  -2.376  -0.549  0.00  0.00     0.048 A 
ATOM     30 CL   UNL d   1      -2.154  -3.215  -1.686  0.00  0.00    -0.083 Cl
ENDBRANCH   1  23
TORSDOF 4
