REMARK  6 active torsions:
REMARK  status: ('A' for Active; 'I' for Inactive)
REMARK    1  A    between atoms: C_8  and  N_1 
REMARK    2  A    between atoms: C_2  and  S_10 
REMARK    3  A    between atoms: S_10  and  C_17 
REMARK    4  A    between atoms: C_18  and  C_13 
REMARK    5  A    between atoms: C_17  and  C_18 
REMARK    6  A    between atoms: O_19  and  C_18 
ROOT
ATOM      1  C   UNL d   1      -0.440   7.802   0.171  0.00  0.00     0.091 A 
ATOM      2  C   UNL d   1      -1.369   8.637   0.811  0.00  0.00     0.084 A 
ATOM      3  N   UNL d   1       0.899   8.018   0.228  0.00  0.00    -0.353 N 
ATOM      4  HN  UNL d   1       1.550   7.401  -0.257  1.00  0.00     0.166 HD
ATOM      5  C   UNL d   1      -0.890   9.726   1.563  0.00  0.00    -0.037 A 
ATOM      6  C   UNL d   1      -2.779   8.385   0.706  0.00  0.00     0.103 C 
ATOM      7  N   UNL d   1      -3.923   8.218   0.638  0.00  0.00    -0.191 NA
ATOM      8  C   UNL d   1       1.347   9.076   0.946  0.00  0.00     0.006 A 
ATOM      9  C   UNL d   1       0.492   9.940   1.621  0.00  0.00     0.033 A 
ATOM     10  C   UNL d   1      -1.783  10.662   2.335  0.00  0.00     0.050 C 
ATOM     11  C   UNL d   1       2.831   9.284   1.029  0.00  0.00     0.068 C 
ENDROOT
BRANCH   1  12
ATOM     12  S   UNL d   1      -0.978   6.338  -0.720  0.00  0.00    -0.108 SA
BRANCH  12  13
ATOM     13  C   UNL d   1       0.587   5.688  -1.421  0.00  0.00     0.117 C 
BRANCH  13  14
ATOM     14  C   UNL d   1       0.330   4.309  -2.070  0.00  0.00     0.161 C 
BRANCH  14  15
ATOM     15  C   UNL d   1       1.575   3.677  -2.661  0.00  0.00    -0.027 A 
ATOM     16  C   UNL d   1       2.258   4.282  -3.730  0.00  0.00     0.045 A 
ATOM     17  C   UNL d   1       3.379   3.654  -4.294  0.00  0.00     0.103 A 
ATOM     18  C   UNL d   1       3.842   2.433  -3.792  0.00  0.00     0.036 A 
ATOM     19  C   UNL d   1       3.158   1.823  -2.741  0.00  0.00     0.003 A 
ATOM     20  C   UNL d   1       2.030   2.436  -2.187  0.00  0.00     0.010 A 
BRANCH  17  21
ATOM     21  N   UNL d   1       4.059   4.275  -5.438  0.00  0.00    -0.116 N 
ATOM     22  O   UNL d   1       3.583   5.325  -5.891  0.00  0.00    -0.532 OA
ATOM     23  O   UNL d   1       5.071   3.714  -5.882  0.00  0.00    -0.532 OA
ENDBRANCH  17  21
ENDBRANCH  14  15
BRANCH  14  24
ATOM     24  O   UNL d   1      -0.626   4.355  -3.133  0.00  0.00    -0.390 OA
ATOM     25  H   UNL d   1      -0.613   5.247  -3.516  0.00  0.00     0.210 HD
ENDBRANCH  14  24
ENDBRANCH  13  14
ENDBRANCH  12  13
ENDBRANCH   1  12
TORSDOF 6
