REMARK  0 active torsions:
REMARK  status: ('A' for Active; 'I' for Inactive)
ROOT
ATOM      1  C   UNL d   1       0.327   1.398   0.042  0.00  0.00     0.178 C 
ATOM      2  C   UNL d   1       1.462   0.302  -0.018  0.00  0.00     0.178 C 
ATOM      3  C   UNL d   1      -0.974   0.519   0.100  0.00  0.00     0.048 C 
ATOM      4  C   UNL d   1       0.634  -1.035   0.087  0.00  0.00     0.048 C 
ATOM      5  C   UNL d   1       0.360   2.218   1.272  0.00  0.00     0.088 C 
ATOM      6  C   UNL d   1       0.300   2.306  -1.117  0.00  0.00     0.088 C 
ATOM      7  C   UNL d   1       2.251   0.312  -1.266  0.00  0.00     0.088 C 
ATOM      8  C   UNL d   1       2.397   0.361   1.122  0.00  0.00     0.088 C 
ATOM      9  C   UNL d   1      -1.140  -0.289  -1.170  0.00  0.00    -0.023 C 
ATOM     10  C   UNL d   1      -0.189  -1.231  -1.169  0.00  0.00    -0.023 C 
ATOM     11  N   UNL d   1       0.350   2.827   2.259  0.00  0.00    -0.195 NA
ATOM     12  N   UNL d   1       0.281   3.032  -2.021  0.00  0.00    -0.195 NA
ATOM     13  N   UNL d   1       2.867   0.305  -2.247  0.00  0.00    -0.195 NA
ATOM     14  N   UNL d   1       3.119   0.391   2.029  0.00  0.00    -0.195 NA
ATOM     15  C   UNL d   1      -0.522  -0.632   1.014  0.00  0.00     0.022 C 
ENDROOT
TORSDOF 0
