REMARK  5 active torsions:
REMARK  status: ('A' for Active; 'I' for Inactive)
REMARK    1  A    between atoms: N_7  and  C_1 
REMARK    2  A    between atoms: C_8  and  C_2 
REMARK    3  A    between atoms: C_18  and  N_3 
REMARK       I    between atoms: N_11  and  C_8 
REMARK    4  A    between atoms: C_9  and  C_10 
REMARK       I    between atoms: C_10  and  N_12 
REMARK    5  A    between atoms: N_12  and  N_11 
ROOT
ATOM      1  C   UNL d   1       2.462  -1.320   0.712  0.00  0.00     0.290 C 
ATOM      2  N   UNL d   1       3.583  -0.626   1.112  0.00  0.00    -0.262 N 
ATOM      3  O   UNL d   1       2.533  -2.523   0.453  0.00  0.00    -0.264 OA
ATOM      4  H   UNL d   1       3.603   0.379   1.288  0.00  0.00     0.190 HD
ENDROOT
BRANCH   1   5
ATOM      5  C   UNL d   1       1.203  -0.601   0.660  0.00  0.00     0.155 A 
ATOM      6  C   UNL d   1       0.834   0.699   0.301  0.00  0.00     0.160 A 
ATOM      7  C   UNL d   1      -0.588   0.721   0.335  0.00  0.00     0.057 A 
ATOM      8  N   UNL d   1      -1.079  -0.450   0.745  0.00  0.00    -0.300 N 
ATOM      9  C   UNL d   1      -1.538   1.821   0.017  0.00  0.00     0.072 C 
ATOM     10  N   UNL d   1       0.005  -1.204   0.999  0.00  0.00    -0.285 N 
ATOM     11  HN  UNL d   1      -2.059  -0.714   0.843  1.00  0.00     0.187 HD
BRANCH   6  12
ATOM     12  N   UNL d   1       1.679   1.806  -0.059  0.00  0.00    -0.111 N 
ATOM     13  O   UNL d   1       2.896   1.668   0.093  0.00  0.00    -0.532 OA
ATOM     14  O   UNL d   1       1.127   2.839  -0.454  0.00  0.00    -0.532 OA
ENDBRANCH   6  12
BRANCH  10  15
ATOM     15  C   UNL d   1      -0.200  -2.408   1.792  0.00  0.00     0.145 C 
ATOM     16  C   UNL d   1      -0.960  -3.503   1.066  0.00  0.00     0.028 C 
ENDBRANCH  10  15
ENDBRANCH   1   5
BRANCH   2  17
ATOM     17  N   UNL d   1       4.811  -1.299   1.233  0.00  0.00    -0.263 N 
ATOM     18  C   UNL d   1       5.778  -0.765   2.059  0.00  0.00     0.271 C 
ATOM     19  O   UNL d   1       5.588   0.309   2.640  0.00  0.00    -0.266 OA
ATOM     20  H   UNL d   1       4.894  -2.201   0.762  0.00  0.00     0.190 HD
BRANCH  18  21
ATOM     21  C   UNL d   1       7.059  -1.511   2.275  0.00  0.00     0.055 A 
ATOM     22  C   UNL d   1       7.482  -2.665   1.598  0.00  0.00     0.049 A 
ATOM     23 CL   UNL d   1       6.608  -3.414   0.308  0.00  0.00    -0.083 Cl
ATOM     24  C   UNL d   1       8.701  -3.279   1.939  0.00  0.00     0.025 A 
ATOM     25  C   UNL d   1       9.514  -2.752   2.942  0.00  0.00     0.002 A 
ATOM     26  C   UNL d   1       9.120  -1.598   3.605  0.00  0.00     0.001 A 
ATOM     27  C   UNL d   1       7.909  -0.985   3.274  0.00  0.00     0.019 A 
ENDBRANCH  18  21
ENDBRANCH   2  17
TORSDOF 5
