REMARK  9 active torsions:
REMARK  status: ('A' for Active; 'I' for Inactive)
REMARK    1  A    between atoms: C_5  and  S_1 
REMARK    2  A    between atoms: C_13  and  S_1 
REMARK    3  A    between atoms: C_2  and  C_4 
REMARK    4  A    between atoms: O_9  and  C_2 
REMARK    5  A    between atoms: C_3  and  C_6 
REMARK    6  A    between atoms: C_11  and  O_9 
REMARK    7  A    between atoms: C_10  and  S_27 
REMARK    8  A    between atoms: C_30  and  C_13 
REMARK    9  A    between atoms: S_27  and  C_30 
ROOT
ATOM      1  C   UNL d   1       0.475   2.645  -5.106  0.00  0.00     0.073 A 
ATOM      2  C   UNL d   1       0.773   1.329  -5.492  0.00  0.00     0.086 A 
ATOM      3  N   UNL d   1       1.330   1.051  -6.703  0.00  0.00    -0.360 N 
ATOM      4  HN  UNL d   1       1.520   0.088  -6.981  1.00  0.00     0.166 HD
ATOM      5  C   UNL d   1       0.805   3.687  -5.993  0.00  0.00     0.022 A 
ATOM      6  C   UNL d   1       1.627   2.083  -7.528  0.00  0.00     0.089 A 
ATOM      7  C   UNL d   1       1.393   3.407  -7.217  0.00  0.00     0.018 A 
ENDROOT
BRANCH   2   8
ATOM      8  S   UNL d   1       0.605  -0.096  -4.416  0.00  0.00    -0.110 SA
BRANCH   8   9
ATOM      9  C   UNL d   1       0.452  -1.498  -5.596  0.00  0.00     0.096 C 
BRANCH   9  10
ATOM     10  C   UNL d   1       1.707  -2.111  -6.200  0.00  0.00     0.158 C 
BRANCH  10  11
ATOM     11  S   UNL d   1       2.939  -2.730  -5.095  0.00  0.00     0.191 S 
ATOM     12  O   UNL d   1       3.854  -3.546  -5.871  0.00  0.00    -0.221 OA
ATOM     13  O   UNL d   1       3.477  -1.612  -4.335  0.00  0.00    -0.221 OA
BRANCH  11  14
ATOM     14  C   UNL d   1       2.129  -3.818  -3.927  0.00  0.00     0.128 A 
ATOM     15  N   UNL d   1       1.696  -4.996  -4.448  0.00  0.00    -0.356 N 
ATOM     16  C   UNL d   1       1.317  -5.944  -3.551  0.00  0.00     0.105 A 
ATOM     17  HN  UNL d   1       1.657  -5.160  -5.454  1.00  0.00     0.166 HD
ATOM     18  C   UNL d   1       1.317  -5.760  -2.171  0.00  0.00     0.063 A 
ATOM     19  C   UNL d   1       1.720  -4.509  -1.684  0.00  0.00     0.020 A 
ATOM     20  C   UNL d   1       2.147  -3.522  -2.572  0.00  0.00     0.042 A 
BRANCH  18  21
ATOM     21  C   UNL d   1       0.924  -6.865  -1.234  0.00  0.00     0.418 C 
ATOM     22  F   UNL d   1       0.647  -8.042  -1.859  0.00  0.00    -0.166 F 
ATOM     23  F   UNL d   1       1.898  -7.146  -0.324  0.00  0.00    -0.166 F 
ATOM     24  F   UNL d   1      -0.185  -6.557  -0.507  0.00  0.00    -0.166 F 
ENDBRANCH  18  21
ENDBRANCH  11  14
ENDBRANCH  10  11
ENDBRANCH   9  10
ENDBRANCH   8   9
ENDBRANCH   2   8
BRANCH   1  25
ATOM     25  C   UNL d   1      -0.194   3.078  -3.852  0.00  0.00     0.301 C 
ATOM     26  O   UNL d   1      -0.001   4.177  -3.350  0.00  0.00    -0.259 OA
BRANCH  25  27
ATOM     27  O   UNL d   1      -1.169   2.175  -3.485  0.00  0.00    -0.273 OA
BRANCH  27  28
ATOM     28  C   UNL d   1      -2.207   2.754  -2.739  0.00  0.00     0.101 A 
ATOM     29  C   UNL d   1      -3.340   3.242  -3.404  0.00  0.00     0.069 A 
ATOM     30  C   UNL d   1      -4.432   3.704  -2.671  0.00  0.00     0.050 A 
ATOM     31 CL   UNL d   1      -3.427   3.259  -5.127  0.00  0.00    -0.081 Cl
ATOM     32  C   UNL d   1      -4.385   3.672  -1.278  0.00  0.00     0.035 A 
ATOM     33  C   UNL d   1      -3.251   3.199  -0.613  0.00  0.00     0.026 A 
ATOM     34 CL   UNL d   1      -5.749   4.202  -0.372  0.00  0.00    -0.084 Cl
ATOM     35  C   UNL d   1      -2.155   2.731  -1.344  0.00  0.00     0.041 A 
ENDBRANCH  27  28
ENDBRANCH  25  27
ENDBRANCH   1  25
TORSDOF 9
