REMARK  6 active torsions:
REMARK  status: ('A' for Active; 'I' for Inactive)
REMARK    1  A    between atoms: C_4  and  C_7 
REMARK    2  A    between atoms: C_5  and  C_8 
REMARK    3  A    between atoms: C_10  and  C_6 
REMARK    4  A    between atoms: C_9  and  C_11 
REMARK    5  A    between atoms: C_14  and  C_10 
REMARK       I    between atoms: C_11  and  N_18 
REMARK       I    between atoms: N_19  and  C_14 
REMARK    6  A    between atoms: N_18  and  N_19 
ROOT
ATOM      1  C   UNL d   1       5.514   0.722   0.812  0.00  0.00     0.270 C 
ATOM      2  N   UNL d   1       4.263   0.267   1.167  0.00  0.00    -0.263 N 
ATOM      3  O   UNL d   1       6.049   1.700   1.331  0.00  0.00    -0.266 OA
ATOM      4  H   UNL d   1       3.728  -0.423   0.640  0.00  0.00     0.190 HD
ENDROOT
BRANCH   2   5
ATOM      5  N   UNL d   1       3.590   0.912   2.208  0.00  0.00    -0.267 N 
ATOM      6  C   UNL d   1       2.367   0.412   2.602  0.00  0.00     0.237 C 
ATOM      7  O   UNL d   1       1.796  -0.503   2.010  0.00  0.00    -0.272 OA
ATOM      8  H   UNL d   1       4.118   1.615   2.720  0.00  0.00     0.190 HD
BRANCH   6   9
ATOM      9  C   UNL d   1       1.772   1.086   3.817  0.00  0.00     0.129 C 
BRANCH   9  10
ATOM     10  C   UNL d   1       0.765   2.157   3.397  0.00  0.00     0.153 C 
ATOM     11  C   UNL d   1       1.455   3.279   2.634  0.00  0.00     0.236 C 
ATOM     12  N   UNL d   1       2.275   4.127   3.333  0.00  0.00    -0.325 N 
ATOM     13  O   UNL d   1       1.417   3.349   1.406  0.00  0.00    -0.272 OA
ATOM     14  C   UNL d   1       2.258   4.319   4.724  0.00  0.00     0.051 A 
ATOM     15  H   UNL d   1       2.848   4.733   2.761  0.00  0.00     0.169 HD
ATOM     16  C   UNL d   1       1.235   3.805   5.535  0.00  0.00     0.028 A 
ATOM     17  C   UNL d   1       3.283   5.082   5.290  0.00  0.00     0.031 A 
ATOM     18  S   UNL d   1      -0.098   2.829   4.863  0.00  0.00    -0.113 SA
ATOM     19  C   UNL d   1       1.234   4.089   6.905  0.00  0.00     0.021 A 
ATOM     20  C   UNL d   1       2.266   4.841   7.468  0.00  0.00     0.002 A 
ATOM     21  C   UNL d   1       3.295   5.327   6.664  0.00  0.00     0.002 A 
ENDBRANCH   9  10
ENDBRANCH   6   9
ENDBRANCH   2   5
BRANCH   1  22
ATOM     22  C   UNL d   1       6.222  -0.053  -0.240  0.00  0.00     0.035 A 
ATOM     23  C   UNL d   1       7.067   0.623  -1.132  0.00  0.00     0.033 A 
ATOM     24  C   UNL d   1       7.812  -0.088  -2.088  0.00  0.00     0.049 A 
ATOM     25  C   UNL d   1       7.708  -1.490  -2.126  0.00  0.00     0.032 A 
ATOM     26  C   UNL d   1       6.885  -2.182  -1.222  0.00  0.00     0.049 A 
ATOM     27  C   UNL d   1       6.132  -1.450  -0.288  0.00  0.00     0.033 A 
BRANCH  24  28
ATOM     28  C   UNL d   1       8.725   0.651  -3.042  0.00  0.00     0.417 C 
ATOM     29  F   UNL d   1       9.410  -0.174  -3.880  0.00  0.00    -0.166 F 
ATOM     30  F   UNL d   1       8.049   1.519  -3.842  0.00  0.00    -0.166 F 
ATOM     31  F   UNL d   1       9.666   1.388  -2.391  0.00  0.00    -0.166 F 
ENDBRANCH  24  28
BRANCH  26  32
ATOM     32  C   UNL d   1       6.834  -3.693  -1.210  0.00  0.00     0.417 C 
ATOM     33  F   UNL d   1       7.644  -4.272  -2.137  0.00  0.00    -0.166 F 
ATOM     34  F   UNL d   1       7.212  -4.208  -0.008  0.00  0.00    -0.166 F 
ATOM     35  F   UNL d   1       5.583  -4.171  -1.448  0.00  0.00    -0.166 F 
ENDBRANCH  26  32
ENDBRANCH   1  22
TORSDOF 6
