REMARK  4 active torsions:
REMARK  status: ('A' for Active; 'I' for Inactive)
REMARK    1  A    between atoms: N_5  and  C_1 
REMARK    2  A    between atoms: C_2  and  C_9 
REMARK       I    between atoms: C_3  and  N_5 
REMARK       I    between atoms: N_7  and  C_3 
REMARK    3  A    between atoms: N_8  and  C_4 
REMARK    4  A    between atoms: C_6  and  N_7 
ROOT
ATOM      1  C   UNL d   1       2.047   0.087   0.487  0.00  0.00     0.044 A 
ATOM      2  C   UNL d   1       1.229  -1.063   0.481  0.00  0.00     0.052 A 
ATOM      3  C   UNL d   1       0.077   1.527   0.387  0.00  0.00     0.049 A 
ATOM      4  C   UNL d   1       1.472   1.363   0.391  0.00  0.00     0.042 A 
ATOM      5  C   UNL d   1      -0.162  -0.890   0.479  0.00  0.00     0.032 A 
ATOM      6  C   UNL d   1      -0.738   0.387   0.462  0.00  0.00     0.018 A 
ENDROOT
BRANCH   1   7
ATOM      7  N   UNL d   1       3.470  -0.001   0.452  0.00  0.00    -0.208 NA
ATOM      8  C   UNL d   1       4.221  -0.902   1.194  0.00  0.00     0.303 C 
ATOM      9  N   UNL d   1       4.077  -0.797   2.558  0.00  0.00    -0.310 N 
ATOM     10  O   UNL d   1       5.045  -1.600   0.605  0.00  0.00    -0.253 OA
ATOM     11  H   UNL d   1       3.296  -0.238   2.875  0.00  0.00     0.170 HD
ATOM     12  H   UNL d   1       3.764  -0.166  -0.507  0.00  0.00     0.138 HD
BRANCH   9  13
ATOM     13  C   UNL d   1       4.928  -1.334   3.564  0.00  0.00     0.077 A 
ATOM     14  C   UNL d   1       6.085  -2.071   3.318  0.00  0.00     0.074 A 
ATOM     15  C   UNL d   1       6.887  -2.508   4.379  0.00  0.00     0.118 A 
ATOM     16  F   UNL d   1       8.003  -3.202   4.117  0.00  0.00    -0.206 F 
ATOM     17  C   UNL d   1       6.561  -2.227   5.693  0.00  0.00     0.045 A 
ATOM     18  C   UNL d   1       5.406  -1.494   5.965  0.00  0.00     0.047 A 
ATOM     19  C   UNL d   1       4.606  -1.058   4.900  0.00  0.00     0.143 A 
ATOM     20  F   UNL d   1       3.509  -0.341   5.184  0.00  0.00    -0.204 F 
ENDBRANCH   9  13
ENDBRANCH   1   7
BRANCH   2  21
ATOM     21  N   UNL d   1       1.832  -2.323   0.458  0.00  0.00    -0.375 N 
ATOM     22  C   UNL d   1       2.168  -2.861  -0.880  0.00  0.00     0.149 C 
ATOM     23  C   UNL d   1       2.971  -4.173  -0.762  0.00  0.00     0.187 C 
ATOM     24  O   UNL d   1       2.369  -5.104   0.154  0.00  0.00    -0.388 OA
ATOM     25  C   UNL d   1       2.270  -4.503   1.456  0.00  0.00     0.187 C 
ATOM     26  C   UNL d   1       1.320  -3.306   1.417  0.00  0.00     0.149 C 
ENDBRANCH   2  21
BRANCH   3  27
ATOM     27  C   UNL d   1      -0.562   2.895   0.333  0.00  0.00     0.417 C 
ATOM     28  F   UNL d   1       0.325   3.903   0.110  0.00  0.00    -0.166 F 
ATOM     29  F   UNL d   1      -1.494   2.994  -0.656  0.00  0.00    -0.166 F 
ATOM     30  F   UNL d   1      -1.210   3.214   1.487  0.00  0.00    -0.166 F 
ENDBRANCH   3  27
TORSDOF 4
