REMARK  4 active torsions:
REMARK  status: ('A' for Active; 'I' for Inactive)
REMARK       I    between atoms: N_2  and  C_1 
REMARK       I    between atoms: N_3  and  C_1 
REMARK    1  A    between atoms: C_7  and  N_3 
REMARK    2  A    between atoms: C_9  and  N_4 
REMARK    3  A    between atoms: C_15  and  C_9 
REMARK    4  A    between atoms: C_20  and  C_15 
ROOT
ATOM      1  C   UNL d   1       0.772   0.349  -0.051  0.00  0.00     0.322 C 
ATOM      2  N   UNL d   1       0.343  -0.571   0.911  0.00  0.00    -0.332 N 
ATOM      3  N   UNL d   1       1.713   1.260   0.386  0.00  0.00    -0.309 N 
ATOM      4  N   UNL d   1      -2.082  -1.380   2.689  0.00  0.00     0.090 N 
ATOM      5  O   UNL d   1       0.342   0.305  -1.200  0.00  0.00    -0.247 OA
ATOM      6  C   UNL d   1      -0.671  -1.564   0.519  0.00  0.00     0.157 C 
ATOM      7  C   UNL d   1      -2.042  -1.409   1.214  0.00  0.00     0.292 C 
ATOM      8  C   UNL d   1       0.016  -0.010   3.328  0.00  0.00     0.050 C 
ATOM      9  C   UNL d   1       0.856  -0.712   2.269  0.00  0.00     0.129 C 
ATOM     10  C   UNL d   1      -1.506  -0.146   3.218  0.00  0.00     0.274 C 
ATOM     11  H   UNL d   1       1.968   1.221   1.356  0.00  0.00     0.170 HD
ENDROOT
BRANCH   3  12
ATOM     12  C   UNL d   1       2.351   2.273  -0.355  0.00  0.00     0.036 A 
ATOM     13  C   UNL d   1       2.038   2.596  -1.678  0.00  0.00     0.032 A 
ATOM     14  C   UNL d   1       2.698   3.644  -2.327  0.00  0.00     0.044 A 
ATOM     15  C   UNL d   1       3.685   4.357  -1.659  0.00  0.00     0.116 A 
ATOM     16  C   UNL d   1       4.029   4.038  -0.353  0.00  0.00     0.044 A 
ATOM     17  F   UNL d   1       4.309   5.367  -2.279  0.00  0.00    -0.206 F 
ATOM     18  C   UNL d   1       3.360   3.000   0.301  0.00  0.00     0.032 A 
ENDBRANCH   3  12
BRANCH   4  19
ATOM     19  C   UNL d   1      -1.675  -2.647   3.308  0.00  0.00     0.277 C 
BRANCH  19  20
ATOM     20  C   UNL d   1      -1.759  -2.683   4.844  0.00  0.00     0.068 C 
BRANCH  20  21
ATOM     21  C   UNL d   1      -1.242  -3.991   5.398  0.00  0.00    -0.057 A 
ATOM     22  C   UNL d   1       0.119  -4.144   5.707  0.00  0.00     0.007 A 
ATOM     23  C   UNL d   1       0.599  -5.355   6.208  0.00  0.00     0.001 A 
ATOM     24  C   UNL d   1      -0.274  -6.425   6.401  0.00  0.00     0.000 A 
ATOM     25  C   UNL d   1      -1.625  -6.285   6.088  0.00  0.00     0.001 A 
ATOM     26  C   UNL d   1      -2.107  -5.075   5.586  0.00  0.00     0.007 A 
ENDBRANCH  20  21
ENDBRANCH  19  20
ENDBRANCH   4  19
TORSDOF 4
