REMARK  6 active torsions:
REMARK  status: ('A' for Active; 'I' for Inactive)
REMARK    1  A    between atoms: C_13  and  C_2 
REMARK    2  A    between atoms: C_6  and  C_13 
REMARK    3  A    between atoms: S_16  and  C_7 
REMARK    4  A    between atoms: C_19  and  S_16 
REMARK    5  A    between atoms: C_17  and  C_19 
REMARK    6  A    between atoms: C_21  and  C_17 
ROOT
ATOM      1  N   UNL d   1       0.870  -0.101   0.039  0.00  0.00    -0.319 N 
ATOM      2  C   UNL d   1       0.021   0.962  -0.170  0.00  0.00     0.105 A 
ATOM      3  C   UNL d   1       0.089  -1.219  -0.082  0.00  0.00     0.162 A 
ATOM      4  N   UNL d   1      -1.208   0.495  -0.308  0.00  0.00    -0.286 N 
ATOM      5  HN  UNL d   1      -2.051   1.059  -0.415  1.00  0.00     0.188 HD
ATOM      6  N   UNL d   1      -1.159  -0.875  -0.285  0.00  0.00    -0.278 N 
ATOM      7  HN  UNL d   1      -1.949  -1.510  -0.404  1.00  0.00     0.189 HD
ATOM      8  C   UNL d   1       2.281  -0.060   0.319  0.00  0.00     0.159 C 
ENDROOT
BRANCH   2   9
ATOM      9  C   UNL d   1       0.379   2.406  -0.198  0.00  0.00     0.137 C 
BRANCH   9  10
ATOM     10  C   UNL d   1       1.289   2.813  -1.351  0.00  0.00     0.044 A 
ATOM     11  N   UNL d   1       2.398   3.408  -1.014  0.00  0.00    -0.299 N 
ATOM     12  N   UNL d   1       3.224   3.905  -1.988  0.00  0.00    -0.261 N 
ATOM     13  HN  UNL d   1       2.649   3.504  -0.030  1.00  0.00     0.187 HD
ATOM     14  C   UNL d   1       4.380   4.661  -1.544  0.00  0.00     0.181 C 
ATOM     15  C   UNL d   1       2.961   3.842  -3.352  0.00  0.00     0.272 A 
ATOM     16  C   UNL d   1       1.742   3.119  -3.748  0.00  0.00     0.046 A 
ATOM     17  O   UNL d   1       3.672   4.357  -4.212  0.00  0.00    -0.266 OA
ATOM     18  C   UNL d   1       0.884   2.620  -2.769  0.00  0.00     0.004 A 
ATOM     19  C   UNL d   1       1.446   2.959  -5.110  0.00  0.00     0.018 A 
ATOM     20  C   UNL d   1      -0.294   1.982  -3.169  0.00  0.00     0.014 A 
ATOM     21  C   UNL d   1      -0.582   1.803  -4.526  0.00  0.00     0.001 A 
ATOM     22  C   UNL d   1       0.288   2.288  -5.497  0.00  0.00     0.001 A 
ENDBRANCH   9  10
ENDBRANCH   2   9
BRANCH   3  23
ATOM     23  S   UNL d   1       0.686  -2.837   0.025  0.00  0.00    -0.085 SA
BRANCH  23  24
ATOM     24  C   UNL d   1      -0.051  -3.558  -1.475  0.00  0.00     0.166 C 
BRANCH  24  25
ATOM     25  C   UNL d   1       0.601  -3.037  -2.751  0.00  0.00     0.169 C 
ATOM     26  O   UNL d   1       1.396  -2.101  -2.774  0.00  0.00    -0.291 OA
BRANCH  25  27
ATOM     27  C   UNL d   1       0.254  -3.714  -4.045  0.00  0.00     0.010 A 
ATOM     28  C   UNL d   1      -0.626  -4.801  -4.124  0.00  0.00     0.015 A 
ATOM     29  C   UNL d   1      -0.888  -5.408  -5.357  0.00  0.00     0.001 A 
ATOM     30  C   UNL d   1      -0.282  -4.932  -6.519  0.00  0.00     0.000 A 
ATOM     31  C   UNL d   1       0.588  -3.847  -6.453  0.00  0.00     0.001 A 
ATOM     32  C   UNL d   1       0.854  -3.240  -5.223  0.00  0.00     0.015 A 
ENDBRANCH  25  27
ENDBRANCH  24  25
ENDBRANCH  23  24
ENDBRANCH   3  23
TORSDOF 6
