REMARK  2 active torsions:
REMARK  status: ('A' for Active; 'I' for Inactive)
REMARK    1  A    between atoms: S_9  and  C_2 
REMARK    2  A    between atoms: N_10  and  C_6 
ROOT
ATOM      1  C   UNL d   1      -0.276  -1.301  -0.004  0.00  0.00     0.124 A 
ATOM      2  C   UNL d   1       1.023  -0.826   0.002  0.00  0.00     0.111 A 
ATOM      3  N   UNL d   1      -0.386   0.967  -0.008  0.00  0.00    -0.282 N 
ATOM      4  HN  UNL d   1      -0.730   1.927  -0.008  1.00  0.00     0.189 HD
ATOM      5  N   UNL d   1       0.897   0.547  -0.004  0.00  0.00    -0.287 N 
ATOM      6  C   UNL d   1      -1.099  -0.152  -0.011  0.00  0.00     0.137 A 
ATOM      7  C   UNL d   1      -0.728  -2.648  -0.005  0.00  0.00     0.106 C 
ATOM      8  N   UNL d   1      -1.101  -3.749  -0.005  0.00  0.00    -0.191 NA
ATOM      9  C   UNL d   1       1.921   1.569  -0.008  0.00  0.00     0.178 C 
ENDROOT
BRANCH   2  10
ATOM     10  S   UNL d   1       2.605  -1.558   0.012  0.00  0.00    -0.114 SA
ATOM     11  C   UNL d   1       2.329  -3.335   0.014  0.00  0.00     0.097 C 
ENDBRANCH   2  10
BRANCH   6  12
ATOM     12  N   UNL d   1      -2.437  -0.143  -0.021  0.00  0.00    -0.383 N 
ATOM     13  H   UNL d   1      -2.923   0.747   0.003  0.00  0.00     0.157 HD
ATOM     14  H   UNL d   1      -3.027  -0.966   0.013  0.00  0.00     0.157 HD
ENDBRANCH   6  12
TORSDOF 2
