REMARK  8 active torsions:
REMARK  status: ('A' for Active; 'I' for Inactive)
REMARK    1  A    between atoms: N_4  and  S_1 
REMARK    2  A    between atoms: C_14  and  S_1 
REMARK    3  A    between atoms: N_2  and  C_6 
REMARK    4  A    between atoms: C_7  and  C_3 
REMARK    5  A    between atoms: C_8  and  N_4 
REMARK    6  A    between atoms: C_9  and  C_7 
REMARK    7  A    between atoms: C_16  and  O_25 
REMARK    8  A    between atoms: O_25  and  C_29 
ROOT
ATOM      1  C   UNL d   1       1.564  -3.672   1.399  0.00  0.00     0.113 C 
ATOM      2  C   UNL d   1       1.556  -2.602   0.590  0.00  0.00     0.124 C 
ATOM      3  C   UNL d   1       2.244  -4.874   1.070  0.00  0.00     0.105 C 
ATOM      4  N   UNL d   1       2.803  -5.869   0.845  0.00  0.00    -0.191 NA
ENDROOT
BRANCH   1   5
ATOM      5  C   UNL d   1       0.852  -3.545   2.707  0.00  0.00     0.227 C 
ATOM      6  O   UNL d   1       0.666  -2.427   3.191  0.00  0.00    -0.284 OA
BRANCH   5   7
ATOM      7  C   UNL d   1       0.401  -4.752   3.374  0.00  0.00     0.126 A 
ATOM      8  O   UNL d   1       0.123  -5.867   2.630  0.00  0.00    -0.319 OA
ATOM      9  C   UNL d   1      -0.253  -6.847   3.488  0.00  0.00     0.142 A 
ATOM     10  C   UNL d   1      -0.254  -6.379   4.779  0.00  0.00     0.027 A 
ATOM     11  C   UNL d   1       0.136  -5.018   4.705  0.00  0.00     0.043 A 
ENDBRANCH   5   7
ENDBRANCH   1   5
BRANCH   2  12
ATOM     12  N   UNL d   1       2.164  -2.673  -0.711  0.00  0.00    -0.322 N 
ATOM     13  HN  UNL d   1       2.599  -3.546  -1.009  1.00  0.00     0.175 HD
BRANCH  12  14
ATOM     14  S   UNL d   1       2.175  -1.459  -1.669  0.00  0.00     0.052 S 
ATOM     15  O   UNL d   1       2.652  -0.140  -1.299  0.00  0.00    -0.245 OA
ATOM     16  C   UNL d   1       0.527  -1.254  -2.306  0.00  0.00     0.142 C 
BRANCH  14  17
ATOM     17  C   UNL d   1       3.062  -1.964  -3.134  0.00  0.00     0.038 A 
ATOM     18  C   UNL d   1       3.001  -3.298  -3.548  0.00  0.00     0.024 A 
ATOM     19  C   UNL d   1       3.631  -3.683  -4.733  0.00  0.00     0.039 A 
ATOM     20  C   UNL d   1       4.355  -2.748  -5.482  0.00  0.00     0.077 A 
ATOM     21  C   UNL d   1       4.406  -1.415  -5.062  0.00  0.00     0.039 A 
ATOM     22  C   UNL d   1       3.768  -1.019  -3.883  0.00  0.00     0.024 A 
BRANCH  20  23
ATOM     23  O   UNL d   1       4.967  -3.033  -6.684  0.00  0.00    -0.294 OA
BRANCH  23  24
ATOM     24  C   UNL d   1       5.554  -4.280  -6.850  0.00  0.00     0.148 A 
ATOM     25  N   UNL d   1       6.064  -4.935  -5.780  0.00  0.00    -0.344 N 
ATOM     26  C   UNL d   1       6.594  -6.162  -5.998  0.00  0.00     0.126 A 
ATOM     27  HN  UNL d   1       6.049  -4.520  -4.848  1.00  0.00     0.167 HD
ATOM     28  C   UNL d   1       6.654  -6.746  -7.253  0.00  0.00     0.118 A 
ATOM     29  C   UNL d   1       6.167  -6.037  -8.355  0.00  0.00     0.041 A 
ATOM     30  C   UNL d   1       5.610  -4.774  -8.148  0.00  0.00     0.059 A 
BRANCH  28  31
ATOM     31  N   UNL d   1       7.202  -8.086  -7.402  0.00  0.00    -0.114 N 
ATOM     32  O   UNL d   1       7.584  -8.670  -6.379  0.00  0.00    -0.532 OA
ATOM     33  O   UNL d   1       7.242  -8.565  -8.543  0.00  0.00    -0.532 OA
ENDBRANCH  28  31
ENDBRANCH  23  24
ENDBRANCH  20  23
ENDBRANCH  14  17
ENDBRANCH  12  14
ENDBRANCH   2  12
TORSDOF 8
