REMARK  5 active torsions:
REMARK  status: ('A' for Active; 'I' for Inactive)
REMARK    1  A    between atoms: C_13  and  N_1 
REMARK    2  A    between atoms: C_9  and  C_2 
REMARK    3  A    between atoms: N_4  and  C_8 
REMARK    4  A    between atoms: N_15  and  C_10 
REMARK    5  A    between atoms: C_14  and  N_15 
ROOT
ATOM      1  C   UNL d   1       2.411  -1.279   0.022  0.00  0.00     0.068 C 
ATOM      2  C   UNL d   1       2.633  -2.598   0.029  0.00  0.00     0.092 C 
ENDROOT
BRANCH   1   3
ATOM      3  C   UNL d   1       1.102  -0.749   0.121  0.00  0.00     0.139 C 
ATOM      4  N   UNL d   1       0.823   0.583  -0.179  0.00  0.00    -0.225 N 
ATOM      5  N   UNL d   1      -0.388   0.882   0.352  0.00  0.00     0.001 NA
ATOM      6  N   UNL d   1      -0.893  -0.266   0.777  0.00  0.00    -0.007 NA
ATOM      7  N   UNL d   1       0.010  -1.284   0.636  0.00  0.00    -0.270 N 
ATOM      8  HN  UNL d   1      -0.133  -2.264   0.880  1.00  0.00     0.185 HD
BRANCH   4   9
ATOM      9  C   UNL d   1       1.568   1.550  -0.901  0.00  0.00     0.056 A 
ATOM     10  C   UNL d   1       2.484   1.163  -1.891  0.00  0.00     0.031 A 
ATOM     11  C   UNL d   1       3.237   2.128  -2.562  0.00  0.00     0.002 A 
ATOM     12  C   UNL d   1       3.077   3.476  -2.253  0.00  0.00     0.000 A 
ATOM     13  C   UNL d   1       2.143   3.868  -1.296  0.00  0.00     0.002 A 
ATOM     14  C   UNL d   1       1.373   2.911  -0.631  0.00  0.00     0.031 A 
ENDBRANCH   4   9
ENDBRANCH   1   3
BRANCH   2  15
ATOM     15  N   UNL d   1       3.883  -3.160   0.089  0.00  0.00    -0.364 N 
ATOM     16  H   UNL d   1       4.370  -3.267  -0.806  0.00  0.00     0.165 HD
BRANCH  15  17
ATOM     17  C   UNL d   1       4.382  -3.933   1.161  0.00  0.00     0.065 A 
ATOM     18  C   UNL d   1       5.607  -4.634   1.115  0.00  0.00     0.129 A 
ATOM     19  C   UNL d   1       6.111  -5.293   2.259  0.00  0.00     0.038 A 
ATOM     20  C   UNL d   1       5.406  -5.251   3.460  0.00  0.00     0.003 A 
ATOM     21  C   UNL d   1       4.200  -4.566   3.528  0.00  0.00     0.002 A 
ATOM     22  C   UNL d   1       3.699  -3.919   2.397  0.00  0.00     0.032 A 
BRANCH  18  23
ATOM     23  N   UNL d   1       6.412  -4.705  -0.115  0.00  0.00    -0.113 N 
ATOM     24  O   UNL d   1       6.027  -4.069  -1.114  0.00  0.00    -0.532 OA
ATOM     25  O   UNL d   1       7.433  -5.408  -0.100  0.00  0.00    -0.532 OA
ENDBRANCH  18  23
ENDBRANCH  15  17
ENDBRANCH   2  15
TORSDOF 5
