REMARK  3 active torsions:
REMARK  status: ('A' for Active; 'I' for Inactive)
REMARK    1  A    between atoms: N_2  and  C_1 
REMARK    2  A    between atoms: C_11  and  C_5 
REMARK    3  A    between atoms: N_6  and  N_7 
ROOT
ATOM      1  N   UNL d   1       3.935  -0.885   0.035  0.00  0.00    -0.313 N 
ATOM      2  HN  UNL d   1       3.784  -0.450  -0.876  1.00  0.00     0.185 HD
ATOM      3  C   UNL d   1       3.347  -0.525   1.137  0.00  0.00     0.119 C 
ENDROOT
BRANCH   3   4
ATOM      4  C   UNL d   1       2.399   0.566   1.177  0.00  0.00    -0.010 A 
ATOM      5  C   UNL d   1       1.872   1.317   0.074  0.00  0.00     0.057 A 
ATOM      6  C   UNL d   1       0.985   2.287   0.493  0.00  0.00     0.144 A 
ATOM      7  S   UNL d   1       0.779   2.309   2.179  0.00  0.00    -0.077 SA
ATOM      8  C   UNL d   1       1.875   1.012   2.376  0.00  0.00     0.065 A 
BRANCH   6   9
ATOM      9  N   UNL d   1       0.269   3.218  -0.337  0.00  0.00    -0.108 N 
ATOM     10  O   UNL d   1       0.459   3.122  -1.559  0.00  0.00    -0.531 OA
ATOM     11  O   UNL d   1      -0.477   4.041   0.208  0.00  0.00    -0.531 OA
ENDBRANCH   6   9
ENDBRANCH   3   4
BRANCH   1  12
ATOM     12  N   UNL d   1       4.777  -1.922   0.269  0.00  0.00    -0.324 N 
ATOM     13  C   UNL d   1       4.968  -2.927  -0.792  0.00  0.00     0.168 C 
ATOM     14  C   UNL d   1       5.531  -4.204  -0.149  0.00  0.00     0.189 C 
ATOM     15  O   UNL d   1       6.776  -3.956   0.527  0.00  0.00    -0.388 OA
ATOM     16  C   UNL d   1       6.627  -2.918   1.505  0.00  0.00     0.189 C 
ATOM     17  C   UNL d   1       6.099  -1.631   0.867  0.00  0.00     0.168 C 
ENDBRANCH   1  12
TORSDOF 3
