REMARK  3 active torsions:
REMARK  status: ('A' for Active; 'I' for Inactive)
REMARK    1  A    between atoms: C_4  and  C_1 
REMARK       I    between atoms: N_8  and  C_4 
REMARK       I    between atoms: C_6  and  N_10 
REMARK       I    between atoms: N_11  and  C_6 
REMARK    2  A    between atoms: N_10  and  N_8 
REMARK    3  A    between atoms: C_14  and  N_11 
ROOT
ATOM      1  C   UNL d   1      -5.374   0.879   0.177  0.00  0.00     0.339 C 
ATOM      2  N   UNL d   1      -4.040   0.496   0.219  0.00  0.00    -0.248 N 
ATOM      3  N   UNL d   1      -5.572   2.094   0.800  0.00  0.00    -0.308 N 
ATOM      4  O   UNL d   1      -6.222   0.162  -0.342  0.00  0.00    -0.245 OA
ATOM      5  H   UNL d   1      -3.308   1.198   0.246  0.00  0.00     0.192 HD
ATOM      6  H   UNL d   1      -4.772   2.487   1.274  0.00  0.00     0.170 HD
ENDROOT
BRANCH   2   7
ATOM      7  N   UNL d   1      -3.695  -0.689  -0.463  0.00  0.00    -0.261 N 
ATOM      8  C   UNL d   1      -2.377  -1.099  -0.474  0.00  0.00     0.288 C 
ATOM      9  O   UNL d   1      -1.462  -0.388  -0.053  0.00  0.00    -0.264 OA
ATOM     10  H   UNL d   1      -4.454  -1.309  -0.747  0.00  0.00     0.190 HD
BRANCH   8  11
ATOM     11  C   UNL d   1      -2.153  -2.444  -0.999  0.00  0.00     0.126 A 
ATOM     12  N   UNL d   1      -3.141  -3.189  -1.527  0.00  0.00    -0.256 N 
ATOM     13  O   UNL d   1      -2.561  -4.398  -1.873  0.00  0.00    -0.242 OA
ATOM     14  HN  UNL d   1      -4.117  -2.919  -1.647  1.00  0.00     0.195 HD
ATOM     15  C   UNL d   1      -1.240  -4.380  -1.550  0.00  0.00     0.075 A 
ATOM     16  C   UNL d   1      -0.927  -3.159  -1.011  0.00  0.00     0.071 A 
ATOM     17  C   UNL d   1      -0.476  -5.611  -1.816  0.00  0.00     0.079 C 
ENDBRANCH   8  11
ENDBRANCH   2   7
BRANCH   3  18
ATOM     18  C   UNL d   1      -6.779   2.818   0.898  0.00  0.00     0.036 A 
ATOM     19  C   UNL d   1      -7.986   2.395   0.336  0.00  0.00     0.029 A 
ATOM     20  C   UNL d   1      -9.134   3.187   0.434  0.00  0.00     0.002 A 
ATOM     21  C   UNL d   1      -9.088   4.411   1.096  0.00  0.00     0.000 A 
ATOM     22  C   UNL d   1      -7.896   4.836   1.676  0.00  0.00     0.002 A 
ATOM     23  C   UNL d   1      -6.748   4.042   1.580  0.00  0.00     0.029 A 
ENDBRANCH   3  18
TORSDOF 3
