REMARK  2 active torsions:
REMARK  status: ('A' for Active; 'I' for Inactive)
REMARK       I    between atoms: N_2  and  C_1 
REMARK    1  A    between atoms: C_5  and  C_1 
REMARK       I    between atoms: C_4  and  N_2 
REMARK    2  A    between atoms: C_3  and  N_8 
REMARK       I    between atoms: N_8  and  C_4 
ROOT
ATOM      1  C   UNL d   1       0.793  -0.388   0.011  0.00  0.00     0.260 C 
ATOM      2  N   UNL d   1      -0.117  -1.180   0.692  0.00  0.00    -0.275 N 
ATOM      3  C   UNL d   1       0.108  -2.164   1.626  0.00  0.00     0.327 C 
ATOM      4  N   UNL d   1       1.418  -2.490   1.843  0.00  0.00    -0.303 N 
ATOM      5  O   UNL d   1       1.988  -0.329   0.273  0.00  0.00    -0.267 OA
ATOM      6  O   UNL d   1      -0.863  -2.667   2.186  0.00  0.00    -0.247 OA
ATOM      7  H   UNL d   1      -1.100  -1.084   0.481  0.00  0.00     0.173 HD
ATOM      8  H   UNL d   1       2.092  -1.747   1.655  0.00  0.00     0.171 HD
ENDROOT
BRANCH   1   9
ATOM      9  C   UNL d   1       0.187   0.429  -1.083  0.00  0.00     0.044 A 
ATOM     10  C   UNL d   1      -0.882   1.308  -0.796  0.00  0.00    -0.045 A 
ATOM     11  C   UNL d   1      -1.572   1.917  -1.859  0.00  0.00     0.014 A 
ATOM     12  C   UNL d   1      -1.333   1.638   0.603  0.00  0.00     0.049 C 
ATOM     13  C   UNL d   1      -1.183   1.714  -3.185  0.00  0.00    -0.061 A 
ATOM     14  C   UNL d   1      -0.066   0.918  -3.448  0.00  0.00     0.014 A 
ATOM     15  C   UNL d   1      -1.956   2.354  -4.301  0.00  0.00     0.048 C 
ATOM     16  C   UNL d   1       0.640   0.277  -2.412  0.00  0.00    -0.045 A 
ATOM     17  C   UNL d   1       1.825  -0.557  -2.821  0.00  0.00     0.049 C 
ENDBRANCH   1   9
BRANCH   4  18
ATOM     18  C   UNL d   1       1.883  -3.640   2.518  0.00  0.00     0.114 A 
ATOM     19  C   UNL d   1       1.176  -4.849   2.592  0.00  0.00     0.149 A 
ATOM     20  C   UNL d   1       1.709  -5.959   3.243  0.00  0.00     0.087 A 
ATOM     21  F   UNL d   1       0.009  -5.016   1.955  0.00  0.00    -0.203 F 
ATOM     22  C   UNL d   1       2.970  -5.873   3.819  0.00  0.00     0.122 A 
ATOM     23  C   UNL d   1       3.704  -4.697   3.747  0.00  0.00     0.087 A 
ATOM     24  F   UNL d   1       3.489  -6.940   4.434  0.00  0.00    -0.206 F 
ATOM     25  C   UNL d   1       3.161  -3.599   3.088  0.00  0.00     0.149 A 
ATOM     26  F   UNL d   1       3.881  -2.469   3.023  0.00  0.00    -0.203 F 
ENDBRANCH   4  18
TORSDOF 2
