REMARK  5 active torsions:
REMARK  status: ('A' for Active; 'I' for Inactive)
REMARK    1  A    between atoms: N_12  and  N_1 
REMARK    2  A    between atoms: C_13  and  C_4 
REMARK    3  A    between atoms: C_7  and  C_5 
REMARK    4  A    between atoms: C_8  and  N_12 
REMARK    5  A    between atoms: O_23  and  C_13 
ROOT
ATOM      1  C   UNL d   1      -4.613   3.584  -1.173  0.00  0.00     0.086 A 
ATOM      2  C   UNL d   1      -5.090   2.716  -0.212  0.00  0.00     0.136 A 
ATOM      3  C   UNL d   1      -3.259   1.291  -0.538  0.00  0.00     0.176 A 
ATOM      4  N   UNL d   1      -4.417   1.558   0.082  0.00  0.00    -0.327 N 
ATOM      5  HN  UNL d   1      -4.796   0.904   0.767  1.00  0.00     0.168 HD
ATOM      6  N   UNL d   1      -2.734   2.092  -1.473  0.00  0.00    -0.340 N 
ATOM      7  HN  UNL d   1      -1.858   1.863  -1.942  1.00  0.00     0.167 HD
ATOM      8  C   UNL d   1      -3.420   3.220  -1.767  0.00  0.00     0.110 A 
ENDROOT
BRANCH   3   9
ATOM      9  N   UNL d   1      -2.603   0.135  -0.102  0.00  0.00    -0.162 NA
ATOM     10  H   UNL d   1      -3.309  -0.469   0.310  0.00  0.00     0.157 HD
BRANCH   9  11
ATOM     11  N   UNL d   1      -1.806  -0.490  -1.062  0.00  0.00    -0.199 N 
ATOM     12  C   UNL d   1      -0.581  -0.988  -0.719  0.00  0.00     0.271 C 
ATOM     13  C   UNL d   1      -0.207  -1.922  -1.801  0.00  0.00     0.013 C 
ATOM     14  O   UNL d   1       0.070  -0.836   0.304  0.00  0.00    -0.266 OA
ATOM     15  C   UNL d   1       1.090  -2.635  -1.847  0.00  0.00     0.054 C 
ATOM     16  C   UNL d   1      -1.265  -2.052  -2.610  0.00  0.00     0.088 C 
ATOM     17  C   UNL d   1      -2.351  -1.223  -2.073  0.00  0.00     0.266 C 
ATOM     18  O   UNL d   1      -3.516  -1.321  -2.426  0.00  0.00    -0.267 OA
ENDBRANCH   9  11
ENDBRANCH   3   9
BRANCH   2  19
ATOM     19  C   UNL d   1      -6.339   2.973   0.605  0.00  0.00     0.433 C 
ATOM     20  F   UNL d   1      -6.719   4.277   0.701  0.00  0.00    -0.165 F 
ATOM     21  F   UNL d   1      -7.422   2.293   0.133  0.00  0.00    -0.165 F 
ATOM     22  F   UNL d   1      -6.196   2.570   1.905  0.00  0.00    -0.165 F 
ENDBRANCH   2  19
BRANCH   1  23
ATOM     23  C   UNL d   1      -5.188   4.880  -1.548  0.00  0.00     0.296 C 
ATOM     24  O   UNL d   1      -4.498   5.866  -1.743  0.00  0.00    -0.259 OA
BRANCH  23  25
ATOM     25  O   UNL d   1      -6.528   4.791  -1.692  0.00  0.00    -0.322 OA
ATOM     26  C   UNL d   1      -7.158   6.058  -1.922  0.00  0.00     0.213 C 
ENDBRANCH  23  25
ENDBRANCH   1  23
TORSDOF 5
