REMARK  1 active torsions:
REMARK  status: ('A' for Active; 'I' for Inactive)
REMARK    1  A    between atoms: C_8  and  N_1 
ROOT
ATOM      1  C   UNL d   1      -1.911  -4.740  -0.060  0.00  0.00     0.136 C 
ATOM      2  N   UNL d   1      -1.860  -3.420  -0.348  0.00  0.00    -0.325 N 
ATOM      3  HN  UNL d   1      -2.680  -2.871  -0.604  1.00  0.00     0.169 HD
ATOM      4  C   UNL d   1      -0.612  -2.897  -0.262  0.00  0.00     0.129 C 
ATOM      5  C   UNL d   1      -0.855  -5.570   0.296  0.00  0.00     0.039 C 
ATOM      6  N   UNL d   1      -3.010  -5.558  -0.086  0.00  0.00    -0.280 N 
ATOM      7  N   UNL d   1      -2.802  -6.761   0.490  0.00  0.00    -0.301 N 
ATOM      8  HN  UNL d   1      -3.483  -7.497   0.679  1.00  0.00     0.187 HD
ATOM      9  C   UNL d   1      -1.487  -6.760   0.755  0.00  0.00     0.036 C 
ATOM     10  C   UNL d   1       0.449  -5.061   0.169  0.00  0.00    -0.042 C 
ATOM     11  C   UNL d   1       0.540  -3.681  -0.089  0.00  0.00     0.058 C 
ATOM     12  C   UNL d   1      -4.276  -5.292  -0.720  0.00  0.00     0.179 C 
ATOM     13  C   UNL d   1      -0.904  -7.885   1.527  0.00  0.00     0.070 C 
ATOM     14  C   UNL d   1       1.711  -5.857   0.303  0.00  0.00     0.049 C 
ENDROOT
BRANCH   4  15
ATOM     15  N   UNL d   1      -0.424  -1.466  -0.287  0.00  0.00    -0.243 N 
ATOM     16  N   UNL d   1       0.852  -0.964  -0.228  0.00  0.00    -0.295 N 
ATOM     17  C   UNL d   1       0.725   0.360  -0.146  0.00  0.00     0.042 A 
ATOM     18  HN  UNL d   1       1.721  -1.497  -0.245  1.00  0.00     0.187 HD
ATOM     19  C   UNL d   1       1.932   1.209  -0.003  0.00  0.00     0.071 C 
ATOM     20  C   UNL d   1      -0.624   0.732  -0.199  0.00  0.00     0.059 A 
ATOM     21  C   UNL d   1      -1.363  -0.428  -0.285  0.00  0.00     0.051 A 
ATOM     22 BR   UNL d   1      -1.258   2.494  -0.112  0.00  0.00    -0.047 Br
ATOM     23  C   UNL d   1      -2.841  -0.565  -0.307  0.00  0.00     0.072 C 
ENDBRANCH   4  15
TORSDOF 1
