REMARK  3 active torsions:
REMARK  status: ('A' for Active; 'I' for Inactive)
REMARK    1  A    between atoms: S_7  and  C_1 
REMARK    2  A    between atoms: C_8  and  C_5 
REMARK    3  A    between atoms: C_15  and  S_7 
ROOT
ATOM      1  C   UNL d   1      -1.506   1.256   0.124  0.00  0.00     0.110 A 
ATOM      2  N   UNL d   1      -0.219   0.741   0.120  0.00  0.00    -0.300 N 
ATOM      3  N   UNL d   1      -1.613  -1.015   0.091  0.00  0.00    -0.339 N 
ATOM      4  HN  UNL d   1      -1.976  -1.969   0.106  1.00  0.00     0.167 HD
ATOM      5  C   UNL d   1      -2.347   0.155   0.073  0.00  0.00     0.079 A 
ATOM      6  C   UNL d   1      -0.353  -0.647   0.085  0.00  0.00     0.113 A 
ATOM      7  C   UNL d   1       1.031   1.373   0.141  0.00  0.00     0.099 A 
ATOM      8  C   UNL d   1       0.840  -1.425   0.041  0.00  0.00     0.049 A 
ATOM      9  C   UNL d   1       2.153   0.631   0.109  0.00  0.00     0.018 A 
ATOM     10  C   UNL d   1       2.040  -0.815   0.049  0.00  0.00     0.005 A 
ENDROOT
BRANCH   1  11
ATOM     11  S   UNL d   1      -1.778   2.973   0.106  0.00  0.00    -0.070 SA
BRANCH  11  12
ATOM     12  C   UNL d   1      -2.172   3.367   1.804  0.00  0.00     0.007 A 
ATOM     13  C   UNL d   1      -2.057   2.494   2.891  0.00  0.00     0.019 A 
ATOM     14  C   UNL d   1      -2.339   2.934   4.191  0.00  0.00     0.001 A 
ATOM     15  C   UNL d   1      -2.739   4.250   4.418  0.00  0.00     0.000 A 
ATOM     16  C   UNL d   1      -2.870   5.126   3.347  0.00  0.00     0.001 A 
ATOM     17  C   UNL d   1      -2.590   4.685   2.051  0.00  0.00     0.019 A 
ENDBRANCH  11  12
ENDBRANCH   1  11
BRANCH   5  18
ATOM     18  C   UNL d   1      -3.803   0.121   0.027  0.00  0.00    -0.006 A 
ATOM     19  C   UNL d   1      -4.476  -0.956   0.629  0.00  0.00     0.015 A 
ATOM     20  C   UNL d   1      -5.872  -1.037   0.605  0.00  0.00     0.020 A 
ATOM     21  C   UNL d   1      -6.607  -0.040  -0.029  0.00  0.00     0.011 A 
ATOM     22  C   UNL d   1      -5.960   1.023  -0.653  0.00  0.00     0.020 A 
ATOM     23 BR   UNL d   1      -8.495  -0.134  -0.054  0.00  0.00    -0.051 Br
ATOM     24  C   UNL d   1      -4.563   1.095  -0.633  0.00  0.00     0.015 A 
ENDBRANCH   5  18
TORSDOF 3
