REMARK  4 active torsions:
REMARK  status: ('A' for Active; 'I' for Inactive)
REMARK    1  A    between atoms: N_2  and  C_1 
REMARK       I    between atoms: C_4  and  N_2 
REMARK    2  A    between atoms: C_12  and  C_5 
REMARK    3  A    between atoms: O_10  and  C_8 
REMARK    4  A    between atoms: C_14  and  C_12 
ROOT
ATOM      1  C   UNL d   1       1.415  -0.422   0.055  0.00  0.00     0.043 A 
ATOM      2  C   UNL d   1       0.446  -1.440   0.083  0.00  0.00     0.066 A 
ATOM      3  C   UNL d   1       0.994   0.926  -0.024  0.00  0.00    -0.031 A 
ATOM      4  C   UNL d   1      -0.390   1.195  -0.051  0.00  0.00     0.012 A 
ATOM      5  C   UNL d   1      -0.920  -1.157   0.047  0.00  0.00     0.070 A 
ATOM      6  C   UNL d   1      -1.332   0.168  -0.010  0.00  0.00     0.037 A 
ENDROOT
BRANCH   1   7
ATOM      7  N   UNL d   1       2.796  -0.737   0.142  0.00  0.00    -0.327 N 
ATOM      8  C   UNL d   1       3.382  -1.983  -0.012  0.00  0.00     0.218 C 
ATOM      9  O   UNL d   1       2.830  -3.021  -0.364  0.00  0.00    -0.274 OA
ATOM     10  C   UNL d   1       4.859  -1.990   0.287  0.00  0.00     0.117 C 
ATOM     11  H   UNL d   1       3.423   0.033   0.315  0.00  0.00     0.169 HD
ENDBRANCH   1   7
BRANCH   3  12
ATOM     12  C   UNL d   1       1.933   2.106  -0.204  0.00  0.00     0.040 C 
BRANCH  12  13
ATOM     13  C   UNL d   1       1.821   3.217   0.850  0.00  0.00     0.000 C 
ATOM     14  C   UNL d   1       2.271   2.778   2.234  0.00  0.00     0.005 C 
ENDBRANCH  12  13
ENDBRANCH   3  12
BRANCH   5  15
ATOM     15  O   UNL d   1      -1.930  -2.081   0.068  0.00  0.00    -0.356 OA
ATOM     16  C   UNL d   1      -1.540  -3.451   0.059  0.00  0.00     0.210 C 
ENDBRANCH   5  15
TORSDOF 4
