REMARK  8 active torsions:
REMARK  status: ('A' for Active; 'I' for Inactive)
REMARK    1  A    between atoms: N_3  and  C_1 
REMARK    2  A    between atoms: C_4  and  C_1 
REMARK    3  A    between atoms: N_7  and  C_1 
REMARK    4  A    between atoms: C_9  and  C_1 
REMARK    5  A    between atoms: C_2  and  N_3 
REMARK       I    between atoms: C_12  and  N_7 
REMARK    6  A    between atoms: O_18  and  C_9 
REMARK    7  A    between atoms: C_20  and  C_12 
REMARK    8  A    between atoms: C_22  and  O_18 
ROOT
ATOM      1  C   UNL d   1       1.154  -0.009   0.037  0.00  0.00     0.298 C 
ENDROOT
BRANCH   1   2
ATOM      2  N   UNL d   1       0.833  -1.252   0.777  0.00  0.00    -0.328 N 
ATOM      3  H   UNL d   1       0.784  -2.103   0.222  0.00  0.00     0.165 HD
BRANCH   2   4
ATOM      4  C   UNL d   1       1.006  -1.404   2.122  0.00  0.00     0.148 A 
ATOM      5  N   UNL d   1       1.224  -0.376   2.889  0.00  0.00    -0.336 N 
ATOM      6  C   UNL d   1       1.408  -0.817   4.191  0.00  0.00     0.051 A 
ATOM      7  HN  UNL d   1       1.254   0.596   2.583  1.00  0.00     0.168 HD
ATOM      8  C   UNL d   1       1.674  -0.004   5.311  0.00  0.00     0.031 A 
ATOM      9  C   UNL d   1       1.320  -2.200   4.372  0.00  0.00     0.035 A 
ATOM     10  C   UNL d   1       1.850  -0.593   6.568  0.00  0.00     0.002 A 
ATOM     11  C   UNL d   1       1.767  -1.974   6.720  0.00  0.00     0.002 A 
ATOM     12  C   UNL d   1       1.501  -2.802   5.627  0.00  0.00     0.021 A 
ATOM     13  S   UNL d   1       0.970  -2.937   2.855  0.00  0.00    -0.052 SA
ENDBRANCH   2   4
ENDBRANCH   1   2
BRANCH   1  14
ATOM     14  C   UNL d   1       0.618   1.313   0.681  0.00  0.00     0.442 C 
ATOM     15  F   UNL d   1      -0.467   1.114   1.468  0.00  0.00    -0.166 F 
ATOM     16  F   UNL d   1       1.532   2.013   1.384  0.00  0.00    -0.166 F 
ATOM     17  F   UNL d   1       0.190   2.149  -0.316  0.00  0.00    -0.166 F 
ENDBRANCH   1  14
BRANCH   1  18
ATOM     18  N   UNL d   1       0.603  -0.159  -1.335  0.00  0.00    -0.319 N 
ATOM     19  C   UNL d   1       0.833  -1.287  -2.073  0.00  0.00     0.219 C 
ATOM     20  O   UNL d   1       1.352  -2.271  -1.556  0.00  0.00    -0.274 OA
ATOM     21  H   UNL d   1       0.285   0.688  -1.799  0.00  0.00     0.165 HD
BRANCH  19  22
ATOM     22  C   UNL d   1       0.330  -1.224  -3.498  0.00  0.00     0.098 C 
ATOM     23  C   UNL d   1       0.742  -2.448  -4.296  0.00  0.00     0.014 C 
ENDBRANCH  19  22
ENDBRANCH   1  18
BRANCH   1  24
ATOM     24  C   UNL d   1       2.693   0.179   0.005  0.00  0.00     0.318 C 
ATOM     25  O   UNL d   1       3.461  -0.255   0.853  0.00  0.00    -0.260 OA
BRANCH  24  26
ATOM     26  O   UNL d   1       3.083   0.978  -1.037  0.00  0.00    -0.318 OA
BRANCH  26  27
ATOM     27  C   UNL d   1       4.449   1.430  -0.983  0.00  0.00     0.174 C 
ATOM     28  C   UNL d   1       5.352   0.542  -1.815  0.00  0.00     0.034 C 
ENDBRANCH  26  27
ENDBRANCH  24  26
ENDBRANCH   1  24
TORSDOF 8
