REMARK  7 active torsions:
REMARK  status: ('A' for Active; 'I' for Inactive)
REMARK    1  A    between atoms: C_3  and  C_1 
REMARK    2  A    between atoms: C_14  and  C_2 
REMARK    3  A    between atoms: S_4  and  C_10 
REMARK    4  A    between atoms: C_16  and  S_4 
REMARK    5  A    between atoms: C_10  and  C_9 
REMARK    6  A    between atoms: O_22  and  C_14 
REMARK    7  A    between atoms: C_28  and  O_22 
ROOT
ATOM      1  C   UNL d   1       0.336  -2.682  -0.118  0.00  0.00     0.054 A 
ATOM      2  N   UNL d   1       1.159  -3.133   0.905  0.00  0.00    -0.352 N 
ATOM      3  HN  UNL d   1       1.484  -2.565   1.687  1.00  0.00     0.166 HD
ATOM      4  C   UNL d   1       1.459  -4.406   0.718  0.00  0.00     0.065 A 
ATOM      5  C   UNL d   1       0.084  -3.611  -1.105  0.00  0.00     0.082 A 
ATOM      6  S   UNL d   1       0.796  -5.113  -0.703  0.00  0.00    -0.085 SA
ENDROOT
BRANCH   1   7
ATOM      7  C   UNL d   1      -0.132  -1.297  -0.064  0.00  0.00     0.057 A 
ATOM      8  C   UNL d   1      -1.338  -0.748  -0.591  0.00  0.00     0.144 A 
ATOM      9  N   UNL d   1      -1.370   0.584  -0.396  0.00  0.00    -0.254 N 
ATOM     10  O   UNL d   1      -0.210   0.905   0.275  0.00  0.00    -0.241 OA
ATOM     11  HN  UNL d   1      -2.106   1.227  -0.687  1.00  0.00     0.195 HD
ATOM     12  C   UNL d   1       0.529  -0.217   0.473  0.00  0.00     0.087 A 
ATOM     13  C   UNL d   1       1.830  -0.029   1.138  0.00  0.00     0.080 C 
BRANCH   8  14
ATOM     14  C   UNL d   1      -2.425  -1.426  -1.292  0.00  0.00     0.312 C 
ATOM     15  O   UNL d   1      -2.667  -2.623  -1.175  0.00  0.00    -0.258 OA
BRANCH  14  16
ATOM     16  O   UNL d   1      -3.047  -0.613  -2.198  0.00  0.00    -0.317 OA
BRANCH  16  17
ATOM     17  C   UNL d   1      -3.692  -1.290  -3.284  0.00  0.00     0.175 C 
ATOM     18  C   UNL d   1      -2.647  -1.568  -4.353  0.00  0.00     0.034 C 
ENDBRANCH  16  17
ENDBRANCH  14  16
ENDBRANCH   8  14
ENDBRANCH   1   7
BRANCH   4  19
ATOM     19  C   UNL d   1       2.208  -5.243   1.688  0.00  0.00     0.210 C 
BRANCH  19  20
ATOM     20  S   UNL d   1       3.928  -5.303   1.256  0.00  0.00     0.181 S 
ATOM     21  O   UNL d   1       4.613  -6.037   2.305  0.00  0.00    -0.222 OA
ATOM     22  O   UNL d   1       4.062  -5.731  -0.126  0.00  0.00    -0.222 OA
BRANCH  20  23
ATOM     23  C   UNL d   1       4.534  -3.634   1.369  0.00  0.00     0.059 A 
ATOM     24  C   UNL d   1       4.455  -2.955   2.590  0.00  0.00     0.025 A 
ATOM     25  C   UNL d   1       4.944  -1.650   2.682  0.00  0.00     0.025 A 
ATOM     26  C   UNL d   1       5.519  -1.043   1.564  0.00  0.00     0.034 A 
ATOM     27  C   UNL d   1       5.623  -1.734   0.356  0.00  0.00     0.025 A 
ATOM     28 CL   UNL d   1       6.092   0.575   1.674  0.00  0.00    -0.084 Cl
ATOM     29  C   UNL d   1       5.132  -3.037   0.255  0.00  0.00     0.025 A 
ENDBRANCH  20  23
ENDBRANCH  19  20
ENDBRANCH   4  19
TORSDOF 7
