REMARK  4 active torsions:
REMARK  status: ('A' for Active; 'I' for Inactive)
REMARK    1  A    between atoms: C_8  and  C_1 
REMARK    2  A    between atoms: S_11  and  C_5 
REMARK    3  A    between atoms: C_16  and  S_11 
REMARK    4  A    between atoms: C_18  and  C_16 
ROOT
ATOM      1  C   UNL d   1       0.021   0.518   0.361  0.00  0.00     0.132 C 
ATOM      2  N   UNL d   1       0.579  -0.570  -0.278  0.00  0.00    -0.317 N 
ATOM      3  N   UNL d   1      -0.873   0.069   1.231  0.00  0.00    -0.285 N 
ATOM      4  HN  UNL d   1      -1.386   0.639   1.903  1.00  0.00     0.188 HD
ATOM      5  C   UNL d   1      -0.149  -1.653   0.148  0.00  0.00     0.162 C 
ATOM      6  N   UNL d   1      -0.993  -1.286   1.079  0.00  0.00    -0.278 N 
ATOM      7  HN  UNL d   1      -1.624  -1.898   1.596  1.00  0.00     0.189 HD
ATOM      8  C   UNL d   1       1.695  -0.623  -1.185  0.00  0.00     0.160 C 
ENDROOT
BRANCH   1   9
ATOM      9  C   UNL d   1       0.301   1.984   0.158  0.00  0.00     0.222 C 
ATOM     10  O   UNL d   1       0.899   2.245  -1.123  0.00  0.00    -0.333 OA
ATOM     11  C   UNL d   1      -0.018   2.339  -2.138  0.00  0.00     0.103 A 
ATOM     12  C   UNL d   1       0.486   2.337  -3.437  0.00  0.00     0.040 A 
ATOM     13  C   UNL d   1      -1.396   2.391  -1.919  0.00  0.00     0.102 A 
ATOM     14  C   UNL d   1      -0.393   2.302  -4.519  0.00  0.00     0.003 A 
ATOM     15  C   UNL d   1      -1.770   2.263  -4.299  0.00  0.00     0.003 A 
ATOM     16  C   UNL d   1      -2.273   2.315  -2.998  0.00  0.00     0.039 A 
ATOM     17  O   UNL d   1      -1.954   2.502  -0.674  0.00  0.00    -0.345 OA
ATOM     18  C   UNL d   1      -0.969   2.829   0.320  0.00  0.00     0.216 C 
ENDBRANCH   1   9
BRANCH   5  19
ATOM     19  S   UNL d   1       0.033  -3.259  -0.467  0.00  0.00    -0.088 SA
BRANCH  19  20
ATOM     20  C   UNL d   1      -1.590  -3.946  -0.003  0.00  0.00     0.121 C 
BRANCH  20  21
ATOM     21  C   UNL d   1      -1.656  -5.440  -0.216  0.00  0.00    -0.048 A 
ATOM     22  C   UNL d   1      -1.077  -6.312   0.723  0.00  0.00     0.011 A 
ATOM     23  C   UNL d   1      -1.150  -7.693   0.546  0.00  0.00     0.043 A 
ATOM     24  C   UNL d   1      -1.802  -8.205  -0.571  0.00  0.00     0.116 A 
ATOM     25  C   UNL d   1      -2.376  -7.364  -1.514  0.00  0.00     0.043 A 
ATOM     26  F   UNL d   1      -1.878  -9.533  -0.735  0.00  0.00    -0.206 F 
ATOM     27  C   UNL d   1      -2.301  -5.979  -1.340  0.00  0.00     0.011 A 
ENDBRANCH  20  21
ENDBRANCH  19  20
ENDBRANCH   5  19
TORSDOF 4
