REMARK  5 active torsions:
REMARK  status: ('A' for Active; 'I' for Inactive)
REMARK    1  A    between atoms: S_9  and  C_1 
REMARK    2  A    between atoms: C_10  and  C_4 
REMARK    3  A    between atoms: C_11  and  C_5 
REMARK    4  A    between atoms: C_15  and  S_9 
REMARK    5  A    between atoms: C_21  and  C_15 
ROOT
ATOM      1  C   UNL d   1       0.964  -1.278  -0.089  0.00  0.00     0.087 A 
ATOM      2  N   UNL d   1       1.643  -0.099  -0.078  0.00  0.00    -0.336 N 
ATOM      3  HN  UNL d   1       2.663  -0.082  -0.092  1.00  0.00     0.168 HD
ATOM      4  C   UNL d   1      -0.427  -1.344  -0.067  0.00  0.00     0.065 A 
ATOM      5  C   UNL d   1       0.936   1.042  -0.047  0.00  0.00     0.116 A 
ATOM      6  N   UNL d   1      -0.404   1.072  -0.021  0.00  0.00    -0.345 N 
ATOM      7  HN  UNL d   1      -0.906   1.959   0.010  1.00  0.00     0.167 HD
ATOM      8  C   UNL d   1      -1.073  -0.103  -0.035  0.00  0.00     0.023 A 
ATOM      9  C   UNL d   1      -2.567   0.069   0.017  0.00  0.00     0.069 C 
ENDROOT
BRANCH   1  10
ATOM     10  S   UNL d   1       2.111  -2.647  -0.062  0.00  0.00    -0.107 SA
BRANCH  10  11
ATOM     11  C   UNL d   1       1.849  -3.374  -1.706  0.00  0.00     0.119 C 
BRANCH  11  12
ATOM     12  C   UNL d   1       2.782  -4.509  -2.091  0.00  0.00    -0.049 A 
ATOM     13  C   UNL d   1       3.526  -5.276  -1.180  0.00  0.00     0.008 A 
ATOM     14  C   UNL d   1       4.315  -6.347  -1.615  0.00  0.00     0.001 A 
ATOM     15  C   UNL d   1       4.365  -6.680  -2.966  0.00  0.00     0.000 A 
ATOM     16  C   UNL d   1       3.630  -5.938  -3.885  0.00  0.00     0.001 A 
ATOM     17  C   UNL d   1       2.847  -4.866  -3.451  0.00  0.00     0.008 A 
ENDBRANCH  11  12
ENDBRANCH  10  11
ENDBRANCH   1  10
BRANCH   4  18
ATOM     18  C   UNL d   1      -1.246  -2.584  -0.129  0.00  0.00     0.160 C 
ATOM     19  O   UNL d   1      -2.273  -2.577  -0.812  0.00  0.00    -0.293 OA
ATOM     20  C   UNL d   1      -0.889  -3.832   0.634  0.00  0.00     0.097 C 
ENDBRANCH   4  18
BRANCH   5  21
ATOM     21  C   UNL d   1       1.651   2.331  -0.023  0.00  0.00     0.008 A 
ATOM     22  C   UNL d   1       3.053   2.406  -0.144  0.00  0.00     0.017 A 
ATOM     23  C   UNL d   1       3.725   3.637  -0.118  0.00  0.00     0.025 A 
ATOM     24  C   UNL d   1       3.007   4.818   0.032  0.00  0.00     0.034 A 
ATOM     25  C   UNL d   1       1.621   4.782   0.152  0.00  0.00     0.025 A 
ATOM     26 CL   UNL d   1       3.830   6.327   0.072  0.00  0.00    -0.084 Cl
ATOM     27  C   UNL d   1       0.956   3.549   0.125  0.00  0.00     0.017 A 
ENDBRANCH   5  21
TORSDOF 5
