REMARK  2 active torsions:
REMARK  status: ('A' for Active; 'I' for Inactive)
REMARK    1  A    between atoms: C_11  and  C_4 
REMARK    2  A    between atoms: O_17  and  C_14 
ROOT
ATOM      1  S   UNL d   1       0.906   1.455  -0.408  0.00  0.00     0.158 S 
ATOM      2  S   UNL d   1       0.902  -1.473  -0.404  0.00  0.00     0.158 S 
ATOM      3  C   UNL d   1       1.746  -0.009   0.064  0.00  0.00     0.279 C 
ATOM      4  C   UNL d   1      -1.430  -0.005  -0.219  0.00  0.00     0.046 C 
ATOM      5  C   UNL d   1      -0.730  -1.276   0.259  0.00  0.00     0.151 C 
ATOM      6  C   UNL d   1      -0.728   1.264   0.257  0.00  0.00     0.151 C 
ATOM      7  O   UNL d   1       1.524   2.546   0.323  0.00  0.00    -0.227 OA
ATOM      8  O   UNL d   1       0.803   1.518  -1.851  0.00  0.00    -0.227 OA
ATOM      9  O   UNL d   1       0.802  -1.542  -1.846  0.00  0.00    -0.227 OA
ATOM     10  O   UNL d   1       1.518  -2.562   0.334  0.00  0.00    -0.227 OA
ENDROOT
BRANCH   4  11
ATOM     11  C   UNL d   1      -2.868  -0.005   0.290  0.00  0.00    -0.052 A 
ATOM     12  C   UNL d   1      -3.938  -0.008  -0.614  0.00  0.00     0.010 A 
ATOM     13  C   UNL d   1      -5.263  -0.015  -0.156  0.00  0.00     0.037 A 
ATOM     14  C   UNL d   1      -5.533  -0.018   1.211  0.00  0.00     0.068 A 
ATOM     15  C   UNL d   1      -4.474  -0.031   2.116  0.00  0.00     0.037 A 
ATOM     16  C   UNL d   1      -3.154  -0.015   1.665  0.00  0.00     0.010 A 
BRANCH  14  17
ATOM     17  O   UNL d   1      -6.776  -0.054   1.779  0.00  0.00    -0.356 OA
ATOM     18  C   UNL d   1      -7.823   0.525   1.011  0.00  0.00     0.210 C 
ENDBRANCH  14  17
ENDBRANCH   4  11
TORSDOF 2
