REMARK  6 active torsions:
REMARK  status: ('A' for Active; 'I' for Inactive)
REMARK    1  A    between atoms: C_11  and  C_1 
REMARK    2  A    between atoms: C_12  and  C_4 
REMARK    3  A    between atoms: N_7  and  C_5 
REMARK    4  A    between atoms: N_8  and  C_6 
REMARK       I    between atoms: N_25  and  C_11 
REMARK    5  A    between atoms: C_19  and  C_28 
REMARK    6  A    between atoms: N_20  and  N_25 
ROOT
ATOM      1  C   UNL d   1       0.462  -1.041  -0.137  0.00  0.00     0.241 A 
ATOM      2  N   UNL d   1      -0.815  -0.707  -0.095  0.00  0.00    -0.313 N 
ATOM      3  HN  UNL d   1      -1.632  -1.302   0.044  1.00  0.00     0.170 HD
ATOM      4  C   UNL d   1      -0.754   0.658  -0.288  0.00  0.00     0.162 A 
ATOM      5  N   UNL d   1       0.485   1.149  -0.429  0.00  0.00    -0.240 N 
ATOM      6  HN  UNL d   1       0.768   2.118  -0.578  1.00  0.00     0.196 HD
ATOM      7  O   UNL d   1       1.296   0.022  -0.322  0.00  0.00    -0.212 OA
ENDROOT
BRANCH   1   8
ATOM      8  C   UNL d   1       1.043  -2.364  -0.050  0.00  0.00     0.313 C 
ATOM      9  N   UNL d   1       0.105  -3.392   0.069  0.00  0.00    -0.263 N 
ATOM     10  H   UNL d   1      -0.887  -3.171   0.089  0.00  0.00     0.190 HD
ATOM     11  O   UNL d   1       2.257  -2.566  -0.094  0.00  0.00    -0.262 OA
BRANCH   9  12
ATOM     12  N   UNL d   1       0.545  -4.686   0.069  0.00  0.00    -0.308 N 
ATOM     13  C   UNL d   1      -0.344  -5.625   0.127  0.00  0.00     0.126 C 
ATOM     14  HN  UNL d   1       1.540  -4.905   0.024  1.00  0.00     0.186 HD
BRANCH  13  15
ATOM     15  C   UNL d   1       0.090  -7.004   0.100  0.00  0.00     0.024 A 
ATOM     16  S   UNL d   1      -1.064  -8.267   0.159  0.00  0.00    -0.065 SA
ATOM     17  C   UNL d   1       0.147  -9.459   0.059  0.00  0.00     0.144 A 
ATOM     18  C   UNL d   1       1.416  -8.925  -0.006  0.00  0.00     0.045 A 
ATOM     19  C   UNL d   1       1.379  -7.499   0.019  0.00  0.00     0.023 A 
BRANCH  17  20
ATOM     20  N   UNL d   1      -0.194 -10.858   0.044  0.00  0.00    -0.108 N 
ATOM     21  O   UNL d   1       0.751 -11.653  -0.045  0.00  0.00    -0.531 OA
ATOM     22  O   UNL d   1      -1.389 -11.171   0.120  0.00  0.00    -0.531 OA
ENDBRANCH  17  20
ENDBRANCH  13  15
ENDBRANCH   9  12
ENDBRANCH   1   8
BRANCH   4  23
ATOM     23  C   UNL d   1      -1.963   1.533  -0.358  0.00  0.00     0.123 A 
ATOM     24  O   UNL d   1      -3.253   1.110  -0.165  0.00  0.00    -0.285 OA
ATOM     25  C   UNL d   1      -4.044   2.207  -0.311  0.00  0.00     0.215 A 
ATOM     26  C   UNL d   1      -3.311   3.329  -0.612  0.00  0.00     0.066 A 
ATOM     27  C   UNL d   1      -1.962   2.894  -0.634  0.00  0.00     0.046 A 
BRANCH  25  28
ATOM     28  N   UNL d   1      -5.449   2.013  -0.134  0.00  0.00    -0.090 N 
ATOM     29  O   UNL d   1      -6.158   3.023  -0.246  0.00  0.00    -0.530 OA
ATOM     30  O   UNL d   1      -5.847   0.870   0.117  0.00  0.00    -0.530 OA
ENDBRANCH  25  28
ENDBRANCH   4  23
TORSDOF 6
