REMARK  9 active torsions:
REMARK  status: ('A' for Active; 'I' for Inactive)
REMARK    1  A    between atoms: C_7  and  C_1 
REMARK    2  A    between atoms: C_2  and  C_9 
REMARK    3  A    between atoms: O_6  and  C_2 
REMARK    4  A    between atoms: N_3  and  O_6 
REMARK    5  A    between atoms: N_23  and  C_5 
REMARK    6  A    between atoms: C_24  and  C_5 
REMARK    7  A    between atoms: C_8  and  C_25 
REMARK    8  A    between atoms: S_22  and  C_24 
REMARK    9  A    between atoms: C_25  and  S_22 
ROOT
ATOM      1  N   UNL d   1      -1.077  -3.669   4.725  0.00  0.00    -0.245 N 
ATOM      2  HN  UNL d   1      -0.990  -2.787   4.220  1.00  0.00     0.196 HD
ATOM      3  C   UNL d   1      -1.412  -3.751   5.976  0.00  0.00     0.105 C 
ENDROOT
BRANCH   1   4
ATOM      4  O   UNL d   1      -0.846  -4.935   4.137  0.00  0.00    -0.193 OA
BRANCH   4   5
ATOM      5  C   UNL d   1      -0.548  -4.763   2.810  0.00  0.00     0.315 C 
ATOM      6  O   UNL d   1      -0.546  -3.708   2.186  0.00  0.00    -0.257 OA
BRANCH   5   7
ATOM      7  C   UNL d   1      -0.202  -6.057   2.150  0.00  0.00     0.041 A 
ATOM      8  C   UNL d   1       0.095  -6.030   0.777  0.00  0.00     0.018 A 
ATOM      9  C   UNL d   1       0.453  -7.199   0.097  0.00  0.00     0.017 A 
ATOM     10  C   UNL d   1       0.525  -8.423   0.777  0.00  0.00     0.048 A 
ATOM     11  C   UNL d   1       0.218  -8.451   2.147  0.00  0.00     0.017 A 
ATOM     12  C   UNL d   1      -0.141  -7.279   2.831  0.00  0.00     0.018 A 
BRANCH  10  13
ATOM     13  C   UNL d   1       0.934  -9.675   0.033  0.00  0.00     0.417 C 
ATOM     14  F   UNL d   1       1.016 -10.777   0.829  0.00  0.00    -0.166 F 
ATOM     15  F   UNL d   1       2.153  -9.553  -0.561  0.00  0.00    -0.166 F 
ATOM     16  F   UNL d   1       0.063  -9.998  -0.963  0.00  0.00    -0.166 F 
ENDBRANCH  10  13
ENDBRANCH   5   7
ENDBRANCH   4   5
ENDBRANCH   1   4
BRANCH   3  17
ATOM     17  N   UNL d   1      -1.572  -4.918   6.678  0.00  0.00    -0.387 N 
ATOM     18  H   UNL d   1      -1.714  -5.755   6.131  0.00  0.00     0.157 HD
ATOM     19  H   UNL d   1      -2.065  -4.877   7.564  0.00  0.00     0.157 HD
ENDBRANCH   3  17
BRANCH   3  20
ATOM     20  C   UNL d   1      -1.670  -2.428   6.701  0.00  0.00     0.151 C 
BRANCH  20  21
ATOM     21  S   UNL d   1      -0.575  -2.231   8.140  0.00  0.00    -0.155 SA
BRANCH  21  22
ATOM     22  C   UNL d   1       1.037  -2.221   7.282  0.00  0.00     0.139 C 
BRANCH  22  23
ATOM     23  C   UNL d   1       2.139  -2.057   8.267  0.00  0.00     0.061 A 
ATOM     24  O   UNL d   1       2.656  -3.202   8.803  0.00  0.00    -0.326 OA
ATOM     25  C   UNL d   1       3.629  -2.830   9.674  0.00  0.00     0.142 A 
ATOM     26  C   UNL d   1       3.757  -1.461   9.697  0.00  0.00     0.027 A 
ATOM     27  C   UNL d   1       2.797  -0.959   8.786  0.00  0.00     0.035 A 
ENDBRANCH  22  23
ENDBRANCH  21  22
ENDBRANCH  20  21
ENDBRANCH   3  20
TORSDOF 9
