REMARK  3 active torsions:
REMARK  status: ('A' for Active; 'I' for Inactive)
REMARK    1  A    between atoms: S_10  and  C_2 
REMARK    2  A    between atoms: N_11  and  C_3 
REMARK    3  A    between atoms: C_12  and  S_10 
ROOT
ATOM      1  N   UNL d   1       6.760  -0.172   1.032  0.00  0.00    -0.197 NA
ATOM      2  C   UNL d   1       5.633   0.077   0.907  0.00  0.00     0.069 C 
ATOM      3  C   UNL d   1       4.209   0.406   0.761  0.00  0.00     0.205 C 
ENDROOT
BRANCH   3   4
ATOM      4  S   UNL d   1       3.285  -0.939  -0.046  0.00  0.00    -0.089 SA
BRANCH   4   5
ATOM      5  C   UNL d   1       1.676  -0.262   0.006  0.00  0.00     0.131 A 
ATOM      6  S   UNL d   1       0.260  -1.221  -0.038  0.00  0.00    -0.027 SA
ATOM      7  C   UNL d   1      -0.641   0.238   0.085  0.00  0.00     0.159 A 
ATOM      8  N   UNL d   1       0.106   1.319   0.128  0.00  0.00    -0.279 N 
ATOM      9  N   UNL d   1       1.457   1.030   0.086  0.00  0.00    -0.286 N 
ATOM     10  HN  UNL d   1      -0.270   2.265   0.186  1.00  0.00     0.189 HD
ATOM     11  HN  UNL d   1       2.194   1.735   0.114  1.00  0.00     0.188 HD
BRANCH   7  12
ATOM     12  N   UNL d   1      -1.985   0.233   0.125  0.00  0.00    -0.379 N 
ATOM     13  H   UNL d   1      -2.483  -0.589  -0.197  0.00  0.00     0.158 HD
ATOM     14  H   UNL d   1      -2.451   1.113  -0.067  0.00  0.00     0.158 HD
ENDBRANCH   7  12
ENDBRANCH   4   5
ENDBRANCH   3   4
TORSDOF 3
