REMARK  6 active torsions:
REMARK  status: ('A' for Active; 'I' for Inactive)
REMARK    1  A    between atoms: C_11  and  C_1 
REMARK    2  A    between atoms: C_13  and  C_4 
REMARK    3  A    between atoms: S_12  and  C_5 
REMARK    4  A    between atoms: N_16  and  C_5 
REMARK    5  A    between atoms: C_7  and  C_14 
REMARK    6  A    between atoms: C_14  and  S_12 
ROOT
ATOM      1  C   UNL d   1       4.605  -0.852   1.490  0.00  0.00     0.117 C 
ATOM      2  C   UNL d   1       4.053  -1.293   0.328  0.00  0.00     0.068 C 
ATOM      3  C   UNL d   1       4.903  -1.724   2.576  0.00  0.00     0.105 C 
ATOM      4  N   UNL d   1       5.144  -2.377   3.502  0.00  0.00    -0.191 NA
ENDROOT
BRANCH   1   5
ATOM      5  C   UNL d   1       4.954   0.599   1.669  0.00  0.00     0.168 C 
ATOM      6  O   UNL d   1       5.126   1.333   0.690  0.00  0.00    -0.292 OA
ATOM      7  C   UNL d   1       5.114   1.171   3.064  0.00  0.00     0.097 C 
ENDBRANCH   1   5
BRANCH   2   8
ATOM      8  S   UNL d   1       3.839  -3.028   0.097  0.00  0.00    -0.111 SA
BRANCH   8   9
ATOM      9  C   UNL d   1       2.032  -3.180  -0.093  0.00  0.00     0.138 C 
BRANCH   9  10
ATOM     10  C   UNL d   1       1.584  -4.619  -0.165  0.00  0.00     0.026 A 
ATOM     11  N   UNL d   1       2.506  -5.652  -0.029  0.00  0.00    -0.352 N 
ATOM     12  C   UNL d   1       1.932  -6.835  -0.097  0.00  0.00     0.084 A 
ATOM     13  HN  UNL d   1       3.507  -5.510   0.107  1.00  0.00     0.166 HD
ATOM     14  S   UNL d   1       0.233  -6.774  -0.370  0.00  0.00    -0.081 SA
ATOM     15  C   UNL d   1       0.289  -5.060  -0.364  0.00  0.00     0.077 A 
BRANCH  12  16
ATOM     16  C   UNL d   1       2.670  -8.107   0.002  0.00  0.00    -0.002 A 
ATOM     17  C   UNL d   1       2.081  -9.300   0.451  0.00  0.00     0.016 A 
ATOM     18  C   UNL d   1       2.826 -10.482   0.535  0.00  0.00     0.024 A 
ATOM     19  C   UNL d   1       4.171 -10.485   0.173  0.00  0.00     0.034 A 
ATOM     20  C   UNL d   1       4.781  -9.313  -0.264  0.00  0.00     0.024 A 
ATOM     21 CL   UNL d   1       5.080 -11.941   0.272  0.00  0.00    -0.084 Cl
ATOM     22  C   UNL d   1       4.035  -8.132  -0.342  0.00  0.00     0.016 A 
ENDBRANCH  12  16
ENDBRANCH   9  10
ENDBRANCH   8   9
ENDBRANCH   2   8
BRANCH   2  23
ATOM     23  N   UNL d   1       3.735  -0.482  -0.751  0.00  0.00    -0.296 NA
ATOM     24  H   UNL d   1       4.307   0.375  -0.768  0.00  0.00     0.124 HD
ATOM     25  H   UNL d   1       3.818  -0.995  -1.626  0.00  0.00     0.124 HD
ENDBRANCH   2  23
TORSDOF 6
