REMARK  0 active torsions:
REMARK  status: ('A' for Active; 'I' for Inactive)
ROOT
ATOM      1  C   UNL d   1      -2.586  -0.718   0.051  0.00  0.00     0.241 A 
ATOM      2  C   UNL d   1      -1.397  -1.646  -0.030  0.00  0.00     0.185 A 
ATOM      3  C   UNL d   1      -1.952   0.654   0.098  0.00  0.00     0.185 A 
ATOM      4  C   UNL d   1      -0.173  -0.846  -0.009  0.00  0.00     0.025 A 
ATOM      5  C   UNL d   1      -0.497   0.501   0.051  0.00  0.00     0.025 A 
ATOM      6  C   UNL d   1      -3.373  -0.981   1.250  0.00  0.00     0.080 C 
ATOM      7  N   UNL d   1      -3.992  -1.192   2.210  0.00  0.00    -0.196 NA
ATOM      8  O   UNL d   1      -2.513   1.732   0.150  0.00  0.00    -0.290 OA
ATOM      9  O   UNL d   1      -1.404  -2.860  -0.124  0.00  0.00    -0.290 OA
ATOM     10  C   UNL d   1       1.140  -1.278  -0.046  0.00  0.00     0.016 A 
ATOM     11  C   UNL d   1       0.477   1.483   0.062  0.00  0.00     0.016 A 
ATOM     12  C   UNL d   1       1.812   1.067   0.023  0.00  0.00     0.001 A 
ATOM     13  C   UNL d   1       2.140  -0.302  -0.025  0.00  0.00     0.001 A 
ENDROOT
TORSDOF 0
