REMARK  2 active torsions:
REMARK  status: ('A' for Active; 'I' for Inactive)
REMARK    1  A    between atoms: C_2  and  C_1 
REMARK       I    between atoms: N_4  and  C_2 
REMARK    2  A    between atoms: C_11  and  N_3 
ROOT
ATOM      1  C   UNL d   1      -0.171   1.151   0.080  0.00  0.00     0.073 C 
ATOM      2  N   UNL d   1       0.063  -1.030  -0.340  0.00  0.00    -0.260 N 
ATOM      3  C   UNL d   1      -0.826   0.036  -0.446  0.00  0.00     0.048 C 
ATOM      4  N   UNL d   1       1.139  -0.691   0.418  0.00  0.00    -0.304 N 
ATOM      5  HN  UNL d   1       1.896  -1.299   0.731  1.00  0.00     0.186 HD
ATOM      6  C   UNL d   1       0.988   0.606   0.664  0.00  0.00     0.126 C 
ATOM      7  C   UNL d   1      -2.246  -0.056  -0.892  0.00  0.00     0.071 C 
ENDROOT
BRANCH   1   8
ATOM      8  C   UNL d   1      -0.686   2.529   0.123  0.00  0.00     0.261 C 
ATOM      9  N   UNL d   1       0.245   3.592  -0.002  0.00  0.00    -0.313 N 
ATOM     10  C   UNL d   1      -0.136   4.976   0.193  0.00  0.00     0.043 A 
ATOM     11  C   UNL d   1       1.633   3.373  -0.436  0.00  0.00     0.133 C 
ATOM     12  C   UNL d   1       0.681   6.014  -0.308  0.00  0.00    -0.031 A 
ATOM     13  C   UNL d   1      -1.297   5.350   0.888  0.00  0.00     0.031 A 
ATOM     14  C   UNL d   1       0.303   7.361  -0.147  0.00  0.00     0.016 A 
ATOM     15  C   UNL d   1       1.987   5.754  -1.009  0.00  0.00     0.042 C 
ATOM     16  C   UNL d   1      -0.876   7.712   0.511  0.00  0.00    -0.061 A 
ATOM     17  C   UNL d   1      -1.665   6.694   1.041  0.00  0.00     0.009 A 
ATOM     18  C   UNL d   1      -1.273   9.153   0.614  0.00  0.00     0.048 C 
ATOM     19  C   UNL d   1       2.076   4.335  -1.517  0.00  0.00     0.025 C 
ATOM     20  O   UNL d   1      -1.899   2.693   0.213  0.00  0.00    -0.267 OA
ENDBRANCH   1   8
BRANCH   2  21
ATOM     21  C   UNL d   1      -0.044  -2.367  -0.823  0.00  0.00     0.056 A 
ATOM     22  C   UNL d   1      -0.800  -2.692  -1.957  0.00  0.00     0.034 A 
ATOM     23  C   UNL d   1      -1.000  -4.032  -2.300  0.00  0.00     0.044 A 
ATOM     24  C   UNL d   1      -0.417  -5.035  -1.534  0.00  0.00     0.116 A 
ATOM     25  C   UNL d   1       0.409  -4.725  -0.462  0.00  0.00     0.044 A 
ATOM     26  F   UNL d   1      -0.654  -6.317  -1.836  0.00  0.00    -0.206 F 
ATOM     27  C   UNL d   1       0.613  -3.389  -0.116  0.00  0.00     0.034 A 
ENDBRANCH   2  21
TORSDOF 2
