REMARK  5 active torsions:
REMARK  status: ('A' for Active; 'I' for Inactive)
REMARK    1  A    between atoms: C_7  and  N_1 
REMARK    2  A    between atoms: C_6  and  C_2 
REMARK    3  A    between atoms: O_16  and  C_6 
REMARK    4  A    between atoms: C_8  and  C_7 
REMARK    5  A    between atoms: C_17  and  O_16 
ROOT
ATOM      1  N   UNL d   1      -0.636  -0.976  -0.152  0.00  0.00    -0.338 N 
ATOM      2  C   UNL d   1      -0.093   1.340  -0.243  0.00  0.00     0.183 C 
ATOM      3  C   UNL d   1       0.738  -0.959  -0.109  0.00  0.00     0.290 C 
ATOM      4  C   UNL d   1       1.100   0.507   0.116  0.00  0.00     0.231 C 
ATOM      5  C   UNL d   1      -1.202   0.339   0.102  0.00  0.00     0.149 C 
ATOM      6  O   UNL d   1       1.526  -1.854  -0.307  0.00  0.00    -0.264 OA
ATOM      7  O   UNL d   1       2.190   0.901   0.489  0.00  0.00    -0.286 OA
ENDROOT
BRANCH   1   8
ATOM      8  C   UNL d   1      -1.409  -2.075  -0.693  0.00  0.00     0.191 C 
BRANCH   8   9
ATOM      9  C   UNL d   1      -2.360  -2.608   0.309  0.00  0.00     0.070 A 
ATOM     10  O   UNL d   1      -3.574  -1.991   0.400  0.00  0.00    -0.325 OA
ATOM     11  C   UNL d   1      -4.306  -2.691   1.305  0.00  0.00     0.142 A 
ATOM     12  C   UNL d   1      -3.577  -3.744   1.805  0.00  0.00     0.027 A 
ATOM     13  C   UNL d   1      -2.314  -3.685   1.170  0.00  0.00     0.036 A 
ENDBRANCH   8   9
ENDBRANCH   1   8
BRANCH   2  14
ATOM     14  C   UNL d   1      -0.153   1.642  -1.716  0.00  0.00     0.272 C 
ATOM     15  O   UNL d   1      -1.197   1.738  -2.351  0.00  0.00    -0.264 OA
BRANCH  14  16
ATOM     16  O   UNL d   1       1.088   1.751  -2.252  0.00  0.00    -0.321 OA
BRANCH  16  17
ATOM     17  C   UNL d   1       1.180   1.642  -3.681  0.00  0.00     0.174 C 
ATOM     18  C   UNL d   1       1.460   0.188  -4.017  0.00  0.00     0.034 C 
ENDBRANCH  16  17
ENDBRANCH  14  16
ENDBRANCH   2  14
TORSDOF 5
