REMARK  3 active torsions:
REMARK  status: ('A' for Active; 'I' for Inactive)
REMARK    1  A    between atoms: C_2  and  O_5 
REMARK    2  A    between atoms: C_4  and  C_2 
REMARK    3  A    between atoms: O_5  and  C_3 
ROOT
ATOM      1  C   UNL d   1       0.247  -3.709   0.121  0.00  0.00     0.300 C 
ATOM      2  O   UNL d   1       1.459  -3.658   0.041  0.00  0.00    -0.259 OA
ENDROOT
BRANCH   1   3
ATOM      3  O   UNL d   1      -0.634  -2.670   0.103  0.00  0.00    -0.277 OA
BRANCH   3   4
ATOM      4  C   UNL d   1      -0.349  -1.276  -0.084  0.00  0.00     0.082 C 
ATOM      5  C   UNL d   1      -1.383  -0.446  -0.278  0.00  0.00     0.109 C 
ATOM      6  C   UNL d   1      -1.190   1.013  -0.458  0.00  0.00     0.173 C 
ATOM      7 CL   UNL d   1      -3.015  -1.021  -0.343  0.00  0.00    -0.078 Cl
ATOM      8  O   UNL d   1      -2.127   1.748  -0.774  0.00  0.00    -0.291 OA
ATOM      9  C   UNL d   1       0.171   1.616  -0.219  0.00  0.00     0.085 C 
ATOM     10  C   UNL d   1       1.324   0.672   0.079  0.00  0.00     0.014 C 
ATOM     11  C   UNL d   1       1.080  -0.832  -0.041  0.00  0.00     0.067 C 
ENDBRANCH   3   4
ENDBRANCH   1   3
BRANCH   1  12
ATOM     12  C   UNL d   1      -0.518  -4.948   0.419  0.00  0.00     0.061 A 
ATOM     13  C   UNL d   1      -1.727  -5.279  -0.207  0.00  0.00     0.050 A 
ATOM     14 CL   UNL d   1      -2.358  -4.419  -1.566  0.00  0.00    -0.083 Cl
ATOM     15  C   UNL d   1      -2.449  -6.399   0.222  0.00  0.00     0.025 A 
ATOM     16  C   UNL d   1      -1.948  -7.215   1.237  0.00  0.00     0.002 A 
ATOM     17  C   UNL d   1      -0.711  -6.931   1.811  0.00  0.00     0.001 A 
ATOM     18  C   UNL d   1       0.005  -5.797   1.409  0.00  0.00     0.019 A 
ENDBRANCH   1  12
TORSDOF 3
