REMARK  1 active torsions:
REMARK  status: ('A' for Active; 'I' for Inactive)
REMARK    1  A    between atoms: C_9  and  C_5 
ROOT
ATOM      1  N   UNL d   1      -1.574  -1.112   0.044  0.00  0.00    -0.340 N 
ATOM      2  HN  UNL d   1      -1.918  -2.073   0.047  1.00  0.00     0.167 HD
ATOM      3  N   UNL d   1      -0.227   0.673   0.027  0.00  0.00    -0.317 N 
ATOM      4  C   UNL d   1      -0.319  -0.714   0.045  0.00  0.00     0.111 A 
ATOM      5  C   UNL d   1      -2.324   0.043   0.037  0.00  0.00     0.060 A 
ATOM      6  C   UNL d   1      -1.510   1.157   0.027  0.00  0.00     0.128 A 
ATOM      7  C   UNL d   1       0.980   1.366  -0.001  0.00  0.00     0.098 A 
ATOM      8  C   UNL d   1       0.903  -1.444   0.043  0.00  0.00     0.049 A 
ATOM      9  C   UNL d   1       2.132   0.673  -0.008  0.00  0.00     0.018 A 
ATOM     10  C   UNL d   1       2.077  -0.784   0.014  0.00  0.00     0.005 A 
ENDROOT
BRANCH   5  11
ATOM     11  C   UNL d   1      -3.775   0.054  -0.019  0.00  0.00    -0.008 A 
ATOM     12  C   UNL d   1      -4.523   1.111   0.516  0.00  0.00     0.014 A 
ATOM     13  C   UNL d   1      -5.917   1.115   0.414  0.00  0.00     0.001 A 
ATOM     14  C   UNL d   1      -6.573   0.062  -0.222  0.00  0.00     0.000 A 
ATOM     15  C   UNL d   1      -5.840  -1.001  -0.745  0.00  0.00     0.001 A 
ATOM     16  C   UNL d   1      -4.447  -1.008  -0.637  0.00  0.00     0.014 A 
ENDBRANCH   5  11
TORSDOF 1
