REMARK  3 active torsions:
REMARK  status: ('A' for Active; 'I' for Inactive)
REMARK    1  A    between atoms: C_2  and  C_1 
REMARK       I    between atoms: C_4  and  N_3 
REMARK       I    between atoms: N_13  and  C_4 
REMARK    2  A    between atoms: C_16  and  C_7 
REMARK    3  A    between atoms: C_17  and  N_13 
ROOT
ATOM      1  C   UNL d   1      -0.059  -1.117  -0.030  0.00  0.00     0.054 A 
ATOM      2  N   UNL d   1      -0.160   1.115   0.407  0.00  0.00    -0.259 N 
ATOM      3  HN  UNL d   1       0.072   2.060   0.713  1.00  0.00     0.195 HD
ATOM      4  C   UNL d   1       0.617   0.024   0.514  0.00  0.00     0.080 A 
ATOM      5  O   UNL d   1      -1.324   0.714  -0.191  0.00  0.00    -0.241 OA
ATOM      6  C   UNL d   1      -1.287  -0.618  -0.435  0.00  0.00     0.087 A 
ATOM      7  C   UNL d   1      -2.553  -1.171  -0.967  0.00  0.00     0.080 C 
ENDROOT
BRANCH   1   8
ATOM      8  C   UNL d   1       0.350  -2.557  -0.071  0.00  0.00     0.078 C 
ATOM      9  N   UNL d   1      -0.048  -3.518  -0.987  0.00  0.00    -0.205 N 
ATOM     10  C   UNL d   1      -0.662  -3.337  -2.244  0.00  0.00     0.342 C 
ATOM     11  N   UNL d   1       0.248  -4.787  -0.551  0.00  0.00    -0.301 N 
ATOM     12  N   UNL d   1      -1.501  -4.385  -2.539  0.00  0.00    -0.337 N 
ATOM     13  O   UNL d   1      -0.501  -2.304  -2.876  0.00  0.00    -0.245 OA
ATOM     14  H   UNL d   1      -1.468  -5.196  -1.922  0.00  0.00     0.164 HD
ATOM     15  C   UNL d   1       1.052  -4.577   0.494  0.00  0.00     0.110 C 
ATOM     16  HN  UNL d   1      -0.071  -5.676  -0.934  1.00  0.00     0.186 HD
ATOM     17  C   UNL d   1       1.144  -3.218   0.844  0.00  0.00     0.051 C 
BRANCH  12  18
ATOM     18  C   UNL d   1      -2.497  -4.285  -3.590  0.00  0.00     0.078 C 
ATOM     19  C   UNL d   1      -2.137  -5.204  -4.747  0.00  0.00     0.032 C 
ATOM     20  C   UNL d   1      -3.883  -4.595  -3.032  0.00  0.00     0.032 C 
ENDBRANCH  12  18
ENDBRANCH   1   8
BRANCH   4  21
ATOM     21  C   UNL d   1       1.948   0.158   1.109  0.00  0.00    -0.007 A 
ATOM     22  C   UNL d   1       2.143   1.044   2.181  0.00  0.00     0.014 A 
ATOM     23  C   UNL d   1       3.404   1.199   2.761  0.00  0.00     0.001 A 
ATOM     24  C   UNL d   1       4.484   0.462   2.280  0.00  0.00     0.000 A 
ATOM     25  C   UNL d   1       4.308  -0.410   1.208  0.00  0.00     0.001 A 
ATOM     26  C   UNL d   1       3.051  -0.549   0.613  0.00  0.00     0.014 A 
ENDBRANCH   4  21
TORSDOF 3
