REMARK  3 active torsions:
REMARK  status: ('A' for Active; 'I' for Inactive)
REMARK    1  A    between atoms: C_13  and  C_2 
REMARK    2  A    between atoms: C_10  and  C_18 
REMARK       I    between atoms: N_16  and  C_13 
REMARK    3  A    between atoms: C_18  and  N_16 
ROOT
ATOM      1  C   UNL d   1      -3.389  -1.385  -0.056  0.00  0.00     0.252 C 
ATOM      2  N   UNL d   1      -3.624  -2.739   0.036  0.00  0.00    -0.353 N 
ATOM      3  O   UNL d   1      -2.251  -0.923  -0.077  0.00  0.00    -0.268 OA
ATOM      4  H   UNL d   1      -4.545  -3.131  -0.092  0.00  0.00     0.163 HD
ENDROOT
BRANCH   2   5
ATOM      5  C   UNL d   1      -2.524  -3.677  -0.015  0.00  0.00     0.164 C 
BRANCH   5   6
ATOM      6  C   UNL d   1      -2.941  -5.130   0.035  0.00  0.00    -0.004 A 
ATOM      7  C   UNL d   1      -4.057  -5.642  -0.655  0.00  0.00     0.088 A 
ATOM      8  C   UNL d   1      -4.379  -7.008  -0.599  0.00  0.00     0.003 A 
ATOM      9  O   UNL d   1      -4.837  -4.761  -1.361  0.00  0.00    -0.325 OA
ATOM     10  C   UNL d   1      -5.583  -7.525  -1.328  0.00  0.00     0.212 C 
ATOM     11  C   UNL d   1      -3.550  -7.885   0.107  0.00  0.00     0.054 A 
ATOM     12  O   UNL d   1      -6.475  -6.462  -1.635  0.00  0.00    -0.362 OA
ATOM     13  C   UNL d   1      -5.758  -5.401  -2.246  0.00  0.00     0.345 C 
ATOM     14  C   UNL d   1      -2.429  -7.391   0.760  0.00  0.00     0.117 A 
ATOM     15  C   UNL d   1      -2.120  -6.035   0.730  0.00  0.00     0.054 A 
ATOM     16  F   UNL d   1      -1.630  -8.235   1.424  0.00  0.00    -0.206 F 
ENDBRANCH   5   6
ENDBRANCH   2   5
BRANCH   1  17
ATOM     17  C   UNL d   1      -4.567  -0.459  -0.137  0.00  0.00     0.034 A 
ATOM     18  C   UNL d   1      -5.894  -0.939  -0.211  0.00  0.00     0.051 A 
ATOM     19  C   UNL d   1      -6.884   0.064  -0.274  0.00  0.00     0.086 A 
ATOM     20  C   UNL d   1      -6.571   1.483  -0.268  0.00  0.00     0.085 A 
ATOM     21  N   UNL d   1      -8.215  -0.072  -0.346  0.00  0.00    -0.240 N 
ATOM     22  N   UNL d   1      -7.718   2.169  -0.334  0.00  0.00    -0.240 N 
ATOM     23  C   UNL d   1      -5.253   1.959  -0.203  0.00  0.00     0.035 A 
ATOM     24  O   UNL d   1      -8.722   1.216  -0.380  0.00  0.00    -0.156 OA
ATOM     25  HN  UNL d   1      -7.830   3.183  -0.348  1.00  0.00     0.197 HD
ATOM     26  C   UNL d   1      -4.275   0.945  -0.139  0.00  0.00     0.019 A 
ATOM     27  HN  UNL d   1      -8.744  -0.943  -0.371  1.00  0.00     0.197 HD
ENDBRANCH   1  17
TORSDOF 3
