REMARK  5 active torsions:
REMARK  status: ('A' for Active; 'I' for Inactive)
REMARK    1  A    between atoms: C_9  and  C_1 
REMARK    2  A    between atoms: C_11  and  C_5 
REMARK    3  A    between atoms: C_6  and  C_10 
REMARK    4  A    between atoms: C_8  and  C_9 
REMARK    5  A    between atoms: N_18  and  C_13 
ROOT
ATOM      1  C   UNL d   1      -0.842   0.973   0.045  0.00  0.00     0.151 A 
ATOM      2  C   UNL d   1      -1.375  -0.294   0.013  0.00  0.00     0.075 A 
ATOM      3  N   UNL d   1       0.880  -0.466   0.065  0.00  0.00    -0.260 N 
ATOM      4  HN  UNL d   1       1.829  -0.839   0.082  1.00  0.00     0.195 HD
ATOM      5  C   UNL d   1      -0.262  -1.171   0.017  0.00  0.00     0.068 A 
ATOM      6  O   UNL d   1       0.514   0.866   0.088  0.00  0.00    -0.233 OA
ENDROOT
BRANCH   5   7
ATOM      7  C   UNL d   1      -0.278  -2.633  -0.057  0.00  0.00    -0.007 A 
ATOM      8  C   UNL d   1       0.800  -3.334  -0.622  0.00  0.00     0.030 A 
ATOM      9  C   UNL d   1       0.758  -4.732  -0.768  0.00  0.00     0.048 A 
ATOM     10  C   UNL d   1      -0.374  -5.428  -0.319  0.00  0.00     0.016 A 
ATOM     11  C   UNL d   1      -1.438  -4.746   0.265  0.00  0.00     0.002 A 
ATOM     12  C   UNL d   1      -1.392  -3.357   0.394  0.00  0.00     0.014 A 
BRANCH   9  13
ATOM     13  C   UNL d   1       1.892  -5.486  -1.418  0.00  0.00     0.417 C 
ATOM     14  F   UNL d   1       2.924  -4.692  -1.817  0.00  0.00    -0.166 F 
ATOM     15  F   UNL d   1       2.437  -6.422  -0.592  0.00  0.00    -0.166 F 
ATOM     16  F   UNL d   1       1.492  -6.161  -2.531  0.00  0.00    -0.166 F 
ENDBRANCH   9  13
ENDBRANCH   5   7
BRANCH   1  17
ATOM     17  C   UNL d   1      -1.484   2.266   0.023  0.00  0.00     0.208 C 
ATOM     18  O   UNL d   1      -2.708   2.382  -0.023  0.00  0.00    -0.285 OA
BRANCH  17  19
ATOM     19  C   UNL d   1      -0.613   3.479   0.055  0.00  0.00     0.074 C 
ATOM     20  C   UNL d   1      -1.150   4.706   0.018  0.00  0.00     0.088 C 
BRANCH  20  21
ATOM     21  N   UNL d   1      -0.532   5.949   0.037  0.00  0.00    -0.398 N 
ATOM     22  C   UNL d   1       0.912   6.159   0.119  0.00  0.00     0.148 C 
ATOM     23  C   UNL d   1      -1.310   7.190  -0.009  0.00  0.00     0.148 C 
ENDBRANCH  20  21
ENDBRANCH  17  19
ENDBRANCH   1  17
TORSDOF 5
