REMARK  7 active torsions:
REMARK  status: ('A' for Active; 'I' for Inactive)
REMARK    1  A    between atoms: C_9  and  C_1 
REMARK       I    between atoms: C_5  and  N_6 
REMARK    2  A    between atoms: C_14  and  C_5 
REMARK    3  A    between atoms: N_6  and  C_9 
REMARK    4  A    between atoms: C_7  and  C_15 
REMARK    5  A    between atoms: O_13  and  C_7 
REMARK    6  A    between atoms: S_12  and  C_14 
REMARK    7  A    between atoms: C_15  and  S_12 
ROOT
ATOM      1  C   UNL d   1       2.365  -4.225   0.248  0.00  0.00     0.227 C 
ATOM      2  N   UNL d   1       1.923  -2.957  -0.034  0.00  0.00    -0.356 N 
ATOM      3  O   UNL d   1       1.651  -5.114   0.715  0.00  0.00    -0.273 OA
ATOM      4  H   UNL d   1       2.579  -2.264  -0.377  0.00  0.00     0.162 HD
ENDROOT
BRANCH   1   5
ATOM      5  C   UNL d   1       3.857  -4.441   0.076  0.00  0.00     0.177 C 
BRANCH   5   6
ATOM      6  S   UNL d   1       4.754  -3.691   1.473  0.00  0.00    -0.149 SA
BRANCH   6   7
ATOM      7  C   UNL d   1       3.873  -4.445   2.884  0.00  0.00     0.184 C 
BRANCH   7   8
ATOM      8  C   UNL d   1       4.066  -5.944   2.949  0.00  0.00     0.149 C 
ATOM      9  O   UNL d   1       5.037  -6.480   3.474  0.00  0.00    -0.649 OA
BRANCH   8  10
ATOM     10  O   UNL d   1       3.085  -6.665   2.360  0.00  0.00    -0.776 OA
ATOM     11  H   UNL d   1       2.368  -6.148   1.920  0.00  0.00     0.167 HD
ENDBRANCH   8  10
ENDBRANCH   7   8
ENDBRANCH   6   7
ENDBRANCH   5   6
ENDBRANCH   1   5
BRANCH   2  12
ATOM     12  C   UNL d   1       0.531  -2.582   0.054  0.00  0.00     0.169 C 
BRANCH  12  13
ATOM     13  C   UNL d   1       0.428  -1.163   0.530  0.00  0.00     0.006 A 
ATOM     14  C   UNL d   1       0.226  -0.670   1.814  0.00  0.00    -0.047 A 
ATOM     15  C   UNL d   1       0.135   0.763   1.809  0.00  0.00     0.015 A 
ATOM     16  C   UNL d   1       0.092  -1.473   3.068  0.00  0.00     0.049 C 
ATOM     17  C   UNL d   1       0.277   1.304   0.553  0.00  0.00     0.051 A 
ATOM     18  S   UNL d   1       0.537   0.105  -0.628  0.00  0.00    -0.104 SA
ENDBRANCH  12  13
ENDBRANCH   2  12
TORSDOF 7
