REMARK  4 active torsions:
REMARK  status: ('A' for Active; 'I' for Inactive)
REMARK    1  A    between atoms: C_5  and  C_1 
REMARK    2  A    between atoms: C_11  and  N_2 
REMARK       I    between atoms: N_10  and  C_5 
REMARK    3  A    between atoms: C_7  and  N_8 
REMARK    4  A    between atoms: N_8  and  N_10 
ROOT
ATOM      1  C   UNL d   1      -0.614  -2.711   0.237  0.00  0.00     0.284 C 
ATOM      2  N   UNL d   1      -1.627  -3.005   1.147  0.00  0.00    -0.281 N 
ATOM      3  O   UNL d   1      -0.075  -3.598  -0.417  0.00  0.00    -0.265 OA
ATOM      4  H   UNL d   1      -1.935  -2.308   1.818  0.00  0.00     0.184 HD
ENDROOT
BRANCH   1   5
ATOM      5  C   UNL d   1      -0.320  -1.292   0.138  0.00  0.00     0.122 A 
ATOM      6  N   UNL d   1       0.873  -0.649  -0.158  0.00  0.00    -0.278 N 
ATOM      7  N   UNL d   1       0.715   0.705  -0.218  0.00  0.00    -0.302 N 
ATOM      8  C   UNL d   1      -0.562   0.934   0.061  0.00  0.00     0.024 A 
ATOM      9  HN  UNL d   1       1.432   1.398  -0.433  1.00  0.00     0.186 HD
ATOM     10  C   UNL d   1      -1.243  -0.263   0.299  0.00  0.00     0.063 A 
ATOM     11  C   UNL d   1      -1.085   2.320   0.083  0.00  0.00     0.070 C 
BRANCH   6  12
ATOM     12  C   UNL d   1       2.269  -1.111  -0.340  0.00  0.00     0.043 C 
ATOM     13  C   UNL d   1       2.533  -2.611  -0.143  0.00  0.00     0.039 C 
ATOM     14  C   UNL d   1       2.733  -0.740  -1.767  0.00  0.00     0.039 C 
ATOM     15  C   UNL d   1       3.175  -0.373   0.681  0.00  0.00     0.039 C 
ENDBRANCH   6  12
ENDBRANCH   1   5
BRANCH   2  16
ATOM     16  N   UNL d   1      -1.853  -4.333   1.508  0.00  0.00    -0.200 NA
ATOM     17  H   UNL d   1      -1.315  -4.996   0.932  0.00  0.00     0.153 HD
BRANCH  16  18
ATOM     18  C   UNL d   1      -3.201  -4.770   1.688  0.00  0.00     0.071 A 
ATOM     19  C   UNL d   1      -4.333  -3.947   1.891  0.00  0.00     0.058 A 
ATOM     20 CL   UNL d   1      -4.312  -2.214   1.811  0.00  0.00    -0.082 Cl
ATOM     21  C   UNL d   1      -5.594  -4.498   2.186  0.00  0.00     0.026 A 
ATOM     22  C   UNL d   1      -5.761  -5.871   2.328  0.00  0.00     0.003 A 
ATOM     23  C   UNL d   1      -4.666  -6.708   2.165  0.00  0.00     0.026 A 
ATOM     24  C   UNL d   1      -3.411  -6.167   1.851  0.00  0.00     0.058 A 
ATOM     25 CL   UNL d   1      -2.095  -7.288   1.683  0.00  0.00    -0.082 Cl
ENDBRANCH  16  18
ENDBRANCH   2  16
TORSDOF 4
