REMARK  6 active torsions:
REMARK  status: ('A' for Active; 'I' for Inactive)
REMARK    1  A    between atoms: N_8  and  S_1 
REMARK    2  A    between atoms: C_10  and  S_1 
REMARK    3  A    between atoms: C_7  and  C_2 
REMARK    4  A    between atoms: C_4  and  C_13 
REMARK    5  A    between atoms: C_9  and  C_5 
REMARK    6  A    between atoms: O_25  and  C_9 
ROOT
ATOM      1  C   UNL d   1       0.385  -1.341   1.011  0.00  0.00     0.074 A 
ATOM      2  C   UNL d   1      -0.245  -3.531   2.673  0.00  0.00    -0.025 A 
ATOM      3  C   UNL d   1       0.538  -2.642   0.531  0.00  0.00     0.025 A 
ATOM      4  C   UNL d   1      -0.059  -1.125   2.316  0.00  0.00     0.025 A 
ATOM      5  C   UNL d   1      -0.357  -2.214   3.142  0.00  0.00     0.014 A 
ATOM      6  C   UNL d   1       0.211  -3.727   1.356  0.00  0.00     0.014 A 
ENDROOT
BRANCH   2   7
ATOM      7  C   UNL d   1      -0.496  -4.694   3.541  0.00  0.00    -0.002 A 
ATOM      8  C   UNL d   1      -1.542  -4.801   4.449  0.00  0.00     0.100 A 
ATOM      9  S   UNL d   1      -1.490  -6.306   5.290  0.00  0.00    -0.079 SA
ATOM     10  C   UNL d   1      -0.122  -6.851   4.436  0.00  0.00     0.081 A 
ATOM     11  C   UNL d   1       0.307  -5.892   3.539  0.00  0.00     0.038 A 
BRANCH   8  12
ATOM     12  C   UNL d   1      -2.660  -3.856   4.785  0.00  0.00     0.424 C 
ATOM     13  F   UNL d   1      -3.620  -4.406   5.576  0.00  0.00    -0.166 F 
ATOM     14  F   UNL d   1      -2.214  -2.759   5.454  0.00  0.00    -0.166 F 
ATOM     15  F   UNL d   1      -3.296  -3.407   3.672  0.00  0.00    -0.166 F 
ENDBRANCH   8  12
BRANCH  10  16
ATOM     16  C   UNL d   1       0.423  -8.169   4.715  0.00  0.00     0.299 C 
ATOM     17  O   UNL d   1       0.000  -8.972   5.538  0.00  0.00    -0.259 OA
BRANCH  16  18
ATOM     18  O   UNL d   1       1.502  -8.397   3.909  0.00  0.00    -0.322 OA
ATOM     19  C   UNL d   1       2.126  -9.665   4.116  0.00  0.00     0.213 C 
ENDBRANCH  16  18
ENDBRANCH  10  16
ENDBRANCH   2   7
BRANCH   1  20
ATOM     20  S   UNL d   1       0.971   0.031   0.044  0.00  0.00     0.243 S 
ATOM     21  O   UNL d   1       1.230   1.127   0.953  0.00  0.00    -0.206 OA
ATOM     22  O   UNL d   1       2.023  -0.471  -0.816  0.00  0.00    -0.206 OA
BRANCH  20  23
ATOM     23  N   UNL d   1      -0.352   0.452  -0.946  0.00  0.00    -0.202 NA
ATOM     24  C   UNL d   1      -1.561   1.033  -0.275  0.00  0.00     0.134 C 
ATOM     25  C   UNL d   1      -1.381   2.523   0.056  0.00  0.00     0.183 C 
ATOM     26  O   UNL d   1      -0.997   3.287  -1.097  0.00  0.00    -0.389 OA
ATOM     27  C   UNL d   1       0.213   2.775  -1.675  0.00  0.00     0.183 C 
ATOM     28  C   UNL d   1       0.017   1.320  -2.116  0.00  0.00     0.134 C 
ENDBRANCH  20  23
ENDBRANCH   1  20
TORSDOF 6
