REMARK  5 active torsions:
REMARK  status: ('A' for Active; 'I' for Inactive)
REMARK    1  A    between atoms: C_6  and  C_1 
REMARK    2  A    between atoms: N_14  and  N_4 
REMARK    3  A    between atoms: C_17  and  C_6 
REMARK    4  A    between atoms: C_8  and  C_11 
REMARK    5  A    between atoms: C_18  and  N_14 
ROOT
ATOM      1  C   UNL d   1       3.040   0.757  -1.334  0.00  0.00     0.179 C 
ATOM      2  N   UNL d   1       2.309   1.752  -1.746  0.00  0.00    -0.287 N 
ATOM      3  HN  UNL d   1       2.599   2.272  -2.574  1.00  0.00     0.188 HD
ATOM      4  C   UNL d   1       2.620   0.013  -0.169  0.00  0.00     0.123 C 
ATOM      5  N   UNL d   1       2.250  -0.536   0.786  0.00  0.00    -0.190 NA
ENDROOT
BRANCH   1   6
ATOM      6  C   UNL d   1       4.271   0.383  -2.107  0.00  0.00     0.220 C 
ATOM      7  O   UNL d   1       4.570  -0.805  -2.165  0.00  0.00    -0.284 OA
BRANCH   6   8
ATOM      8  C   UNL d   1       5.085   1.407  -2.813  0.00  0.00     0.017 A 
ATOM      9  C   UNL d   1       5.131   2.746  -2.405  0.00  0.00     0.015 A 
ATOM     10  C   UNL d   1       5.921   3.662  -3.105  0.00  0.00     0.001 A 
ATOM     11  C   UNL d   1       6.666   3.249  -4.211  0.00  0.00     0.000 A 
ATOM     12  C   UNL d   1       6.628   1.917  -4.618  0.00  0.00     0.001 A 
ATOM     13  C   UNL d   1       5.844   0.997  -3.918  0.00  0.00     0.015 A 
ENDBRANCH   6   8
ENDBRANCH   1   6
BRANCH   2  14
ATOM     14  N   UNL d   1       1.170   2.117  -1.099  0.00  0.00    -0.300 N 
ATOM     15  H   UNL d   1       0.949   1.844  -0.140  0.00  0.00     0.187 HD
BRANCH  14  16
ATOM     16  C   UNL d   1       0.458   3.233  -1.588  0.00  0.00     0.049 A 
ATOM     17  C   UNL d   1      -0.693   3.681  -0.916  0.00  0.00     0.044 A 
ATOM     18  C   UNL d   1      -1.487   4.739  -1.411  0.00  0.00    -0.007 A 
ATOM     19  C   UNL d   1      -1.067   5.360  -2.602  0.00  0.00     0.014 A 
ATOM     20  C   UNL d   1       0.062   4.921  -3.290  0.00  0.00     0.003 A 
ATOM     21  C   UNL d   1       0.807   3.857  -2.791  0.00  0.00     0.031 A 
BRANCH  18  22
ATOM     22  C   UNL d   1      -2.729   5.154  -0.719  0.00  0.00     0.045 A 
ATOM     23  N   UNL d   1      -2.754   4.988   0.624  0.00  0.00    -0.345 N 
ATOM     24  C   UNL d   1      -3.878   5.354   1.272  0.00  0.00     0.077 A 
ATOM     25  HN  UNL d   1      -1.954   4.601   1.126  1.00  0.00     0.167 HD
ATOM     26  C   UNL d   1      -3.926   5.180   2.757  0.00  0.00     0.089 C 
ATOM     27  N   UNL d   1      -4.973   5.863   0.683  0.00  0.00    -0.356 N 
ATOM     28  C   UNL d   1      -4.918   6.003  -0.650  0.00  0.00     0.091 A 
ATOM     29  HN  UNL d   1      -5.800   6.128   1.219  1.00  0.00     0.166 HD
ATOM     30  C   UNL d   1      -3.820   5.663  -1.402  0.00  0.00     0.047 A 
ENDBRANCH  18  22
ENDBRANCH  14  16
ENDBRANCH   2  14
TORSDOF 5
