REMARK  3 active torsions:
REMARK  status: ('A' for Active; 'I' for Inactive)
REMARK    1  A    between atoms: C_2  and  C_1 
REMARK       I    between atoms: N_3  and  C_1 
REMARK    2  A    between atoms: N_7  and  N_3 
REMARK    3  A    between atoms: C_13  and  N_7 
ROOT
ATOM      1  N   UNL d   1      -0.984  -0.293   1.277  0.00  0.00    -0.203 NA
ATOM      2  H   UNL d   1      -1.585  -0.422   0.452  0.00  0.00     0.153 HD
ENDROOT
BRANCH   1   3
ATOM      3  N   UNL d   1       0.074   0.595   1.013  0.00  0.00    -0.282 N 
ATOM      4  C   UNL d   1       0.307   0.934  -0.313  0.00  0.00     0.273 C 
ATOM      5  O   UNL d   1      -0.496   0.620  -1.196  0.00  0.00    -0.266 OA
ATOM      6  H   UNL d   1       0.865   0.540   1.648  0.00  0.00     0.184 HD
BRANCH   4   7
ATOM      7  C   UNL d   1       1.540   1.658  -0.584  0.00  0.00     0.073 A 
ATOM      8  S   UNL d   1       2.545   2.263   0.669  0.00  0.00    -0.097 SA
ATOM      9  C   UNL d   1       3.616   2.995  -0.445  0.00  0.00     0.050 A 
ATOM     10  C   UNL d   1       3.245   2.759  -1.749  0.00  0.00     0.009 A 
ATOM     11  C   UNL d   1       2.053   1.982  -1.828  0.00  0.00     0.025 A 
ENDBRANCH   4   7
ENDBRANCH   1   3
BRANCH   1  12
ATOM     12  C   UNL d   1      -1.747  -0.017   2.439  0.00  0.00     0.029 A 
ATOM     13  C   UNL d   1      -2.888  -0.796   2.677  0.00  0.00     0.049 A 
ATOM     14  C   UNL d   1      -3.617  -0.672   3.866  0.00  0.00     0.041 A 
ATOM     15 CL   UNL d   1      -4.997  -1.692   4.077  0.00  0.00    -0.084 Cl
ATOM     16  C   UNL d   1      -3.221   0.235   4.857  0.00  0.00    -0.040 A 
ATOM     17  C   UNL d   1      -2.083   1.017   4.623  0.00  0.00     0.010 A 
ATOM     18  C   UNL d   1      -3.958   0.367   6.160  0.00  0.00     0.050 C 
ATOM     19  C   UNL d   1      -1.350   0.881   3.436  0.00  0.00     0.026 A 
ENDBRANCH   1  12
TORSDOF 3
