REMARK  5 active torsions:
REMARK  status: ('A' for Active; 'I' for Inactive)
REMARK    1  A    between atoms: C_2  and  S_1 
REMARK    2  A    between atoms: N_7  and  S_1 
REMARK    3  A    between atoms: C_6  and  N_7 
REMARK    4  A    between atoms: C_9  and  C_12 
REMARK    5  A    between atoms: N_11  and  C_10 
ROOT
ATOM      1  C   UNL d   1       0.800   0.655  -2.597  0.00  0.00     0.050 A 
ATOM      2  C   UNL d   1       2.197   0.921  -2.558  0.00  0.00     0.052 A 
ATOM      3  C   UNL d   1       0.517   1.981  -4.621  0.00  0.00     0.049 A 
ATOM      4  C   UNL d   1      -0.018   1.187  -3.601  0.00  0.00     0.043 A 
ATOM      5  C   UNL d   1       2.704   1.742  -3.583  0.00  0.00     0.032 A 
ATOM      6  C   UNL d   1       1.887   2.261  -4.598  0.00  0.00     0.018 A 
ENDROOT
BRANCH   1   7
ATOM      7  N   UNL d   1       0.124  -0.124  -1.595  0.00  0.00    -0.179 NA
ATOM      8  H   UNL d   1       0.634  -0.956  -1.320  0.00  0.00     0.146 HD
BRANCH   7   9
ATOM      9  S   UNL d   1      -0.336   0.648  -0.163  0.00  0.00     0.248 S 
ATOM     10  O   UNL d   1      -0.538  -0.400   0.816  0.00  0.00    -0.205 OA
ATOM     11  O   UNL d   1       0.509   1.780   0.113  0.00  0.00    -0.205 OA
BRANCH   9  12
ATOM     12  C   UNL d   1      -1.910   1.331  -0.376  0.00  0.00     0.105 A 
ATOM     13  C   UNL d   1      -3.068   0.622  -0.581  0.00  0.00     0.099 A 
ATOM     14  S   UNL d   1      -4.442   1.621  -0.708  0.00  0.00    -0.064 SA
ATOM     15 CL   UNL d   1      -3.300  -1.076  -0.721  0.00  0.00    -0.075 Cl
ATOM     16  C   UNL d   1      -3.498   3.009  -0.499  0.00  0.00     0.077 A 
ATOM     17  C   UNL d   1      -2.164   2.742  -0.332  0.00  0.00     0.058 A 
ATOM     18 CL   UNL d   1      -4.235   4.558  -0.511  0.00  0.00    -0.076 Cl
ENDBRANCH   9  12
ENDBRANCH   7   9
ENDBRANCH   1   7
BRANCH   2  19
ATOM     19  N   UNL d   1       3.019   0.458  -1.534  0.00  0.00    -0.375 N 
ATOM     20  C   UNL d   1       4.251   1.204  -1.177  0.00  0.00     0.149 C 
ATOM     21  C   UNL d   1       4.589   0.908   0.296  0.00  0.00     0.187 C 
ATOM     22  O   UNL d   1       4.734  -0.504   0.539  0.00  0.00    -0.388 OA
ATOM     23  C   UNL d   1       3.541  -1.212   0.156  0.00  0.00     0.187 C 
ATOM     24  C   UNL d   1       3.222  -0.990  -1.335  0.00  0.00     0.149 C 
ENDBRANCH   2  19
BRANCH   3  25
ATOM     25  C   UNL d   1      -0.356   2.513  -5.729  0.00  0.00     0.417 C 
ATOM     26  F   UNL d   1      -1.654   2.109  -5.634  0.00  0.00    -0.166 F 
ATOM     27  F   UNL d   1      -0.390   3.872  -5.764  0.00  0.00    -0.166 F 
ATOM     28  F   UNL d   1       0.068   2.114  -6.960  0.00  0.00    -0.166 F 
ENDBRANCH   3  25
TORSDOF 5
