REMARK  6 active torsions:
REMARK  status: ('A' for Active; 'I' for Inactive)
REMARK    1  A    between atoms: C_2  and  C_1 
REMARK    2  A    between atoms: O_11  and  C_2 
REMARK    3  A    between atoms: N_10  and  C_5 
REMARK    4  A    between atoms: C_8  and  C_12 
REMARK    5  A    between atoms: C_12  and  N_10 
REMARK    6  A    between atoms: C_13  and  O_11 
ROOT
ATOM      1  C   UNL d   1       0.925   0.121  -0.343  0.00  0.00     0.134 C 
ATOM      2  C   UNL d   1       0.196  -0.236  -1.506  0.00  0.00     0.107 C 
ATOM      3  N   UNL d   1      -0.352  -0.568  -2.476  0.00  0.00    -0.191 NA
ATOM      4  C   UNL d   1       2.194  -0.297  -0.166  0.00  0.00     0.112 C 
ENDROOT
BRANCH   1   5
ATOM      5  C   UNL d   1       0.199   0.911   0.678  0.00  0.00     0.305 C 
ATOM      6  O   UNL d   1      -1.018   1.026   0.698  0.00  0.00    -0.258 OA
BRANCH   5   7
ATOM      7  O   UNL d   1       1.058   1.551   1.515  0.00  0.00    -0.317 OA
BRANCH   7   8
ATOM      8  C   UNL d   1       0.462   2.537   2.374  0.00  0.00     0.174 C 
ATOM      9  C   UNL d   1       0.397   3.865   1.641  0.00  0.00     0.034 C 
ENDBRANCH   7   8
ENDBRANCH   5   7
ENDBRANCH   1   5
BRANCH   4  10
ATOM     10  N   UNL d   1       3.010  -0.993  -1.046  0.00  0.00    -0.397 N 
ATOM     11  H   UNL d   1       2.625  -1.084  -1.988  0.00  0.00     0.158 HD
BRANCH  10  12
ATOM     12  C   UNL d   1       3.725  -2.205  -0.667  0.00  0.00     0.123 C 
BRANCH  12  13
ATOM     13  C   UNL d   1       5.198  -2.013  -0.830  0.00  0.00     0.003 A 
ATOM     14  C   UNL d   1       5.824  -1.601  -2.142  0.00  0.00     0.007 A 
ATOM     15  C   UNL d   1       5.994  -3.007  -1.644  0.00  0.00     0.007 A 
ENDBRANCH  12  13
ENDBRANCH  10  12
ENDBRANCH   4  10
TORSDOF 6
