REMARK  6 active torsions:
REMARK  status: ('A' for Active; 'I' for Inactive)
REMARK    1  A    between atoms: C_2  and  C_1 
REMARK       I    between atoms: N_3  and  C_1 
REMARK    2  A    between atoms: C_9  and  N_3 
REMARK    3  A    between atoms: O_12  and  C_4 
REMARK    4  A    between atoms: O_14  and  C_5 
REMARK    5  A    between atoms: O_13  and  C_6 
REMARK    6  A    between atoms: O_15  and  C_11 
ROOT
ATOM      1  C   UNL d   1       0.416  -1.503  -0.072  0.00  0.00     0.037 A 
ATOM      2  C   UNL d   1      -1.088  -3.618   1.068  0.00  0.00     0.135 A 
ATOM      3  C   UNL d   1       0.145  -3.236   1.639  0.00  0.00     0.105 A 
ATOM      4  C   UNL d   1      -1.565  -2.904  -0.053  0.00  0.00     0.105 A 
ATOM      5  C   UNL d   1       0.877  -2.190   1.056  0.00  0.00     0.057 A 
ATOM      6  C   UNL d   1      -0.811  -1.869  -0.626  0.00  0.00     0.057 A 
ENDROOT
BRANCH   1   7
ATOM      7  C   UNL d   1       1.270  -0.380  -0.578  0.00  0.00     0.256 C 
ATOM      8  N   UNL d   1       0.952   0.147  -1.816  0.00  0.00    -0.321 N 
ATOM      9  H   UNL d   1       0.097  -0.120  -2.281  0.00  0.00     0.169 HD
ATOM     10  O   UNL d   1       2.160   0.042   0.147  0.00  0.00    -0.267 OA
BRANCH   8  11
ATOM     11  C   UNL d   1       1.609   1.257  -2.390  0.00  0.00     0.068 A 
ATOM     12  C   UNL d   1       0.873   2.200  -3.120  0.00  0.00     0.095 A 
ATOM     13  C   UNL d   1       1.540   3.217  -3.813  0.00  0.00     0.039 A 
ATOM     14  C   UNL d   1       2.933   3.307  -3.766  0.00  0.00     0.003 A 
ATOM     15  C   UNL d   1       3.663   2.389  -3.014  0.00  0.00     0.002 A 
ATOM     16  C   UNL d   1       3.002   1.375  -2.317  0.00  0.00     0.032 A 
BRANCH  12  17
ATOM     17  O   UNL d   1      -0.497   2.209  -3.235  0.00  0.00    -0.354 OA
ATOM     18  C   UNL d   1      -1.203   2.086  -1.998  0.00  0.00     0.210 C 
ENDBRANCH  12  17
ENDBRANCH   8  11
ENDBRANCH   1   7
BRANCH   3  19
ATOM     19  O   UNL d   1       0.582  -3.894   2.758  0.00  0.00    -0.353 OA
ATOM     20  C   UNL d   1       1.862  -3.574   3.288  0.00  0.00     0.210 C 
ENDBRANCH   3  19
BRANCH   4  21
ATOM     21  O   UNL d   1      -2.736  -3.148  -0.736  0.00  0.00    -0.353 OA
ATOM     22  C   UNL d   1      -3.874  -3.456   0.066  0.00  0.00     0.210 C 
ENDBRANCH   4  21
BRANCH   2  23
ATOM     23  O   UNL d   1      -1.878  -4.667   1.463  0.00  0.00    -0.351 OA
ATOM     24  C   UNL d   1      -1.560  -5.412   2.627  0.00  0.00     0.210 C 
ENDBRANCH   2  23
TORSDOF 6
