REMARK  6 active torsions:
REMARK  status: ('A' for Active; 'I' for Inactive)
REMARK    1  A    between atoms: C_2  and  N_1 
REMARK    2  A    between atoms: O_10  and  C_6 
REMARK    3  A    between atoms: C_12  and  O_10 
REMARK    4  A    between atoms: O_11  and  C_14 
REMARK    5  A    between atoms: C_15  and  O_11 
REMARK    6  A    between atoms: C_20  and  C_15 
ROOT
ATOM      1  C   UNL d   1      -1.331  -3.490  -4.874  0.00  0.00     0.078 A 
ATOM      2  C   UNL d   1      -0.648  -5.977  -5.974  0.00  0.00     0.069 A 
ATOM      3  C   UNL d   1      -1.537  -4.663  -4.147  0.00  0.00     0.040 A 
ATOM      4  C   UNL d   1      -0.874  -3.573  -6.190  0.00  0.00     0.040 A 
ATOM      5  C   UNL d   1      -0.544  -4.815  -6.741  0.00  0.00     0.039 A 
ATOM      6  C   UNL d   1      -1.168  -5.900  -4.683  0.00  0.00     0.039 A 
ENDROOT
BRANCH   1   7
ATOM      7  O   UNL d   1      -1.607  -2.225  -4.407  0.00  0.00    -0.294 OA
BRANCH   7   8
ATOM      8  C   UNL d   1      -1.485  -1.942  -3.064  0.00  0.00     0.148 A 
ATOM      9  C   UNL d   1      -0.516  -2.511  -2.239  0.00  0.00     0.059 A 
ATOM     10  C   UNL d   1      -0.497  -2.178  -0.884  0.00  0.00     0.041 A 
ATOM     11  C   UNL d   1      -1.403  -1.232  -0.414  0.00  0.00     0.118 A 
ATOM     12  C   UNL d   1      -2.297  -0.659  -1.308  0.00  0.00     0.126 A 
ATOM     13  N   UNL d   1      -2.354  -1.003  -2.620  0.00  0.00    -0.344 N 
ATOM     14  HN  UNL d   1      -3.029  -0.570  -3.250  1.00  0.00     0.167 HD
BRANCH  11  15
ATOM     15  N   UNL d   1      -1.422  -0.834   0.983  0.00  0.00    -0.114 N 
ATOM     16  O   UNL d   1      -2.210   0.058   1.321  0.00  0.00    -0.532 OA
ATOM     17  O   UNL d   1      -0.643  -1.416   1.754  0.00  0.00    -0.532 OA
ENDBRANCH  11  15
ENDBRANCH   7   8
ENDBRANCH   1   7
BRANCH   2  18
ATOM     18  O   UNL d   1      -0.278  -7.138  -6.597  0.00  0.00    -0.347 OA
BRANCH  18  19
ATOM     19  C   UNL d   1       0.281  -8.138  -5.739  0.00  0.00     0.214 C 
BRANCH  19  20
ATOM     20  C   UNL d   1       0.714  -9.352  -6.533  0.00  0.00    -0.034 A 
ATOM     21  C   UNL d   1       1.125  -9.255  -7.869  0.00  0.00     0.009 A 
ATOM     22  C   UNL d   1       1.537 -10.392  -8.569  0.00  0.00     0.001 A 
ATOM     23  C   UNL d   1       1.556 -11.634  -7.937  0.00  0.00     0.000 A 
ATOM     24  C   UNL d   1       1.170 -11.741  -6.603  0.00  0.00     0.001 A 
ATOM     25  C   UNL d   1       0.757 -10.606  -5.903  0.00  0.00     0.009 A 
ENDBRANCH  19  20
ENDBRANCH  18  19
ENDBRANCH   2  18
TORSDOF 6
