REMARK  3 active torsions:
REMARK  status: ('A' for Active; 'I' for Inactive)
REMARK    1  A    between atoms: C_3  and  S_1 
REMARK    2  A    between atoms: C_8  and  S_1 
REMARK    3  A    between atoms: C_2  and  C_4 
ROOT
ATOM      1  N   UNL d   1      -0.097  -2.899  -1.726  0.00  0.00    -0.196 NA
ATOM      2  C   UNL d   1       1.691  -1.108  -1.071  0.00  0.00     0.270 C 
ATOM      3  C   UNL d   1       0.675  -2.086  -1.421  0.00  0.00     0.074 C 
ENDROOT
BRANCH   2   4
ATOM      4  S   UNL d   1       0.957   0.108  -0.021  0.00  0.00     0.203 S 
ATOM      5  O   UNL d   1       2.011   1.042   0.350  0.00  0.00    -0.220 OA
ATOM      6  O   UNL d   1      -0.259   0.607  -0.639  0.00  0.00    -0.220 OA
BRANCH   4   7
ATOM      7  C   UNL d   1       0.493  -0.725   1.478  0.00  0.00     0.129 A 
ATOM      8  N   UNL d   1       0.848  -2.032   1.540  0.00  0.00    -0.356 N 
ATOM      9  C   UNL d   1       0.501  -2.686   2.673  0.00  0.00     0.105 A 
ATOM     10  HN  UNL d   1       1.347  -2.494   0.780  1.00  0.00     0.166 HD
ATOM     11  C   UNL d   1      -0.148  -2.088   3.748  0.00  0.00     0.063 A 
ATOM     12  C   UNL d   1      -0.473  -0.728   3.643  0.00  0.00     0.020 A 
ATOM     13  C   UNL d   1      -0.154  -0.026   2.483  0.00  0.00     0.043 A 
BRANCH  11  14
ATOM     14  C   UNL d   1      -0.469  -2.877   4.982  0.00  0.00     0.418 C 
ATOM     15  F   UNL d   1      -0.141  -4.194   4.887  0.00  0.00    -0.166 F 
ATOM     16  F   UNL d   1       0.188  -2.407   6.078  0.00  0.00    -0.166 F 
ATOM     17  F   UNL d   1      -1.793  -2.841   5.295  0.00  0.00    -0.166 F 
ENDBRANCH  11  14
ENDBRANCH   4   7
ENDBRANCH   2   4
TORSDOF 3
