REMARK  4 active torsions:
REMARK  status: ('A' for Active; 'I' for Inactive)
REMARK    1  A    between atoms: N_4  and  C_1 
REMARK    2  A    between atoms: S_7  and  C_2 
REMARK    3  A    between atoms: C_8  and  C_6 
REMARK    4  A    between atoms: C_12  and  S_7 
ROOT
ATOM      1  C   UNL d   1       1.573   0.735   0.094  0.00  0.00     0.128 A 
ATOM      2  C   UNL d   1       0.313   1.292  -0.058  0.00  0.00     0.080 A 
ATOM      3  C   UNL d   1       1.518  -0.709   0.072  0.00  0.00     0.060 A 
ATOM      4  S   UNL d   1      -0.888   0.069  -0.217  0.00  0.00    -0.077 SA
ATOM      5  C   UNL d   1       0.241  -1.211  -0.075  0.00  0.00     0.054 A 
ENDROOT
BRANCH   2   6
ATOM      6  S   UNL d   1      -0.204   2.979   0.001  0.00  0.00    -0.081 SA
BRANCH   6   7
ATOM      7  C   UNL d   1      -0.192   3.362  -1.741  0.00  0.00     0.006 A 
ATOM      8  C   UNL d   1      -1.333   3.146  -2.524  0.00  0.00     0.020 A 
ATOM      9  C   UNL d   1      -1.364   3.560  -3.859  0.00  0.00     0.025 A 
ATOM     10  C   UNL d   1      -0.256   4.195  -4.414  0.00  0.00     0.034 A 
ATOM     11  C   UNL d   1       0.889   4.409  -3.649  0.00  0.00     0.025 A 
ATOM     12 CL   UNL d   1      -0.308   4.740  -6.045  0.00  0.00    -0.084 Cl
ATOM     13  C   UNL d   1       0.918   3.996  -2.313  0.00  0.00     0.020 A 
ENDBRANCH   6   7
ENDBRANCH   2   6
BRANCH   1  14
ATOM     14  N   UNL d   1       2.817   1.455   0.277  0.00  0.00    -0.114 N 
ATOM     15  O   UNL d   1       2.793   2.686   0.352  0.00  0.00    -0.532 OA
ATOM     16  O   UNL d   1       3.841   0.763   0.344  0.00  0.00    -0.532 OA
ENDBRANCH   1  14
BRANCH   5  17
ATOM     17  C   UNL d   1      -0.245  -2.590  -0.114  0.00  0.00     0.162 C 
ATOM     18  O   UNL d   1      -1.437  -2.883  -0.233  0.00  0.00    -0.292 OA
ATOM     19  C   UNL d   1       0.756  -3.716   0.012  0.00  0.00     0.097 C 
ENDBRANCH   5  17
TORSDOF 4
