REMARK  4 active torsions:
REMARK  status: ('A' for Active; 'I' for Inactive)
REMARK    1  A    between atoms: C_2  and  C_1 
REMARK       I    between atoms: N_3  and  C_1 
REMARK       I    between atoms: C_5  and  N_3 
REMARK    2  A    between atoms: C_4  and  N_7 
REMARK       I    between atoms: N_7  and  C_5 
REMARK    3  A    between atoms: O_21  and  C_6 
REMARK    4  A    between atoms: O_24  and  C_12 
ROOT
ATOM      1  C   UNL d   1       0.918  -0.165   0.201  0.00  0.00     0.265 C 
ATOM      2  N   UNL d   1       1.104  -1.463   0.675  0.00  0.00    -0.275 N 
ATOM      3  C   UNL d   1       1.982  -1.890   1.641  0.00  0.00     0.327 C 
ATOM      4  N   UNL d   1       2.226  -1.012   2.661  0.00  0.00    -0.303 N 
ATOM      5  O   UNL d   1       1.181   0.821   0.880  0.00  0.00    -0.267 OA
ATOM      6  O   UNL d   1       2.449  -3.023   1.542  0.00  0.00    -0.247 OA
ATOM      7  H   UNL d   1       0.991  -2.189  -0.019  0.00  0.00     0.173 HD
ATOM      8  H   UNL d   1       1.517  -0.294   2.791  0.00  0.00     0.171 HD
ENDROOT
BRANCH   1   9
ATOM      9  C   UNL d   1       0.268  -0.063  -1.172  0.00  0.00     0.100 A 
ATOM     10  C   UNL d   1       0.496  -1.059  -2.176  0.00  0.00     0.104 A 
ATOM     11  C   UNL d   1      -0.192  -0.960  -3.399  0.00  0.00     0.045 A 
ATOM     12 BR   UNL d   1      -0.203  -2.249  -4.800  0.00  0.00    -0.048 Br
ATOM     13  C   UNL d   1      -1.039   0.128  -3.639  0.00  0.00     0.025 A 
ATOM     14  C   UNL d   1      -1.234   1.113  -2.676  0.00  0.00     0.039 A 
ATOM     15  C   UNL d   1      -0.595   1.030  -1.437  0.00  0.00     0.086 A 
BRANCH  10  16
ATOM     16  O   UNL d   1       1.339  -2.068  -1.786  0.00  0.00    -0.353 OA
ATOM     17  C   UNL d   1       2.048  -2.865  -2.721  0.00  0.00     0.210 C 
ENDBRANCH  10  16
BRANCH  15  18
ATOM     18  O   UNL d   1      -0.818   1.939  -0.436  0.00  0.00    -0.355 OA
ATOM     19  C   UNL d   1      -1.550   3.119  -0.746  0.00  0.00     0.210 C 
ENDBRANCH  15  18
ENDBRANCH   1   9
BRANCH   4  20
ATOM     20  C   UNL d   1       3.156  -1.216   3.703  0.00  0.00     0.114 A 
ATOM     21  C   UNL d   1       4.379  -1.880   3.537  0.00  0.00     0.149 A 
ATOM     22  C   UNL d   1       5.271  -2.024   4.598  0.00  0.00     0.087 A 
ATOM     23  F   UNL d   1       4.780  -2.308   2.331  0.00  0.00    -0.203 F 
ATOM     24  C   UNL d   1       4.940  -1.504   5.841  0.00  0.00     0.122 A 
ATOM     25  C   UNL d   1       3.741  -0.835   6.040  0.00  0.00     0.087 A 
ATOM     26  F   UNL d   1       5.800  -1.634   6.859  0.00  0.00    -0.206 F 
ATOM     27  C   UNL d   1       2.867  -0.684   4.965  0.00  0.00     0.149 A 
ATOM     28  F   UNL d   1       1.703  -0.047   5.169  0.00  0.00    -0.203 F 
ENDBRANCH   4  20
TORSDOF 4
