REMARK  4 active torsions:
REMARK  status: ('A' for Active; 'I' for Inactive)
REMARK    1  A    between atoms: C_5  and  C_1 
REMARK    2  A    between atoms: C_2  and  C_3 
REMARK    3  A    between atoms: C_3  and  C_6 
REMARK    4  A    between atoms: C_7  and  C_4 
ROOT
ATOM      1  C   UNL d   1       0.055   5.060   2.362  0.00  0.00     0.193 C 
ATOM      2  O   UNL d   1       0.034   3.951   1.839  0.00  0.00    -0.287 OA
ENDROOT
BRANCH   1   3
ATOM      3  C   UNL d   1       0.108   6.274   1.500  0.00  0.00     0.029 A 
ATOM      4  C   UNL d   1      -0.538   6.379   0.256  0.00  0.00     0.024 A 
ATOM      5  C   UNL d   1      -0.355   7.557  -0.501  0.00  0.00     0.016 A 
ATOM      6  C   UNL d   1       0.445   8.605  -0.043  0.00  0.00     0.001 A 
ATOM      7  C   UNL d   1       1.102   8.489   1.171  0.00  0.00     0.001 A 
ATOM      8  C   UNL d   1       0.952   7.324   1.925  0.00  0.00     0.016 A 
BRANCH   4   9
ATOM      9  C   UNL d   1      -1.400   5.348  -0.398  0.00  0.00     0.156 C 
ATOM     10  O   UNL d   1      -1.387   5.267  -1.626  0.00  0.00    -0.293 OA
ATOM     11  C   UNL d   1      -2.344   4.492   0.402  0.00  0.00     0.097 C 
ENDBRANCH   4   9
ENDBRANCH   1   3
BRANCH   1  12
ATOM     12  C   UNL d   1       0.129   5.161   3.852  0.00  0.00     0.015 A 
ATOM     13  C   UNL d   1      -0.348   6.276   4.553  0.00  0.00     0.016 A 
ATOM     14  C   UNL d   1      -0.105   6.399   5.925  0.00  0.00     0.017 A 
ATOM     15  C   UNL d   1       0.581   5.393   6.624  0.00  0.00     0.048 A 
ATOM     16  C   UNL d   1       0.985   4.243   5.930  0.00  0.00     0.017 A 
ATOM     17  C   UNL d   1       0.758   4.127   4.555  0.00  0.00     0.016 A 
BRANCH  15  18
ATOM     18  C   UNL d   1       0.893   5.575   8.092  0.00  0.00     0.417 C 
ATOM     19  F   UNL d   1       1.499   4.497   8.661  0.00  0.00    -0.166 F 
ATOM     20  F   UNL d   1      -0.220   5.819   8.836  0.00  0.00    -0.166 F 
ATOM     21  F   UNL d   1       1.726   6.631   8.312  0.00  0.00    -0.166 F 
ENDBRANCH  15  18
ENDBRANCH   1  12
TORSDOF 4
