REMARK  3 active torsions:
REMARK  status: ('A' for Active; 'I' for Inactive)
REMARK    1  A    between atoms: N_3  and  C_1 
REMARK       I    between atoms: C_2  and  N_3 
REMARK       I    between atoms: N_6  and  C_2 
REMARK    2  A    between atoms: C_4  and  C_11 
REMARK    3  A    between atoms: C_11  and  N_9 
ROOT
ATOM      1  C   UNL d   1       4.647  -0.533  -0.036  0.00  0.00     0.323 C 
ATOM      2  N   UNL d   1       3.730  -1.227   0.726  0.00  0.00    -0.303 N 
ATOM      3  N   UNL d   1       4.545   0.857   0.063  0.00  0.00    -0.331 N 
ATOM      4  N   UNL d   1       4.358   3.809  -0.064  0.00  0.00     0.096 N 
ATOM      5  O   UNL d   1       5.520  -1.045  -0.734  0.00  0.00    -0.247 OA
ATOM      6  C   UNL d   1       3.506   1.586   0.796  0.00  0.00     0.158 C 
ATOM      7  C   UNL d   1       5.706   1.654  -0.353  0.00  0.00     0.158 C 
ATOM      8  C   UNL d   1       5.353   3.066  -0.867  0.00  0.00     0.292 C 
ATOM      9  C   UNL d   1       3.186   2.939   0.141  0.00  0.00     0.292 C 
ATOM     10  H   UNL d   1       3.316  -0.735   1.498  0.00  0.00     0.171 HD
ENDROOT
BRANCH   2  11
ATOM     11  C   UNL d   1       3.492  -2.592   0.701  0.00  0.00     0.079 A 
ATOM     12  S   UNL d   1       4.068  -3.586  -0.542  0.00  0.00    -0.072 SA
ATOM     13  C   UNL d   1       3.224  -4.963   0.047  0.00  0.00     0.017 A 
ATOM     14  C   UNL d   1       3.157  -6.236  -0.550  0.00  0.00     0.020 A 
ATOM     15  C   UNL d   1       2.559  -4.676   1.242  0.00  0.00    -0.016 A 
ATOM     16  C   UNL d   1       2.392  -7.229   0.064  0.00  0.00     0.001 A 
ATOM     17  C   UNL d   1       1.741  -6.976   1.264  0.00  0.00     0.001 A 
ATOM     18  C   UNL d   1       1.826  -5.715   1.864  0.00  0.00     0.013 A 
ATOM     19  C   UNL d   1       2.728  -3.295   1.606  0.00  0.00     0.050 A 
ENDBRANCH   2  11
BRANCH   4  20
ATOM     20  C   UNL d   1       4.946   4.333   1.183  0.00  0.00     0.316 C 
BRANCH  20  21
ATOM     21  C   UNL d   1       3.968   5.120   2.026  0.00  0.00     0.030 A 
ATOM     22  C   UNL d   1       3.399   6.334   1.611  0.00  0.00     0.045 A 
ATOM     23 CL   UNL d   1       3.860   7.110   0.137  0.00  0.00    -0.084 Cl
ATOM     24  C   UNL d   1       2.422   6.968   2.390  0.00  0.00     0.024 A 
ATOM     25  C   UNL d   1       2.013   6.417   3.603  0.00  0.00     0.005 A 
ATOM     26  C   UNL d   1       2.596   5.231   4.046  0.00  0.00     0.043 A 
ATOM     27  C   UNL d   1       3.557   4.602   3.260  0.00  0.00     0.126 A 
ATOM     28  F   UNL d   1       4.076   3.446   3.707  0.00  0.00    -0.205 F 
ENDBRANCH  20  21
ENDBRANCH   4  20
TORSDOF 3
