REMARK  2 active torsions:
REMARK  status: ('A' for Active; 'I' for Inactive)
REMARK    1  A    between atoms: N_14  and  C_10 
REMARK       I    between atoms: C_11  and  N_13 
REMARK       I    between atoms: N_16  and  C_11 
REMARK    2  A    between atoms: N_13  and  N_14 
ROOT
ATOM      1  C   UNL d   1       0.092  -0.589   0.055  0.00  0.00     0.136 A 
ATOM      2  C   UNL d   1       0.171   0.803   0.008  0.00  0.00     0.039 A 
ATOM      3  N   UNL d   1       1.384  -1.036   0.056  0.00  0.00    -0.280 N 
ATOM      4  N   UNL d   1       2.303  -0.053   0.056  0.00  0.00    -0.301 N 
ATOM      5  HN  UNL d   1       3.319  -0.144   0.072  1.00  0.00     0.187 HD
ATOM      6  C   UNL d   1       1.576   1.072   0.029  0.00  0.00     0.036 A 
ATOM      7  N   UNL d   1      -1.022  -1.359   0.087  0.00  0.00    -0.330 N 
ATOM      8  HN  UNL d   1      -0.993  -2.374   0.174  1.00  0.00     0.168 HD
ATOM      9  C   UNL d   1      -1.046   1.517  -0.034  0.00  0.00    -0.043 A 
ATOM     10  C   UNL d   1      -2.172  -0.664  -0.005  0.00  0.00     0.100 A 
ATOM     11  C   UNL d   1      -2.216   0.731  -0.070  0.00  0.00     0.051 A 
ATOM     12  C   UNL d   1       1.835  -2.405   0.028  0.00  0.00     0.179 C 
ATOM     13  C   UNL d   1       2.321   2.357   0.007  0.00  0.00     0.070 C 
ATOM     14  C   UNL d   1      -1.227   3.007  -0.023  0.00  0.00     0.049 C 
ENDROOT
BRANCH  10  15
ATOM     15  N   UNL d   1      -3.438  -1.310   0.035  0.00  0.00    -0.186 NA
ATOM     16  H   UNL d   1      -3.977  -1.108  -0.813  0.00  0.00     0.154 HD
BRANCH  15  17
ATOM     17  N   UNL d   1      -3.402  -2.695   0.293  0.00  0.00    -0.267 N 
ATOM     18  C   UNL d   1      -4.605  -3.352   0.083  0.00  0.00     0.330 C 
ATOM     19  O   UNL d   1      -5.529  -2.876  -0.570  0.00  0.00    -0.246 OA
ATOM     20  N   UNL d   1      -4.636  -4.586   0.681  0.00  0.00    -0.346 N 
ATOM     21  C   UNL d   1      -5.775  -5.465   0.573  0.00  0.00     0.151 C 
ATOM     22  H   UNL d   1      -3.766  -4.967   1.020  0.00  0.00     0.163 HD
ATOM     23  H   UNL d   1      -2.878  -2.920   1.132  0.00  0.00     0.186 HD
ENDBRANCH  15  17
ENDBRANCH  10  15
TORSDOF 2
