REMARK  6 active torsions:
REMARK  status: ('A' for Active; 'I' for Inactive)
REMARK    1  A    between atoms: C_3  and  S_1 
REMARK    2  A    between atoms: C_5  and  S_1 
REMARK       I    between atoms: C_2  and  N_4 
REMARK       I    between atoms: N_16  and  C_2 
REMARK    3  A    between atoms: C_11  and  C_3 
REMARK    4  A    between atoms: N_4  and  C_11 
REMARK    5  A    between atoms: C_10  and  N_4 
REMARK    6  A    between atoms: C_6  and  C_10 
ROOT
ATOM      1  C   UNL d   1      -0.700   0.242  -4.016  0.00  0.00     0.318 C 
ATOM      2  N   UNL d   1       0.322   1.106  -3.648  0.00  0.00    -0.329 N 
ATOM      3  O   UNL d   1      -1.065   0.088  -5.178  0.00  0.00    -0.247 OA
ATOM      4  N   UNL d   1      -1.297  -0.418  -2.970  0.00  0.00    -0.347 N 
ATOM      5  C   UNL d   1      -2.355  -1.367  -3.222  0.00  0.00     0.151 C 
ATOM      6  H   UNL d   1      -1.423   0.150  -2.147  0.00  0.00     0.163 HD
ENDROOT
BRANCH   2   7
ATOM      7  C   UNL d   1       0.928   1.186  -2.308  0.00  0.00     0.143 C 
BRANCH   7   8
ATOM      8  C   UNL d   1       1.440  -0.135  -1.745  0.00  0.00     0.165 C 
BRANCH   8   9
ATOM      9  S   UNL d   1       2.009   0.035  -0.065  0.00  0.00     0.177 S 
ATOM     10  O   UNL d   1       3.094   0.994  -0.063  0.00  0.00    -0.223 OA
ATOM     11  O   UNL d   1       2.183  -1.291   0.495  0.00  0.00    -0.223 OA
BRANCH   9  12
ATOM     12  C   UNL d   1       0.650   0.771   0.826  0.00  0.00     0.059 A 
ATOM     13  C   UNL d   1      -0.573   0.098   0.906  0.00  0.00     0.025 A 
ATOM     14  C   UNL d   1      -1.641   0.693   1.585  0.00  0.00     0.025 A 
ATOM     15  C   UNL d   1      -1.474   1.942   2.187  0.00  0.00     0.034 A 
ATOM     16  C   UNL d   1      -0.247   2.603   2.122  0.00  0.00     0.025 A 
ATOM     17 CL   UNL d   1      -2.791   2.671   3.019  0.00  0.00    -0.084 Cl
ATOM     18  C   UNL d   1       0.822   2.018   1.440  0.00  0.00     0.025 A 
ENDBRANCH   9  12
ENDBRANCH   8   9
ENDBRANCH   7   8
ENDBRANCH   2   7
BRANCH   2  19
ATOM     19  C   UNL d   1       0.564   2.230  -4.555  0.00  0.00     0.173 C 
BRANCH  19  20
ATOM     20  C   UNL d   1       1.875   2.120  -5.270  0.00  0.00     0.000 A 
ATOM     21  S   UNL d   1       3.099   3.292  -5.003  0.00  0.00    -0.105 SA
ATOM     22  C   UNL d   1       4.088   2.637  -6.234  0.00  0.00     0.050 A 
ATOM     23  C   UNL d   1       3.520   1.527  -6.816  0.00  0.00     0.008 A 
ATOM     24  C   UNL d   1       2.247   1.220  -6.250  0.00  0.00     0.017 A 
ENDBRANCH  19  20
ENDBRANCH   2  19
TORSDOF 6
