REMARK  9 active torsions:
REMARK  status: ('A' for Active; 'I' for Inactive)
REMARK    1  A    between atoms: N_3  and  S_1 
REMARK    2  A    between atoms: C_6  and  S_1 
REMARK    3  A    between atoms: S_2  and  N_4 
REMARK    4  A    between atoms: C_12  and  N_3 
REMARK    5  A    between atoms: N_4  and  C_5 
REMARK    6  A    between atoms: C_23  and  C_21 
REMARK    7  A    between atoms: C_24  and  C_23 
REMARK    8  A    between atoms: C_26  and  C_24 
REMARK    9  A    between atoms: C_25  and  C_26 
ROOT
ATOM      1  N   UNL d   1       0.256  -1.300   0.955  0.00  0.00    -0.281 N 
ATOM      2  H   UNL d   1       0.933  -2.001   1.251  0.00  0.00     0.179 HD
ENDROOT
BRANCH   1   3
ATOM      3  S   UNL d   1       0.865  -0.065  -0.008  0.00  0.00     0.263 S 
ATOM      4  O   UNL d   1       0.179  -0.047  -1.281  0.00  0.00    -0.200 OA
ATOM      5  O   UNL d   1       2.307  -0.178   0.064  0.00  0.00    -0.200 OA
BRANCH   3   6
ATOM      6  C   UNL d   1       0.403   1.388   0.909  0.00  0.00     0.079 A 
ATOM      7  C   UNL d   1       1.216   1.825   1.956  0.00  0.00     0.026 A 
ATOM      8  C   UNL d   1       0.849   2.955   2.691  0.00  0.00     0.009 A 
ATOM      9  C   UNL d   1      -0.322   3.663   2.386  0.00  0.00    -0.058 A 
ATOM     10  C   UNL d   1      -1.107   3.235   1.304  0.00  0.00     0.009 A 
ATOM     11  C   UNL d   1      -0.751   2.100   0.566  0.00  0.00     0.026 A 
BRANCH   9  12
ATOM     12  C   UNL d   1      -0.691   4.891   3.190  0.00  0.00     0.038 C 
BRANCH  12  13
ATOM     13  C   UNL d   1      -1.951   4.773   4.053  0.00  0.00     0.005 C 
BRANCH  13  14
ATOM     14  C   UNL d   1      -1.806   3.799   5.233  0.00  0.00    -0.000 C 
BRANCH  14  15
ATOM     15  C   UNL d   1      -3.135   3.630   5.987  0.00  0.00    -0.005 C 
ATOM     16  C   UNL d   1      -3.112   2.449   6.946  0.00  0.00     0.005 C 
ENDBRANCH  14  15
ENDBRANCH  13  14
ENDBRANCH  12  13
ENDBRANCH   9  12
ENDBRANCH   3   6
ENDBRANCH   1   3
BRANCH   1  17
ATOM     17  C   UNL d   1      -1.128  -1.601   0.950  0.00  0.00     0.044 A 
ATOM     18  C   UNL d   1      -1.879  -1.317   2.088  0.00  0.00     0.060 A 
ATOM     19  C   UNL d   1      -3.255  -1.571   2.100  0.00  0.00     0.050 A 
ATOM     20  C   UNL d   1      -3.879  -2.157   0.988  0.00  0.00    -0.035 A 
ATOM     21  C   UNL d   1      -3.095  -2.487  -0.127  0.00  0.00     0.011 A 
ATOM     22  C   UNL d   1      -5.359  -2.425   0.958  0.00  0.00     0.050 C 
ATOM     23  C   UNL d   1      -1.725  -2.218  -0.144  0.00  0.00     0.031 A 
BRANCH  19  24
ATOM     24  N   UNL d   1      -4.025  -1.168   3.232  0.00  0.00    -0.284 N 
ATOM     25  H   UNL d   1      -3.637  -1.389   4.148  0.00  0.00     0.178 HD
BRANCH  24  26
ATOM     26  S   UNL d   1      -4.724   0.374   3.209  0.00  0.00     0.227 S 
ATOM     27  O   UNL d   1      -5.394   0.615   1.950  0.00  0.00    -0.206 OA
ATOM     28  O   UNL d   1      -5.407   0.528   4.472  0.00  0.00    -0.206 OA
ATOM     29  C   UNL d   1      -3.293   1.404   3.257  0.00  0.00     0.186 C 
ENDBRANCH  24  26
ENDBRANCH  19  24
ENDBRANCH   1  17
TORSDOF 9
