REMARK  5 active torsions:
REMARK  status: ('A' for Active; 'I' for Inactive)
REMARK    1  A    between atoms: N_4  and  C_1 
REMARK    2  A    between atoms: C_2  and  C_3 
REMARK       I    between atoms: N_6  and  C_2 
REMARK    3  A    between atoms: O_22  and  C_5 
REMARK       I    between atoms: C_7  and  N_6 
REMARK       I    between atoms: N_10  and  C_7 
REMARK    4  A    between atoms: C_9  and  N_10 
REMARK    5  A    between atoms: O_25  and  C_11 
ROOT
ATOM      1  C   UNL d   1      -1.516  -2.788   0.753  0.00  0.00     0.265 C 
ATOM      2  N   UNL d   1      -0.963  -3.890   1.389  0.00  0.00    -0.275 N 
ATOM      3  C   UNL d   1      -1.417  -5.188   1.308  0.00  0.00     0.327 C 
ATOM      4  N   UNL d   1      -2.762  -5.329   1.076  0.00  0.00    -0.309 N 
ATOM      5  O   UNL d   1      -2.732  -2.709   0.593  0.00  0.00    -0.267 OA
ATOM      6  O   UNL d   1      -0.584  -6.090   1.369  0.00  0.00    -0.247 OA
ATOM      7  H   UNL d   1       0.041  -3.888   1.513  0.00  0.00     0.173 HD
ATOM      8  H   UNL d   1      -3.272  -4.447   1.030  0.00  0.00     0.170 HD
ENDROOT
BRANCH   1   9
ATOM      9  C   UNL d   1      -0.578  -1.662   0.358  0.00  0.00     0.101 C 
ATOM     10  C   UNL d   1       0.820  -1.703   0.590  0.00  0.00     0.119 C 
ATOM     11  C   UNL d   1       1.593  -0.554   0.339  0.00  0.00     0.137 C 
ATOM     12  C   UNL d   1       1.050   0.599  -0.228  0.00  0.00     0.042 C 
ATOM     13  C   UNL d   1      -0.300   0.612  -0.544  0.00  0.00     0.040 C 
ATOM     14  C   UNL d   1      -1.103  -0.511  -0.275  0.00  0.00     0.086 C 
BRANCH  10  15
ATOM     15  O   UNL d   1       1.375  -2.856   1.093  0.00  0.00    -0.352 OA
ATOM     16  C   UNL d   1       2.360  -3.449   0.230  0.00  0.00     0.210 C 
ENDBRANCH  10  15
BRANCH  11  17
ATOM     17  N   UNL d   1       2.997  -0.501   0.708  0.00  0.00    -0.113 N 
ATOM     18  O   UNL d   1       3.283  -0.710   1.895  0.00  0.00    -0.532 OA
ATOM     19  O   UNL d   1       3.800  -0.237  -0.194  0.00  0.00    -0.532 OA
ENDBRANCH  11  17
BRANCH  14  20
ATOM     20  O   UNL d   1      -2.429  -0.387  -0.597  0.00  0.00    -0.355 OA
ATOM     21  C   UNL d   1      -2.643  -0.542  -2.004  0.00  0.00     0.210 C 
ENDBRANCH  14  20
ENDBRANCH   1   9
BRANCH   4  22
ATOM     22  C   UNL d   1      -3.446  -6.501   0.694  0.00  0.00     0.039 A 
ATOM     23  C   UNL d   1      -2.854  -7.766   0.664  0.00  0.00     0.053 A 
ATOM     24  C   UNL d   1      -3.547  -8.854   0.127  0.00  0.00     0.037 A 
ATOM     25 CL   UNL d   1      -2.779 -10.393   0.038  0.00  0.00    -0.084 Cl
ATOM     26  C   UNL d   1      -4.838  -8.703  -0.365  0.00  0.00     0.048 A 
ATOM     27  C   UNL d   1      -5.449  -7.456  -0.281  0.00  0.00     0.037 A 
ATOM     28  C   UNL d   1      -4.768  -6.361   0.255  0.00  0.00     0.053 A 
ATOM     29 CL   UNL d   1      -7.049  -7.254  -0.884  0.00  0.00    -0.084 Cl
ENDBRANCH   4  22
TORSDOF 5
