REMARK  3 active torsions:
REMARK  status: ('A' for Active; 'I' for Inactive)
REMARK    1  A    between atoms: C_7  and  C_1 
REMARK    2  A    between atoms: S_2  and  C_7 
REMARK    3  A    between atoms: C_8  and  S_2 
ROOT
ATOM      1  S   UNL d   1       3.396  -2.510  -0.056  0.00  0.00     0.179 S 
ATOM      2  O   UNL d   1       3.957  -1.706   1.013  0.00  0.00    -0.222 OA
ATOM      3  O   UNL d   1       3.873  -3.857  -0.309  0.00  0.00    -0.222 OA
ENDROOT
BRANCH   1   4
ATOM      4  C   UNL d   1       1.611  -2.548   0.103  0.00  0.00     0.186 C 
BRANCH   4   5
ATOM      5  C   UNL d   1       1.134  -3.354   1.275  0.00  0.00    -0.013 A 
ATOM      6  C   UNL d   1       0.779  -2.859   2.514  0.00  0.00     0.083 A 
ATOM      7  S   UNL d   1       0.216  -4.038   3.596  0.00  0.00    -0.065 SA
ATOM      8 CL   UNL d   1       0.822  -1.220   3.035  0.00  0.00    -0.076 Cl
ATOM      9  C   UNL d   1       0.454  -5.253   2.446  0.00  0.00     0.076 A 
ATOM     10  C   UNL d   1       0.956  -4.785   1.257  0.00  0.00     0.041 A 
ATOM     11 CL   UNL d   1       0.063  -6.881   2.823  0.00  0.00    -0.076 Cl
ENDBRANCH   4   5
ENDBRANCH   1   4
BRANCH   1  12
ATOM     12  C   UNL d   1       3.622  -1.591  -1.570  0.00  0.00     0.059 A 
ATOM     13  C   UNL d   1       3.690  -0.194  -1.527  0.00  0.00     0.025 A 
ATOM     14  C   UNL d   1       3.864   0.521  -2.714  0.00  0.00     0.025 A 
ATOM     15  C   UNL d   1       3.980  -0.160  -3.926  0.00  0.00     0.034 A 
ATOM     16  C   UNL d   1       3.932  -1.554  -3.965  0.00  0.00     0.025 A 
ATOM     17 CL   UNL d   1       4.187   0.725  -5.387  0.00  0.00    -0.084 Cl
ATOM     18  C   UNL d   1       3.758  -2.276  -2.782  0.00  0.00     0.025 A 
ENDBRANCH   1  12
TORSDOF 3
