REMARK  1 active torsions:
REMARK  status: ('A' for Active; 'I' for Inactive)
REMARK    1  A    between atoms: S_4  and  C_1 
ROOT
ATOM      1  C   UNL d   1       1.871   0.940  -0.081  0.00  0.00     0.115 A 
ATOM      2  C   UNL d   1       0.509   0.677  -0.009  0.00  0.00     0.046 A 
ATOM      3  S   UNL d   1       2.774  -0.522  -0.054  0.00  0.00    -0.069 SA
ATOM      4  C   UNL d   1       1.381  -1.473   0.038  0.00  0.00     0.060 A 
ATOM      5  C   UNL d   1       0.218  -0.740   0.029  0.00  0.00    -0.018 A 
ATOM      6  C   UNL d   1      -0.556   1.678   0.035  0.00  0.00     0.162 C 
ATOM      7 BR   UNL d   1       1.460  -3.345   0.153  0.00  0.00    -0.042 Br
ATOM      8  O   UNL d   1      -0.345   2.876  -0.113  0.00  0.00    -0.292 OA
ATOM      9  C   UNL d   1      -1.193  -1.253   0.090  0.00  0.00     0.042 C 
ATOM     10  C   UNL d   1      -1.958   1.155   0.308  0.00  0.00     0.084 C 
ATOM     11  C   UNL d   1      -2.193  -0.190  -0.379  0.00  0.00     0.012 C 
ENDROOT
BRANCH   1  12
ATOM     12  S   UNL d   1       2.839   2.446  -0.102  0.00  0.00     0.179 S 
ATOM     13  O   UNL d   1       2.402   3.186   1.066  0.00  0.00    -0.222 OA
ATOM     14  O   UNL d   1       4.227   2.054  -0.261  0.00  0.00    -0.222 OA
ATOM     15  C   UNL d   1       2.363   3.298  -1.581  0.00  0.00     0.167 C 
ENDBRANCH   1  12
TORSDOF 1
