REMARK  2 active torsions:
REMARK  status: ('A' for Active; 'I' for Inactive)
REMARK    1  A    between atoms: C_8  and  C_1 
REMARK    2  A    between atoms: S_9  and  C_5 
ROOT
ATOM      1  C   UNL d   1      -0.073   1.085  -0.073  0.00  0.00     0.209 A 
ATOM      2  N   UNL d   1       0.802   0.022   0.013  0.00  0.00    -0.312 N 
ATOM      3  N   UNL d   1      -1.304   0.602  -0.140  0.00  0.00    -0.279 N 
ATOM      4  HN  UNL d   1      -2.157   1.158  -0.207  1.00  0.00     0.188 HD
ATOM      5  C   UNL d   1       0.016  -1.103  -0.013  0.00  0.00     0.162 A 
ATOM      6  N   UNL d   1      -1.245  -0.765  -0.103  0.00  0.00    -0.278 N 
ATOM      7  HN  UNL d   1      -2.040  -1.403  -0.140  1.00  0.00     0.189 HD
ATOM      8  C   UNL d   1       2.241   0.021   0.102  0.00  0.00     0.160 C 
ENDROOT
BRANCH   1   9
ATOM      9  C   UNL d   1       0.271   2.534  -0.089  0.00  0.00     0.450 C 
ATOM     10  F   UNL d   1       1.606   2.786  -0.063  0.00  0.00    -0.163 F 
ATOM     11  F   UNL d   1      -0.201   3.154  -1.202  0.00  0.00    -0.163 F 
ATOM     12  F   UNL d   1      -0.253   3.190   0.979  0.00  0.00    -0.163 F 
ENDBRANCH   1   9
BRANCH   5  13
ATOM     13  S   UNL d   1       0.640  -2.715   0.068  0.00  0.00    -0.097 SA
ATOM     14  C   UNL d   1      -0.890  -3.674  -0.027  0.00  0.00     0.099 C 
ENDBRANCH   5  13
TORSDOF 2
