REMARK  7 active torsions:
REMARK  status: ('A' for Active; 'I' for Inactive)
REMARK    1  A    between atoms: S_12  and  C_3 
REMARK    2  A    between atoms: C_7  and  C_4 
REMARK    3  A    between atoms: O_14  and  C_7 
REMARK    4  A    between atoms: C_18  and  S_12 
REMARK    5  A    between atoms: C_20  and  O_14 
REMARK    6  A    between atoms: O_15  and  C_19 
REMARK    7  A    between atoms: C_19  and  C_18 
ROOT
ATOM      1  C   UNL d   1       0.129  -0.780   0.029  0.00  0.00     0.041 A 
ATOM      2  C   UNL d   1       0.463   0.633  -0.011  0.00  0.00    -0.018 A 
ATOM      3  C   UNL d   1       1.254  -1.582   0.016  0.00  0.00     0.056 A 
ATOM      4  C   UNL d   1       1.834   0.842  -0.071  0.00  0.00     0.088 A 
ATOM      5  S   UNL d   1       2.682  -0.644  -0.001  0.00  0.00    -0.076 SA
ATOM      6  C   UNL d   1      -1.269  -1.217   0.075  0.00  0.00     0.162 C 
ATOM      7  C   UNL d   1      -0.604   1.710  -0.026  0.00  0.00     0.050 C 
ATOM      8  C   UNL d   1      -2.017   1.181   0.352  0.00  0.00    -0.037 C 
ATOM      9  C   UNL d   1      -2.281  -0.169  -0.347  0.00  0.00     0.093 C 
ATOM     10  O   UNL d   1      -1.623  -2.341   0.404  0.00  0.00    -0.292 OA
ATOM     11  C   UNL d   1      -3.087   2.188  -0.112  0.00  0.00     0.015 C 
ATOM     12  C   UNL d   1      -2.147   1.027   1.882  0.00  0.00     0.015 C 
ENDROOT
BRANCH   3  13
ATOM     13  S   UNL d   1       1.412  -3.334   0.045  0.00  0.00    -0.119 SA
BRANCH  13  14
ATOM     14  C   UNL d   1       0.530  -3.863  -1.454  0.00  0.00     0.106 C 
BRANCH  14  15
ATOM     15  C   UNL d   1       1.141  -3.344  -2.750  0.00  0.00     0.174 C 
BRANCH  15  16
ATOM     16  O   UNL d   1       0.411  -3.884  -3.852  0.00  0.00    -0.400 OA
ATOM     17  H   UNL d   1       0.877  -3.622  -4.665  0.00  0.00     0.209 HD
ENDBRANCH  15  16
ENDBRANCH  14  15
ENDBRANCH  13  14
ENDBRANCH   3  13
BRANCH   4  18
ATOM     18  C   UNL d   1       2.549   2.106  -0.226  0.00  0.00     0.300 C 
ATOM     19  O   UNL d   1       2.017   3.200  -0.349  0.00  0.00    -0.259 OA
BRANCH  18  20
ATOM     20  O   UNL d   1       3.896   1.895  -0.320  0.00  0.00    -0.317 OA
BRANCH  20  21
ATOM     21  C   UNL d   1       4.670   2.955  -0.892  0.00  0.00     0.174 C 
ATOM     22  C   UNL d   1       4.678   2.775  -2.400  0.00  0.00     0.034 C 
ENDBRANCH  20  21
ENDBRANCH  18  20
ENDBRANCH   4  18
TORSDOF 7
