REMARK  0 active torsions:
REMARK  status: ('A' for Active; 'I' for Inactive)
ROOT
ATOM      1  C   UNL d   1      -0.584   0.598   0.021  0.00  0.00     0.068 A 
ATOM      2  S   UNL d   1      -2.991   0.414   0.005  0.00  0.00     0.068 SA
ATOM      3  C   UNL d   1      -0.946  -0.867   0.005  0.00  0.00     0.067 A 
ATOM      4  N   UNL d   1      -1.656   1.404   0.025  0.00  0.00    -0.310 N 
ATOM      5  HN  UNL d   1      -1.652   2.424   0.037  1.00  0.00     0.176 HD
ATOM      6  C   UNL d   1       0.767   1.016   0.030  0.00  0.00     0.056 A 
ATOM      7  N   UNL d   1      -2.269  -1.083  -0.004  0.00  0.00    -0.310 N 
ATOM      8  HN  UNL d   1      -2.740  -1.988  -0.013  1.00  0.00     0.176 HD
ATOM      9  C   UNL d   1       0.059  -1.862  -0.002  0.00  0.00     0.034 A 
ATOM     10  C   UNL d   1       1.718  -0.016   0.017  0.00  0.00     0.036 A 
ATOM     11  C   UNL d   1       1.386  -1.394   0.003  0.00  0.00     0.026 A 
ATOM     12 CL   UNL d   1       3.391   0.419   0.014  0.00  0.00    -0.084 Cl
ENDROOT
TORSDOF 0
