REMARK  5 active torsions:
REMARK  status: ('A' for Active; 'I' for Inactive)
REMARK    1  A    between atoms: C_9  and  C_1 
REMARK    2  A    between atoms: N_7  and  C_2 
REMARK    3  A    between atoms: S_3  and  N_7 
REMARK    4  A    between atoms: C_10  and  S_3 
REMARK    5  A    between atoms: C_8  and  C_5 
REMARK       I    between atoms: N_20  and  C_9 
ROOT
ATOM      1  C   UNL d   1      -0.045   1.281   0.145  0.00  0.00     0.100 A 
ATOM      2  C   UNL d   1       1.277   0.877   0.089  0.00  0.00     0.066 A 
ATOM      3  S   UNL d   1      -1.110  -0.059   0.160  0.00  0.00    -0.082 SA
ATOM      4  C   UNL d   1       0.165  -1.187   0.098  0.00  0.00     0.018 A 
ATOM      5  C   UNL d   1       1.392  -0.554   0.134  0.00  0.00     0.051 A 
ENDROOT
BRANCH   2   6
ATOM      6  N   UNL d   1       2.379   1.721  -0.099  0.00  0.00    -0.279 N 
ATOM      7  H   UNL d   1       2.706   1.912  -1.045  0.00  0.00     0.179 HD
BRANCH   6   8
ATOM      8  S   UNL d   1       3.471   2.186   1.082  0.00  0.00     0.263 S 
ATOM      9  O   UNL d   1       3.679   1.078   1.995  0.00  0.00    -0.200 OA
ATOM     10  O   UNL d   1       4.585   2.801   0.387  0.00  0.00    -0.200 OA
BRANCH   8  11
ATOM     11  C   UNL d   1       2.594   3.470   1.940  0.00  0.00     0.079 A 
ATOM     12  C   UNL d   1       1.938   3.173   3.136  0.00  0.00     0.026 A 
ATOM     13  C   UNL d   1       1.258   4.183   3.819  0.00  0.00     0.008 A 
ATOM     14  C   UNL d   1       1.236   5.491   3.317  0.00  0.00    -0.062 A 
ATOM     15  C   UNL d   1       1.915   5.781   2.126  0.00  0.00     0.008 A 
ATOM     16  C   UNL d   1       0.507   6.565   4.070  0.00  0.00     0.048 C 
ATOM     17  C   UNL d   1       2.602   4.775   1.440  0.00  0.00     0.026 A 
ENDBRANCH   8  11
ENDBRANCH   6   8
ENDBRANCH   2   6
BRANCH   1  18
ATOM     18  C   UNL d   1      -0.593   2.626   0.131  0.00  0.00     0.258 C 
ATOM     19  O   UNL d   1      -0.013   3.612  -0.313  0.00  0.00    -0.267 OA
ATOM     20  N   UNL d   1      -1.841   2.770   0.677  0.00  0.00    -0.365 N 
ATOM     21  H   UNL d   1      -2.340   1.993   1.088  0.00  0.00     0.159 HD
ATOM     22  H   UNL d   1      -2.243   3.695   0.714  0.00  0.00     0.159 HD
ENDBRANCH   1  18
BRANCH   4  23
ATOM     23  C   UNL d   1      -0.058  -2.674  -0.005  0.00  0.00    -0.012 A 
ATOM     24  C   UNL d   1      -1.309  -3.236  -0.181  0.00  0.00     0.062 A 
ATOM     25  S   UNL d   1      -1.259  -4.943  -0.285  0.00  0.00    -0.113 SA
ATOM     26  C   UNL d   1       0.438  -4.952  -0.092  0.00  0.00     0.050 A 
ATOM     27  C   UNL d   1       0.955  -3.680   0.039  0.00  0.00     0.020 A 
ENDBRANCH   4  23
TORSDOF 5
