REMARK  7 active torsions:
REMARK  status: ('A' for Active; 'I' for Inactive)
REMARK    1  A    between atoms: C_3  and  C_1 
REMARK       I    between atoms: N_7  and  C_1 
REMARK    2  A    between atoms: C_2  and  C_4 
REMARK       I    between atoms: N_8  and  C_2 
REMARK    3  A    between atoms: C_6  and  C_5 
REMARK    4  A    between atoms: C_11  and  N_7 
REMARK    5  A    between atoms: C_12  and  N_7 
REMARK    6  A    between atoms: C_13  and  N_8 
REMARK    7  A    between atoms: C_14  and  N_8 
ROOT
ATOM      1  C   UNL d   1      -0.595  -2.241   1.480  0.00  0.00     0.043 A 
ATOM      2  C   UNL d   1       0.692  -2.193   0.897  0.00  0.00    -0.009 A 
ATOM      3  C   UNL d   1      -1.722  -2.455   0.655  0.00  0.00     0.018 A 
ATOM      4  C   UNL d   1       0.783  -2.465  -0.494  0.00  0.00     0.013 A 
ATOM      5  C   UNL d   1      -1.598  -2.675  -0.718  0.00  0.00     0.001 A 
ATOM      6  C   UNL d   1      -0.337  -2.706  -1.286  0.00  0.00     0.001 A 
ENDROOT
BRANCH   2   7
ATOM      7  C   UNL d   1       1.956  -1.850   1.615  0.00  0.00    -0.009 A 
ATOM      8  C   UNL d   1       2.121  -0.786   2.534  0.00  0.00     0.043 A 
ATOM      9  C   UNL d   1       3.296  -0.766   3.334  0.00  0.00     0.018 A 
ATOM     10  C   UNL d   1       4.314  -1.713   3.190  0.00  0.00     0.001 A 
ATOM     11  C   UNL d   1       4.205  -2.684   2.214  0.00  0.00     0.001 A 
ATOM     12  C   UNL d   1       3.049  -2.748   1.438  0.00  0.00     0.013 A 
BRANCH   8  13
ATOM     13  C   UNL d   1       1.121   0.271   2.900  0.00  0.00     0.255 C 
ATOM     14  N   UNL d   1       0.310   0.961   1.958  0.00  0.00    -0.340 N 
ATOM     15  O   UNL d   1       1.061   0.538   4.100  0.00  0.00    -0.267 OA
BRANCH  14  16
ATOM     16  C   UNL d   1      -0.645   1.925   2.590  0.00  0.00     0.079 C 
ATOM     17  C   UNL d   1       0.073   3.125   3.232  0.00  0.00     0.032 C 
ATOM     18  C   UNL d   1      -1.827   2.428   1.760  0.00  0.00     0.032 C 
ENDBRANCH  14  16
BRANCH  14  19
ATOM     19  C   UNL d   1       0.621   0.995   0.509  0.00  0.00     0.079 C 
ATOM     20  C   UNL d   1      -0.580   0.856  -0.430  0.00  0.00     0.032 C 
ATOM     21  C   UNL d   1       1.516   2.162   0.113  0.00  0.00     0.032 C 
ENDBRANCH  14  19
ENDBRANCH   8  13
ENDBRANCH   2   7
BRANCH   1  22
ATOM     22  C   UNL d   1      -0.928  -1.995   2.915  0.00  0.00     0.255 C 
ATOM     23  N   UNL d   1      -0.207  -2.587   3.987  0.00  0.00    -0.340 N 
ATOM     24  O   UNL d   1      -1.908  -1.264   3.108  0.00  0.00    -0.267 OA
BRANCH  23  25
ATOM     25  C   UNL d   1      -0.631  -2.113   5.337  0.00  0.00     0.079 C 
ATOM     26  C   UNL d   1      -1.714  -3.006   5.937  0.00  0.00     0.032 C 
ATOM     27  C   UNL d   1       0.478  -1.815   6.351  0.00  0.00     0.032 C 
ENDBRANCH  23  25
BRANCH  23  28
ATOM     28  C   UNL d   1       0.572  -3.840   3.791  0.00  0.00     0.079 C 
ATOM     29  C   UNL d   1       1.514  -4.273   4.909  0.00  0.00     0.032 C 
ATOM     30  C   UNL d   1      -0.286  -5.020   3.330  0.00  0.00     0.032 C 
ENDBRANCH  23  28
ENDBRANCH   1  22
TORSDOF 7
