REMARK  7 active torsions:
REMARK  status: ('A' for Active; 'I' for Inactive)
REMARK    1  A    between atoms: C_8  and  C_1 
REMARK    2  A    between atoms: S_9  and  C_3 
REMARK    3  A    between atoms: C_10  and  S_9 
REMARK    4  A    between atoms: C_19  and  C_13 
REMARK    5  A    between atoms: S_18  and  C_14 
REMARK    6  A    between atoms: C_24  and  S_18 
REMARK    7  A    between atoms: C_26  and  C_24 
ROOT
ATOM      1  C   UNL d   1       2.318  -2.881  -0.094  0.00  0.00     0.051 A 
ATOM      2  N   UNL d   1       4.443  -2.501   0.968  0.00  0.00    -0.335 N 
ATOM      3  HN  UNL d   1       4.988  -2.189   1.772  1.00  0.00     0.168 HD
ATOM      4  C   UNL d   1       3.080  -2.469   1.001  0.00  0.00     0.063 A 
ATOM      5  C   UNL d   1       5.056  -2.947  -0.138  0.00  0.00     0.144 A 
ATOM      6  N   UNL d   1       4.417  -3.373  -1.233  0.00  0.00    -0.345 N 
ATOM      7  HN  UNL d   1       4.916  -3.705  -2.058  1.00  0.00     0.167 HD
ATOM      8  C   UNL d   1       3.066  -3.335  -1.174  0.00  0.00     0.111 A 
ENDROOT
BRANCH   1   9
ATOM      9  S   UNL d   1       0.553  -2.728  -0.298  0.00  0.00    -0.049 SA
BRANCH   9  10
ATOM     10  C   UNL d   1       0.049  -4.314   0.192  0.00  0.00     0.167 A 
ATOM     11  N   UNL d   1      -1.266  -4.697   0.306  0.00  0.00    -0.312 N 
ATOM     12  C   UNL d   1      -1.237  -5.966   0.853  0.00  0.00     0.209 A 
ATOM     13  C   UNL d   1      -2.412  -3.900  -0.057  0.00  0.00     0.160 C 
ATOM     14  N   UNL d   1       0.032  -6.326   0.988  0.00  0.00    -0.279 N 
ATOM     15  N   UNL d   1       0.830  -5.292   0.577  0.00  0.00    -0.278 N 
ATOM     16  HN  UNL d   1       0.360  -7.225   1.341  1.00  0.00     0.188 HD
ATOM     17  HN  UNL d   1       1.850  -5.285   0.572  1.00  0.00     0.189 HD
BRANCH  12  18
ATOM     18  C   UNL d   1      -2.409  -6.799   1.240  0.00  0.00     0.450 C 
ATOM     19  F   UNL d   1      -3.599  -6.155   1.117  0.00  0.00    -0.163 F 
ATOM     20  F   UNL d   1      -2.505  -7.922   0.481  0.00  0.00    -0.163 F 
ATOM     21  F   UNL d   1      -2.340  -7.202   2.536  0.00  0.00    -0.163 F 
ENDBRANCH  12  18
ENDBRANCH   9  10
ENDBRANCH   1   9
BRANCH   4  22
ATOM     22  C   UNL d   1       2.561  -1.918   2.279  0.00  0.00    -0.008 A 
ATOM     23  C   UNL d   1       3.249  -0.868   2.925  0.00  0.00     0.014 A 
ATOM     24  C   UNL d   1       2.822  -0.345   4.151  0.00  0.00     0.001 A 
ATOM     25  C   UNL d   1       1.681  -0.850   4.761  0.00  0.00     0.000 A 
ATOM     26  C   UNL d   1       0.987  -1.893   4.159  0.00  0.00     0.001 A 
ATOM     27  C   UNL d   1       1.436  -2.432   2.947  0.00  0.00     0.014 A 
ENDBRANCH   4  22
BRANCH   5  28
ATOM     28  S   UNL d   1       6.829  -2.961  -0.100  0.00  0.00    -0.089 SA
BRANCH  28  29
ATOM     29  C   UNL d   1       7.185  -2.643  -1.853  0.00  0.00     0.121 C 
BRANCH  29  30
ATOM     30  C   UNL d   1       8.675  -2.520  -2.098  0.00  0.00    -0.048 A 
ATOM     31  C   UNL d   1       9.445  -3.657  -2.380  0.00  0.00     0.009 A 
ATOM     32  C   UNL d   1      10.823  -3.551  -2.595  0.00  0.00     0.024 A 
ATOM     33  C   UNL d   1      11.440  -2.305  -2.522  0.00  0.00     0.034 A 
ATOM     34  C   UNL d   1      10.695  -1.165  -2.233  0.00  0.00     0.024 A 
ATOM     35 CL   UNL d   1      13.135  -2.173  -2.789  0.00  0.00    -0.084 Cl
ATOM     36  C   UNL d   1       9.316  -1.271  -2.020  0.00  0.00     0.009 A 
ENDBRANCH  29  30
ENDBRANCH  28  29
ENDBRANCH   5  28
TORSDOF 7
