REMARK  4 active torsions:
REMARK  status: ('A' for Active; 'I' for Inactive)
REMARK       I    between atoms: N_2  and  C_1 
REMARK    1  A    between atoms: C_3  and  C_1 
REMARK       I    between atoms: C_4  and  N_2 
REMARK       I    between atoms: N_6  and  C_4 
REMARK    2  A    between atoms: C_5  and  N_6 
REMARK    3  A    between atoms: O_17  and  C_10 
REMARK    4  A    between atoms: O_18  and  C_11 
ROOT
ATOM      1  C   UNL d   1       0.804  -0.341  -0.442  0.00  0.00     0.265 C 
ATOM      2  N   UNL d   1       0.280  -1.329   0.375  0.00  0.00    -0.275 N 
ATOM      3  C   UNL d   1       0.944  -2.339   1.042  0.00  0.00     0.327 C 
ATOM      4  N   UNL d   1       2.248  -2.543   0.654  0.00  0.00    -0.308 N 
ATOM      5  O   UNL d   1       1.998  -0.275  -0.737  0.00  0.00    -0.267 OA
ATOM      6  O   UNL d   1       0.354  -2.953   1.929  0.00  0.00    -0.247 OA
ATOM      7  H   UNL d   1      -0.672  -1.211   0.709  0.00  0.00     0.173 HD
ATOM      8  H   UNL d   1       2.675  -1.714   0.247  0.00  0.00     0.170 HD
ENDROOT
BRANCH   1   9
ATOM      9  C   UNL d   1      -0.146   0.712  -0.896  0.00  0.00     0.099 A 
ATOM     10  C   UNL d   1      -1.016   1.336   0.015  0.00  0.00     0.086 A 
ATOM     11  C   UNL d   1      -1.911   2.320  -0.422  0.00  0.00     0.038 A 
ATOM     12  C   UNL d   1      -1.945   2.687  -1.768  0.00  0.00     0.005 A 
ATOM     13  C   UNL d   1      -1.084   2.078  -2.677  0.00  0.00     0.038 A 
ATOM     14  C   UNL d   1      -0.157   1.117  -2.248  0.00  0.00     0.086 A 
BRANCH  10  15
ATOM     15  O   UNL d   1      -1.134   0.948   1.325  0.00  0.00    -0.355 OA
ATOM     16  C   UNL d   1      -0.043   1.397   2.133  0.00  0.00     0.210 C 
ENDBRANCH  10  15
BRANCH  14  17
ATOM     17  O   UNL d   1       0.703   0.494  -3.115  0.00  0.00    -0.355 OA
ATOM     18  C   UNL d   1       1.098   1.250  -4.258  0.00  0.00     0.210 C 
ENDBRANCH  14  17
ENDBRANCH   1   9
BRANCH   4  19
ATOM     19  C   UNL d   1       3.099  -3.528   1.205  0.00  0.00     0.048 A 
ATOM     20  C   UNL d   1       2.720  -4.891   1.236  0.00  0.00    -0.033 A 
ATOM     21  C   UNL d   1       3.585  -5.840   1.813  0.00  0.00     0.028 A 
ATOM     22  C   UNL d   1       1.451  -5.429   0.625  0.00  0.00     0.050 C 
ATOM     23  C   UNL d   1       4.824  -5.458   2.311  0.00  0.00     0.012 A 
ATOM     24  C   UNL d   1       5.227  -4.132   2.230  0.00  0.00     0.028 A 
ATOM     25 BR   UNL d   1       5.965  -6.747   3.091  0.00  0.00    -0.051 Br
ATOM     26  C   UNL d   1       4.380  -3.153   1.673  0.00  0.00    -0.033 A 
ATOM     27  C   UNL d   1       4.894  -1.737   1.705  0.00  0.00     0.050 C 
ENDBRANCH   4  19
TORSDOF 4
