REMARK  4 active torsions:
REMARK  status: ('A' for Active; 'I' for Inactive)
REMARK    1  A    between atoms: C_9  and  C_4 
REMARK    2  A    between atoms: S_14  and  C_6 
REMARK    3  A    between atoms: S_13  and  C_9 
REMARK    4  A    between atoms: C_17  and  S_13 
ROOT
ATOM      1  S   UNL d   1      -1.399  -2.429   0.612  0.00  0.00     0.267 S 
ATOM      2  C   UNL d   1      -1.985  -0.821   0.417  0.00  0.00     0.116 C 
ATOM      3  C   UNL d   1      -1.028   0.269   0.485  0.00  0.00     0.023 C 
ATOM      4  C   UNL d   1      -1.640   1.479   0.156  0.00  0.00     0.076 C 
ATOM      5  N   UNL d   1       0.221  -2.363   0.144  0.00  0.00    -0.275 N 
ATOM      6  C   UNL d   1      -3.289  -0.432   0.232  0.00  0.00     0.066 C 
ATOM      7  S   UNL d   1      -3.355   1.259   0.014  0.00  0.00    -0.076 SA
ATOM      8  C   UNL d   1       0.393   0.038   0.832  0.00  0.00     0.005 A 
ATOM      9  C   UNL d   1       0.985  -1.235   0.611  0.00  0.00     0.056 A 
ATOM     10  O   UNL d   1      -2.133  -3.235  -0.332  0.00  0.00    -0.200 OA
ATOM     11  O   UNL d   1      -1.473  -2.630   2.044  0.00  0.00    -0.200 OA
ATOM     12  C   UNL d   1       0.671  -3.151  -1.008  0.00  0.00     0.170 C 
ATOM     13  C   UNL d   1       1.167   1.016   1.473  0.00  0.00     0.014 A 
ATOM     14  C   UNL d   1       2.346  -1.437   0.878  0.00  0.00     0.031 A 
ATOM     15  C   UNL d   1       2.522   0.799   1.746  0.00  0.00     0.001 A 
ATOM     16  C   UNL d   1       3.116  -0.417   1.428  0.00  0.00     0.002 A 
ENDROOT
BRANCH   4  17
ATOM     17  C   UNL d   1      -1.214   2.864  -0.072  0.00  0.00     0.231 C 
ATOM     18  O   UNL d   1      -1.929   3.831   0.167  0.00  0.00    -0.279 OA
BRANCH  17  19
ATOM     19  S   UNL d   1       0.313   3.084  -0.928  0.00  0.00    -0.047 SA
BRANCH  19  20
ATOM     20  C   UNL d   1       1.087   4.526  -0.183  0.00  0.00     0.008 A 
ATOM     21  C   UNL d   1       2.490   4.590  -0.223  0.00  0.00     0.019 A 
ATOM     22  C   UNL d   1       3.182   5.699   0.282  0.00  0.00     0.001 A 
ATOM     23  C   UNL d   1       2.482   6.764   0.839  0.00  0.00     0.000 A 
ATOM     24  C   UNL d   1       1.093   6.719   0.889  0.00  0.00     0.001 A 
ATOM     25  C   UNL d   1       0.404   5.613   0.375  0.00  0.00     0.019 A 
ENDBRANCH  19  20
ENDBRANCH  17  19
ENDBRANCH   4  17
BRANCH   6  26
ATOM     26  S   UNL d   1      -4.798  -1.333   0.109  0.00  0.00    -0.126 SA
ATOM     27  C   UNL d   1      -4.722  -2.545   1.443  0.00  0.00     0.096 C 
ENDBRANCH   6  26
TORSDOF 4
