REMARK  5 active torsions:
REMARK  status: ('A' for Active; 'I' for Inactive)
REMARK    1  A    between atoms: N_2  and  C_1 
REMARK    2  A    between atoms: C_3  and  C_6 
REMARK    3  A    between atoms: O_9  and  C_5 
REMARK    4  A    between atoms: S_7  and  C_11 
REMARK    5  A    between atoms: C_20  and  O_9 
ROOT
ATOM      1  C   UNL d   1       0.074   0.698   0.718  0.00  0.00     0.137 A 
ATOM      2  C   UNL d   1      -0.611  -0.529   0.775  0.00  0.00     0.055 A 
ATOM      3  C   UNL d   1       1.115   0.916  -0.188  0.00  0.00     0.109 A 
ATOM      4  C   UNL d   1      -0.270  -1.555  -0.118  0.00  0.00     0.050 A 
ATOM      5  C   UNL d   1       1.392  -0.085  -1.128  0.00  0.00     0.040 A 
ATOM      6  C   UNL d   1       0.722  -1.310  -1.080  0.00  0.00     0.019 A 
ENDROOT
BRANCH   3   7
ATOM      7  O   UNL d   1       1.810   2.104  -0.155  0.00  0.00    -0.308 OA
BRANCH   7   8
ATOM      8  C   UNL d   1       3.159   2.108  -0.443  0.00  0.00     0.076 A 
ATOM      9  C   UNL d   1       3.644   3.238  -1.101  0.00  0.00     0.039 A 
ATOM     10  C   UNL d   1       5.003   3.340  -1.422  0.00  0.00     0.024 A 
ATOM     11  C   UNL d   1       5.888   2.307  -1.089  0.00  0.00     0.031 A 
ATOM     12  C   UNL d   1       5.399   1.188  -0.406  0.00  0.00     0.024 A 
ATOM     13  C   UNL d   1       4.046   1.097  -0.063  0.00  0.00     0.039 A 
BRANCH  11  14
ATOM     14  S   UNL d   1       7.660   2.471  -1.427  0.00  0.00     0.045 S 
ATOM     15  O   UNL d   1       8.280   1.169  -1.012  0.00  0.00    -0.253 OA
ATOM     16  C   UNL d   1       7.598   2.485  -3.234  0.00  0.00     0.133 C 
ENDBRANCH  11  14
ENDBRANCH   7   8
ENDBRANCH   3   7
BRANCH   1  17
ATOM     17  N   UNL d   1      -0.348   1.754   1.622  0.00  0.00    -0.113 N 
ATOM     18  O   UNL d   1      -0.442   1.461   2.821  0.00  0.00    -0.532 OA
ATOM     19  O   UNL d   1      -0.647   2.848   1.122  0.00  0.00    -0.532 OA
ENDBRANCH   1  17
BRANCH   4  20
ATOM     20  C   UNL d   1      -0.942  -2.909  -0.069  0.00  0.00     0.417 C 
ATOM     21  F   UNL d   1      -1.915  -2.996   0.878  0.00  0.00    -0.166 F 
ATOM     22  F   UNL d   1      -1.534  -3.236  -1.249  0.00  0.00    -0.166 F 
ATOM     23  F   UNL d   1      -0.061  -3.909   0.201  0.00  0.00    -0.166 F 
ENDBRANCH   4  20
TORSDOF 5
