REMARK  4 active torsions:
REMARK  status: ('A' for Active; 'I' for Inactive)
REMARK    1  A    between atoms: C_7  and  C_1 
REMARK    2  A    between atoms: C_9  and  C_5 
REMARK       I    between atoms: N_12  and  C_7 
REMARK    3  A    between atoms: C_8  and  C_10 
REMARK    4  A    between atoms: N_20  and  N_12 
ROOT
ATOM      1  C   UNL d   1      -0.176  -1.115   0.008  0.00  0.00     0.098 A 
ATOM      2  S   UNL d   1       1.360  -0.346  -0.020  0.00  0.00    -0.064 SA
ATOM      3  N   UNL d   1      -0.708   1.161   0.037  0.00  0.00    -0.352 N 
ATOM      4  HN  UNL d   1      -1.308   1.985   0.081  1.00  0.00     0.166 HD
ATOM      5  C   UNL d   1       0.607   1.197  -0.019  0.00  0.00     0.085 A 
ATOM      6  C   UNL d   1      -1.169  -0.148   0.028  0.00  0.00     0.029 A 
ATOM      7  C   UNL d   1      -2.642  -0.364   0.032  0.00  0.00     0.070 C 
ENDROOT
BRANCH   5   8
ATOM      8  C   UNL d   1       1.395   2.440  -0.055  0.00  0.00    -0.002 A 
ATOM      9  C   UNL d   1       2.656   2.523  -0.665  0.00  0.00     0.015 A 
ATOM     10  C   UNL d   1       3.349   3.738  -0.724  0.00  0.00     0.017 A 
ATOM     11  C   UNL d   1       2.794   4.902  -0.172  0.00  0.00     0.048 A 
ATOM     12  C   UNL d   1       1.542   4.823   0.450  0.00  0.00     0.017 A 
ATOM     13  C   UNL d   1       0.851   3.607   0.503  0.00  0.00     0.015 A 
BRANCH  11  14
ATOM     14  C   UNL d   1       3.515   6.226  -0.258  0.00  0.00     0.417 C 
ATOM     15  F   UNL d   1       4.714   6.153  -0.900  0.00  0.00    -0.166 F 
ATOM     16  F   UNL d   1       2.792   7.167  -0.925  0.00  0.00    -0.166 F 
ATOM     17  F   UNL d   1       3.780   6.755   0.968  0.00  0.00    -0.166 F 
ENDBRANCH  11  14
ENDBRANCH   5   8
BRANCH   1  18
ATOM     18  C   UNL d   1      -0.311  -2.563   0.015  0.00  0.00     0.274 C 
ATOM     19  O   UNL d   1      -1.391  -3.147   0.104  0.00  0.00    -0.266 OA
ATOM     20  N   UNL d   1       0.884  -3.280  -0.086  0.00  0.00    -0.289 N 
ATOM     21  H   UNL d   1       1.752  -2.777  -0.259  0.00  0.00     0.183 HD
BRANCH  20  22
ATOM     22  N   UNL d   1       0.879  -4.690  -0.162  0.00  0.00    -0.247 NA
ATOM     23  H   UNL d   1      -0.104  -4.984  -0.259  0.00  0.00     0.143 HD
ATOM     24  H   UNL d   1       1.162  -5.057   0.750  0.00  0.00     0.143 HD
ENDBRANCH  20  22
ENDBRANCH   1  18
TORSDOF 4
