REMARK  8 active torsions:
REMARK  status: ('A' for Active; 'I' for Inactive)
REMARK    1  A    between atoms: C_9  and  N_1 
REMARK    2  A    between atoms: C_10  and  C_2 
REMARK    3  A    between atoms: S_8  and  C_5 
REMARK    4  A    between atoms: C_12  and  S_8 
REMARK    5  A    between atoms: C_14  and  C_9 
REMARK    6  A    between atoms: C_11  and  C_12 
REMARK    7  A    between atoms: O_22  and  C_14 
REMARK    8  A    between atoms: O_23  and  C_14 
ROOT
ATOM      1  N   UNL d   1      -0.200  -1.144  -0.112  0.00  0.00    -0.306 N 
ATOM      2  C   UNL d   1       0.976  -0.428  -0.306  0.00  0.00     0.134 A 
ATOM      3  N   UNL d   1       0.649   0.848  -0.450  0.00  0.00    -0.283 N 
ATOM      4  HN  UNL d   1       1.305   1.609  -0.625  1.00  0.00     0.188 HD
ATOM      5  C   UNL d   1      -1.206  -0.203  -0.121  0.00  0.00     0.163 A 
ATOM      6  N   UNL d   1      -0.703   0.987  -0.325  0.00  0.00    -0.278 N 
ATOM      7  HN  UNL d   1      -1.227   1.861  -0.382  1.00  0.00     0.189 HD
ENDROOT
BRANCH   5   8
ATOM      8  S   UNL d   1      -2.889  -0.549   0.089  0.00  0.00    -0.088 SA
BRANCH   8   9
ATOM      9  C   UNL d   1      -3.642   0.979  -0.549  0.00  0.00     0.122 C 
BRANCH   9  10
ATOM     10  C   UNL d   1      -5.115   1.063  -0.216  0.00  0.00    -0.027 A 
ATOM     11  C   UNL d   1      -6.113   0.464  -1.001  0.00  0.00     0.041 A 
ATOM     12 CL   UNL d   1      -5.742  -0.427  -2.433  0.00  0.00    -0.084 Cl
ATOM     13  C   UNL d   1      -7.462   0.576  -0.641  0.00  0.00     0.024 A 
ATOM     14  C   UNL d   1      -7.832   1.281   0.501  0.00  0.00     0.002 A 
ATOM     15  C   UNL d   1      -6.854   1.873   1.296  0.00  0.00     0.001 A 
ATOM     16  C   UNL d   1      -5.507   1.761   0.944  0.00  0.00     0.009 A 
ENDBRANCH   9  10
ENDBRANCH   8   9
ENDBRANCH   5   8
BRANCH   1  17
ATOM     17  C   UNL d   1      -0.385  -2.581  -0.164  0.00  0.00     0.193 C 
BRANCH  17  18
ATOM     18  C   UNL d   1      -0.395  -3.306   1.197  0.00  0.00     0.276 C 
BRANCH  18  19
ATOM     19  O   UNL d   1      -1.443  -2.783   2.013  0.00  0.00    -0.364 OA
ATOM     20  C   UNL d   1      -1.372  -3.254   3.353  0.00  0.00     0.204 C 
ENDBRANCH  18  19
BRANCH  18  21
ATOM     21  O   UNL d   1      -0.598  -4.714   1.033  0.00  0.00    -0.364 OA
ATOM     22  C   UNL d   1       0.445  -5.387   0.345  0.00  0.00     0.204 C 
ENDBRANCH  18  21
ENDBRANCH  17  18
ENDBRANCH   1  17
BRANCH   2  23
ATOM     23  C   UNL d   1       2.373  -0.891  -0.388  0.00  0.00     0.010 A 
ATOM     24  C   UNL d   1       3.274  -0.157  -1.184  0.00  0.00     0.017 A 
ATOM     25  C   UNL d   1       4.642  -0.456  -1.211  0.00  0.00     0.025 A 
ATOM     26  C   UNL d   1       5.131  -1.504  -0.441  0.00  0.00     0.034 A 
ATOM     27  C   UNL d   1       4.262  -2.255   0.342  0.00  0.00     0.025 A 
ATOM     28 CL   UNL d   1       6.815  -1.853  -0.426  0.00  0.00    -0.084 Cl
ATOM     29  C   UNL d   1       2.896  -1.942   0.373  0.00  0.00     0.017 A 
ENDBRANCH   2  23
TORSDOF 8
