REMARK  4 active torsions:
REMARK  status: ('A' for Active; 'I' for Inactive)
REMARK    1  A    between atoms: C_6  and  N_1 
REMARK    2  A    between atoms: S_7  and  C_2 
REMARK    3  A    between atoms: C_3  and  C_8 
REMARK    4  A    between atoms: C_8  and  S_7 
ROOT
ATOM      1  N   UNL d   1      -0.413  -1.074   0.021  0.00  0.00    -0.300 N 
ATOM      2  C   UNL d   1       0.896  -0.593   0.015  0.00  0.00     0.151 A 
ATOM      3  N   UNL d   1       0.947   0.715   0.131  0.00  0.00    -0.345 N 
ATOM      4  HN  UNL d   1       1.782   1.300   0.150  1.00  0.00     0.167 HD
ATOM      5  C   UNL d   1      -1.202   0.053   0.168  0.00  0.00     0.116 A 
ATOM      6  C   UNL d   1      -0.348   1.126   0.221  0.00  0.00     0.108 A 
ENDROOT
BRANCH   2   7
ATOM      7  S   UNL d   1       2.297  -1.571  -0.299  0.00  0.00    -0.089 SA
BRANCH   7   8
ATOM      8  C   UNL d   1       3.683  -0.422  -0.069  0.00  0.00     0.124 C 
BRANCH   8   9
ATOM      9  C   UNL d   1       3.909   0.119   1.329  0.00  0.00    -0.005 A 
ATOM     10  C   UNL d   1       4.201  -0.727   2.422  0.00  0.00     0.042 A 
ATOM     11 CL   UNL d   1       4.358  -2.443   2.263  0.00  0.00    -0.084 Cl
ATOM     12  C   UNL d   1       4.439  -0.209   3.706  0.00  0.00     0.024 A 
ATOM     13  C   UNL d   1       4.417   1.163   3.928  0.00  0.00     0.003 A 
ATOM     14  C   UNL d   1       4.169   2.019   2.864  0.00  0.00     0.024 A 
ATOM     15  C   UNL d   1       3.923   1.508   1.580  0.00  0.00     0.042 A 
ATOM     16 CL   UNL d   1       3.709   2.692   0.332  0.00  0.00    -0.084 Cl
ENDBRANCH   8   9
ENDBRANCH   7   8
ENDBRANCH   2   7
BRANCH   1  17
ATOM     17  C   UNL d   1      -0.896  -2.418  -0.029  0.00  0.00     0.062 A 
ATOM     18  C   UNL d   1      -2.059  -2.781  -0.731  0.00  0.00     0.061 A 
ATOM     19 CL   UNL d   1      -2.958  -1.714  -1.758  0.00  0.00    -0.082 Cl
ATOM     20  C   UNL d   1      -2.499  -4.114  -0.719  0.00  0.00     0.026 A 
ATOM     21  C   UNL d   1      -1.788  -5.092  -0.025  0.00  0.00     0.002 A 
ATOM     22  C   UNL d   1      -0.638  -4.741   0.672  0.00  0.00     0.002 A 
ATOM     23  C   UNL d   1      -0.200  -3.414   0.680  0.00  0.00     0.032 A 
ENDBRANCH   1  17
TORSDOF 4
