REMARK  6 active torsions:
REMARK  status: ('A' for Active; 'I' for Inactive)
REMARK    1  A    between atoms: N_2  and  C_1 
REMARK    2  A    between atoms: N_12  and  C_3 
REMARK    3  A    between atoms: C_4  and  C_9 
REMARK    4  A    between atoms: C_5  and  C_13 
REMARK    5  A    between atoms: N_7  and  N_12 
REMARK    6  A    between atoms: O_25  and  C_11 
ROOT
ATOM      1  N   UNL d   1       0.885  -2.622  -0.228  0.00  0.00    -0.295 N 
ATOM      2  C   UNL d   1       2.276  -3.115  -0.171  0.00  0.00     0.178 C 
ENDROOT
BRANCH   1   3
ATOM      3  N   UNL d   1      -0.059  -3.515   0.238  0.00  0.00    -0.309 N 
ATOM      4  C   UNL d   1      -0.186  -4.591  -0.482  0.00  0.00     0.121 C 
ATOM      5  HN  UNL d   1      -0.612  -3.346   1.078  1.00  0.00     0.186 HD
BRANCH   4   6
ATOM      6  C   UNL d   1      -1.064  -5.713  -0.093  0.00  0.00     0.017 A 
ATOM      7  C   UNL d   1      -1.060  -6.902  -0.833  0.00  0.00     0.099 A 
ATOM      8  C   UNL d   1      -1.896  -7.958  -0.455  0.00  0.00     0.069 A 
ATOM      9 CL   UNL d   1      -1.909  -9.428  -1.361  0.00  0.00    -0.081 Cl
ATOM     10  C   UNL d   1      -2.722  -7.844   0.660  0.00  0.00     0.050 A 
ATOM     11  C   UNL d   1      -2.703  -6.664   1.405  0.00  0.00     0.036 A 
ATOM     12  C   UNL d   1      -1.880  -5.599   1.038  0.00  0.00     0.039 A 
ATOM     13 CL   UNL d   1      -3.701  -6.529   2.800  0.00  0.00    -0.084 Cl
BRANCH   7  14
ATOM     14  O   UNL d   1      -0.223  -7.034  -1.911  0.00  0.00    -0.358 OA
ATOM     15  H   UNL d   1      -0.364  -7.923  -2.292  0.00  0.00     0.217 HD
ENDBRANCH   7  14
ENDBRANCH   4   6
ENDBRANCH   1   3
BRANCH   1  16
ATOM     16  C   UNL d   1       0.684  -1.261   0.153  0.00  0.00     0.083 A 
ATOM     17  C   UNL d   1      -0.582  -0.638   0.215  0.00  0.00     0.131 A 
ATOM     18  C   UNL d   1      -0.766   0.703   0.628  0.00  0.00     0.054 A 
ATOM     19  C   UNL d   1       0.336   1.490   0.979  0.00  0.00     0.050 A 
ATOM     20  C   UNL d   1       1.605   0.915   0.890  0.00  0.00     0.019 A 
ATOM     21  C   UNL d   1       1.770  -0.419   0.482  0.00  0.00     0.034 A 
BRANCH  17  22
ATOM     22  N   UNL d   1      -1.776  -1.327  -0.237  0.00  0.00    -0.113 N 
ATOM     23  O   UNL d   1      -1.888  -1.534  -1.455  0.00  0.00    -0.532 OA
ATOM     24  O   UNL d   1      -2.662  -1.528   0.609  0.00  0.00    -0.532 OA
ENDBRANCH  17  22
BRANCH  19  25
ATOM     25  C   UNL d   1       0.195   2.922   1.433  0.00  0.00     0.417 C 
ATOM     26  F   UNL d   1      -1.085   3.380   1.410  0.00  0.00    -0.166 F 
ATOM     27  F   UNL d   1       0.638   3.105   2.708  0.00  0.00    -0.166 F 
ATOM     28  F   UNL d   1       0.916   3.783   0.662  0.00  0.00    -0.166 F 
ENDBRANCH  19  25
ENDBRANCH   1  16
TORSDOF 6
