REMARK  4 active torsions:
REMARK  status: ('A' for Active; 'I' for Inactive)
REMARK    1  A    between atoms: N_4  and  S_1 
REMARK    2  A    between atoms: C_2  and  N_4 
REMARK    3  A    between atoms: O_7  and  C_3 
REMARK    4  A    between atoms: C_6  and  O_7 
ROOT
ATOM      1  C   UNL d   1       0.551   1.058   2.733  0.00  0.00     0.073 A 
ATOM      2  C   UNL d   1      -0.492   1.840   3.261  0.00  0.00     0.170 A 
ATOM      3  N   UNL d   1      -0.598   2.080   4.597  0.00  0.00    -0.345 N 
ATOM      4  HN  UNL d   1      -1.356   2.655   4.966  1.00  0.00     0.167 HD
ATOM      5  C   UNL d   1       1.482   0.507   3.623  0.00  0.00     0.030 A 
ATOM      6  C   UNL d   1       0.325   1.540   5.420  0.00  0.00     0.090 A 
ATOM      7  C   UNL d   1       1.369   0.747   4.987  0.00  0.00     0.019 A 
ENDROOT
BRANCH   2   8
ATOM      8  O   UNL d   1      -1.488   2.488   2.567  0.00  0.00    -0.291 OA
BRANCH   8   9
ATOM      9  C   UNL d   1      -1.957   2.040   1.364  0.00  0.00     0.084 C 
ATOM     10  C   UNL d   1      -2.342   3.006   0.441  0.00  0.00    -0.017 C 
ATOM     11  C   UNL d   1      -2.676   2.656  -0.870  0.00  0.00    -0.043 C 
ATOM     12  C   UNL d   1      -2.394   4.487   0.646  0.00  0.00     0.042 C 
ATOM     13  C   UNL d   1      -2.951   3.870  -1.700  0.00  0.00     0.040 C 
ATOM     14  C   UNL d   1      -2.652   1.326  -1.283  0.00  0.00    -0.055 C 
ATOM     15  C   UNL d   1      -3.009   4.999  -0.663  0.00  0.00     0.009 C 
ATOM     16  C   UNL d   1      -2.422   0.345  -0.308  0.00  0.00     0.010 C 
ATOM     17  C   UNL d   1      -2.855   0.950  -2.718  0.00  0.00     0.049 C 
ATOM     18  C   UNL d   1      -2.109   0.700   1.013  0.00  0.00     0.038 C 
ENDBRANCH   8   9
ENDBRANCH   2   8
BRANCH   1  19
ATOM     19  N   UNL d   1       0.760   0.798   1.333  0.00  0.00    -0.182 NA
ATOM     20  H   UNL d   1       0.982  -0.181   1.143  0.00  0.00     0.146 HD
BRANCH  19  21
ATOM     21  S   UNL d   1       1.914   1.748   0.549  0.00  0.00     0.210 S 
ATOM     22  O   UNL d   1       2.964   0.825   0.177  0.00  0.00    -0.211 OA
ATOM     23  O   UNL d   1       2.187   2.945   1.312  0.00  0.00    -0.211 OA
ATOM     24  C   UNL d   1       1.036   2.202  -0.929  0.00  0.00     0.180 C 
ENDBRANCH  19  21
ENDBRANCH   1  19
TORSDOF 4
