REMARK  6 active torsions:
REMARK  status: ('A' for Active; 'I' for Inactive)
REMARK    1  A    between atoms: O_7  and  C_1 
REMARK    2  A    between atoms: C_2  and  O_8 
REMARK    3  A    between atoms: C_3  and  C_10 
REMARK    4  A    between atoms: O_8  and  C_3 
REMARK    5  A    between atoms: C_4  and  O_7 
REMARK    6  A    between atoms: C_9  and  C_4 
ROOT
ATOM      1  C   UNL d   1      -3.649  -0.052  -0.535  0.00  0.00     0.088 C 
ATOM      2  C   UNL d   1      -2.585   0.740  -0.710  0.00  0.00     0.088 C 
ENDROOT
BRANCH   1   3
ATOM      3  C   UNL d   1      -3.476  -1.492  -0.228  0.00  0.00     0.288 C 
ATOM      4  O   UNL d   1      -2.410  -2.076  -0.138  0.00  0.00    -0.260 OA
BRANCH   3   5
ATOM      5  O   UNL d   1      -4.744  -2.000   0.007  0.00  0.00    -0.274 OA
BRANCH   5   6
ATOM      6  C   UNL d   1      -4.809  -3.127   0.843  0.00  0.00     0.101 A 
ATOM      7  C   UNL d   1      -4.581  -3.021   2.222  0.00  0.00     0.069 A 
ATOM      8  C   UNL d   1      -4.816  -4.119   3.051  0.00  0.00     0.050 A 
ATOM      9 CL   UNL d   1      -4.094  -1.536   2.954  0.00  0.00    -0.081 Cl
ATOM     10  C   UNL d   1      -5.298  -5.305   2.501  0.00  0.00     0.035 A 
ATOM     11  C   UNL d   1      -5.540  -5.409   1.129  0.00  0.00     0.026 A 
ATOM     12 CL   UNL d   1      -5.634  -6.643   3.530  0.00  0.00    -0.084 Cl
ATOM     13  C   UNL d   1      -5.298  -4.315   0.293  0.00  0.00     0.041 A 
ENDBRANCH   5   6
ENDBRANCH   3   5
ENDBRANCH   1   3
BRANCH   2  14
ATOM     14  C   UNL d   1      -2.785   2.208  -0.745  0.00  0.00     0.288 C 
ATOM     15  O   UNL d   1      -3.866   2.768  -0.811  0.00  0.00    -0.260 OA
BRANCH  14  16
ATOM     16  O   UNL d   1      -1.540   2.794  -0.586  0.00  0.00    -0.274 OA
BRANCH  16  17
ATOM     17  C   UNL d   1      -1.565   4.042   0.056  0.00  0.00     0.101 A 
ATOM     18  C   UNL d   1      -1.890   4.153   1.417  0.00  0.00     0.069 A 
ATOM     19  C   UNL d   1      -1.777   5.385   2.061  0.00  0.00     0.050 A 
ATOM     20 CL   UNL d   1      -2.359   2.786   2.363  0.00  0.00    -0.081 Cl
ATOM     21  C   UNL d   1      -1.313   6.492   1.352  0.00  0.00     0.035 A 
ATOM     22  C   UNL d   1      -0.968   6.381   0.003  0.00  0.00     0.026 A 
ATOM     23 CL   UNL d   1      -1.130   8.000   2.161  0.00  0.00    -0.084 Cl
ATOM     24  C   UNL d   1      -1.092   5.151  -0.651  0.00  0.00     0.041 A 
ENDBRANCH  16  17
ENDBRANCH  14  16
ENDBRANCH   2  14
TORSDOF 6
