REMARK  6 active torsions:
REMARK  status: ('A' for Active; 'I' for Inactive)
REMARK    1  A    between atoms: C_5  and  C_1 
REMARK    2  A    between atoms: O_4  and  C_2 
REMARK    3  A    between atoms: C_3  and  O_4 
REMARK    4  A    between atoms: C_9  and  C_3 
REMARK    5  A    between atoms: O_18  and  C_5 
REMARK    6  A    between atoms: C_10  and  C_11 
ROOT
ATOM      1  C   UNL d   1       2.198   2.412  -0.729  0.00  0.00     0.298 C 
ATOM      2  O   UNL d   1       2.671   1.607   0.060  0.00  0.00    -0.259 OA
ENDROOT
BRANCH   1   3
ATOM      3  O   UNL d   1       2.580   2.632  -2.015  0.00  0.00    -0.273 OA
BRANCH   3   4
ATOM      4  C   UNL d   1       3.483   1.806  -2.575  0.00  0.00     0.103 A 
ATOM      5  C   UNL d   1       3.148   0.590  -3.145  0.00  0.00     0.114 A 
ATOM      6  S   UNL d   1       4.529  -0.108  -3.902  0.00  0.00    -0.093 SA
ATOM      7  C   UNL d   1       5.510   1.242  -3.540  0.00  0.00     0.053 A 
ATOM      8  C   UNL d   1       4.828   2.195  -2.819  0.00  0.00     0.046 A 
BRANCH   5   9
ATOM      9  C   UNL d   1       1.842  -0.052  -3.182  0.00  0.00     0.302 C 
ATOM     10  O   UNL d   1       0.824   0.406  -2.674  0.00  0.00    -0.259 OA
BRANCH   9  11
ATOM     11  O   UNL d   1       1.879  -1.210  -3.902  0.00  0.00    -0.322 OA
ATOM     12  C   UNL d   1       0.643  -1.906  -4.089  0.00  0.00     0.213 C 
ENDBRANCH   9  11
ENDBRANCH   5   9
ENDBRANCH   3   4
ENDBRANCH   1   3
BRANCH   1  13
ATOM     13  C   UNL d   1       1.048   3.315  -0.432  0.00  0.00     0.040 A 
ATOM     14  C   UNL d   1       0.320   3.146   0.747  0.00  0.00     0.018 A 
ATOM     15  C   UNL d   1      -0.840   3.903   0.972  0.00  0.00     0.009 A 
ATOM     16  C   UNL d   1      -1.306   4.836   0.023  0.00  0.00    -0.051 A 
ATOM     17  C   UNL d   1      -0.513   5.050  -1.112  0.00  0.00     0.009 A 
ATOM     18  C   UNL d   1       0.644   4.302  -1.339  0.00  0.00     0.018 A 
BRANCH  16  19
ATOM     19  C   UNL d   1      -2.660   5.544   0.209  0.00  0.00    -0.024 C 
ATOM     20  C   UNL d   1      -3.095   6.378  -1.020  0.00  0.00     0.019 C 
ATOM     21  C   UNL d   1      -3.766   4.490   0.441  0.00  0.00     0.019 C 
ATOM     22  C   UNL d   1      -2.597   6.495   1.418  0.00  0.00     0.019 C 
ENDBRANCH  16  19
ENDBRANCH   1  13
TORSDOF 6
