REMARK  6 active torsions:
REMARK  status: ('A' for Active; 'I' for Inactive)
REMARK    1  A    between atoms: C_7  and  N_1 
REMARK    2  A    between atoms: S_11  and  C_2 
REMARK    3  A    between atoms: C_8  and  C_12 
REMARK    4  A    between atoms: C_22  and  S_11 
REMARK    5  A    between atoms: C_13  and  C_22 
REMARK       I    between atoms: N_16  and  C_13 
REMARK    6  A    between atoms: C_25  and  N_16 
ROOT
ATOM      1  S   UNL d   1       2.508  -1.747  -0.851  0.00  0.00    -0.082 SA
ENDROOT
BRANCH   1   2
ATOM      2  C   UNL d   1       1.055  -0.852  -0.536  0.00  0.00     0.177 A 
ATOM      3  N   UNL d   1      -0.169  -1.380  -0.145  0.00  0.00    -0.218 N 
ATOM      4  N   UNL d   1      -0.966  -0.326   0.181  0.00  0.00     0.001 NA
ATOM      5  N   UNL d   1      -0.259   0.769  -0.052  0.00  0.00    -0.006 NA
ATOM      6  N   UNL d   1       0.994   0.460  -0.494  0.00  0.00    -0.264 N 
ATOM      7  HN  UNL d   1       1.734   1.116  -0.741  1.00  0.00     0.186 HD
BRANCH   3   8
ATOM      8  C   UNL d   1      -0.676  -2.708  -0.079  0.00  0.00     0.068 A 
ATOM      9  C   UNL d   1      -1.460  -3.090   1.047  0.00  0.00    -0.033 A 
ATOM     10  C   UNL d   1      -2.061  -4.364   1.064  0.00  0.00     0.015 A 
ATOM     11  C   UNL d   1      -1.714  -2.233   2.262  0.00  0.00     0.050 C 
ATOM     12  C   UNL d   1      -1.872  -5.274   0.028  0.00  0.00    -0.061 A 
ATOM     13  C   UNL d   1      -1.068  -4.907  -1.051  0.00  0.00     0.015 A 
ATOM     14  C   UNL d   1      -2.554  -6.609   0.064  0.00  0.00     0.048 C 
ATOM     15  C   UNL d   1      -0.495  -3.623  -1.148  0.00  0.00    -0.033 A 
ATOM     16  C   UNL d   1       0.198  -3.339  -2.459  0.00  0.00     0.050 C 
ENDBRANCH   3   8
ENDBRANCH   1   2
BRANCH   1  17
ATOM     17  C   UNL d   1       3.535  -0.446  -1.621  0.00  0.00     0.185 C 
BRANCH  17  18
ATOM     18  C   UNL d   1       4.151   0.509  -0.607  0.00  0.00     0.231 C 
ATOM     19  N   UNL d   1       4.351  -0.043   0.646  0.00  0.00    -0.327 N 
ATOM     20  H   UNL d   1       4.192  -1.040   0.722  0.00  0.00     0.169 HD
ATOM     21  O   UNL d   1       4.519   1.629  -0.957  0.00  0.00    -0.272 OA
BRANCH  19  22
ATOM     22  C   UNL d   1       4.731   0.625   1.820  0.00  0.00     0.034 A 
ATOM     23  C   UNL d   1       4.710   2.012   1.955  0.00  0.00     0.030 A 
ATOM     24  C   UNL d   1       5.067   2.606   3.168  0.00  0.00     0.018 A 
ATOM     25  C   UNL d   1       5.459   1.823   4.258  0.00  0.00     0.048 A 
ATOM     26  C   UNL d   1       5.477   0.425   4.120  0.00  0.00     0.018 A 
ATOM     27  C   UNL d   1       5.099  -0.167   2.912  0.00  0.00     0.030 A 
BRANCH  25  28
ATOM     28  C   UNL d   1       5.869   2.450   5.569  0.00  0.00     0.417 C 
ATOM     29  F   UNL d   1       5.683   3.798   5.612  0.00  0.00    -0.166 F 
ATOM     30  F   UNL d   1       5.176   1.944   6.627  0.00  0.00    -0.166 F 
ATOM     31  F   UNL d   1       7.185   2.244   5.854  0.00  0.00    -0.166 F 
ENDBRANCH  25  28
ENDBRANCH  19  22
ENDBRANCH  17  18
ENDBRANCH   1  17
TORSDOF 6
