REMARK  9 active torsions:
REMARK  status: ('A' for Active; 'I' for Inactive)
REMARK    1  A    between atoms: N_3  and  C_1 
REMARK    2  A    between atoms: N_8  and  C_1 
REMARK    3  A    between atoms: C_7  and  C_2 
REMARK    4  A    between atoms: C_12  and  C_5 
REMARK    5  A    between atoms: N_21  and  C_5 
REMARK    6  A    between atoms: C_6  and  C_11 
REMARK    7  A    between atoms: O_23  and  C_7 
REMARK    8  A    between atoms: C_22  and  N_8 
REMARK    9  A    between atoms: C_30  and  O_23 
ROOT
ATOM      1  C   UNL d   1       0.920  -2.556  -1.124  0.00  0.00     0.113 C 
ATOM      2  C   UNL d   1       0.108  -3.609  -1.428  0.00  0.00     0.158 C 
ATOM      3  C   UNL d   1       0.635  -4.938  -1.356  0.00  0.00     0.109 C 
ATOM      4  N   UNL d   1       1.059  -6.019  -1.264  0.00  0.00    -0.191 NA
ENDROOT
BRANCH   2   5
ATOM      5  C   UNL d   1      -1.316  -3.601  -1.849  0.00  0.00     0.307 C 
ATOM      6  O   UNL d   1      -1.830  -4.604  -2.342  0.00  0.00    -0.258 OA
BRANCH   5   7
ATOM      7  O   UNL d   1      -1.988  -2.438  -1.669  0.00  0.00    -0.317 OA
BRANCH   7   8
ATOM      8  C   UNL d   1      -3.340  -2.456  -2.168  0.00  0.00     0.174 C 
ATOM      9  C   UNL d   1      -3.358  -2.024  -3.625  0.00  0.00     0.034 C 
ENDBRANCH   7   8
ENDBRANCH   5   7
ENDBRANCH   2   5
BRANCH   1  10
ATOM     10  N   UNL d   1       0.426  -1.264  -0.961  0.00  0.00    -0.336 N 
ATOM     11  C   UNL d   1       0.878  -0.541   0.035  0.00  0.00     0.089 C 
ATOM     12  HN  UNL d   1      -0.273  -0.888  -1.602  1.00  0.00     0.168 HD
BRANCH  11  13
ATOM     13  C   UNL d   1       0.522   0.923   0.105  0.00  0.00     0.002 A 
ATOM     14  C   UNL d   1      -0.620   1.417  -0.528  0.00  0.00     0.015 A 
ATOM     15  C   UNL d   1      -0.945   2.778  -0.430  0.00  0.00     0.017 A 
ATOM     16  C   UNL d   1      -0.133   3.664   0.298  0.00  0.00     0.048 A 
ATOM     17  C   UNL d   1       1.023   3.166   0.913  0.00  0.00     0.017 A 
ATOM     18  C   UNL d   1       1.352   1.812   0.810  0.00  0.00     0.015 A 
BRANCH  16  19
ATOM     19  C   UNL d   1      -0.471   5.131   0.428  0.00  0.00     0.417 C 
ATOM     20  F   UNL d   1      -1.589   5.500  -0.254  0.00  0.00    -0.166 F 
ATOM     21  F   UNL d   1      -0.684   5.498   1.724  0.00  0.00    -0.166 F 
ATOM     22  F   UNL d   1       0.529   5.938  -0.025  0.00  0.00    -0.166 F 
ENDBRANCH  16  19
ENDBRANCH  11  13
BRANCH  11  23
ATOM     23  N   UNL d   1       1.702  -1.024   1.040  0.00  0.00    -0.288 NA
ATOM     24  H   UNL d   1       1.575  -2.016   1.233  0.00  0.00     0.125 HD
ATOM     25  H   UNL d   1       1.706  -0.500   1.909  0.00  0.00     0.125 HD
ENDBRANCH  11  23
ENDBRANCH   1  10
BRANCH   1  26
ATOM     26  N   UNL d   1       2.297  -2.755  -0.918  0.00  0.00    -0.244 NA
ATOM     27  H   UNL d   1       2.684  -1.915  -0.482  0.00  0.00     0.135 HD
BRANCH  26  28
ATOM     28  C   UNL d   1       3.258  -3.236  -1.842  0.00  0.00     0.014 A 
ATOM     29  C   UNL d   1       2.975  -3.624  -3.156  0.00  0.00     0.025 A 
ATOM     30  C   UNL d   1       3.972  -4.188  -3.961  0.00  0.00     0.025 A 
ATOM     31  C   UNL d   1       5.261  -4.353  -3.461  0.00  0.00     0.034 A 
ATOM     32  C   UNL d   1       5.569  -3.944  -2.169  0.00  0.00     0.025 A 
ATOM     33 CL   UNL d   1       6.478  -5.073  -4.440  0.00  0.00    -0.084 Cl
ATOM     34  C   UNL d   1       4.570  -3.392  -1.366  0.00  0.00     0.025 A 
ENDBRANCH  26  28
ENDBRANCH   1  26
TORSDOF 9
