REMARK  5 active torsions:
REMARK  status: ('A' for Active; 'I' for Inactive)
REMARK    1  A    between atoms: C_2  and  C_1 
REMARK    2  A    between atoms: C_9  and  C_3 
REMARK    3  A    between atoms: C_10  and  C_4 
REMARK    4  A    between atoms: O_7  and  C_9 
REMARK    5  A    between atoms: O_8  and  C_10 
ROOT
ATOM      1  C   UNL d   1       1.354  -0.136   0.083  0.00  0.00    -0.017 A 
ATOM      2  C   UNL d   1       0.548  -0.380   1.230  0.00  0.00    -0.024 A 
ATOM      3  C   UNL d   1       0.703   0.257  -1.107  0.00  0.00     0.013 A 
ATOM      4  C   UNL d   1      -0.856  -0.265   1.127  0.00  0.00     0.010 A 
ATOM      5  C   UNL d   1      -0.688   0.344  -1.196  0.00  0.00     0.001 A 
ATOM      6  C   UNL d   1      -1.468   0.079  -0.080  0.00  0.00     0.001 A 
ENDROOT
BRANCH   1   7
ATOM      7  C   UNL d   1       2.836  -0.274   0.085  0.00  0.00    -0.017 A 
ATOM      8  C   UNL d   1       3.537  -1.156  -0.784  0.00  0.00    -0.024 A 
ATOM      9  C   UNL d   1       4.942  -1.250  -0.681  0.00  0.00     0.010 A 
ATOM     10  C   UNL d   1       5.655  -0.505   0.255  0.00  0.00     0.001 A 
ATOM     11  C   UNL d   1       4.982   0.377   1.085  0.00  0.00     0.001 A 
ATOM     12  C   UNL d   1       3.595   0.503   0.986  0.00  0.00     0.013 A 
BRANCH   8  13
ATOM     13  C   UNL d   1       2.824  -1.957  -1.856  0.00  0.00     0.203 C 
BRANCH  13  14
ATOM     14  O   UNL d   1       3.660  -2.951  -2.446  0.00  0.00    -0.396 OA
ATOM     15  H   UNL d   1       3.175  -3.296  -3.214  0.00  0.00     0.209 HD
ENDBRANCH  13  14
ENDBRANCH   8  13
ENDBRANCH   1   7
BRANCH   2  16
ATOM     16  C   UNL d   1       1.157  -0.711   2.579  0.00  0.00     0.203 C 
BRANCH  16  17
ATOM     17  O   UNL d   1       0.186  -1.156   3.525  0.00  0.00    -0.396 OA
ATOM     18  H   UNL d   1       0.634  -1.183   4.386  0.00  0.00     0.209 HD
ENDBRANCH  16  17
ENDBRANCH   2  16
TORSDOF 5
