REMARK  6 active torsions:
REMARK  status: ('A' for Active; 'I' for Inactive)
REMARK    1  A    between atoms: C_15  and  C_1 
REMARK    2  A    between atoms: C_3  and  C_2 
REMARK    3  A    between atoms: S_9  and  C_12 
REMARK    4  A    between atoms: C_12  and  C_10 
REMARK    5  A    between atoms: O_19  and  C_15 
REMARK    6  A    between atoms: C_21  and  O_19 
ROOT
ATOM      1  C   UNL d   1      -0.091  -1.160   0.246  0.00  0.00     0.132 A 
ATOM      2  C   UNL d   1      -0.818   0.894  -0.138  0.00  0.00     0.128 A 
ATOM      3  C   UNL d   1      -1.050  -0.201   0.658  0.00  0.00     0.079 A 
ATOM      4  N   UNL d   1       0.666  -0.671  -0.751  0.00  0.00    -0.255 N 
ATOM      5  HN  UNL d   1       1.427  -1.149  -1.234  1.00  0.00     0.195 HD
ATOM      6  O   UNL d   1       0.204   0.609  -0.989  0.00  0.00    -0.235 OA
ENDROOT
BRANCH   2   7
ATOM      7  C   UNL d   1      -1.544   2.186  -0.076  0.00  0.00     0.075 A 
ATOM      8  N   UNL d   1      -2.523   2.418   0.874  0.00  0.00    -0.350 N 
ATOM      9  C   UNL d   1      -2.967   3.653   0.759  0.00  0.00     0.065 A 
ATOM     10  HN  UNL d   1      -2.850   1.737   1.558  1.00  0.00     0.166 HD
ATOM     11  S   UNL d   1      -2.315   4.552  -0.555  0.00  0.00    -0.085 SA
ATOM     12  C   UNL d   1      -1.286   3.234  -0.932  0.00  0.00     0.084 A 
BRANCH   9  13
ATOM     13  C   UNL d   1      -3.966   4.252   1.678  0.00  0.00     0.204 C 
BRANCH  13  14
ATOM     14  S   UNL d   1      -3.097   4.963   3.067  0.00  0.00     0.146 S 
ATOM     15  O   UNL d   1      -2.223   6.014   2.588  0.00  0.00    -0.228 OA
ATOM     16  O   UNL d   1      -4.097   5.264   4.080  0.00  0.00    -0.228 OA
ATOM     17  C   UNL d   1      -2.076   3.658   3.724  0.00  0.00     0.161 C 
ENDBRANCH  13  14
ENDBRANCH   9  13
ENDBRANCH   2   7
BRANCH   1  18
ATOM     18  C   UNL d   1       0.129  -2.477   0.834  0.00  0.00     0.311 C 
ATOM     19  O   UNL d   1      -0.538  -2.904   1.771  0.00  0.00    -0.258 OA
BRANCH  18  20
ATOM     20  O   UNL d   1       1.205  -3.121   0.296  0.00  0.00    -0.317 OA
BRANCH  20  21
ATOM     21  C   UNL d   1       1.768  -4.162   1.102  0.00  0.00     0.175 C 
ATOM     22  C   UNL d   1       2.731  -3.527   2.088  0.00  0.00     0.034 C 
ENDBRANCH  20  21
ENDBRANCH  18  20
ENDBRANCH   1  18
TORSDOF 6
