REMARK  1 active torsions:
REMARK  status: ('A' for Active; 'I' for Inactive)
REMARK    1  A    between atoms: C_6  and  C_4 
ROOT
ATOM      1  C   UNL d   1      -0.518  -0.220  -1.190  0.00  0.00     0.064 A 
ATOM      2  S   UNL d   1       1.163  -0.171  -0.952  0.00  0.00    -0.074 SA
ATOM      3  C   UNL d   1       0.969  -0.008   0.715  0.00  0.00     0.059 A 
ATOM      4  C   UNL d   1      -1.250  -0.052  -0.023  0.00  0.00     0.006 A 
ATOM      5  C   UNL d   1      -0.349   0.055   1.128  0.00  0.00    -0.025 A 
ATOM      6 BR   UNL d   1      -1.190  -0.533  -2.925  0.00  0.00    -0.042 Br
ATOM      7 BR   UNL d   1       2.458   0.060   1.864  0.00  0.00    -0.042 Br
ATOM      8  C   UNL d   1      -0.769   0.204   2.561  0.00  0.00     0.051 C 
ENDROOT
BRANCH   4   9
ATOM      9  C   UNL d   1      -2.723  -0.043   0.013  0.00  0.00    -0.024 A 
ATOM     10  C   UNL d   1      -3.409  -0.857   0.924  0.00  0.00     0.012 A 
ATOM     11  C   UNL d   1      -4.808  -0.829   0.994  0.00  0.00     0.001 A 
ATOM     12  C   UNL d   1      -5.533  -0.019   0.125  0.00  0.00     0.000 A 
ATOM     13  C   UNL d   1      -4.868   0.785  -0.792  0.00  0.00     0.001 A 
ATOM     14  C   UNL d   1      -3.469   0.791  -0.830  0.00  0.00     0.012 A 
ENDBRANCH   4   9
TORSDOF 1
