REMARK  9 active torsions:
REMARK  status: ('A' for Active; 'I' for Inactive)
REMARK    1  A    between atoms: S_4  and  C_1 
REMARK    2  A    between atoms: N_7  and  C_2 
REMARK    3  A    between atoms: C_8  and  C_3 
REMARK    4  A    between atoms: C_14  and  S_4 
REMARK    5  A    between atoms: S_9  and  C_5 
REMARK    6  A    between atoms: O_19  and  C_8 
REMARK    7  A    between atoms: C_18  and  S_9 
REMARK    8  A    between atoms: C_21  and  C_18 
REMARK    9  A    between atoms: C_29  and  O_19 
ROOT
ATOM      1  C   UNL d   1       1.476  -0.674   0.004  0.00  0.00     0.112 A 
ATOM      2  C   UNL d   1       1.442   0.815  -0.073  0.00  0.00     0.085 A 
ATOM      3  C   UNL d   1       0.128   1.289  -0.061  0.00  0.00     0.110 A 
ATOM      4  C   UNL d   1       0.194  -1.207   0.002  0.00  0.00     0.066 A 
ATOM      5  S   UNL d   1      -0.996   0.010  -0.039  0.00  0.00    -0.073 SA
ENDROOT
BRANCH   4   6
ATOM      6  S   UNL d   1      -0.416  -2.867   0.104  0.00  0.00    -0.116 SA
BRANCH   6   7
ATOM      7  C   UNL d   1      -1.378  -2.984  -1.454  0.00  0.00     0.118 C 
BRANCH   7   8
ATOM      8  C   UNL d   1      -2.045  -4.325  -1.661  0.00  0.00    -0.049 A 
ATOM      9  C   UNL d   1      -2.958  -4.832  -0.721  0.00  0.00     0.009 A 
ATOM     10  C   UNL d   1      -3.642  -6.026  -0.958  0.00  0.00     0.024 A 
ATOM     11  C   UNL d   1      -3.433  -6.719  -2.148  0.00  0.00     0.034 A 
ATOM     12  C   UNL d   1      -2.540  -6.231  -3.097  0.00  0.00     0.024 A 
ATOM     13 CL   UNL d   1      -4.301  -8.173  -2.454  0.00  0.00    -0.084 Cl
ATOM     14  C   UNL d   1      -1.849  -5.040  -2.856  0.00  0.00     0.009 A 
ENDBRANCH   7   8
ENDBRANCH   6   7
ENDBRANCH   4   6
BRANCH   1  15
ATOM     15  S   UNL d   1       2.975  -1.572   0.071  0.00  0.00     0.183 S 
ATOM     16  O   UNL d   1       3.687  -1.112  -1.107  0.00  0.00    -0.222 OA
ATOM     17  O   UNL d   1       3.427  -1.289   1.416  0.00  0.00    -0.222 OA
BRANCH  15  18
ATOM     18  C   UNL d   1       2.830  -3.339  -0.031  0.00  0.00     0.105 C 
ATOM     19  C   UNL d   1       2.321  -3.853  -1.369  0.00  0.00     0.026 C 
ATOM     20  C   UNL d   1       4.208  -3.973   0.229  0.00  0.00     0.026 C 
ENDBRANCH  15  18
ENDBRANCH   1  15
BRANCH   2  21
ATOM     21  N   UNL d   1       2.578   1.729  -0.140  0.00  0.00    -0.330 N 
ATOM     22  C   UNL d   1       2.572   2.957  -0.791  0.00  0.00     0.097 A 
ATOM     23  C   UNL d   1       3.768   3.610  -0.586  0.00  0.00     0.019 A 
ATOM     24  C   UNL d   1       4.577   2.746   0.168  0.00  0.00     0.019 A 
ATOM     25  C   UNL d   1       3.834   1.609   0.414  0.00  0.00     0.097 A 
ENDBRANCH   2  21
BRANCH   3  26
ATOM     26  C   UNL d   1      -0.417   2.638   0.096  0.00  0.00     0.302 C 
ATOM     27  O   UNL d   1       0.102   3.552   0.716  0.00  0.00    -0.259 OA
BRANCH  26  28
ATOM     28  O   UNL d   1      -1.649   2.715  -0.495  0.00  0.00    -0.317 OA
BRANCH  28  29
ATOM     29  C   UNL d   1      -2.497   3.812  -0.126  0.00  0.00     0.174 C 
ATOM     30  C   UNL d   1      -2.858   4.608  -1.363  0.00  0.00     0.034 C 
ENDBRANCH  28  29
ENDBRANCH  26  28
ENDBRANCH   3  26
TORSDOF 9
