REMARK  2 active torsions:
REMARK  status: ('A' for Active; 'I' for Inactive)
REMARK    1  A    between atoms: C_7  and  C_4 
REMARK    2  A    between atoms: C_8  and  C_5 
ROOT
ATOM      1  N   UNL d   1       0.920  -0.482  -0.082  0.00  0.00    -0.260 N 
ATOM      2  HN  UNL d   1       1.874  -0.840  -0.132  1.00  0.00     0.195 HD
ATOM      3  C   UNL d   1      -1.338  -0.344   0.002  0.00  0.00     0.072 A 
ATOM      4  C   UNL d   1      -0.824   0.931   0.008  0.00  0.00     0.111 A 
ATOM      5  C   UNL d   1      -0.209  -1.206  -0.042  0.00  0.00     0.068 A 
ATOM      6  O   UNL d   1       0.534   0.843  -0.043  0.00  0.00    -0.237 OA
ENDROOT
BRANCH   4   7
ATOM      7  C   UNL d   1      -1.401   2.270   0.060  0.00  0.00    -0.000 A 
ATOM      8  C   UNL d   1      -0.592   3.417   0.075  0.00  0.00     0.014 A 
ATOM      9  C   UNL d   1      -1.158   4.694   0.143  0.00  0.00     0.001 A 
ATOM     10  C   UNL d   1      -2.541   4.843   0.196  0.00  0.00     0.000 A 
ATOM     11  C   UNL d   1      -3.360   3.717   0.176  0.00  0.00     0.001 A 
ATOM     12  C   UNL d   1      -2.793   2.441   0.108  0.00  0.00     0.014 A 
ENDBRANCH   4   7
BRANCH   5  13
ATOM     13  C   UNL d   1      -0.198  -2.669  -0.054  0.00  0.00    -0.007 A 
ATOM     14  C   UNL d   1       0.876  -3.371  -0.618  0.00  0.00     0.014 A 
ATOM     15  C   UNL d   1       0.877  -4.769  -0.647  0.00  0.00     0.001 A 
ATOM     16  C   UNL d   1      -0.193  -5.478  -0.106  0.00  0.00     0.000 A 
ATOM     17  C   UNL d   1      -1.262  -4.794   0.467  0.00  0.00     0.001 A 
ATOM     18  C   UNL d   1      -1.265  -3.397   0.495  0.00  0.00     0.014 A 
ENDBRANCH   5  13
TORSDOF 2
