REMARK  4 active torsions:
REMARK  status: ('A' for Active; 'I' for Inactive)
REMARK    1  A    between atoms: C_2  and  C_1 
REMARK       I    between atoms: N_8  and  C_2 
REMARK    2  A    between atoms: S_11  and  C_5 
REMARK    3  A    between atoms: S_12  and  C_6 
REMARK    4  A    between atoms: N_9  and  N_8 
ROOT
ATOM      1  C   UNL d   1      -1.702  -0.698   0.827  0.00  0.00     0.092 A 
ATOM      2  N   UNL d   1       0.323   0.296   0.088  0.00  0.00    -0.319 N 
ATOM      3  HN  UNL d   1       0.988   0.735  -0.549  1.00  0.00     0.175 HD
ATOM      4  C   UNL d   1      -0.959  -0.702   2.007  0.00  0.00     0.076 A 
ATOM      5  C   UNL d   1      -0.905  -0.097  -0.227  0.00  0.00     0.093 A 
ATOM      6  S   UNL d   1       0.596  -0.042   1.674  0.00  0.00    -0.006 SA
ENDROOT
BRANCH   1   7
ATOM      7  C   UNL d   1      -3.034  -1.283   0.696  0.00  0.00     0.274 C 
ATOM      8  N   UNL d   1      -3.901  -0.586  -0.142  0.00  0.00    -0.268 N 
ATOM      9  H   UNL d   1      -3.530   0.213  -0.659  0.00  0.00     0.190 HD
ATOM     10  O   UNL d   1      -3.346  -2.303   1.294  0.00  0.00    -0.266 OA
BRANCH   8  11
ATOM     11  N   UNL d   1      -5.157  -1.058  -0.575  0.00  0.00    -0.321 N 
ATOM     12  C   UNL d   1      -5.109  -2.134  -1.576  0.00  0.00     0.168 C 
ATOM     13  C   UNL d   1      -5.233  -3.541  -0.984  0.00  0.00     0.189 C 
ATOM     14  O   UNL d   1      -6.431  -3.647  -0.205  0.00  0.00    -0.388 OA
ATOM     15  C   UNL d   1      -6.374  -2.742   0.905  0.00  0.00     0.189 C 
ATOM     16  C   UNL d   1      -6.175  -1.282   0.459  0.00  0.00     0.168 C 
ENDBRANCH   8  11
ENDBRANCH   1   7
BRANCH   4  17
ATOM     17  S   UNL d   1      -1.283  -1.277   3.640  0.00  0.00    -0.125 SA
ATOM     18  C   UNL d   1      -2.982  -0.790   3.990  0.00  0.00     0.096 C 
ENDBRANCH   4  17
BRANCH   5  19
ATOM     19  S   UNL d   1      -1.472   0.145  -1.886  0.00  0.00    -0.115 SA
ATOM     20  C   UNL d   1      -0.005   0.740  -2.757  0.00  0.00     0.097 C 
ENDBRANCH   5  19
TORSDOF 4
