REMARK  2 active torsions:
REMARK  status: ('A' for Active; 'I' for Inactive)
REMARK    1  A    between atoms: C_10  and  N_2 
REMARK    2  A    between atoms: C_11  and  C_10 
ROOT
ATOM      1  C   UNL d   1      -2.099  -0.375   0.052  0.00  0.00     0.299 A 
ATOM      2  N   UNL d   1      -1.210  -1.436  -0.025  0.00  0.00    -0.307 N 
ATOM      3  C   UNL d   1       0.164   0.414   0.025  0.00  0.00     0.047 A 
ATOM      4  C   UNL d   1      -1.214   0.895   0.093  0.00  0.00     0.252 A 
ATOM      5  C   UNL d   1       0.119  -0.977  -0.051  0.00  0.00     0.052 A 
ATOM      6  C   UNL d   1       1.291  -1.703  -0.127  0.00  0.00     0.031 A 
ATOM      7  C   UNL d   1       1.343   1.135   0.046  0.00  0.00     0.024 A 
ATOM      8  O   UNL d   1      -3.311  -0.381   0.085  0.00  0.00    -0.263 OA
ATOM      9  O   UNL d   1      -1.581   2.045   0.167  0.00  0.00    -0.281 OA
ATOM     10  C   UNL d   1       2.540   0.414  -0.021  0.00  0.00    -0.061 A 
ATOM     11  C   UNL d   1       2.505  -0.998  -0.115  0.00  0.00     0.009 A 
ATOM     12  C   UNL d   1       3.863   1.124   0.027  0.00  0.00     0.048 C 
ENDROOT
BRANCH   2  13
ATOM     13  C   UNL d   1      -1.622  -2.816  -0.031  0.00  0.00     0.159 C 
BRANCH  13  14
ATOM     14  C   UNL d   1      -1.693  -3.413   1.350  0.00  0.00    -0.017 C 
ATOM     15  C   UNL d   1      -1.389  -2.849   2.528  0.00  0.00     0.008 C 
ENDBRANCH  13  14
ENDBRANCH   2  13
TORSDOF 2
