REMARK  5 active torsions:
REMARK  status: ('A' for Active; 'I' for Inactive)
REMARK    1  A    between atoms: C_2  and  C_1 
REMARK    2  A    between atoms: S_8  and  C_5 
REMARK    3  A    between atoms: C_16  and  S_8 
REMARK    4  A    between atoms: C_10  and  C_16 
REMARK       I    between atoms: N_11  and  C_10 
REMARK    5  A    between atoms: C_17  and  N_11 
ROOT
ATOM      1  S   UNL d   1      -1.209   5.757  -0.438  0.00  0.00    -0.101 SA
ENDROOT
BRANCH   1   2
ATOM      2  C   UNL d   1      -1.297   6.248  -2.159  0.00  0.00     0.092 A 
ATOM      3  N   UNL d   1      -0.274   7.012  -2.618  0.00  0.00    -0.358 N 
ATOM      4  C   UNL d   1      -0.268   7.357  -3.927  0.00  0.00     0.105 A 
ATOM      5  HN  UNL d   1       0.471   7.319  -1.992  1.00  0.00     0.166 HD
ATOM      6  C   UNL d   1      -1.239   6.966  -4.834  0.00  0.00     0.065 A 
ATOM      7  C   UNL d   1      -2.299   6.196  -4.347  0.00  0.00     0.044 A 
ATOM      8  C   UNL d   1      -2.335   5.830  -2.998  0.00  0.00     0.068 A 
ATOM      9 CL   UNL d   1      -3.670   4.876  -2.462  0.00  0.00    -0.081 Cl
BRANCH   6  10
ATOM     10  C   UNL d   1      -1.121   7.364  -6.274  0.00  0.00     0.418 C 
ATOM     11  F   UNL d   1      -2.091   6.824  -7.062  0.00  0.00    -0.166 F 
ATOM     12  F   UNL d   1       0.062   6.978  -6.823  0.00  0.00    -0.166 F 
ATOM     13  F   UNL d   1      -1.198   8.710  -6.452  0.00  0.00    -0.166 F 
ENDBRANCH   6  10
ENDBRANCH   1   2
BRANCH   1  14
ATOM     14  C   UNL d   1       0.090   6.877   0.191  0.00  0.00     0.184 C 
BRANCH  14  15
ATOM     15  C   UNL d   1      -0.356   8.333   0.257  0.00  0.00     0.231 C 
ATOM     16  N   UNL d   1      -1.680   8.501   0.627  0.00  0.00    -0.327 N 
ATOM     17  H   UNL d   1      -2.190   7.647   0.828  0.00  0.00     0.169 HD
ATOM     18  O   UNL d   1       0.459   9.239   0.091  0.00  0.00    -0.272 OA
BRANCH  16  19
ATOM     19  C   UNL d   1      -2.410   9.702   0.711  0.00  0.00     0.034 A 
ATOM     20  C   UNL d   1      -1.900  10.947   0.335  0.00  0.00     0.031 A 
ATOM     21  C   UNL d   1      -2.700  12.093   0.410  0.00  0.00     0.026 A 
ATOM     22  C   UNL d   1      -4.011  11.997   0.866  0.00  0.00     0.034 A 
ATOM     23  C   UNL d   1      -4.530  10.765   1.252  0.00  0.00     0.026 A 
ATOM     24 CL   UNL d   1      -4.994  13.405   0.948  0.00  0.00    -0.084 Cl
ATOM     25  C   UNL d   1      -3.731   9.619   1.171  0.00  0.00     0.031 A 
ENDBRANCH  16  19
ENDBRANCH  14  15
ENDBRANCH   1  14
TORSDOF 5
