REMARK  3 active torsions:
REMARK  status: ('A' for Active; 'I' for Inactive)
REMARK    1  A    between atoms: C_2  and  S_1 
REMARK    2  A    between atoms: N_7  and  S_1 
REMARK    3  A    between atoms: C_16  and  N_7 
ROOT
ATOM      1  N   UNL d   1       0.364  -0.057   1.560  0.00  0.00    -0.180 NA
ATOM      2  H   UNL d   1      -0.648   0.061   1.505  0.00  0.00     0.146 HD
ENDROOT
BRANCH   1   3
ATOM      3  S   UNL d   1       0.977  -0.070  -0.028  0.00  0.00     0.263 S 
ATOM      4  O   UNL d   1       0.354   1.041  -0.721  0.00  0.00    -0.204 OA
ATOM      5  O   UNL d   1       2.417  -0.242  -0.007  0.00  0.00    -0.204 OA
BRANCH   3   6
ATOM      6  C   UNL d   1       0.379  -1.467  -0.892  0.00  0.00     0.161 A 
ATOM      7  N   UNL d   1      -0.471  -2.409  -0.334  0.00  0.00    -0.341 N 
ATOM      8  C   UNL d   1      -0.657  -3.309  -1.274  0.00  0.00     0.183 A 
ATOM      9  HN  UNL d   1      -0.867  -2.406   0.606  1.00  0.00     0.167 HD
ATOM     10  N   UNL d   1      -0.005  -2.969  -2.426  0.00  0.00    -0.354 N 
ATOM     11  C   UNL d   1       0.649  -1.790  -2.209  0.00  0.00     0.134 A 
ATOM     12  C   UNL d   1      -0.008  -3.741  -3.643  0.00  0.00     0.156 C 
ENDBRANCH   3   6
ENDBRANCH   1   3
BRANCH   1  13
ATOM     13  C   UNL d   1       0.784  -1.110   2.430  0.00  0.00     0.024 A 
ATOM     14  C   UNL d   1      -0.055  -2.202   2.641  0.00  0.00     0.042 A 
ATOM     15  C   UNL d   1       0.406  -3.213   3.462  0.00  0.00     0.049 A 
ATOM     16  C   UNL d   1      -0.253  -4.464   3.808  0.00  0.00     0.294 A 
ATOM     17  C   UNL d   1       1.634  -3.165   4.088  0.00  0.00    -0.018 A 
ATOM     18  O   UNL d   1       0.596  -5.130   4.647  0.00  0.00    -0.313 OA
ATOM     19  O   UNL d   1      -1.341  -4.842   3.424  0.00  0.00    -0.259 OA
ATOM     20  C   UNL d   1       1.809  -4.386   4.898  0.00  0.00     0.218 A 
ATOM     21  C   UNL d   1       2.475  -2.083   3.895  0.00  0.00     0.012 A 
ATOM     22  C   UNL d   1       2.047  -1.054   3.045  0.00  0.00     0.025 A 
ENDBRANCH   1  13
TORSDOF 3
