REMARK  6 active torsions:
REMARK  status: ('A' for Active; 'I' for Inactive)
REMARK    1  A    between atoms: C_12  and  C_3 
REMARK    2  A    between atoms: O_11  and  C_5 
REMARK    3  A    between atoms: C_18  and  C_12 
REMARK    4  A    between atoms: C_22  and  C_18 
REMARK    5  A    between atoms: C_19  and  C_21 
REMARK    6  A    between atoms: C_21  and  C_22 
ROOT
ATOM      1  N   UNL d   1      -0.080  -1.045   0.002  0.00  0.00    -0.276 N 
ATOM      2  C   UNL d   1      -0.638  -2.334  -0.009  0.00  0.00     0.262 A 
ATOM      3  C   UNL d   1      -2.146  -2.377   0.012  0.00  0.00     0.044 A 
ATOM      4  C   UNL d   1      -0.882   0.077   0.005  0.00  0.00     0.067 A 
ATOM      5  C   UNL d   1      -2.888  -1.246   0.015  0.00  0.00     0.089 A 
ATOM      6  C   UNL d   1      -2.276   0.088   0.009  0.00  0.00     0.026 A 
ATOM      7  C   UNL d   1       1.252  -0.648   0.001  0.00  0.00     0.054 A 
ATOM      8  C   UNL d   1      -0.084   1.207   0.003  0.00  0.00     0.005 A 
ATOM      9  C   UNL d   1       1.271   0.754  -0.000  0.00  0.00     0.004 A 
ATOM     10  O   UNL d   1       0.085  -3.322  -0.036  0.00  0.00    -0.267 OA
ATOM     11  C   UNL d   1      -2.888   1.347   0.004  0.00  0.00     0.017 A 
ATOM     12  C   UNL d   1      -0.721   2.463   0.001  0.00  0.00     0.014 A 
ATOM     13  C   UNL d   1       2.444  -1.399   0.001  0.00  0.00     0.031 A 
ATOM     14  C   UNL d   1       2.516   1.420  -0.002  0.00  0.00     0.014 A 
ATOM     15  C   UNL d   1      -2.122   2.515   0.001  0.00  0.00     0.002 A 
ATOM     16  C   UNL d   1       3.662  -0.712  -0.000  0.00  0.00     0.002 A 
ATOM     17  C   UNL d   1       3.701   0.677  -0.002  0.00  0.00     0.001 A 
ENDROOT
BRANCH   3  18
ATOM     18  C   UNL d   1      -2.786  -3.747  -0.018  0.00  0.00     0.047 C 
BRANCH  18  19
ATOM     19  C   UNL d   1      -2.473  -4.656   1.172  0.00  0.00     0.005 C 
BRANCH  19  20
ATOM     20  C   UNL d   1      -2.874  -4.075   2.528  0.00  0.00     0.000 C 
BRANCH  20  21
ATOM     21  C   UNL d   1      -2.521  -5.077   3.628  0.00  0.00    -0.000 C 
BRANCH  21  22
ATOM     22  C   UNL d   1      -2.881  -4.554   5.013  0.00  0.00    -0.005 C 
ATOM     23  C   UNL d   1      -2.511  -5.570   6.082  0.00  0.00     0.005 C 
ENDBRANCH  21  22
ENDBRANCH  20  21
ENDBRANCH  19  20
ENDBRANCH  18  19
ENDBRANCH   3  18
BRANCH   5  24
ATOM     24  O   UNL d   1      -4.267  -1.329   0.014  0.00  0.00    -0.359 OA
ATOM     25  H   UNL d   1      -4.655  -0.442  -0.010  0.00  0.00     0.217 HD
ENDBRANCH   5  24
TORSDOF 6
