REMARK  5 active torsions:
REMARK  status: ('A' for Active; 'I' for Inactive)
REMARK    1  A    between atoms: C_3  and  C_1 
REMARK    2  A    between atoms: C_12  and  C_2 
REMARK    3  A    between atoms: C_4  and  C_9 
REMARK       I    between atoms: N_21  and  C_12 
REMARK       I    between atoms: C_19  and  N_22 
REMARK       I    between atoms: N_23  and  C_19 
REMARK    4  A    between atoms: N_22  and  N_21 
REMARK    5  A    between atoms: C_26  and  N_23 
ROOT
ATOM      1  C   UNL d   1       0.004  -1.293  -0.035  0.00  0.00     0.057 A 
ATOM      2  C   UNL d   1      -1.313  -0.732  -0.122  0.00  0.00     0.139 A 
ATOM      3  N   UNL d   1      -1.247   0.607   0.005  0.00  0.00    -0.255 N 
ATOM      4  HN  UNL d   1      -2.035   1.255   0.026  1.00  0.00     0.195 HD
ATOM      5  O   UNL d   1       0.079   0.933   0.101  0.00  0.00    -0.241 OA
ATOM      6  C   UNL d   1       0.833  -0.192   0.062  0.00  0.00     0.087 A 
ATOM      7  C   UNL d   1       2.290   0.039   0.125  0.00  0.00     0.080 C 
ENDROOT
BRANCH   2   8
ATOM      8  C   UNL d   1      -2.637  -1.324  -0.349  0.00  0.00     0.289 C 
ATOM      9  N   UNL d   1      -2.667  -2.423  -1.201  0.00  0.00    -0.261 N 
ATOM     10  H   UNL d   1      -1.856  -3.041  -1.144  0.00  0.00     0.190 HD
ATOM     11  O   UNL d   1      -3.675  -0.856   0.123  0.00  0.00    -0.264 OA
BRANCH   9  12
ATOM     12  N   UNL d   1      -3.910  -3.059  -1.364  0.00  0.00    -0.248 N 
ATOM     13  C   UNL d   1      -4.220  -3.870  -2.433  0.00  0.00     0.339 C 
ATOM     14  N   UNL d   1      -3.222  -3.953  -3.373  0.00  0.00    -0.308 N 
ATOM     15  O   UNL d   1      -5.297  -4.456  -2.449  0.00  0.00    -0.245 OA
ATOM     16  H   UNL d   1      -2.469  -3.295  -3.229  0.00  0.00     0.170 HD
ATOM     17  H   UNL d   1      -4.638  -2.864  -0.676  0.00  0.00     0.192 HD
BRANCH  14  18
ATOM     18  C   UNL d   1      -3.200  -4.727  -4.549  0.00  0.00     0.038 A 
ATOM     19  C   UNL d   1      -4.228  -5.595  -4.928  0.00  0.00     0.053 A 
ATOM     20  C   UNL d   1      -4.130  -6.320  -6.117  0.00  0.00     0.036 A 
ATOM     21 CL   UNL d   1      -5.409  -7.375  -6.582  0.00  0.00    -0.084 Cl
ATOM     22  C   UNL d   1      -3.008  -6.201  -6.934  0.00  0.00     0.024 A 
ATOM     23  C   UNL d   1      -1.976  -5.345  -6.561  0.00  0.00     0.004 A 
ATOM     24  C   UNL d   1      -2.073  -4.610  -5.376  0.00  0.00     0.029 A 
ENDBRANCH  14  18
ENDBRANCH   9  12
ENDBRANCH   2   8
BRANCH   1  25
ATOM     25  C   UNL d   1       0.389  -2.712  -0.021  0.00  0.00     0.055 A 
ATOM     26  N   UNL d   1      -0.591  -3.677  -0.207  0.00  0.00    -0.347 N 
ATOM     27  C   UNL d   1      -0.072  -4.890  -0.080  0.00  0.00     0.102 A 
ATOM     28  HN  UNL d   1      -1.571  -3.481  -0.412  1.00  0.00     0.167 HD
ATOM     29  S   UNL d   1       1.625  -4.932   0.175  0.00  0.00    -0.080 SA
ATOM     30  C   UNL d   1       1.655  -3.219   0.187  0.00  0.00     0.082 A 
BRANCH  27  31
ATOM     31  C   UNL d   1      -0.903  -6.146  -0.156  0.00  0.00     0.073 A 
ATOM     32  N   UNL d   1      -0.351  -7.415  -0.046  0.00  0.00    -0.352 N 
ATOM     33  C   UNL d   1      -1.302  -8.324  -0.125  0.00  0.00     0.047 A 
ATOM     34  HN  UNL d   1       0.641  -7.615   0.078  1.00  0.00     0.166 HD
ATOM     35  C   UNL d   1      -1.088  -9.791   0.003  0.00  0.00     0.076 C 
ATOM     36  S   UNL d   1      -2.889  -7.719  -0.379  0.00  0.00    -0.087 SA
ATOM     37  C   UNL d   1      -2.272  -6.126  -0.314  0.00  0.00     0.083 A 
ENDBRANCH  27  31
ENDBRANCH   1  25
TORSDOF 5
