REMARK  6 active torsions:
REMARK  status: ('A' for Active; 'I' for Inactive)
REMARK    1  A    between atoms: N_2  and  C_1 
REMARK    2  A    between atoms: O_11  and  C_3 
REMARK    3  A    between atoms: C_5  and  C_7 
REMARK    4  A    between atoms: N_20  and  C_5 
REMARK    5  A    between atoms: C_10  and  O_11 
REMARK    6  A    between atoms: O_22  and  N_14 
ROOT
ATOM      1  C   UNL d   1      -4.253   4.292   0.763  0.00  0.00     0.137 A 
ATOM      2  C   UNL d   1      -5.167   3.267   0.486  0.00  0.00     0.109 A 
ATOM      3  C   UNL d   1      -2.870   4.059   0.816  0.00  0.00     0.053 A 
ATOM      4  C   UNL d   1      -2.398   2.764   0.594  0.00  0.00     0.006 A 
ATOM      5  C   UNL d   1      -4.676   1.959   0.381  0.00  0.00     0.041 A 
ATOM      6  C   UNL d   1      -3.303   1.713   0.401  0.00  0.00     0.018 A 
ENDROOT
BRANCH   2   7
ATOM      7  O   UNL d   1      -6.512   3.549   0.367  0.00  0.00    -0.308 OA
BRANCH   7   8
ATOM      8  C   UNL d   1      -7.265   2.812  -0.529  0.00  0.00     0.077 A 
ATOM      9  C   UNL d   1      -8.566   2.497  -0.143  0.00  0.00     0.045 A 
ATOM     10  C   UNL d   1      -9.389   1.710  -0.968  0.00  0.00    -0.037 A 
ATOM     11  C   UNL d   1     -10.779   1.369  -0.500  0.00  0.00     0.050 C 
ATOM     12  C   UNL d   1      -8.886   1.244  -2.202  0.00  0.00     0.046 A 
ATOM     13  C   UNL d   1      -7.582   1.576  -2.613  0.00  0.00    -0.037 A 
ATOM     14 CL   UNL d   1      -9.899   0.259  -3.210  0.00  0.00    -0.083 Cl
ATOM     15  C   UNL d   1      -6.797   2.393  -1.778  0.00  0.00     0.045 A 
ATOM     16  C   UNL d   1      -6.949   1.088  -3.889  0.00  0.00     0.050 C 
ENDBRANCH   7   8
ENDBRANCH   2   7
BRANCH   1  17
ATOM     17  N   UNL d   1      -4.717   5.642   1.031  0.00  0.00    -0.113 N 
ATOM     18  O   UNL d   1      -5.373   6.206   0.147  0.00  0.00    -0.532 OA
ATOM     19  O   UNL d   1      -4.375   6.142   2.110  0.00  0.00    -0.532 OA
ENDBRANCH   1  17
BRANCH   4  20
ATOM     20  C   UNL d   1      -0.935   2.483   0.526  0.00  0.00     0.108 C 
ATOM     21  N   UNL d   1      -0.539   1.479  -0.203  0.00  0.00    -0.258 N 
ATOM     22  HN  UNL d   1      -1.162   0.871  -0.735  1.00  0.00     0.195 HD
BRANCH  21  23
ATOM     23  O   UNL d   1       0.857   1.345  -0.162  0.00  0.00    -0.289 OA
ATOM     24  H   UNL d   1       1.012   0.648  -0.827  0.00  0.00     0.244 HD
ENDBRANCH  21  23
BRANCH  20  25
ATOM     25  N   UNL d   1      -0.063   3.283   1.222  0.00  0.00    -0.287 NA
ATOM     26  H   UNL d   1      -0.352   3.525   2.162  0.00  0.00     0.125 HD
ATOM     27  H   UNL d   1       0.861   2.854   1.213  0.00  0.00     0.125 HD
ENDBRANCH  20  25
ENDBRANCH   4  20
TORSDOF 6
