REMARK  2 active torsions:
REMARK  status: ('A' for Active; 'I' for Inactive)
REMARK    1  A    between atoms: C_2  and  S_1 
REMARK    2  A    between atoms: C_3  and  C_2 
ROOT
ATOM      1  C   UNL d   1       0.587  -0.674   1.609  0.00  0.00     0.208 C 
ENDROOT
BRANCH   1   2
ATOM      2  S   UNL d   1       1.054  -0.017   0.025  0.00  0.00     0.146 S 
ATOM      3  O   UNL d   1       0.509   1.327  -0.049  0.00  0.00    -0.228 OA
ATOM      4  O   UNL d   1       0.718  -0.990  -0.997  0.00  0.00    -0.228 OA
ATOM      5  C   UNL d   1       2.825   0.147   0.086  0.00  0.00     0.161 C 
ENDBRANCH   1   2
BRANCH   1   6
ATOM      6  C   UNL d   1       1.010  -2.105   1.784  0.00  0.00     0.085 C 
ATOM      7  S   UNL d   1       2.399  -2.549   2.594  0.00  0.00    -0.065 SA
ATOM      8  N   UNL d   1       0.159  -3.068   1.326  0.00  0.00    -0.393 N 
ATOM      9  H   UNL d   1      -0.599  -2.863   0.680  0.00  0.00     0.156 HD
ATOM     10  H   UNL d   1       0.433  -4.043   1.399  0.00  0.00     0.156 HD
ENDBRANCH   1   6
TORSDOF 2
