REMARK  6 active torsions:
REMARK  status: ('A' for Active; 'I' for Inactive)
REMARK    1  A    between atoms: C_11  and  C_3 
REMARK    2  A    between atoms: C_12  and  C_17 
REMARK    3  A    between atoms: S_22  and  C_15 
REMARK    4  A    between atoms: C_18  and  C_30 
REMARK       I    between atoms: N_21  and  C_18 
REMARK    5  A    between atoms: C_24  and  N_21 
REMARK    6  A    between atoms: C_30  and  S_22 
ROOT
ATOM      1  C   UNL d   1       3.349  -1.375  -0.072  0.00  0.00     0.049 A 
ATOM      2  N   UNL d   1       3.926  -1.507   1.129  0.00  0.00    -0.336 N 
ATOM      3  HN  UNL d   1       3.529  -1.081   1.966  1.00  0.00     0.168 HD
ATOM      4  C   UNL d   1       5.053  -2.230   1.172  0.00  0.00     0.145 A 
ATOM      5  N   UNL d   1       5.639  -2.807   0.109  0.00  0.00    -0.347 N 
ATOM      6  HN  UNL d   1       6.499  -3.349   0.199  1.00  0.00     0.167 HD
ATOM      7  C   UNL d   1       3.862  -1.931  -1.227  0.00  0.00     0.047 A 
ATOM      8  C   UNL d   1       5.035  -2.634  -1.074  0.00  0.00     0.092 A 
ENDROOT
BRANCH   4   9
ATOM      9  S   UNL d   1       5.603  -2.792   2.755  0.00  0.00    -0.085 SA
BRANCH   9  10
ATOM     10  C   UNL d   1       4.034  -3.517   3.306  0.00  0.00     0.185 C 
BRANCH  10  11
ATOM     11  C   UNL d   1       3.496  -4.682   2.480  0.00  0.00     0.231 C 
ATOM     12  N   UNL d   1       4.310  -5.197   1.488  0.00  0.00    -0.327 N 
ATOM     13  H   UNL d   1       5.248  -4.811   1.420  0.00  0.00     0.169 HD
ATOM     14  O   UNL d   1       2.385  -5.131   2.771  0.00  0.00    -0.272 OA
BRANCH  12  15
ATOM     15  C   UNL d   1       4.026  -6.298   0.653  0.00  0.00     0.035 A 
ATOM     16  C   UNL d   1       2.752  -6.858   0.530  0.00  0.00     0.045 A 
ATOM     17  C   UNL d   1       2.545  -8.042  -0.196  0.00  0.00     0.050 A 
ATOM     18  C   UNL d   1       3.638  -8.650  -0.827  0.00  0.00     0.016 A 
ATOM     19  C   UNL d   1       4.899  -8.057  -0.773  0.00  0.00     0.003 A 
ATOM     20  C   UNL d   1       5.088  -6.876  -0.050  0.00  0.00     0.029 A 
BRANCH  17  21
ATOM     21  C   UNL d   1       1.177  -8.675  -0.251  0.00  0.00     0.417 C 
ATOM     22  F   UNL d   1       0.183  -7.885   0.242  0.00  0.00    -0.166 F 
ATOM     23  F   UNL d   1       0.800  -8.990  -1.522  0.00  0.00    -0.166 F 
ATOM     24  F   UNL d   1       1.116  -9.839   0.455  0.00  0.00    -0.166 F 
ENDBRANCH  17  21
ENDBRANCH  12  15
ENDBRANCH  10  11
ENDBRANCH   9  10
ENDBRANCH   4   9
BRANCH   1  25
ATOM     25  C   UNL d   1       2.047  -0.716  -0.067  0.00  0.00     0.030 A 
ATOM     26  C   UNL d   1       0.880  -1.348   0.193  0.00  0.00     0.046 A 
ATOM     27  N   UNL d   1      -0.309  -0.599   0.177  0.00  0.00    -0.243 N 
ATOM     28  C   UNL d   1       0.745  -2.811   0.521  0.00  0.00     0.071 C 
ATOM     29  C   UNL d   1      -0.293   0.776  -0.098  0.00  0.00     0.129 A 
ATOM     30  N   UNL d   1      -1.571  -1.045   0.390  0.00  0.00    -0.297 N 
ATOM     31  N   UNL d   1       0.860   1.463  -0.351  0.00  0.00    -0.350 N 
ATOM     32  C   UNL d   1      -1.603   1.190  -0.033  0.00  0.00     0.076 A 
ATOM     33  C   UNL d   1       1.948   0.752  -0.323  0.00  0.00     0.105 A 
ATOM     34  HN  UNL d   1       0.866   2.463  -0.549  1.00  0.00     0.166 HD
ATOM     35  C   UNL d   1      -2.348   0.039   0.270  0.00  0.00     0.026 A 
ATOM     36  C   UNL d   1      -3.817  -0.070   0.450  0.00  0.00     0.070 C 
ATOM     37  HN  UNL d   1      -1.866  -2.000   0.597  1.00  0.00     0.187 HD
ENDBRANCH   1  25
TORSDOF 6
