REMARK  11 active torsions:
REMARK  status: ('A' for Active; 'I' for Inactive)
REMARK    1  A    between atoms: C_6  and  C_1 
REMARK    2  A    between atoms: C_8  and  C_2 
REMARK    3  A    between atoms: C_7  and  C_3 
REMARK    4  A    between atoms: O_9  and  C_6 
REMARK    5  A    between atoms: O_11  and  C_7 
REMARK    6  A    between atoms: C_16  and  C_8 
REMARK    7  A    between atoms: C_14  and  O_9 
REMARK    8  A    between atoms: C_18  and  O_11 
REMARK    9  A    between atoms: C_12  and  C_16 
REMARK   10  A    between atoms: O_19  and  C_12 
REMARK   11  A    between atoms: C_20  and  C_18 
ROOT
ATOM      1  C   UNL d   1      -1.234  -0.578   0.057  0.00  0.00     0.070 A 
ATOM      2  C   UNL d   1       0.094  -1.169   0.067  0.00  0.00    -0.007 A 
ATOM      3  C   UNL d   1       1.019  -0.121   0.022  0.00  0.00     0.116 A 
ATOM      4  N   UNL d   1       0.292   1.049   0.052  0.00  0.00    -0.354 N 
ATOM      5  C   UNL d   1      -1.050   0.801   0.056  0.00  0.00     0.022 A 
ATOM      6  C   UNL d   1      -2.030   1.921   0.060  0.00  0.00     0.069 C 
ATOM      7  H   UNL d   1       0.721   1.967   0.023  0.00  0.00     0.166 HD
ENDROOT
BRANCH   3   8
ATOM      8  C   UNL d   1       2.465  -0.028  -0.088  0.00  0.00     0.310 C 
ATOM      9  O   UNL d   1       3.057   1.040  -0.168  0.00  0.00    -0.258 OA
BRANCH   8  10
ATOM     10  O   UNL d   1       3.055  -1.250  -0.144  0.00  0.00    -0.312 OA
BRANCH  10  11
ATOM     11  C   UNL d   1       4.422  -1.244  -0.600  0.00  0.00     0.217 C 
BRANCH  11  12
ATOM     12  C   UNL d   1       5.432  -1.618   0.463  0.00  0.00    -0.034 A 
ATOM     13  C   UNL d   1       6.536  -2.415   0.106  0.00  0.00     0.009 A 
ATOM     14  C   UNL d   1       7.553  -2.685   1.026  0.00  0.00     0.001 A 
ATOM     15  C   UNL d   1       7.485  -2.160   2.313  0.00  0.00     0.000 A 
ATOM     16  C   UNL d   1       6.399  -1.365   2.679  0.00  0.00     0.001 A 
ATOM     17  C   UNL d   1       5.381  -1.093   1.760  0.00  0.00     0.009 A 
ENDBRANCH  11  12
ENDBRANCH  10  11
ENDBRANCH   8  10
ENDBRANCH   3   8
BRANCH   2  18
ATOM     18  C   UNL d   1       0.408  -2.641   0.037  0.00  0.00     0.052 C 
BRANCH  18  19
ATOM     19  C   UNL d   1       0.966  -3.140   1.367  0.00  0.00     0.116 C 
BRANCH  19  20
ATOM     20  C   UNL d   1       1.333  -4.599   1.298  0.00  0.00     0.258 C 
ATOM     21  O   UNL d   1       1.008  -5.374   0.409  0.00  0.00    -0.265 OA
BRANCH  20  22
ATOM     22  O   UNL d   1       2.064  -4.930   2.401  0.00  0.00    -0.326 OA
ATOM     23  C   UNL d   1       2.477  -6.296   2.446  0.00  0.00     0.213 C 
ENDBRANCH  20  22
ENDBRANCH  19  20
ENDBRANCH  18  19
ENDBRANCH   2  18
BRANCH   1  24
ATOM     24  C   UNL d   1      -2.558  -1.218  -0.008  0.00  0.00     0.296 C 
ATOM     25  O   UNL d   1      -3.486  -0.732  -0.643  0.00  0.00    -0.259 OA
BRANCH  24  26
ATOM     26  O   UNL d   1      -2.631  -2.371   0.711  0.00  0.00    -0.307 OA
BRANCH  26  27
ATOM     27  C   UNL d   1      -3.795  -3.244   0.640  0.00  0.00     0.060 C 
ATOM     28  C   UNL d   1      -3.701  -4.090  -0.634  0.00  0.00     0.046 C 
ATOM     29  C   UNL d   1      -3.671  -4.160   1.866  0.00  0.00     0.046 C 
ATOM     30  C   UNL d   1      -5.154  -2.531   0.720  0.00  0.00     0.046 C 
ENDBRANCH  26  27
ENDBRANCH  24  26
ENDBRANCH   1  24
TORSDOF 11
