REMARK  7 active torsions:
REMARK  status: ('A' for Active; 'I' for Inactive)
REMARK    1  A    between atoms: N_6  and  C_1 
REMARK    2  A    between atoms: C_4  and  N_10 
REMARK    3  A    between atoms: C_5  and  C_9 
REMARK       I    between atoms: N_10  and  C_11 
REMARK       I    between atoms: C_11  and  N_21 
REMARK    4  A    between atoms: C_29  and  C_12 
REMARK    5  A    between atoms: C_33  and  N_17 
REMARK    6  A    between atoms: N_21  and  C_32 
REMARK    7  A    between atoms: C_32  and  C_33 
ROOT
ATOM      1  C   UNL d   1       1.897   5.710   1.141  0.00  0.00     0.292 C 
ENDROOT
BRANCH   1   2
ATOM      2  C   UNL d   1       1.387   6.684   2.227  0.00  0.00     0.154 C 
BRANCH   2   3
ATOM      3  N   UNL d   1       1.988   6.474   3.537  0.00  0.00    -0.341 N 
ATOM      4  C   UNL d   1       3.280   6.905   3.776  0.00  0.00     0.320 C 
ATOM      5  N   UNL d   1       3.594   6.827   5.125  0.00  0.00    -0.306 N 
ATOM      6  O   UNL d   1       4.032   7.248   2.881  0.00  0.00    -0.247 OA
ATOM      7  H   UNL d   1       3.133   6.047   5.575  0.00  0.00     0.170 HD
ATOM      8  H   UNL d   1       1.363   6.447   4.328  0.00  0.00     0.164 HD
BRANCH   5   9
ATOM      9  C   UNL d   1       4.930   7.051   5.571  0.00  0.00     0.071 C 
ATOM     10  C   UNL d   1       5.677   8.200   5.263  0.00  0.00     0.039 C 
ATOM     11  C   UNL d   1       7.052   8.252   5.544  0.00  0.00     0.029 C 
ATOM     12 BR   UNL d   1       4.883   9.797   4.593  0.00  0.00    -0.049 Br
ATOM     13  C   UNL d   1       7.707   7.169   6.147  0.00  0.00    -0.052 C 
ATOM     14  C   UNL d   1       6.930   6.090   6.589  0.00  0.00     0.029 C 
ATOM     15  C   UNL d   1       5.557   6.042   6.319  0.00  0.00     0.039 C 
ATOM     16 BR   UNL d   1       4.592   4.516   6.926  0.00  0.00    -0.049 Br
BRANCH  13  17
ATOM     17  C   UNL d   1       9.222   7.108   6.268  0.00  0.00     0.010 C 
ATOM     18  C   UNL d   1       9.878   7.160   4.883  0.00  0.00     0.015 C 
ATOM     19  C   UNL d   1       9.800   8.194   7.175  0.00  0.00     0.015 C 
ENDBRANCH  13  17
ENDBRANCH   5   9
ENDBRANCH   2   3
ENDBRANCH   1   2
BRANCH   1  20
ATOM     20  N   UNL d   1       1.202   5.857  -0.154  0.00  0.00     0.093 N 
ATOM     21  C   UNL d   1       1.470   7.164  -0.809  0.00  0.00     0.293 C 
ATOM     22  C   UNL d   1       2.910   7.359  -1.337  0.00  0.00     0.171 C 
ATOM     23  N   UNL d   1       3.261   6.255  -2.238  0.00  0.00    -0.214 N 
ATOM     24  C   UNL d   1       3.045   4.912  -1.687  0.00  0.00     0.171 C 
ATOM     25  C   UNL d   1       1.611   4.791  -1.107  0.00  0.00     0.293 C 
BRANCH  23  26
ATOM     26  C   UNL d   1       4.432   6.414  -2.964  0.00  0.00     0.680 A 
ATOM     27  N   UNL d   1       5.027   7.617  -2.988  0.00  0.00    -0.186 N 
ATOM     28  C   UNL d   1       6.135   7.789  -3.753  0.00  0.00     0.133 A 
ATOM     29  HN  UNL d   1       4.652   8.391  -2.439  1.00  0.00     0.184 HD
ATOM     30  C   UNL d   1       6.648   6.767  -4.526  0.00  0.00     0.052 A 
ATOM     31  C   UNL d   1       5.983   5.572  -4.447  0.00  0.00     0.108 A 
ATOM     32  N   UNL d   1       4.899   5.376  -3.677  0.00  0.00    -0.202 N 
ATOM     33  HN  UNL d   1       4.443   4.465  -3.635  1.00  0.00     0.183 HD
BRANCH  28  34
ATOM     34  C   UNL d   1       6.827   9.138  -3.761  0.00  0.00     0.433 C 
ATOM     35  F   UNL d   1       6.261  10.072  -2.946  0.00  0.00    -0.165 F 
ATOM     36  F   UNL d   1       8.135   9.052  -3.374  0.00  0.00    -0.165 F 
ATOM     37  F   UNL d   1       6.858   9.701  -5.006  0.00  0.00    -0.165 F 
ENDBRANCH  28  34
ENDBRANCH  23  26
ENDBRANCH   1  20
TORSDOF 7
