REMARK  3 active torsions:
REMARK  status: ('A' for Active; 'I' for Inactive)
REMARK    1  A    between atoms: C_8  and  C_1 
REMARK    2  A    between atoms: C_9  and  C_4 
REMARK    3  A    between atoms: O_10  and  C_9 
ROOT
ATOM      1  C   UNL d   1       1.294  -0.853   0.041  0.00  0.00     0.075 A 
ATOM      2  N   UNL d   1      -0.388   0.250  -0.992  0.00  0.00    -0.269 N 
ATOM      3  HN  UNL d   1      -0.941   0.634  -1.758  1.00  0.00     0.195 HD
ATOM      4  C   UNL d   1       0.575  -0.471   1.171  0.00  0.00     0.053 A 
ATOM      5  N   UNL d   1       0.720  -0.442  -1.167  0.00  0.00    -0.293 N 
ATOM      6  HN  UNL d   1       1.116  -0.653  -2.083  1.00  0.00     0.187 HD
ATOM      7  S   UNL d   1      -0.789   0.427   0.612  0.00  0.00     0.001 SA
ENDROOT
BRANCH   1   8
ATOM      8  C   UNL d   1       2.522  -1.647   0.003  0.00  0.00    -0.007 A 
ATOM      9  C   UNL d   1       2.757  -2.480  -1.105  0.00  0.00     0.014 A 
ATOM     10  C   UNL d   1       3.919  -3.252  -1.195  0.00  0.00     0.001 A 
ATOM     11  C   UNL d   1       4.867  -3.201  -0.178  0.00  0.00     0.000 A 
ATOM     12  C   UNL d   1       4.659  -2.369   0.919  0.00  0.00     0.001 A 
ATOM     13  C   UNL d   1       3.500  -1.591   1.004  0.00  0.00     0.014 A 
ENDBRANCH   1   8
BRANCH   4  14
ATOM     14  C   UNL d   1       0.757  -0.668   2.629  0.00  0.00     0.214 C 
BRANCH  14  15
ATOM     15  O   UNL d   1       0.817  -2.061   2.895  0.00  0.00    -0.396 OA
ATOM     16  H   UNL d   1      -0.050  -2.439   2.667  0.00  0.00     0.209 HD
ENDBRANCH  14  15
ENDBRANCH   4  14
TORSDOF 3
