REMARK  4 active torsions:
REMARK  status: ('A' for Active; 'I' for Inactive)
REMARK    1  A    between atoms: C_4  and  S_1 
REMARK    2  A    between atoms: C_7  and  S_1 
REMARK    3  A    between atoms: C_5  and  C_7 
REMARK    4  A    between atoms: C_11  and  C_6 
ROOT
ATOM      1  N   UNL d   1       1.167  -2.205  -3.274  0.00  0.00    -0.355 N 
ATOM      2  HN  UNL d   1       1.054  -3.177  -2.987  1.00  0.00     0.166 HD
ATOM      3  C   UNL d   1       0.906  -1.165  -2.510  0.00  0.00     0.065 A 
ATOM      4  C   UNL d   1       1.618  -1.798  -4.523  0.00  0.00     0.024 A 
ATOM      5  S   UNL d   1       1.235   0.363  -3.224  0.00  0.00    -0.086 SA
ATOM      6  C   UNL d   1       1.693  -0.423  -4.671  0.00  0.00     0.077 A 
ENDROOT
BRANCH   3   7
ATOM      7  C   UNL d   1       0.452  -1.265  -1.101  0.00  0.00     0.211 C 
BRANCH   7   8
ATOM      8  S   UNL d   1      -1.313  -1.143  -1.029  0.00  0.00     0.187 S 
ATOM      9  O   UNL d   1      -1.732  -1.405   0.338  0.00  0.00    -0.222 OA
ATOM     10  O   UNL d   1      -1.760   0.059  -1.707  0.00  0.00    -0.222 OA
BRANCH   8  11
ATOM     11  C   UNL d   1      -1.990  -2.486  -1.980  0.00  0.00     0.100 A 
ATOM     12  S   UNL d   1      -1.585  -4.070  -1.476  0.00  0.00    -0.090 SA
ATOM     13  C   UNL d   1      -2.602  -4.776  -2.658  0.00  0.00     0.051 A 
ATOM     14  C   UNL d   1      -3.221  -3.826  -3.440  0.00  0.00     0.009 A 
ATOM     15  C   UNL d   1      -2.856  -2.503  -3.058  0.00  0.00     0.031 A 
ENDBRANCH   8  11
ENDBRANCH   7   8
ENDBRANCH   3   7
BRANCH   4  16
ATOM     16  C   UNL d   1       1.966  -2.842  -5.576  0.00  0.00    -0.008 C 
ATOM     17  C   UNL d   1       1.811  -4.274  -5.022  0.00  0.00     0.021 C 
ATOM     18  C   UNL d   1       1.030  -2.692  -6.791  0.00  0.00     0.021 C 
ATOM     19  C   UNL d   1       3.426  -2.669  -6.041  0.00  0.00     0.021 C 
ENDBRANCH   4  16
TORSDOF 4
