REMARK  9 active torsions:
REMARK  status: ('A' for Active; 'I' for Inactive)
REMARK    1  A    between atoms: N_2  and  S_1 
REMARK    2  A    between atoms: C_6  and  S_1 
REMARK    3  A    between atoms: C_4  and  N_2 
REMARK    4  A    between atoms: C_18  and  N_2 
REMARK    5  A    between atoms: C_5  and  C_3 
REMARK       I    between atoms: N_9  and  C_5 
REMARK    6  A    between atoms: C_15  and  N_9 
REMARK    7  A    between atoms: C_10  and  C_15 
REMARK    8  A    between atoms: O_20  and  C_10 
REMARK    9  A    between atoms: C_16  and  C_18 
ROOT
ATOM      1  C   UNL d   1      -1.729  -1.331  -1.613  0.00  0.00     0.059 A 
ATOM      2  C   UNL d   1      -0.417  -0.991  -2.002  0.00  0.00     0.061 A 
ATOM      3  C   UNL d   1      -2.398  -2.376  -2.277  0.00  0.00     0.019 A 
ATOM      4  C   UNL d   1       0.237  -1.777  -2.965  0.00  0.00     0.031 A 
ATOM      5  C   UNL d   1      -1.759  -3.102  -3.283  0.00  0.00     0.001 A 
ATOM      6  C   UNL d   1      -0.436  -2.817  -3.612  0.00  0.00     0.002 A 
ENDROOT
BRANCH   2   7
ATOM      7  N   UNL d   1       0.253   0.168  -1.445  0.00  0.00    -0.267 N 
BRANCH   7   8
ATOM      8  S   UNL d   1       1.254  -0.133  -0.102  0.00  0.00     0.265 S 
ATOM      9  O   UNL d   1       2.596  -0.374  -0.596  0.00  0.00    -0.200 OA
ATOM     10  O   UNL d   1       0.610  -1.087   0.781  0.00  0.00    -0.200 OA
BRANCH   8  11
ATOM     11  C   UNL d   1       1.265   1.444   0.745  0.00  0.00     0.080 A 
ATOM     12  C   UNL d   1       0.231   1.754   1.630  0.00  0.00     0.026 A 
ATOM     13  C   UNL d   1       0.227   2.988   2.286  0.00  0.00     0.008 A 
ATOM     14  C   UNL d   1       1.253   3.918   2.064  0.00  0.00    -0.062 A 
ATOM     15  C   UNL d   1       2.295   3.589   1.187  0.00  0.00     0.008 A 
ATOM     16  C   UNL d   1       1.218   5.248   2.760  0.00  0.00     0.048 C 
ATOM     17  C   UNL d   1       2.313   2.349   0.541  0.00  0.00     0.026 A 
ENDBRANCH   8  11
ENDBRANCH   7   8
BRANCH   7  18
ATOM     18  C   UNL d   1       0.757   1.177  -2.402  0.00  0.00     0.168 C 
BRANCH  18  19
ATOM     19  C   UNL d   1      -0.385   1.713  -3.216  0.00  0.00    -0.016 C 
ATOM     20  C   UNL d   1      -0.397   1.784  -4.553  0.00  0.00     0.008 C 
ENDBRANCH  18  19
ENDBRANCH   7  18
ENDBRANCH   2   7
BRANCH   1  21
ATOM     21  C   UNL d   1      -2.454  -0.559  -0.563  0.00  0.00     0.254 C 
ATOM     22  N   UNL d   1      -3.350  -1.261   0.219  0.00  0.00    -0.347 N 
ATOM     23  H   UNL d   1      -3.394  -2.276   0.185  0.00  0.00     0.163 HD
ATOM     24  O   UNL d   1      -2.269   0.643  -0.390  0.00  0.00    -0.268 OA
BRANCH  22  25
ATOM     25  C   UNL d   1      -3.975  -0.601   1.347  0.00  0.00     0.232 C 
BRANCH  25  26
ATOM     26  C   UNL d   1      -5.043  -1.456   2.007  0.00  0.00     0.158 C 
ATOM     27  O   UNL d   1      -5.320  -2.601   1.674  0.00  0.00    -0.649 OA
BRANCH  26  28
ATOM     28  O   UNL d   1      -5.664  -0.826   3.034  0.00  0.00    -0.775 OA
ATOM     29  H   UNL d   1      -5.343   0.082   3.196  0.00  0.00     0.167 HD
ENDBRANCH  26  28
ENDBRANCH  25  26
ENDBRANCH  22  25
ENDBRANCH   1  21
TORSDOF 9
