REMARK  6 active torsions:
REMARK  status: ('A' for Active; 'I' for Inactive)
REMARK    1  A    between atoms: C_8  and  N_1 
REMARK    2  A    between atoms: C_9  and  C_2 
REMARK    3  A    between atoms: S_10  and  C_5 
REMARK    4  A    between atoms: C_11  and  C_8 
REMARK    5  A    between atoms: O_12  and  C_11 
REMARK    6  A    between atoms: O_13  and  C_11 
ROOT
ATOM      1  N   UNL d   1      -0.152  -1.157  -0.211  0.00  0.00    -0.306 N 
ATOM      2  C   UNL d   1       1.047  -0.479  -0.407  0.00  0.00     0.134 A 
ATOM      3  N   UNL d   1       0.777   0.818  -0.435  0.00  0.00    -0.283 N 
ATOM      4  HN  UNL d   1       1.463   1.561  -0.563  1.00  0.00     0.188 HD
ATOM      5  C   UNL d   1      -1.115  -0.179  -0.127  0.00  0.00     0.160 A 
ATOM      6  N   UNL d   1      -0.564   1.002  -0.267  0.00  0.00    -0.278 N 
ATOM      7  HN  UNL d   1      -1.051   1.898  -0.252  1.00  0.00     0.189 HD
ENDROOT
BRANCH   1   8
ATOM      8  C   UNL d   1      -0.361  -2.590  -0.217  0.00  0.00     0.193 C 
BRANCH   8   9
ATOM      9  C   UNL d   1       0.304  -3.413   0.900  0.00  0.00     0.276 C 
BRANCH   9  10
ATOM     10  O   UNL d   1      -0.177  -2.938   2.161  0.00  0.00    -0.364 OA
ATOM     11  C   UNL d   1       0.488  -3.570   3.251  0.00  0.00     0.204 C 
ENDBRANCH   9  10
BRANCH   9  12
ATOM     12  O   UNL d   1      -0.049  -4.799   0.772  0.00  0.00    -0.364 OA
ATOM     13  C   UNL d   1       0.423  -5.428  -0.408  0.00  0.00     0.204 C 
ENDBRANCH   9  12
ENDBRANCH   8   9
ENDBRANCH   1   8
BRANCH   2  14
ATOM     14  C   UNL d   1       2.418  -1.002  -0.473  0.00  0.00     0.009 A 
ATOM     15  C   UNL d   1       2.773  -2.211  -1.081  0.00  0.00     0.015 A 
ATOM     16  C   UNL d   1       4.090  -2.683  -1.022  0.00  0.00     0.001 A 
ATOM     17  C   UNL d   1       5.083  -1.922  -0.410  0.00  0.00     0.000 A 
ATOM     18  C   UNL d   1       4.765  -0.679   0.127  0.00  0.00     0.001 A 
ATOM     19  C   UNL d   1       3.444  -0.227   0.096  0.00  0.00     0.015 A 
ENDBRANCH   2  14
BRANCH   5  20
ATOM     20  S   UNL d   1      -2.819  -0.383   0.105  0.00  0.00    -0.105 SA
ATOM     21  H   UNL d   1      -2.975  -1.702  -0.025  0.00  0.00     0.110 HD
ENDBRANCH   5  20
TORSDOF 6
