REMARK  5 active torsions:
REMARK  status: ('A' for Active; 'I' for Inactive)
REMARK    1  A    between atoms: C_19  and  C_3 
REMARK    2  A    between atoms: C_21  and  C_5 
REMARK    3  A    between atoms: C_17  and  O_20 
REMARK    4  A    between atoms: O_20  and  C_21 
REMARK    5  A    between atoms: O_27  and  C_24 
ROOT
ATOM      1  N   UNL d   1       1.306   0.143   0.059  0.00  0.00    -0.321 N 
ATOM      2  HN  UNL d   1       2.311   0.271   0.179  1.00  0.00     0.169 HD
ATOM      3  C   UNL d   1       0.621  -0.977  -0.022  0.00  0.00     0.182 A 
ATOM      4  C   UNL d   1       0.324   1.095  -0.058  0.00  0.00     0.128 A 
ATOM      5  N   UNL d   1      -0.921   0.611  -0.175  0.00  0.00    -0.245 N 
ATOM      6  HN  UNL d   1      -1.797   1.127  -0.256  1.00  0.00     0.196 HD
ATOM      7  O   UNL d   1      -0.724  -0.773  -0.161  0.00  0.00    -0.217 OA
ENDROOT
BRANCH   4   8
ATOM      8  C   UNL d   1       0.626   2.552  -0.010  0.00  0.00     0.254 C 
BRANCH   8   9
ATOM      9  O   UNL d   1       0.860   3.081  -1.321  0.00  0.00    -0.344 OA
BRANCH   9  10
ATOM     10  C   UNL d   1       1.229   4.401  -1.417  0.00  0.00     0.071 A 
ATOM     11  C   UNL d   1       1.417   4.824  -2.750  0.00  0.00     0.070 A 
ATOM     12  C   UNL d   1       1.802   6.168  -2.901  0.00  0.00     0.087 A 
ATOM     13  N   UNL d   1       2.054   6.861  -4.018  0.00  0.00    -0.239 N 
ATOM     14  C   UNL d   1       1.992   7.054  -1.762  0.00  0.00     0.085 A 
ATOM     15  O   UNL d   1       2.391   8.140  -3.600  0.00  0.00    -0.156 OA
ATOM     16  HN  UNL d   1       2.009   6.520  -4.978  1.00  0.00     0.197 HD
ATOM     17  N   UNL d   1       2.354   8.258  -2.221  0.00  0.00    -0.240 N 
ATOM     18  HN  UNL d   1       2.560   9.090  -1.668  1.00  0.00     0.197 HD
ATOM     19  C   UNL d   1       1.803   6.624  -0.438  0.00  0.00     0.036 A 
ATOM     20  C   UNL d   1       1.416   5.273  -0.307  0.00  0.00     0.039 A 
ENDBRANCH   9  10
ENDBRANCH   8   9
ENDBRANCH   4   8
BRANCH   3  21
ATOM     21  C   UNL d   1       1.095  -2.353   0.027  0.00  0.00     0.017 A 
ATOM     22  C   UNL d   1       2.461  -2.600   0.233  0.00  0.00     0.018 A 
ATOM     23  C   UNL d   1       2.962  -3.905   0.279  0.00  0.00     0.037 A 
ATOM     24  C   UNL d   1       2.100  -4.987   0.112  0.00  0.00     0.068 A 
ATOM     25  C   UNL d   1       0.736  -4.755  -0.070  0.00  0.00     0.037 A 
ATOM     26  C   UNL d   1       0.235  -3.450  -0.121  0.00  0.00     0.018 A 
BRANCH  24  27
ATOM     27  O   UNL d   1       2.472  -6.302   0.146  0.00  0.00    -0.356 OA
ATOM     28  C   UNL d   1       3.809  -6.570  -0.262  0.00  0.00     0.210 C 
ENDBRANCH  24  27
ENDBRANCH   3  21
TORSDOF 5
