REMARK  4 active torsions:
REMARK  status: ('A' for Active; 'I' for Inactive)
REMARK       I    between atoms: C_3  and  N_1 
REMARK    1  A    between atoms: C_2  and  C_3 
REMARK    2  A    between atoms: S_13  and  C_7 
REMARK    3  A    between atoms: C_22  and  N_8 
REMARK    4  A    between atoms: C_14  and  S_13 
ROOT
ATOM      1  N   UNL d   1      -0.233  -1.050  -0.136  0.00  0.00    -0.222 N 
ATOM      2  C   UNL d   1      -0.517  -2.447  -0.290  0.00  0.00     0.295 C 
ATOM      3  N   UNL d   1       1.072  -0.650  -0.092  0.00  0.00    -0.294 N 
ATOM      4  HN  UNL d   1       1.899  -1.247  -0.095  1.00  0.00     0.187 HD
ATOM      5  C   UNL d   1      -1.090   0.049  -0.052  0.00  0.00     0.053 A 
ATOM      6  C   UNL d   1      -0.276   1.167  -0.050  0.00  0.00     0.056 A 
ATOM      7  C   UNL d   1       1.046   0.682  -0.043  0.00  0.00     0.042 A 
ATOM      8  O   UNL d   1      -1.687  -2.753  -0.501  0.00  0.00    -0.264 OA
ATOM      9  C   UNL d   1      -2.575  -0.029   0.025  0.00  0.00     0.072 C 
ATOM     10  C   UNL d   1       2.331   1.421   0.038  0.00  0.00     0.071 C 
ENDROOT
BRANCH   2  11
ATOM     11  C   UNL d   1       0.533  -3.463  -0.234  0.00  0.00     0.122 A 
ATOM     12  N   UNL d   1       0.496  -4.690  -0.857  0.00  0.00    -0.287 N 
ATOM     13  N   UNL d   1       1.623  -5.415  -0.691  0.00  0.00    -0.302 N 
ATOM     14  C   UNL d   1       2.402  -4.648   0.074  0.00  0.00     0.024 A 
ATOM     15  HN  UNL d   1       1.832  -6.341  -1.065  1.00  0.00     0.186 HD
ATOM     16  C   UNL d   1       1.755  -3.448   0.420  0.00  0.00     0.063 A 
ATOM     17  C   UNL d   1       3.772  -5.081   0.437  0.00  0.00     0.070 C 
BRANCH  12  18
ATOM     18  C   UNL d   1      -0.537  -5.232  -1.722  0.00  0.00     0.145 C 
ATOM     19  C   UNL d   1      -1.510  -6.127  -0.975  0.00  0.00     0.028 C 
ENDBRANCH  12  18
ENDBRANCH   2  11
BRANCH   6  20
ATOM     20  S   UNL d   1      -0.803   2.828   0.064  0.00  0.00    -0.050 SA
BRANCH  20  21
ATOM     21  C   UNL d   1      -0.189   3.623  -1.405  0.00  0.00     0.149 A 
ATOM     22  N   UNL d   1       0.550   2.929  -2.289  0.00  0.00    -0.346 N 
ATOM     23  C   UNL d   1       1.008   3.606  -3.358  0.00  0.00     0.091 A 
ATOM     24  HN  UNL d   1       0.753   1.938  -2.155  1.00  0.00     0.167 HD
ATOM     25  C   UNL d   1       0.748   4.936  -3.584  0.00  0.00     0.034 A 
ATOM     26  C   UNL d   1      -0.025   5.553  -2.632  0.00  0.00     0.091 A 
ATOM     27  N   UNL d   1      -0.498   4.927  -1.539  0.00  0.00    -0.346 N 
ATOM     28  HN  UNL d   1      -1.063   5.417  -0.845  1.00  0.00     0.167 HD
ENDBRANCH  20  21
ENDBRANCH   6  20
TORSDOF 4
