REMARK  6 active torsions:
REMARK  status: ('A' for Active; 'I' for Inactive)
REMARK    1  A    between atoms: C_2  and  C_1 
REMARK    2  A    between atoms: C_3  and  C_1 
REMARK    3  A    between atoms: C_5  and  C_1 
REMARK    4  A    between atoms: O_12  and  C_1 
REMARK    5  A    between atoms: O_17  and  C_3 
REMARK       I    between atoms: C_4  and  N_6 
REMARK       I    between atoms: N_13  and  C_4 
REMARK    6  A    between atoms: N_6  and  C_16 
ROOT
ATOM      1  C   UNL d   1       0.626  -0.955   1.197  0.00  0.00    -0.005 A 
ATOM      2  C   UNL d   1       0.717  -2.353   1.083  0.00  0.00     0.013 A 
ATOM      3  C   UNL d   1       0.233  -0.437   2.440  0.00  0.00     0.013 A 
ATOM      4  C   UNL d   1       0.060  -2.658   3.407  0.00  0.00     0.036 A 
ATOM      5  C   UNL d   1      -0.047  -1.274   3.524  0.00  0.00     0.030 A 
ATOM      6  C   UNL d   1       0.441  -3.193   2.175  0.00  0.00     0.030 A 
ENDROOT
BRANCH   1   7
ATOM      7  C   UNL d   1       0.956  -0.021   0.023  0.00  0.00     0.271 C 
BRANCH   7   8
ATOM      8  C   UNL d   1       0.106  -0.276  -1.247  0.00  0.00     0.432 C 
ATOM      9  F   UNL d   1       0.841  -0.658  -2.319  0.00  0.00    -0.167 F 
ATOM     10  F   UNL d   1      -0.857  -1.211  -1.083  0.00  0.00    -0.167 F 
ATOM     11  F   UNL d   1      -0.529   0.869  -1.624  0.00  0.00    -0.167 F 
ENDBRANCH   7   8
BRANCH   7  12
ATOM     12  C   UNL d   1       2.417  -0.177  -0.432  0.00  0.00     0.307 C 
ATOM     13  O   UNL d   1       3.073  -1.212  -0.404  0.00  0.00    -0.261 OA
BRANCH  12  14
ATOM     14  O   UNL d   1       2.895   1.012  -0.922  0.00  0.00    -0.324 OA
ATOM     15  C   UNL d   1       4.263   0.959  -1.334  0.00  0.00     0.213 C 
ENDBRANCH  12  14
ENDBRANCH   7  12
BRANCH   7  16
ATOM     16  O   UNL d   1       0.784   1.352   0.490  0.00  0.00    -0.368 OA
ATOM     17  H   UNL d   1       0.963   1.931  -0.276  0.00  0.00     0.212 HD
ENDBRANCH   7  16
ENDBRANCH   1   7
BRANCH   4  18
ATOM     18  N   UNL d   1      -0.187  -3.550   4.475  0.00  0.00    -0.309 N 
ATOM     19  C   UNL d   1      -0.586  -3.216   5.754  0.00  0.00     0.320 C 
ATOM     20  O   UNL d   1      -0.822  -2.091   6.175  0.00  0.00    -0.247 OA
ATOM     21  N   UNL d   1      -0.686  -4.325   6.566  0.00  0.00    -0.347 N 
ATOM     22  C   UNL d   1      -1.101  -4.208   7.944  0.00  0.00     0.151 C 
ATOM     23  H   UNL d   1      -0.618  -5.247   6.165  0.00  0.00     0.163 HD
ATOM     24  H   UNL d   1      -0.045  -4.527   4.285  0.00  0.00     0.170 HD
ENDBRANCH   4  18
TORSDOF 6
