REMARK  8 active torsions:
REMARK  status: ('A' for Active; 'I' for Inactive)
REMARK    1  A    between atoms: N_5  and  C_13 
REMARK    2  A    between atoms: C_14  and  N_5 
REMARK    3  A    between atoms: O_7  and  C_6 
REMARK    4  A    between atoms: C_9  and  O_7 
REMARK    5  A    between atoms: C_8  and  C_9 
REMARK    6  A    between atoms: O_11  and  C_8 
REMARK    7  A    between atoms: C_13  and  C_8 
REMARK    8  A    between atoms: C_12  and  C_14 
ROOT
ATOM      1  C   UNL d   1      -4.479   3.273   0.184  0.00  0.00     0.170 C 
ENDROOT
BRANCH   1   2
ATOM      2  C   UNL d   1      -3.034   2.745   0.154  0.00  0.00     0.209 C 
BRANCH   2   3
ATOM      3  O   UNL d   1      -3.028   1.313   0.183  0.00  0.00    -0.349 OA
BRANCH   3   4
ATOM      4  C   UNL d   1      -1.793   0.721   0.109  0.00  0.00     0.069 A 
ATOM      5  C   UNL d   1      -0.568   1.388   0.045  0.00  0.00     0.044 A 
ATOM      6  C   UNL d   1       0.658   0.691  -0.009  0.00  0.00    -0.053 A 
ATOM      7  C   UNL d   1       0.645  -0.716   0.011  0.00  0.00    -0.056 A 
ATOM      8  C   UNL d   1       1.902   1.536  -0.071  0.00  0.00     0.049 C 
ATOM      9  C   UNL d   1      -0.596  -1.378   0.059  0.00  0.00     0.010 A 
ATOM     10  C   UNL d   1       1.874  -1.580  -0.019  0.00  0.00     0.049 C 
ATOM     11  C   UNL d   1      -1.799  -0.669   0.107  0.00  0.00     0.037 A 
ENDBRANCH   3   4
ENDBRANCH   2   3
ENDBRANCH   1   2
BRANCH   1  12
ATOM     12  O   UNL d   1      -5.156   2.901   1.393  0.00  0.00    -0.392 OA
ATOM     13  H   UNL d   1      -4.485   2.758   2.083  0.00  0.00     0.210 HD
ENDBRANCH   1  12
BRANCH   1  14
ATOM     14  C   UNL d   1      -4.503   4.812   0.079  0.00  0.00     0.303 C 
BRANCH  14  15
ATOM     15  N   UNL d   1      -3.861   5.287  -1.146  0.00  0.00     0.090 N 
ATOM     16  H   UNL d   1      -4.388   4.969  -1.960  0.00  0.00     0.316 HD
BRANCH  15  17
ATOM     17  C   UNL d   1      -3.772   6.744  -1.188  0.00  0.00     0.308 C 
BRANCH  17  18
ATOM     18  C   UNL d   1      -3.062   7.191  -2.444  0.00  0.00    -0.030 A 
ATOM     19  C   UNL d   1      -3.717   7.981  -3.397  0.00  0.00     0.009 A 
ATOM     20  C   UNL d   1      -3.053   8.393  -4.554  0.00  0.00     0.001 A 
ATOM     21  C   UNL d   1      -1.728   8.017  -4.771  0.00  0.00     0.000 A 
ATOM     22  C   UNL d   1      -1.065   7.231  -3.833  0.00  0.00     0.001 A 
ATOM     23  C   UNL d   1      -1.727   6.820  -2.675  0.00  0.00     0.009 A 
ENDBRANCH  17  18
ENDBRANCH  15  17
ENDBRANCH  14  15
ENDBRANCH   1  14
TORSDOF 8
