REMARK  5 active torsions:
REMARK  status: ('A' for Active; 'I' for Inactive)
REMARK    1  A    between atoms: C_2  and  C_1 
REMARK    2  A    between atoms: O_4  and  C_1 
REMARK    3  A    between atoms: S_3  and  C_2 
REMARK    4  A    between atoms: C_7  and  S_3 
REMARK    5  A    between atoms: C_6  and  O_4 
ROOT
ATOM      1  C   UNL d   1       0.247  -0.402   1.506  0.00  0.00     0.093 C 
ATOM      2  C   UNL d   1      -0.716  -1.569   1.256  0.00  0.00     0.038 C 
ATOM      3  C   UNL d   1       1.505  -0.942   2.205  0.00  0.00     0.038 C 
ENDROOT
BRANCH   1   4
ATOM      4  C   UNL d   1       0.679   0.234   0.177  0.00  0.00     0.278 C 
ATOM      5  O   UNL d   1       0.598  -0.337  -0.905  0.00  0.00    -0.263 OA
BRANCH   4   6
ATOM      6  O   UNL d   1       1.238   1.464   0.350  0.00  0.00    -0.310 OA
BRANCH   6   7
ATOM      7  C   UNL d   1       1.773   2.206  -0.780  0.00  0.00     0.060 C 
ATOM      8  C   UNL d   1       0.727   2.399  -1.889  0.00  0.00     0.045 C 
ATOM      9  C   UNL d   1       2.150   3.578  -0.199  0.00  0.00     0.045 C 
ATOM     10  C   UNL d   1       3.046   1.532  -1.304  0.00  0.00     0.045 C 
ENDBRANCH   6   7
ENDBRANCH   4   6
ENDBRANCH   1   4
BRANCH   1  11
ATOM     11  S   UNL d   1      -0.509   0.823   2.683  0.00  0.00    -0.110 SA
BRANCH  11  12
ATOM     12  C   UNL d   1      -1.923   1.445   1.792  0.00  0.00     0.001 A 
ATOM     13  C   UNL d   1      -3.148   0.778   1.842  0.00  0.00     0.020 A 
ATOM     14  C   UNL d   1      -4.281   1.329   1.235  0.00  0.00     0.025 A 
ATOM     15  C   UNL d   1      -4.189   2.558   0.588  0.00  0.00     0.034 A 
ATOM     16  C   UNL d   1      -2.977   3.240   0.543  0.00  0.00     0.025 A 
ATOM     17 CL   UNL d   1      -5.590   3.256  -0.129  0.00  0.00    -0.084 Cl
ATOM     18  C   UNL d   1      -1.843   2.686   1.148  0.00  0.00     0.020 A 
ENDBRANCH  11  12
ENDBRANCH   1  11
TORSDOF 5
