REMARK  9 active torsions:
REMARK  status: ('A' for Active; 'I' for Inactive)
REMARK    1  A    between atoms: C_8  and  N_1 
REMARK    2  A    between atoms: C_13  and  C_2 
REMARK    3  A    between atoms: S_9  and  C_5 
REMARK    4  A    between atoms: C_20  and  C_8 
REMARK    5  A    between atoms: C_21  and  S_9 
REMARK    6  A    between atoms: C_10  and  N_12 
REMARK    7  A    between atoms: C_11  and  C_21 
REMARK       I    between atoms: N_12  and  C_11 
REMARK    8  A    between atoms: O_24  and  C_20 
REMARK    9  A    between atoms: O_25  and  C_20 
ROOT
ATOM      1  N   UNL d   1      -0.202  -1.213  -0.126  0.00  0.00    -0.306 N 
ATOM      2  C   UNL d   1       0.986  -0.512  -0.347  0.00  0.00     0.134 A 
ATOM      3  N   UNL d   1       0.722   0.778  -0.251  0.00  0.00    -0.283 N 
ATOM      4  HN  UNL d   1       1.386   1.533  -0.420  1.00  0.00     0.188 HD
ATOM      5  C   UNL d   1      -1.110  -0.257   0.232  0.00  0.00     0.163 A 
ATOM      6  N   UNL d   1      -0.584   0.935   0.110  0.00  0.00    -0.278 N 
ATOM      7  HN  UNL d   1      -1.065   1.822   0.258  1.00  0.00     0.189 HD
ENDROOT
BRANCH   5   8
ATOM      8  S   UNL d   1      -2.626  -0.501   1.022  0.00  0.00    -0.083 SA
BRANCH   8   9
ATOM      9  C   UNL d   1      -2.116  -0.502   2.762  0.00  0.00     0.185 C 
BRANCH   9  10
ATOM     10  C   UNL d   1      -1.861   0.887   3.328  0.00  0.00     0.231 C 
ATOM     11  N   UNL d   1      -0.711   1.497   2.857  0.00  0.00    -0.326 N 
ATOM     12  H   UNL d   1      -0.332   1.145   1.979  0.00  0.00     0.169 HD
ATOM     13  O   UNL d   1      -2.618   1.352   4.178  0.00  0.00    -0.272 OA
BRANCH  11  14
ATOM     14  C   UNL d   1      -0.223   2.767   3.220  0.00  0.00     0.037 A 
ATOM     15  C   UNL d   1      -0.605   3.438   4.382  0.00  0.00     0.053 A 
ATOM     16  C   UNL d   1      -0.137   4.729   4.622  0.00  0.00     0.037 A 
ATOM     17 CL   UNL d   1      -0.633   5.564   6.044  0.00  0.00    -0.084 Cl
ATOM     18  C   UNL d   1       0.720   5.359   3.723  0.00  0.00     0.048 A 
ATOM     19  C   UNL d   1       1.134   4.668   2.587  0.00  0.00     0.037 A 
ATOM     20  C   UNL d   1       0.681   3.377   2.339  0.00  0.00     0.053 A 
ATOM     21 CL   UNL d   1       2.192   5.434   1.465  0.00  0.00    -0.084 Cl
ENDBRANCH  11  14
ENDBRANCH   9  10
ENDBRANCH   8   9
ENDBRANCH   5   8
BRANCH   1  22
ATOM     22  C   UNL d   1      -0.313  -2.656  -0.127  0.00  0.00     0.193 C 
BRANCH  22  23
ATOM     23  C   UNL d   1      -1.649  -3.345  -0.445  0.00  0.00     0.276 C 
BRANCH  23  24
ATOM     24  O   UNL d   1      -2.006  -3.022  -1.789  0.00  0.00    -0.364 OA
ATOM     25  C   UNL d   1      -3.312  -3.482  -2.118  0.00  0.00     0.204 C 
ENDBRANCH  23  24
BRANCH  23  26
ATOM     26  O   UNL d   1      -1.503  -4.769  -0.324  0.00  0.00    -0.364 OA
ATOM     27  C   UNL d   1      -1.264  -5.217   1.003  0.00  0.00     0.204 C 
ENDBRANCH  23  26
ENDBRANCH  22  23
ENDBRANCH   1  22
BRANCH   2  28
ATOM     28  C   UNL d   1       2.318  -1.055  -0.644  0.00  0.00     0.009 A 
ATOM     29  C   UNL d   1       3.156  -0.361  -1.530  0.00  0.00     0.015 A 
ATOM     30  C   UNL d   1       4.410  -0.869  -1.882  0.00  0.00     0.001 A 
ATOM     31  C   UNL d   1       4.848  -2.078  -1.347  0.00  0.00     0.000 A 
ATOM     32  C   UNL d   1       4.057  -2.750  -0.422  0.00  0.00     0.001 A 
ATOM     33  C   UNL d   1       2.814  -2.228  -0.054  0.00  0.00     0.015 A 
ENDBRANCH   2  28
TORSDOF 9
