REMARK  5 active torsions:
REMARK  status: ('A' for Active; 'I' for Inactive)
REMARK    1  A    between atoms: S_7  and  C_2 
REMARK    2  A    between atoms: C_9  and  C_4 
REMARK    3  A    between atoms: O_16  and  C_9 
REMARK    4  A    between atoms: C_15  and  C_10 
REMARK    5  A    between atoms: C_20  and  O_16 
ROOT
ATOM      1  C   UNL d   1       0.133  -0.793  -0.110  0.00  0.00     0.044 A 
ATOM      2  C   UNL d   1       1.238  -1.624  -0.075  0.00  0.00     0.086 A 
ATOM      3  C   UNL d   1       0.526   0.604  -0.072  0.00  0.00    -0.018 A 
ATOM      4  C   UNL d   1       1.903   0.772  -0.093  0.00  0.00     0.088 A 
ATOM      5  S   UNL d   1       2.695  -0.738   0.025  0.00  0.00    -0.073 SA
ATOM      6  C   UNL d   1      -1.277  -1.172  -0.240  0.00  0.00     0.162 C 
ATOM      7  C   UNL d   1      -0.502   1.710  -0.083  0.00  0.00     0.051 C 
ATOM      8  C   UNL d   1      -1.871   1.219   0.441  0.00  0.00     0.030 C 
ATOM      9  C   UNL d   1      -2.283  -0.034  -0.359  0.00  0.00     0.093 C 
ATOM     10  O   UNL d   1      -1.648  -2.334  -0.368  0.00  0.00    -0.292 OA
ENDROOT
BRANCH   8  11
ATOM     11  C   UNL d   1      -1.975   1.003   1.952  0.00  0.00    -0.053 A 
ATOM     12  C   UNL d   1      -0.886   1.137   2.830  0.00  0.00     0.007 A 
ATOM     13  C   UNL d   1      -1.030   0.918   4.202  0.00  0.00     0.001 A 
ATOM     14  C   UNL d   1      -2.270   0.574   4.729  0.00  0.00     0.000 A 
ATOM     15  C   UNL d   1      -3.367   0.461   3.884  0.00  0.00     0.001 A 
ATOM     16  C   UNL d   1      -3.225   0.678   2.511  0.00  0.00     0.007 A 
ENDBRANCH   8  11
BRANCH   4  17
ATOM     17  C   UNL d   1       2.638   2.022  -0.251  0.00  0.00     0.300 C 
ATOM     18  O   UNL d   1       2.116   3.117  -0.425  0.00  0.00    -0.259 OA
BRANCH  17  19
ATOM     19  O   UNL d   1       3.985   1.809  -0.285  0.00  0.00    -0.317 OA
BRANCH  19  20
ATOM     20  C   UNL d   1       4.772   2.881  -0.819  0.00  0.00     0.174 C 
ATOM     21  C   UNL d   1       4.859   2.709  -2.325  0.00  0.00     0.034 C 
ENDBRANCH  19  20
ENDBRANCH  17  19
ENDBRANCH   4  17
BRANCH   2  22
ATOM     22  S   UNL d   1       1.254  -3.369  -0.263  0.00  0.00     0.053 S 
ATOM     23  O   UNL d   1       2.687  -3.811  -0.190  0.00  0.00    -0.253 OA
ATOM     24  C   UNL d   1       0.452  -3.893   1.266  0.00  0.00     0.133 C 
ENDBRANCH   2  22
TORSDOF 5
