REMARK  8 active torsions:
REMARK  status: ('A' for Active; 'I' for Inactive)
REMARK    1  A    between atoms: N_2  and  C_1 
REMARK    2  A    between atoms: S_3  and  C_14 
REMARK    3  A    between atoms: C_11  and  S_3 
REMARK    4  A    between atoms: C_4  and  C_9 
REMARK    5  A    between atoms: N_10  and  C_6 
REMARK    6  A    between atoms: N_7  and  N_10 
REMARK    7  A    between atoms: C_14  and  C_21 
REMARK    8  A    between atoms: C_21  and  C_20 
ROOT
ATOM      1  N   UNL d   1       3.454   2.116  -0.651  0.00  0.00    -0.324 N 
ATOM      2  HN  UNL d   1       2.482   2.399  -0.772  1.00  0.00     0.180 HD
ATOM      3  C   UNL d   1       3.904   0.996  -1.147  0.00  0.00     0.003 C 
ATOM      4  C   UNL d   1       2.902   0.070  -1.867  0.00  0.00     0.033 C 
ATOM      5  C   UNL d   1       5.366   0.578  -1.145  0.00  0.00     0.054 C 
ATOM      6  C   UNL d   1       3.182  -1.395  -1.497  0.00  0.00     0.010 C 
ATOM      7  C   UNL d   1       5.510  -0.881  -0.745  0.00  0.00     0.006 C 
ATOM      8  C   UNL d   1       4.654  -1.778  -1.630  0.00  0.00     0.001 C 
ENDROOT
BRANCH   1   9
ATOM      9  N   UNL d   1       4.346   2.896   0.043  0.00  0.00    -0.204 NA
ATOM     10  H   UNL d   1       4.756   2.427   0.865  0.00  0.00     0.153 HD
BRANCH   9  11
ATOM     11  C   UNL d   1       3.897   4.199   0.403  0.00  0.00     0.060 C 
ATOM     12  C   UNL d   1       4.432   4.934   1.477  0.00  0.00     0.126 C 
ATOM     13  C   UNL d   1       3.903   6.174   1.880  0.00  0.00     0.054 C 
ATOM     14  C   UNL d   1       2.870   6.761   1.142  0.00  0.00     0.050 C 
ATOM     15  C   UNL d   1       2.454   6.127  -0.037  0.00  0.00     0.018 C 
ATOM     16  C   UNL d   1       2.960   4.870  -0.397  0.00  0.00     0.028 C 
BRANCH  12  17
ATOM     17  N   UNL d   1       5.597   4.446   2.198  0.00  0.00    -0.114 N 
ATOM     18  O   UNL d   1       6.505   5.254   2.417  0.00  0.00    -0.532 OA
ATOM     19  O   UNL d   1       5.597   3.253   2.536  0.00  0.00    -0.532 OA
ENDBRANCH  12  17
BRANCH  14  20
ATOM     20  C   UNL d   1       2.209   8.041   1.595  0.00  0.00     0.417 C 
ATOM     21  F   UNL d   1       2.662   8.483   2.801  0.00  0.00    -0.166 F 
ATOM     22  F   UNL d   1       2.395   9.066   0.722  0.00  0.00    -0.166 F 
ATOM     23  F   UNL d   1       0.862   7.901   1.733  0.00  0.00    -0.166 F 
ENDBRANCH  14  20
ENDBRANCH   9  11
ENDBRANCH   1   9
BRANCH   4  24
ATOM     24  C   UNL d   1       2.893   0.346  -3.385  0.00  0.00     0.026 C 
BRANCH  24  25
ATOM     25  C   UNL d   1       1.956  -0.506  -4.246  0.00  0.00     0.146 C 
BRANCH  25  26
ATOM     26  S   UNL d   1       0.211  -0.406  -3.913  0.00  0.00     0.175 S 
ATOM     27  O   UNL d   1      -0.462  -1.195  -4.929  0.00  0.00    -0.223 OA
ATOM     28  O   UNL d   1      -0.030  -0.693  -2.513  0.00  0.00    -0.223 OA
BRANCH  26  29
ATOM     29  C   UNL d   1      -0.247   1.290  -4.199  0.00  0.00     0.059 A 
ATOM     30  C   UNL d   1      -0.769   1.661  -5.447  0.00  0.00     0.025 A 
ATOM     31  C   UNL d   1      -1.228   2.965  -5.643  0.00  0.00     0.025 A 
ATOM     32  C   UNL d   1      -1.174   3.883  -4.594  0.00  0.00     0.034 A 
ATOM     33  C   UNL d   1      -0.663   3.511  -3.349  0.00  0.00     0.025 A 
ATOM     34 CL   UNL d   1      -1.763   5.483  -4.829  0.00  0.00    -0.084 Cl
ATOM     35  C   UNL d   1      -0.204   2.207  -3.145  0.00  0.00     0.025 A 
ENDBRANCH  26  29
ENDBRANCH  25  26
ENDBRANCH  24  25
ENDBRANCH   4  24
TORSDOF 8
