REMARK  2 active torsions:
REMARK  status: ('A' for Active; 'I' for Inactive)
REMARK    1  A    between atoms: S_9  and  C_1 
REMARK    2  A    between atoms: C_6  and  S_9 
ROOT
ATOM      1  C   UNL d   1       3.539  -1.625   1.481  0.00  0.00     0.117 A 
ATOM      2  N   UNL d   1       4.134  -1.733   2.647  0.00  0.00    -0.344 N 
ATOM      3  HN  UNL d   1       5.060  -2.134   2.798  1.00  0.00     0.167 HD
ATOM      4  S   UNL d   1       1.978  -0.926   1.494  0.00  0.00    -0.063 SA
ATOM      5  C   UNL d   1       3.316  -1.221   3.641  0.00  0.00     0.052 A 
ATOM      6  C   UNL d   1       2.083  -0.728   3.202  0.00  0.00     0.034 A 
ATOM      7  C   UNL d   1       3.625  -1.159   5.014  0.00  0.00     0.054 A 
ATOM      8  C   UNL d   1       1.147  -0.172   4.090  0.00  0.00     0.023 A 
ATOM      9  C   UNL d   1       2.696  -0.610   5.901  0.00  0.00     0.036 A 
ATOM     10  C   UNL d   1       1.474  -0.122   5.449  0.00  0.00     0.025 A 
ATOM     11 CL   UNL d   1       3.069  -0.537   7.581  0.00  0.00    -0.084 Cl
ENDROOT
BRANCH   1  12
ATOM     12  S   UNL d   1       4.349  -2.114   0.003  0.00  0.00    -0.069 SA
BRANCH  12  13
ATOM     13  C   UNL d   1       3.808  -3.775  -0.050  0.00  0.00    -0.011 C 
ATOM     14  C   UNL d   1       3.026  -4.170  -1.068  0.00  0.00     0.064 C 
ATOM     15  C   UNL d   1       2.610  -5.585  -1.206  0.00  0.00     0.151 C 
ATOM     16  O   UNL d   1       1.939  -5.917  -2.180  0.00  0.00    -0.293 OA
ATOM     17  C   UNL d   1       3.086  -6.598  -0.184  0.00  0.00     0.092 C 
ATOM     18  C   UNL d   1       3.385  -5.967   1.186  0.00  0.00    -0.036 C 
ATOM     19  C   UNL d   1       4.307  -4.741   0.999  0.00  0.00     0.055 C 
ATOM     20  C   UNL d   1       4.099  -7.000   2.076  0.00  0.00     0.015 C 
ATOM     21  C   UNL d   1       2.071  -5.559   1.887  0.00  0.00     0.015 C 
ENDBRANCH  12  13
ENDBRANCH   1  12
TORSDOF 2
