REMARK  5 active torsions:
REMARK  status: ('A' for Active; 'I' for Inactive)
REMARK    1  A    between atoms: C_6  and  C_1 
REMARK    2  A    between atoms: C_4  and  C_5 
REMARK       I    between atoms: N_12  and  C_6 
REMARK       I    between atoms: C_11  and  N_14 
REMARK    3  A    between atoms: C_16  and  C_11 
REMARK    4  A    between atoms: N_14  and  N_12 
REMARK    5  A    between atoms: C_17  and  C_18 
ROOT
ATOM      1  C   UNL d   1      -1.028   2.040   0.597  0.00  0.00     0.277 C 
ATOM      2  N   UNL d   1      -1.330   3.223  -0.056  0.00  0.00    -0.263 N 
ATOM      3  O   UNL d   1      -1.842   1.537   1.372  0.00  0.00    -0.265 OA
ATOM      4  H   UNL d   1      -0.676   3.711  -0.664  0.00  0.00     0.190 HD
ENDROOT
BRANCH   1   5
ATOM      5  C   UNL d   1       0.273   1.447   0.320  0.00  0.00     0.077 A 
ATOM      6  S   UNL d   1       1.393   2.123  -0.785  0.00  0.00    -0.083 SA
ATOM      7  C   UNL d   1       2.566   0.902  -0.478  0.00  0.00     0.033 A 
ATOM      8  C   UNL d   1       3.854   0.755  -1.018  0.00  0.00     0.038 A 
ATOM      9  C   UNL d   1       2.091  -0.023   0.449  0.00  0.00     0.050 A 
ATOM     10  C   UNL d   1       4.621  -0.330  -0.579  0.00  0.00     0.064 A 
ATOM     11  C   UNL d   1       4.061  -1.196   0.348  0.00  0.00     0.104 A 
ATOM     12  N   UNL d   1       2.824  -1.087   0.873  0.00  0.00    -0.364 N 
ATOM     13  HN  UNL d   1       2.461  -1.761   1.547  1.00  0.00     0.165 HD
ATOM     14  C   UNL d   1       0.774   0.290   0.886  0.00  0.00     0.055 A 
BRANCH  10  15
ATOM     15  C   UNL d   1       6.016  -0.584  -1.064  0.00  0.00     0.418 C 
ATOM     16  F   UNL d   1       6.445   0.323  -1.984  0.00  0.00    -0.166 F 
ATOM     17  F   UNL d   1       6.930  -0.555  -0.056  0.00  0.00    -0.166 F 
ATOM     18  F   UNL d   1       6.149  -1.804  -1.652  0.00  0.00    -0.166 F 
ENDBRANCH  10  15
ENDBRANCH   1   5
BRANCH   2  19
ATOM     19  N   UNL d   1      -2.558   3.853   0.202  0.00  0.00    -0.263 N 
ATOM     20  C   UNL d   1      -2.684   5.190  -0.119  0.00  0.00     0.270 C 
ATOM     21  O   UNL d   1      -1.750   5.834  -0.594  0.00  0.00    -0.266 OA
ATOM     22  H   UNL d   1      -3.203   3.347   0.804  0.00  0.00     0.190 HD
BRANCH  20  23
ATOM     23  C   UNL d   1      -4.018   5.830   0.103  0.00  0.00     0.033 A 
ATOM     24  C   UNL d   1      -5.190   5.103   0.328  0.00  0.00     0.017 A 
ATOM     25  C   UNL d   1      -6.428   5.763   0.411  0.00  0.00     0.009 A 
ATOM     26  C   UNL d   1      -6.537   7.159   0.264  0.00  0.00    -0.051 A 
ATOM     27  C   UNL d   1      -5.344   7.873   0.072  0.00  0.00     0.009 A 
ATOM     28  C   UNL d   1      -4.106   7.221  -0.009  0.00  0.00     0.017 A 
BRANCH  26  29
ATOM     29  C   UNL d   1      -7.920   7.843   0.274  0.00  0.00    -0.024 C 
ATOM     30  C   UNL d   1      -7.853   9.375   0.074  0.00  0.00     0.019 C 
ATOM     31  C   UNL d   1      -8.788   7.276  -0.872  0.00  0.00     0.019 C 
ATOM     32  C   UNL d   1      -8.638   7.588   1.615  0.00  0.00     0.019 C 
ENDBRANCH  26  29
ENDBRANCH  20  23
ENDBRANCH   2  19
TORSDOF 5
