REMARK  6 active torsions:
REMARK  status: ('A' for Active; 'I' for Inactive)
REMARK    1  A    between atoms: C_2  and  C_1 
REMARK       I    between atoms: N_8  and  C_1 
REMARK    2  A    between atoms: C_3  and  C_2 
REMARK    3  A    between atoms: O_14  and  C_7 
REMARK    4  A    between atoms: C_18  and  N_8 
REMARK    5  A    between atoms: C_9  and  C_10 
REMARK    6  A    between atoms: C_20  and  O_14 
ROOT
ATOM      1  N   UNL d   1      -3.529   0.152   1.812  0.00  0.00    -0.344 N 
ATOM      2  HN  UNL d   1      -4.174  -0.339   2.431  1.00  0.00     0.167 HD
ATOM      3  C   UNL d   1      -3.975   1.005   0.865  0.00  0.00     0.148 A 
ATOM      4  C   UNL d   1      -1.255   0.645   1.118  0.00  0.00     0.050 A 
ATOM      5  C   UNL d   1      -2.190  -0.024   1.905  0.00  0.00     0.119 A 
ATOM      6  C   UNL d   1      -3.128   1.751   0.059  0.00  0.00     0.059 A 
ATOM      7  C   UNL d   1      -1.748   1.568   0.194  0.00  0.00     0.035 A 
ENDROOT
BRANCH   3   8
ATOM      8  O   UNL d   1      -5.341   1.171   0.686  0.00  0.00    -0.294 OA
BRANCH   8   9
ATOM      9  C   UNL d   1      -6.146   0.076   0.922  0.00  0.00     0.077 A 
ATOM     10  C   UNL d   1      -7.399   0.312   1.481  0.00  0.00     0.038 A 
ATOM     11  C   UNL d   1      -8.273  -0.757   1.723  0.00  0.00     0.011 A 
ATOM     12  C   UNL d   1      -7.922  -2.085   1.404  0.00  0.00    -0.050 A 
ATOM     13  C   UNL d   1      -6.663  -2.291   0.820  0.00  0.00     0.011 A 
ATOM     14  C   UNL d   1      -5.795  -1.225   0.564  0.00  0.00     0.038 A 
BRANCH  12  15
ATOM     15  C   UNL d   1      -8.897  -3.244   1.677  0.00  0.00    -0.024 C 
ATOM     16  C   UNL d   1      -8.341  -4.631   1.282  0.00  0.00     0.019 C 
ATOM     17  C   UNL d   1      -9.239  -3.306   3.181  0.00  0.00     0.019 C 
ATOM     18  C   UNL d   1     -10.193  -3.025   0.869  0.00  0.00     0.019 C 
ENDBRANCH  12  15
ENDBRANCH   8   9
ENDBRANCH   3   8
BRANCH   4  19
ATOM     19  N   UNL d   1       0.141   0.475   1.236  0.00  0.00    -0.326 N 
ATOM     20  C   UNL d   1       0.771  -0.536   1.945  0.00  0.00     0.226 C 
ATOM     21  O   UNL d   1       0.222  -1.538   2.395  0.00  0.00    -0.273 OA
ATOM     22  H   UNL d   1       0.731   1.091   0.688  0.00  0.00     0.169 HD
BRANCH  20  23
ATOM     23  C   UNL d   1       2.252  -0.290   2.170  0.00  0.00     0.149 C 
BRANCH  23  24
ATOM     24  C   UNL d   1       3.065  -0.820   1.033  0.00  0.00    -0.009 A 
ATOM     25  S   UNL d   1       3.534   0.216  -0.249  0.00  0.00    -0.106 SA
ATOM     26  C   UNL d   1       4.434  -1.025  -1.005  0.00  0.00     0.050 A 
ATOM     27  C   UNL d   1       4.367  -2.210  -0.309  0.00  0.00     0.008 A 
ATOM     28  C   UNL d   1       3.568  -2.095   0.865  0.00  0.00     0.015 A 
ENDBRANCH  23  24
ENDBRANCH  20  23
ENDBRANCH   4  19
TORSDOF 6
