REMARK  6 active torsions:
REMARK  status: ('A' for Active; 'I' for Inactive)
REMARK    1  A    between atoms: C_9  and  N_1 
REMARK    2  A    between atoms: C_2  and  S_11 
REMARK    3  A    between atoms: C_6  and  C_4 
REMARK    4  A    between atoms: S_11  and  C_16 
REMARK    5  A    between atoms: C_12  and  C_14 
REMARK    6  A    between atoms: C_16  and  C_12 
ROOT
ATOM      1  C   UNL d   1      -4.952  -3.247  -3.515  0.00  0.00     0.041 C 
ATOM      2  S   UNL d   1      -6.016  -4.611  -3.392  0.00  0.00    -0.113 SA
ATOM      3  C   UNL d   1      -7.016  -4.402  -4.900  0.00  0.00     0.095 C 
ATOM      4  C   UNL d   1      -5.381  -2.075  -3.999  0.00  0.00     0.075 C 
ATOM      5  C   UNL d   1      -6.723  -1.843  -4.570  0.00  0.00     0.152 C 
ATOM      6  C   UNL d   1      -7.590  -2.991  -5.027  0.00  0.00     0.103 C 
ATOM      7  O   UNL d   1      -7.103  -0.680  -4.708  0.00  0.00    -0.293 OA
ENDROOT
BRANCH   1   8
ATOM      8  S   UNL d   1      -3.265  -3.335  -3.063  0.00  0.00    -0.115 SA
BRANCH   8   9
ATOM      9  C   UNL d   1      -3.134  -4.783  -1.982  0.00  0.00     0.163 C 
BRANCH   9  10
ATOM     10  C   UNL d   1      -3.794  -4.557  -0.633  0.00  0.00     0.169 C 
ATOM     11  O   UNL d   1      -3.851  -3.448  -0.101  0.00  0.00    -0.291 OA
BRANCH  10  12
ATOM     12  C   UNL d   1      -4.343  -5.729   0.124  0.00  0.00     0.011 A 
ATOM     13  C   UNL d   1      -4.279  -7.048  -0.342  0.00  0.00     0.017 A 
ATOM     14  C   UNL d   1      -4.838  -8.095   0.405  0.00  0.00     0.037 A 
ATOM     15  C   UNL d   1      -5.459  -7.821   1.631  0.00  0.00     0.102 A 
ATOM     16  C   UNL d   1      -5.511  -6.513   2.120  0.00  0.00     0.037 A 
ATOM     17  C   UNL d   1      -4.955  -5.475   1.365  0.00  0.00     0.017 A 
BRANCH  15  18
ATOM     18  N   UNL d   1      -6.062  -8.914   2.404  0.00  0.00    -0.116 N 
ATOM     19  O   UNL d   1      -6.571  -8.634   3.498  0.00  0.00    -0.532 OA
ATOM     20  O   UNL d   1      -6.028 -10.052   1.913  0.00  0.00    -0.532 OA
ENDBRANCH  15  18
ENDBRANCH  10  12
ENDBRANCH   9  10
ENDBRANCH   8   9
ENDBRANCH   1   8
BRANCH   3  21
ATOM     21  C   UNL d   1      -6.298  -4.969  -6.122  0.00  0.00    -0.022 A 
ATOM     22  C   UNL d   1      -6.464  -6.315  -6.518  0.00  0.00     0.041 A 
ATOM     23 CL   UNL d   1      -7.502  -7.415  -5.673  0.00  0.00    -0.084 Cl
ATOM     24  C   UNL d   1      -5.783  -6.834  -7.626  0.00  0.00     0.024 A 
ATOM     25  C   UNL d   1      -4.910  -6.031  -8.353  0.00  0.00     0.002 A 
ATOM     26  C   UNL d   1      -4.721  -4.706  -7.976  0.00  0.00     0.001 A 
ATOM     27  C   UNL d   1      -5.409  -4.180  -6.878  0.00  0.00     0.010 A 
ENDBRANCH   3  21
TORSDOF 6
