REMARK  3 active torsions:
REMARK  status: ('A' for Active; 'I' for Inactive)
REMARK    1  A    between atoms: O_16  and  C_4 
REMARK    2  A    between atoms: C_8  and  C_5 
REMARK    3  A    between atoms: S_15  and  C_6 
ROOT
ATOM      1  C   UNL d   1      -0.777   1.266   0.051  0.00  0.00     0.112 A 
ATOM      2  N   UNL d   1      -0.706  -1.165   0.029  0.00  0.00    -0.334 N 
ATOM      3  HN  UNL d   1      -1.200  -2.057   0.030  1.00  0.00     0.168 HD
ATOM      4  C   UNL d   1      -1.362   0.009   0.048  0.00  0.00     0.163 A 
ATOM      5  C   UNL d   1       0.646  -1.101   0.011  0.00  0.00     0.069 A 
ATOM      6  C   UNL d   1       0.620   1.312   0.048  0.00  0.00     0.027 A 
ATOM      7  C   UNL d   1       1.337   0.107   0.028  0.00  0.00     0.052 A 
ATOM      8  C   UNL d   1      -1.600   2.434   0.023  0.00  0.00     0.105 C 
ATOM      9  N   UNL d   1      -2.251   3.394   0.020  0.00  0.00    -0.191 NA
ENDROOT
BRANCH   4  10
ATOM     10  O   UNL d   1      -2.711  -0.154   0.035  0.00  0.00    -0.345 OA
ATOM     11  H   UNL d   1      -2.781  -1.126  -0.005  0.00  0.00     0.219 HD
ENDBRANCH   4  10
BRANCH   6  12
ATOM     12  S   UNL d   1       1.591   2.817  -0.086  0.00  0.00    -0.133 SA
ATOM     13  C   UNL d   1       1.239   3.616   1.504  0.00  0.00     0.095 C 
ENDBRANCH   6  12
BRANCH   5  14
ATOM     14  C   UNL d   1       1.320  -2.390  -0.080  0.00  0.00     0.101 A 
ATOM     15  O   UNL d   1       2.688  -2.371  -0.104  0.00  0.00    -0.321 OA
ATOM     16  C   UNL d   1       3.110  -3.656  -0.221  0.00  0.00     0.142 A 
ATOM     17  C   UNL d   1       2.036  -4.512  -0.268  0.00  0.00     0.027 A 
ATOM     18  C   UNL d   1       0.881  -3.698  -0.173  0.00  0.00     0.041 A 
ENDBRANCH   5  14
TORSDOF 3
