REMARK  4 active torsions:
REMARK  status: ('A' for Active; 'I' for Inactive)
REMARK    1  A    between atoms: N_7  and  C_2 
REMARK    2  A    between atoms: C_8  and  C_4 
REMARK    3  A    between atoms: O_14  and  C_8 
REMARK    4  A    between atoms: C_19  and  O_14 
ROOT
ATOM      1  C   UNL d   1       0.190  -0.785   0.054  0.00  0.00     0.051 C 
ATOM      2  C   UNL d   1       1.334  -1.569   0.043  0.00  0.00     0.087 C 
ATOM      3  C   UNL d   1       0.486   0.631   0.065  0.00  0.00    -0.018 C 
ATOM      4  C   UNL d   1       1.853   0.872   0.037  0.00  0.00     0.089 C 
ATOM      5  S   UNL d   1       2.730  -0.587   0.186  0.00  0.00    -0.065 SA
ATOM      6  C   UNL d   1      -1.192  -1.279   0.025  0.00  0.00     0.163 C 
ATOM      7  C   UNL d   1      -0.603   1.675   0.018  0.00  0.00     0.050 C 
ATOM      8  C   UNL d   1      -2.000   1.116   0.404  0.00  0.00    -0.037 C 
ATOM      9  C   UNL d   1      -2.253  -0.238  -0.292  0.00  0.00     0.093 C 
ATOM     10  O   UNL d   1      -1.516  -2.455   0.178  0.00  0.00    -0.292 OA
ATOM     11  C   UNL d   1      -3.085   2.107  -0.059  0.00  0.00     0.015 C 
ATOM     12  C   UNL d   1      -2.119   0.961   1.934  0.00  0.00     0.015 C 
ENDROOT
BRANCH   2  13
ATOM     13  N   UNL d   1       1.407  -2.933  -0.105  0.00  0.00    -0.374 N 
ATOM     14  C   UNL d   1       2.491  -3.671   0.557  0.00  0.00     0.123 C 
ATOM     15  C   UNL d   1       2.087  -5.138   0.698  0.00  0.00     0.020 C 
ATOM     16  C   UNL d   1       1.731  -5.745  -0.657  0.00  0.00     0.003 C 
ATOM     17  C   UNL d   1       0.669  -4.910  -1.364  0.00  0.00     0.020 C 
ATOM     18  C   UNL d   1       1.077  -3.442  -1.447  0.00  0.00     0.123 C 
ENDBRANCH   2  13
BRANCH   4  19
ATOM     19  C   UNL d   1       2.546   2.140  -0.150  0.00  0.00     0.300 C 
ATOM     20  O   UNL d   1       1.996   3.215  -0.361  0.00  0.00    -0.259 OA
BRANCH  19  21
ATOM     21  O   UNL d   1       3.899   1.958  -0.172  0.00  0.00    -0.317 OA
BRANCH  21  22
ATOM     22  C   UNL d   1       4.677   2.992  -0.784  0.00  0.00     0.174 C 
ATOM     23  C   UNL d   1       4.751   2.717  -2.276  0.00  0.00     0.034 C 
ENDBRANCH  21  22
ENDBRANCH  19  21
ENDBRANCH   4  19
TORSDOF 4
