REMARK  4 active torsions:
REMARK  status: ('A' for Active; 'I' for Inactive)
REMARK    1  A    between atoms: S_15  and  C_3 
REMARK    2  A    between atoms: C_7  and  C_4 
REMARK    3  A    between atoms: O_16  and  N_11 
REMARK    4  A    between atoms: O_17  and  N_13 
ROOT
ATOM      1  C   UNL d   1      -2.231  -0.528  -0.325  0.00  0.00     0.020 C 
ATOM      2  C   UNL d   1      -2.009   0.706  -1.075  0.00  0.00    -0.024 C 
ATOM      3  C   UNL d   1      -3.484  -0.568   0.258  0.00  0.00     0.054 C 
ATOM      4  C   UNL d   1      -3.185   1.436  -1.232  0.00  0.00     0.037 C 
ATOM      5  S   UNL d   1      -4.422   0.776  -0.237  0.00  0.00    -0.080 SA
ATOM      6  C   UNL d   1      -1.135  -1.487  -0.221  0.00  0.00     0.045 C 
ATOM      7  C   UNL d   1      -0.631   1.052  -1.619  0.00  0.00     0.050 C 
ATOM      8  C   UNL d   1       0.449  -0.064  -1.478  0.00  0.00    -0.038 C 
ATOM      9  C   UNL d   1       0.241  -0.858  -0.165  0.00  0.00     0.069 C 
ATOM     10  N   UNL d   1      -1.205  -2.777  -0.348  0.00  0.00    -0.273 N 
ATOM     11  HN  UNL d   1      -0.411  -3.399  -0.200  1.00  0.00     0.194 HD
ATOM     12  C   UNL d   1       1.846   0.584  -1.440  0.00  0.00     0.015 C 
ATOM     13  C   UNL d   1       0.402  -1.008  -2.699  0.00  0.00     0.015 C 
ENDROOT
BRANCH   4  14
ATOM     14  C   UNL d   1      -3.533   2.602  -2.056  0.00  0.00     0.045 C 
ATOM     15  N   UNL d   1      -2.804   3.647  -2.328  0.00  0.00    -0.272 N 
ATOM     16  HN  UNL d   1      -3.104   4.370  -2.982  1.00  0.00     0.194 HD
ATOM     17  C   UNL d   1      -4.919   2.649  -2.690  0.00  0.00     0.071 C 
BRANCH  15  18
ATOM     18  O   UNL d   1      -1.588   3.702  -1.661  0.00  0.00    -0.290 OA
ATOM     19  H   UNL d   1      -1.183   4.507  -2.034  0.00  0.00     0.244 HD
ENDBRANCH  15  18
ENDBRANCH   4  14
BRANCH   3  20
ATOM     20  S   UNL d   1      -4.247  -1.709   1.368  0.00  0.00    -0.126 SA
ATOM     21  C   UNL d   1      -2.906  -2.231   2.450  0.00  0.00     0.096 C 
ENDBRANCH   3  20
BRANCH  10  22
ATOM     22  O   UNL d   1      -2.476  -3.227  -0.705  0.00  0.00    -0.290 OA
ATOM     23  H   UNL d   1      -2.353  -4.192  -0.779  0.00  0.00     0.244 HD
ENDBRANCH  10  22
TORSDOF 4
