REMARK  5 active torsions:
REMARK  status: ('A' for Active; 'I' for Inactive)
REMARK    1  A    between atoms: S_2  and  C_1 
REMARK    2  A    between atoms: C_17  and  S_2 
REMARK    3  A    between atoms: C_3  and  N_9 
REMARK    4  A    between atoms: C_16  and  C_4 
REMARK    5  A    between atoms: C_8  and  C_6 
REMARK       I    between atoms: N_9  and  C_8 
ROOT
ATOM      1  C   UNL d   1       0.642   1.253   0.005  0.00  0.00     0.078 A 
ATOM      2  C   UNL d   1       0.222  -1.063   0.012  0.00  0.00     0.080 A 
ATOM      3  C   UNL d   1       1.219  -0.076  -0.051  0.00  0.00    -0.017 A 
ATOM      4  S   UNL d   1      -1.327  -0.364   0.234  0.00  0.00    -0.094 SA
ATOM      5  C   UNL d   1      -0.732   1.220   0.093  0.00  0.00     0.075 A 
ATOM      6  C   UNL d   1       2.695  -0.348  -0.134  0.00  0.00     0.051 C 
ENDROOT
BRANCH   2   7
ATOM      7  C   UNL d   1       0.431  -2.521   0.131  0.00  0.00     0.267 C 
ATOM      8  N   UNL d   1      -0.401  -3.444  -0.557  0.00  0.00    -0.297 N 
ATOM      9  C   UNL d   1      -1.454  -3.010  -1.482  0.00  0.00     0.162 C 
ATOM     10  O   UNL d   1       1.377  -2.882   0.831  0.00  0.00    -0.266 OA
BRANCH   8  11
ATOM     11  C   UNL d   1      -0.208  -4.836  -0.429  0.00  0.00     0.170 A 
ATOM     12  S   UNL d   1       0.899  -5.567   0.653  0.00  0.00    -0.029 SA
ATOM     13  C   UNL d   1       0.451  -7.100   0.034  0.00  0.00     0.177 A 
ATOM     14  N   UNL d   1      -0.498  -7.031  -0.880  0.00  0.00    -0.288 N 
ATOM     15  N   UNL d   1      -0.883  -5.730  -1.130  0.00  0.00    -0.279 N 
ATOM     16  HN  UNL d   1      -0.900  -7.844  -1.346  1.00  0.00     0.187 HD
ATOM     17  HN  UNL d   1      -1.618  -5.482  -1.792  1.00  0.00     0.189 HD
BRANCH  13  18
ATOM     18  C   UNL d   1       1.103  -8.349   0.525  0.00  0.00     0.440 C 
ATOM     19  F   UNL d   1       2.084  -8.123   1.442  0.00  0.00    -0.164 F 
ATOM     20  F   UNL d   1       0.214  -9.188   1.123  0.00  0.00    -0.164 F 
ATOM     21  F   UNL d   1       1.686  -9.053  -0.482  0.00  0.00    -0.164 F 
ENDBRANCH  13  18
ENDBRANCH   8  11
ENDBRANCH   2   7
BRANCH   1  22
ATOM     22  S   UNL d   1       1.508   2.772   0.037  0.00  0.00     0.207 S 
ATOM     23  O   UNL d   1       2.810   2.513  -0.537  0.00  0.00    -0.217 OA
ATOM     24  O   UNL d   1       0.588   3.731  -0.544  0.00  0.00    -0.217 OA
BRANCH  22  25
ATOM     25  C   UNL d   1       1.697   3.146   1.762  0.00  0.00     0.064 A 
ATOM     26  C   UNL d   1       2.869   2.775   2.432  0.00  0.00     0.025 A 
ATOM     27  C   UNL d   1       3.017   3.091   3.785  0.00  0.00     0.025 A 
ATOM     28  C   UNL d   1       2.006   3.787   4.454  0.00  0.00     0.034 A 
ATOM     29  C   UNL d   1       0.849   4.174   3.778  0.00  0.00     0.025 A 
ATOM     30 CL   UNL d   1       2.194   4.173   6.117  0.00  0.00    -0.084 Cl
ATOM     31  C   UNL d   1       0.694   3.861   2.426  0.00  0.00     0.025 A 
ENDBRANCH  22  25
ENDBRANCH   1  22
TORSDOF 5
