REMARK  5 active torsions:
REMARK  status: ('A' for Active; 'I' for Inactive)
REMARK    1  A    between atoms: C_7  and  C_1 
REMARK    2  A    between atoms: C_19  and  C_6 
REMARK    3  A    between atoms: O_12  and  N_8 
REMARK    4  A    between atoms: C_10  and  O_12 
REMARK    5  A    between atoms: C_11  and  C_10 
ROOT
ATOM      1  C   UNL d   1      -1.409   2.253  -0.034  0.00  0.00     0.064 C 
ATOM      2  N   UNL d   1      -0.887   3.446  -0.031  0.00  0.00    -0.259 N 
ATOM      3  HN  UNL d   1      -1.431   4.308  -0.068  1.00  0.00     0.194 HD
ATOM      4  C   UNL d   1      -0.570   0.993   0.006  0.00  0.00     0.073 C 
ENDROOT
BRANCH   1   5
ATOM      5  C   UNL d   1      -2.846   2.134  -0.074  0.00  0.00     0.125 A 
ATOM      6  C   UNL d   1      -3.859   3.067  -0.108  0.00  0.00     0.073 A 
ATOM      7  C   UNL d   1      -5.065   2.315  -0.140  0.00  0.00     0.068 A 
ATOM      8  N   UNL d   1      -4.784   1.002  -0.132  0.00  0.00    -0.260 N 
ATOM      9  O   UNL d   1      -3.411   0.896  -0.084  0.00  0.00    -0.235 OA
ATOM     10  HN  UNL d   1      -5.455   0.234  -0.156  1.00  0.00     0.195 HD
BRANCH   7  11
ATOM     11  C   UNL d   1      -6.443   2.808  -0.188  0.00  0.00    -0.007 A 
ATOM     12  C   UNL d   1      -7.462   2.026  -0.755  0.00  0.00     0.014 A 
ATOM     13  C   UNL d   1      -8.774   2.502  -0.823  0.00  0.00     0.001 A 
ATOM     14  C   UNL d   1      -9.086   3.761  -0.317  0.00  0.00     0.000 A 
ATOM     15  C   UNL d   1      -8.088   4.544   0.261  0.00  0.00     0.001 A 
ATOM     16  C   UNL d   1      -6.773   4.071   0.325  0.00  0.00     0.014 A 
ENDBRANCH   7  11
ENDBRANCH   1   5
BRANCH   2  17
ATOM     17  O   UNL d   1       0.521   3.401   0.029  0.00  0.00    -0.195 OA
BRANCH  17  18
ATOM     18  C   UNL d   1       1.039   4.666   0.003  0.00  0.00     0.315 C 
ATOM     19  O   UNL d   1       0.427   5.719  -0.108  0.00  0.00    -0.257 OA
BRANCH  18  20
ATOM     20  C   UNL d   1       2.523   4.618   0.138  0.00  0.00     0.044 A 
ATOM     21  C   UNL d   1       3.227   5.832   0.094  0.00  0.00     0.041 A 
ATOM     22  C   UNL d   1       4.615   5.843   0.230  0.00  0.00     0.036 A 
ATOM     23 CL   UNL d   1       5.466   7.337   0.177  0.00  0.00    -0.084 Cl
ATOM     24  C   UNL d   1       5.320   4.657   0.410  0.00  0.00     0.047 A 
ATOM     25  C   UNL d   1       4.623   3.452   0.453  0.00  0.00     0.036 A 
ATOM     26  C   UNL d   1       3.232   3.422   0.318  0.00  0.00     0.041 A 
ATOM     27 CL   UNL d   1       5.485   1.980   0.680  0.00  0.00    -0.084 Cl
ENDBRANCH  18  20
ENDBRANCH  17  18
ENDBRANCH   2  17
TORSDOF 5
