REMARK  3 active torsions:
REMARK  status: ('A' for Active; 'I' for Inactive)
REMARK    1  A    between atoms: S_2  and  N_1 
REMARK    2  A    between atoms: C_15  and  S_2 
REMARK    3  A    between atoms: C_17  and  C_11 
ROOT
ATOM      1  N   UNL d   1       0.883  -0.658  -0.016  0.00  0.00    -0.175 N 
ATOM      2  C   UNL d   1      -0.399  -1.169   0.164  0.00  0.00     0.106 C 
ATOM      3  C   UNL d   1      -0.734  -2.501   0.553  0.00  0.00     0.130 A 
ATOM      4  C   UNL d   1      -1.778  -3.325   0.174  0.00  0.00     0.074 A 
ATOM      5  N   UNL d   1      -0.504  -4.423   1.681  0.00  0.00    -0.260 N 
ATOM      6  HN  UNL d   1      -0.145  -5.126   2.327  1.00  0.00     0.195 HD
ATOM      7  O   UNL d   1      -0.008  -3.167   1.490  0.00  0.00    -0.235 OA
ATOM      8  N   UNL d   1       0.872   0.706  -0.151  0.00  0.00    -0.295 N 
ATOM      9  HN  UNL d   1       1.671   1.340  -0.181  1.00  0.00     0.187 HD
ATOM     10  C   UNL d   1      -1.554  -4.558   0.857  0.00  0.00     0.068 A 
ATOM     11  C   UNL d   1      -1.253  -0.106  -0.069  0.00  0.00     0.054 C 
ATOM     12  C   UNL d   1      -0.420   1.013  -0.233  0.00  0.00     0.111 C 
ENDROOT
BRANCH   1  13
ATOM     13  S   UNL d   1       2.345  -1.607  -0.049  0.00  0.00     0.282 S 
ATOM     14  O   UNL d   1       1.978  -2.910  -0.566  0.00  0.00    -0.198 OA
ATOM     15  O   UNL d   1       3.337  -0.790  -0.734  0.00  0.00    -0.198 OA
BRANCH  13  16
ATOM     16  C   UNL d   1       2.855  -1.736   1.643  0.00  0.00     0.081 A 
ATOM     17  C   UNL d   1       3.013  -2.996   2.229  0.00  0.00     0.025 A 
ATOM     18  C   UNL d   1       3.462  -3.093   3.547  0.00  0.00     0.002 A 
ATOM     19  C   UNL d   1       3.769  -1.938   4.268  0.00  0.00     0.000 A 
ATOM     20  C   UNL d   1       3.628  -0.682   3.675  0.00  0.00     0.002 A 
ATOM     21  C   UNL d   1       3.173  -0.575   2.359  0.00  0.00     0.025 A 
ENDBRANCH  13  16
ENDBRANCH   1  13
BRANCH  10  22
ATOM     22  C   UNL d   1      -2.232  -5.855   0.737  0.00  0.00    -0.007 A 
ATOM     23  C   UNL d   1      -3.369  -6.045  -0.059  0.00  0.00     0.014 A 
ATOM     24  C   UNL d   1      -3.904  -7.329  -0.235  0.00  0.00     0.001 A 
ATOM     25  C   UNL d   1      -3.315  -8.432   0.384  0.00  0.00     0.000 A 
ATOM     26  C   UNL d   1      -2.209  -8.255   1.208  0.00  0.00     0.001 A 
ATOM     27  C   UNL d   1      -1.681  -6.976   1.385  0.00  0.00     0.014 A 
ENDBRANCH  10  22
TORSDOF 3
