REMARK  5 active torsions:
REMARK  status: ('A' for Active; 'I' for Inactive)
REMARK    1  A    between atoms: S_14  and  C_2 
REMARK    2  A    between atoms: C_6  and  C_4 
REMARK       I    between atoms: N_13  and  C_6 
REMARK    3  A    between atoms: N_8  and  N_13 
REMARK    4  A    between atoms: C_10  and  C_17 
REMARK    5  A    between atoms: O_20  and  N_11 
ROOT
ATOM      1  C   UNL d   1       0.436   0.708  -0.113  0.00  0.00     0.020 A 
ATOM      2  C   UNL d   1       1.802   0.936  -0.158  0.00  0.00     0.054 A 
ATOM      3  C   UNL d   1       0.156  -0.717  -0.054  0.00  0.00    -0.021 A 
ATOM      4  C   UNL d   1       1.302  -1.504  -0.025  0.00  0.00     0.082 A 
ATOM      5  S   UNL d   1       2.698  -0.533  -0.159  0.00  0.00    -0.076 SA
ATOM      6  C   UNL d   1      -0.672   1.684  -0.081  0.00  0.00     0.044 C 
ATOM      7  N   UNL d   1      -0.453   2.934  -0.359  0.00  0.00    -0.271 N 
ATOM      8  HN  UNL d   1       0.455   3.319  -0.619  1.00  0.00     0.194 HD
ATOM      9  C   UNL d   1      -1.256  -1.245   0.031  0.00  0.00     0.041 C 
ATOM     10  C   UNL d   1      -2.046   1.126   0.299  0.00  0.00     0.060 C 
ATOM     11  C   UNL d   1      -2.284  -0.205  -0.402  0.00  0.00     0.011 C 
ENDROOT
BRANCH   4  12
ATOM     12  C   UNL d   1       1.357  -2.962   0.114  0.00  0.00     0.277 C 
ATOM     13  N   UNL d   1       2.611  -3.567   0.092  0.00  0.00    -0.266 N 
ATOM     14  H   UNL d   1       3.456  -3.016  -0.011  0.00  0.00     0.190 HD
ATOM     15  O   UNL d   1       0.330  -3.633   0.257  0.00  0.00    -0.265 OA
BRANCH  13  16
ATOM     16  N   UNL d   1       2.671  -4.928   0.198  0.00  0.00    -0.308 N 
ATOM     17  C   UNL d   1       3.832  -5.497   0.216  0.00  0.00     0.120 C 
ATOM     18  HN  UNL d   1       1.817  -5.484   0.261  1.00  0.00     0.186 HD
BRANCH  17  19
ATOM     19  C   UNL d   1       3.931  -6.978   0.305  0.00  0.00     0.002 A 
ATOM     20  C   UNL d   1       5.161  -7.645   0.331  0.00  0.00     0.045 A 
ATOM     21 CL   UNL d   1       6.677  -6.817   0.311  0.00  0.00    -0.083 Cl
ATOM     22  C   UNL d   1       5.195  -9.047   0.376  0.00  0.00     0.024 A 
ATOM     23  C   UNL d   1       4.010  -9.785   0.402  0.00  0.00     0.002 A 
ATOM     24  C   UNL d   1       2.784  -9.126   0.392  0.00  0.00     0.001 A 
ATOM     25  C   UNL d   1       2.744  -7.730   0.344  0.00  0.00     0.014 A 
ENDBRANCH  17  19
ENDBRANCH  13  16
ENDBRANCH   4  12
BRANCH   2  26
ATOM     26  S   UNL d   1       2.678   2.467  -0.112  0.00  0.00    -0.126 SA
ATOM     27  C   UNL d   1       2.771   2.861  -1.872  0.00  0.00     0.096 C 
ENDBRANCH   2  26
BRANCH   7  28
ATOM     28  O   UNL d   1      -1.638   3.684  -0.254  0.00  0.00    -0.285 OA
ATOM     29  C   UNL d   1      -1.378   5.036  -0.601  0.00  0.00     0.237 C 
ENDBRANCH   7  28
TORSDOF 5
