REMARK  7 active torsions:
REMARK  status: ('A' for Active; 'I' for Inactive)
REMARK    1  A    between atoms: C_3  and  C_1 
REMARK    2  A    between atoms: C_2  and  C_5 
REMARK    3  A    between atoms: O_6  and  C_3 
REMARK    4  A    between atoms: C_8  and  O_6 
REMARK    5  A    between atoms: C_25  and  C_11 
REMARK    6  A    between atoms: C_15  and  S_18 
REMARK    7  A    between atoms: S_18  and  C_25 
ROOT
ATOM      1  C   UNL d   1      -0.104   1.170  -0.113  0.00  0.00     0.151 A 
ATOM      2  O   UNL d   1      -0.909   0.057  -0.128  0.00  0.00    -0.308 OA
ATOM      3  C   UNL d   1       1.218   0.770  -0.034  0.00  0.00     0.046 A 
ATOM      4  C   UNL d   1      -0.101  -1.042  -0.057  0.00  0.00     0.063 A 
ATOM      5  C   UNL d   1       1.220  -0.646  -0.023  0.00  0.00     0.036 A 
ENDROOT
BRANCH   4   6
ATOM      6  C   UNL d   1      -0.766  -2.377  -0.027  0.00  0.00     0.145 C 
BRANCH   6   7
ATOM      7  S   UNL d   1      -0.399  -3.197   1.566  0.00  0.00    -0.106 SA
BRANCH   7   8
ATOM      8  C   UNL d   1      -1.251  -4.746   1.366  0.00  0.00     0.069 A 
ATOM      9  N   UNL d   1      -1.917  -4.987   0.217  0.00  0.00    -0.360 N 
ATOM     10  C   UNL d   1      -2.567  -6.173   0.110  0.00  0.00     0.105 A 
ATOM     11  HN  UNL d   1      -1.932  -4.305  -0.541  1.00  0.00     0.166 HD
ATOM     12  C   UNL d   1      -2.588  -7.145   1.099  0.00  0.00     0.063 A 
ATOM     13  C   UNL d   1      -1.884  -6.875   2.275  0.00  0.00     0.020 A 
ATOM     14  C   UNL d   1      -1.207  -5.664   2.410  0.00  0.00     0.038 A 
BRANCH  12  15
ATOM     15  C   UNL d   1      -3.338  -8.427   0.908  0.00  0.00     0.418 C 
ATOM     16  F   UNL d   1      -3.969  -8.515  -0.296  0.00  0.00    -0.166 F 
ATOM     17  F   UNL d   1      -2.530  -9.520   0.986  0.00  0.00    -0.166 F 
ATOM     18  F   UNL d   1      -4.305  -8.610   1.849  0.00  0.00    -0.166 F 
ENDBRANCH  12  15
ENDBRANCH   7   8
ENDBRANCH   6   7
ENDBRANCH   4   6
BRANCH   1  19
ATOM     19  C   UNL d   1      -0.685   2.491  -0.221  0.00  0.00     0.322 C 
ATOM     20  O   UNL d   1      -0.072   3.550  -0.165  0.00  0.00    -0.257 OA
BRANCH  19  21
ATOM     21  O   UNL d   1      -2.054   2.372  -0.467  0.00  0.00    -0.272 OA
BRANCH  21  22
ATOM     22  C   UNL d   1      -2.648   3.425  -1.182  0.00  0.00     0.101 A 
ATOM     23  C   UNL d   1      -2.278   3.721  -2.502  0.00  0.00     0.069 A 
ATOM     24  C   UNL d   1      -2.997   4.673  -3.225  0.00  0.00     0.050 A 
ATOM     25 CL   UNL d   1      -1.011   2.881  -3.321  0.00  0.00    -0.081 Cl
ATOM     26  C   UNL d   1      -4.099   5.295  -2.642  0.00  0.00     0.035 A 
ATOM     27  C   UNL d   1      -4.482   4.987  -1.335  0.00  0.00     0.026 A 
ATOM     28 CL   UNL d   1      -5.019   6.421  -3.561  0.00  0.00    -0.084 Cl
ATOM     29  C   UNL d   1      -3.753   4.050  -0.597  0.00  0.00     0.041 A 
ENDBRANCH  21  22
ENDBRANCH  19  21
ENDBRANCH   1  19
TORSDOF 7
