REMARK  6 active torsions:
REMARK  status: ('A' for Active; 'I' for Inactive)
REMARK    1  A    between atoms: C_3  and  C_1 
REMARK    2  A    between atoms: S_6  and  C_2 
REMARK    3  A    between atoms: N_14  and  C_3 
REMARK    4  A    between atoms: O_12  and  N_4 
REMARK    5  A    between atoms: C_15  and  S_6 
REMARK    6  A    between atoms: C_11  and  O_12 
ROOT
ATOM      1  C   UNL d   1      -2.996  -2.472   0.072  0.00  0.00     0.106 A 
ATOM      2  C   UNL d   1      -3.738  -3.628   0.363  0.00  0.00     0.105 A 
ATOM      3  N   UNL d   1      -3.587  -1.238  -0.091  0.00  0.00    -0.360 N 
ATOM      4  HN  UNL d   1      -3.041  -0.394  -0.261  1.00  0.00     0.165 HD
ATOM      5  N   UNL d   1      -5.101  -3.560   0.448  0.00  0.00    -0.357 N 
ATOM      6  HN  UNL d   1      -5.663  -4.386   0.654  1.00  0.00     0.166 HD
ATOM      7  C   UNL d   1      -4.934  -1.217  -0.011  0.00  0.00     0.105 A 
ATOM      8  C   UNL d   1      -5.674  -2.353   0.248  0.00  0.00     0.106 A 
ENDROOT
BRANCH   1   9
ATOM      9  C   UNL d   1      -1.486  -2.397  -0.067  0.00  0.00     0.128 C 
ATOM     10  N   UNL d   1      -0.782  -3.470   0.131  0.00  0.00    -0.244 N 
ATOM     11  HN  UNL d   1      -1.198  -4.381   0.324  1.00  0.00     0.196 HD
BRANCH  10  12
ATOM     12  O   UNL d   1       0.608  -3.260   0.054  0.00  0.00    -0.199 OA
BRANCH  12  13
ATOM     13  C   UNL d   1       1.116  -3.258   1.328  0.00  0.00     0.277 C 
ATOM     14  O   UNL d   1       0.611  -2.701   2.296  0.00  0.00    -0.264 OA
ATOM     15  C   UNL d   1       2.366  -4.075   1.398  0.00  0.00     0.128 C 
ENDBRANCH  12  13
ENDBRANCH  10  12
BRANCH   9  16
ATOM     16  N   UNL d   1      -0.937  -1.160  -0.347  0.00  0.00    -0.285 NA
ATOM     17  H   UNL d   1      -1.554  -0.383  -0.112  0.00  0.00     0.125 HD
ATOM     18  H   UNL d   1       0.014  -1.037  -0.021  0.00  0.00     0.125 HD
ENDBRANCH   9  16
ENDBRANCH   1   9
BRANCH   2  19
ATOM     19  S   UNL d   1      -3.133  -5.291   0.510  0.00  0.00    -0.070 SA
BRANCH  19  20
ATOM     20  C   UNL d   1      -2.651  -5.486   2.220  0.00  0.00     0.007 A 
ATOM     21  C   UNL d   1      -2.769  -6.769   2.777  0.00  0.00     0.020 A 
ATOM     22  C   UNL d   1      -2.284  -7.046   4.060  0.00  0.00     0.025 A 
ATOM     23  C   UNL d   1      -1.667  -6.041   4.796  0.00  0.00     0.034 A 
ATOM     24  C   UNL d   1      -1.555  -4.758   4.270  0.00  0.00     0.025 A 
ATOM     25 CL   UNL d   1      -1.012  -6.390   6.348  0.00  0.00    -0.084 Cl
ATOM     26  C   UNL d   1      -2.056  -4.483   2.989  0.00  0.00     0.020 A 
ENDBRANCH  19  20
ENDBRANCH   2  19
TORSDOF 6
