REMARK  5 active torsions:
REMARK  status: ('A' for Active; 'I' for Inactive)
REMARK    1  A    between atoms: S_19  and  C_4 
REMARK    2  A    between atoms: C_5  and  C_11 
REMARK    3  A    between atoms: O_14  and  N_8 
REMARK    4  A    between atoms: C_10  and  O_14 
REMARK    5  A    between atoms: C_15  and  C_10 
ROOT
ATOM      1  C   UNL d   1       0.383   0.753   0.166  0.00  0.00     0.019 A 
ATOM      2  C   UNL d   1       0.355  -0.679   0.037  0.00  0.00    -0.037 A 
ATOM      3  C   UNL d   1      -0.850   1.534   0.115  0.00  0.00     0.046 C 
ATOM      4  C   UNL d   1       1.689   1.219   0.265  0.00  0.00     0.053 A 
ATOM      5  S   UNL d   1       2.837  -0.055   0.204  0.00  0.00    -0.093 SA
ATOM      6  C   UNL d   1       1.621  -1.229   0.054  0.00  0.00     0.059 A 
ATOM      7  N   UNL d   1      -0.774   2.815   0.290  0.00  0.00    -0.261 N 
ATOM      8  HN  UNL d   1       0.068   3.288   0.618  1.00  0.00     0.194 HD
ATOM      9  C   UNL d   1      -0.887  -1.485  -0.152  0.00  0.00     0.049 C 
ATOM     10  C   UNL d   1      -2.227  -0.715  -0.031  0.00  0.00    -0.038 C 
ATOM     11  C   UNL d   1      -2.152   0.824  -0.221  0.00  0.00     0.069 C 
ATOM     12  C   UNL d   1      -2.867  -1.037   1.337  0.00  0.00     0.015 C 
ATOM     13  C   UNL d   1      -3.176  -1.260  -1.125  0.00  0.00     0.015 C 
ENDROOT
BRANCH   7  14
ATOM     14  O   UNL d   1      -1.971   3.489  -0.020  0.00  0.00    -0.195 OA
BRANCH  14  15
ATOM     15  C   UNL d   1      -2.077   4.588   0.775  0.00  0.00     0.315 C 
ATOM     16  O   UNL d   1      -1.789   4.650   1.966  0.00  0.00    -0.257 OA
BRANCH  15  17
ATOM     17  C   UNL d   1      -2.583   5.756   0.003  0.00  0.00     0.042 A 
ATOM     18  C   UNL d   1      -2.711   5.749  -1.395  0.00  0.00     0.034 A 
ATOM     19  C   UNL d   1      -3.071   6.921  -2.088  0.00  0.00     0.048 A 
ATOM     20  C   UNL d   1      -3.314   8.096  -1.359  0.00  0.00     0.016 A 
ATOM     21  C   UNL d   1      -3.207   8.103   0.031  0.00  0.00     0.002 A 
ATOM     22  C   UNL d   1      -2.840   6.943   0.709  0.00  0.00     0.018 A 
BRANCH  19  23
ATOM     23  C   UNL d   1      -3.162   6.944  -3.595  0.00  0.00     0.417 C 
ATOM     24  F   UNL d   1      -2.929   5.734  -4.174  0.00  0.00    -0.166 F 
ATOM     25  F   UNL d   1      -4.389   7.337  -4.036  0.00  0.00    -0.166 F 
ATOM     26  F   UNL d   1      -2.270   7.806  -4.157  0.00  0.00    -0.166 F 
ENDBRANCH  19  23
ENDBRANCH  15  17
ENDBRANCH  14  15
ENDBRANCH   7  14
BRANCH   4  27
ATOM     27  S   UNL d   1       2.294   2.873   0.389  0.00  0.00    -0.126 SA
ATOM     28  C   UNL d   1       2.353   3.022   2.189  0.00  0.00     0.096 C 
ENDBRANCH   4  27
TORSDOF 5
