REMARK  5 active torsions:
REMARK  status: ('A' for Active; 'I' for Inactive)
REMARK    1  A    between atoms: C_11  and  C_1 
REMARK    2  A    between atoms: C_2  and  C_7 
REMARK    3  A    between atoms: C_10  and  CA_3 
REMARK       I    between atoms: C_7  and  N_12 
REMARK    4  A    between atoms: OXT_22  and  C_10 
REMARK    5  A    between atoms: N_12  and  C_19 
ROOT
ATOM      1  C   UNL d   1       2.614  -4.058  -3.299  0.00  0.00     0.275 C 
ATOM      2  N   UNL d   1       3.562  -3.849  -2.310  0.00  0.00    -0.322 N 
ATOM      3  O   UNL d   1       1.476  -3.606  -3.341  0.00  0.00    -0.266 OA
ATOM      4  H   UNL d   1       4.494  -4.205  -2.493  0.00  0.00     0.169 HD
ENDROOT
BRANCH   2   5
ATOM      5  C   UNL d   1       3.393  -3.058  -1.142  0.00  0.00     0.035 A 
ATOM      6  C   UNL d   1       2.194  -2.412  -0.813  0.00  0.00     0.043 A 
ATOM      7  C   UNL d   1       2.111  -1.513   0.267  0.00  0.00    -0.004 A 
ATOM      8  C   UNL d   1       3.229  -1.354   1.090  0.00  0.00     0.014 A 
ATOM      9  C   UNL d   1       4.413  -2.040   0.815  0.00  0.00     0.003 A 
ATOM     10  C   UNL d   1       4.499  -2.876  -0.302  0.00  0.00     0.029 A 
BRANCH   7  11
ATOM     11  C   UNL d   1       0.878  -0.743   0.484  0.00  0.00     0.077 A 
ATOM     12  C   UNL d   1       0.700   0.609   0.892  0.00  0.00     0.057 A 
ATOM     13  C   UNL d   1      -0.651   0.836   0.923  0.00  0.00     0.131 A 
ATOM     14 BR   UNL d   1       2.006   1.901   1.264  0.00  0.00    -0.047 Br
ATOM     15  N   UNL d   1      -1.216  -0.328   0.506  0.00  0.00    -0.306 N 
ATOM     16  N   UNL d   1      -0.327  -1.300   0.248  0.00  0.00    -0.297 N 
ATOM     17  C   UNL d   1      -2.628  -0.569   0.330  0.00  0.00     0.177 C 
ATOM     18  HN  UNL d   1      -0.521  -2.253  -0.060  1.00  0.00     0.187 HD
ENDBRANCH   7  11
ENDBRANCH   2   5
BRANCH   1  19
ATOM     19  C   UNL d   1       3.076  -4.806  -4.495  0.00  0.00     0.134 A 
ATOM     20  CA  UNL d   1       2.177  -5.528  -5.277  0.00  0.00     0.139 A 
ATOM     21  N   UNL d   1       2.465  -5.927  -6.562  0.00  0.00    -0.357 N 
ATOM     22  C   UNL d   1       3.710  -5.612  -6.990  0.00  0.00     0.105 A 
ATOM     23  HN  UNL d   1       1.792  -6.423  -7.147  1.00  0.00     0.165 HD
ATOM     24  C   UNL d   1       4.625  -4.936  -6.197  0.00  0.00     0.105 A 
ATOM     25  N   UNL d   1       4.343  -4.518  -4.935  0.00  0.00    -0.358 N 
ATOM     26  HN  UNL d   1       5.024  -4.026  -4.356  1.00  0.00     0.165 HD
BRANCH  20  27
ATOM     27  C   UNL d   1       0.876  -6.016  -4.753  0.00  0.00     0.196 C 
ATOM     28  O   UNL d   1       0.667  -6.323  -3.597  0.00  0.00    -0.645 OA
BRANCH  27  29
ATOM     29  OXT UNL d   1      -0.017  -6.195  -5.759  0.00  0.00    -0.772 OA
ATOM     30  HXT UNL d   1       0.396  -6.011  -6.632  0.00  0.00     0.167 HD
ENDBRANCH  27  29
ENDBRANCH  20  27
ENDBRANCH   1  19
TORSDOF 5
