REMARK  5 active torsions:
REMARK  status: ('A' for Active; 'I' for Inactive)
REMARK    1  A    between atoms: N_3  and  N_1 
REMARK    2  A    between atoms: C_9  and  C_2 
REMARK       I    between atoms: C_6  and  N_3 
REMARK    3  A    between atoms: C_16  and  N_3 
REMARK    4  A    between atoms: N_5  and  C_10 
REMARK    5  A    between atoms: C_12  and  C_6 
ROOT
ATOM      1  N   UNL d   1       2.154  -1.423  -0.150  0.00  0.00    -0.211 N 
ATOM      2  C   UNL d   1       3.398  -0.998   0.388  0.00  0.00     0.277 C 
ATOM      3  O   UNL d   1       3.508  -0.206   1.316  0.00  0.00    -0.265 OA
ENDROOT
BRANCH   1   4
ATOM      4  N   UNL d   1       0.958  -0.561   0.147  0.00  0.00    -0.227 N 
ATOM      5  C   UNL d   1       0.937   0.815  -0.155  0.00  0.00     0.076 A 
ATOM      6  C   UNL d   1      -0.237   1.424   0.063  0.00  0.00     0.085 A 
ATOM      7  S   UNL d   1      -1.442   0.350   0.641  0.00  0.00    -0.068 SA
ATOM      8  C   UNL d   1      -0.287  -1.021   0.666  0.00  0.00     0.165 A 
ATOM      9  S   UNL d   1      -0.854  -2.471   1.268  0.00  0.00    -0.050 SA
BRANCH   5  10
ATOM     10  C   UNL d   1       2.060   1.668  -0.550  0.00  0.00    -0.004 A 
ATOM     11  C   UNL d   1       2.825   2.301   0.445  0.00  0.00     0.050 A 
ATOM     12  C   UNL d   1       3.890   3.134   0.094  0.00  0.00     0.103 A 
ATOM     13  C   UNL d   1       4.142   3.426  -1.250  0.00  0.00     0.036 A 
ATOM     14  C   UNL d   1       3.323   2.871  -2.239  0.00  0.00     0.003 A 
ATOM     15  C   UNL d   1       2.292   1.992  -1.892  0.00  0.00     0.014 A 
BRANCH  12  16
ATOM     16  N   UNL d   1       4.758   3.686   1.141  0.00  0.00    -0.116 N 
ATOM     17  O   UNL d   1       4.473   3.442   2.323  0.00  0.00    -0.532 OA
ATOM     18  O   UNL d   1       5.726   4.371   0.782  0.00  0.00    -0.532 OA
ENDBRANCH  12  16
ENDBRANCH   5  10
ENDBRANCH   1   4
BRANCH   1  19
ATOM     19  C   UNL d   1       1.968  -2.846  -0.106  0.00  0.00     0.060 A 
ATOM     20  C   UNL d   1       2.374  -3.563   1.039  0.00  0.00     0.031 A 
ATOM     21  C   UNL d   1       2.186  -4.937   1.119  0.00  0.00     0.002 A 
ATOM     22  C   UNL d   1       1.628  -5.615   0.038  0.00  0.00     0.000 A 
ATOM     23  C   UNL d   1       1.256  -4.917  -1.115  0.00  0.00     0.002 A 
ATOM     24  C   UNL d   1       1.413  -3.529  -1.190  0.00  0.00     0.031 A 
ENDBRANCH   1  19
BRANCH   2  25
ATOM     25  C   UNL d   1       4.666  -1.620  -0.168  0.00  0.00     0.034 A 
ATOM     26  C   UNL d   1       4.741  -2.304  -1.390  0.00  0.00     0.019 A 
ATOM     27  C   UNL d   1       5.923  -2.959  -1.772  0.00  0.00     0.025 A 
ATOM     28  C   UNL d   1       7.052  -2.887  -0.957  0.00  0.00     0.034 A 
ATOM     29  C   UNL d   1       7.016  -2.154   0.223  0.00  0.00     0.025 A 
ATOM     30 CL   UNL d   1       8.489  -3.719  -1.406  0.00  0.00    -0.084 Cl
ATOM     31  C   UNL d   1       5.831  -1.520   0.614  0.00  0.00     0.019 A 
ENDBRANCH   2  25
TORSDOF 5
