REMARK  3 active torsions:
REMARK  status: ('A' for Active; 'I' for Inactive)
REMARK    1  A    between atoms: C_11  and  C_3 
REMARK    2  A    between atoms: C_14  and  C_4 
REMARK    3  A    between atoms: C_13  and  C_10 
REMARK       I    between atoms: N_22  and  C_14 
ROOT
ATOM      1  C   UNL d   1       0.198  -0.810   0.006  0.00  0.00     0.145 A 
ATOM      2  N   UNL d   1       0.335   0.593   0.007  0.00  0.00    -0.234 N 
ATOM      3  C   UNL d   1      -0.791   1.409   0.020  0.00  0.00     0.144 A 
ATOM      4  C   UNL d   1       1.485  -1.326  -0.024  0.00  0.00     0.094 A 
ATOM      5  N   UNL d   1      -1.028  -1.425   0.033  0.00  0.00    -0.336 N 
ATOM      6  HN  UNL d   1      -1.111  -2.442   0.036  1.00  0.00     0.167 HD
ATOM      7  C   UNL d   1      -2.015   0.846   0.036  0.00  0.00     0.071 A 
ATOM      8  N   UNL d   1       1.635   0.954  -0.004  0.00  0.00    -0.302 N 
ATOM      9  HN  UNL d   1       2.015   1.901   0.002  1.00  0.00     0.186 HD
ATOM     10  C   UNL d   1      -2.089  -0.654   0.054  0.00  0.00     0.120 A 
ATOM     11  C   UNL d   1       2.313  -0.189  -0.025  0.00  0.00     0.128 A 
ENDROOT
BRANCH   4  12
ATOM     12  C   UNL d   1       1.946  -2.701  -0.045  0.00  0.00     0.256 C 
ATOM     13  O   UNL d   1       3.143  -2.968  -0.063  0.00  0.00    -0.267 OA
ATOM     14  N   UNL d   1       0.961  -3.659  -0.048  0.00  0.00    -0.361 N 
ATOM     15  C   UNL d   1       1.254  -5.069  -0.073  0.00  0.00     0.149 C 
ATOM     16  H   UNL d   1      -0.006  -3.349  -0.029  0.00  0.00     0.162 HD
ENDBRANCH   4  12
BRANCH   3  17
ATOM     17  C   UNL d   1      -0.620   2.886   0.015  0.00  0.00     0.434 C 
ATOM     18  F   UNL d   1       0.643   3.360  -0.042  0.00  0.00    -0.165 F 
ATOM     19  F   UNL d   1      -1.283   3.432  -1.042  0.00  0.00    -0.165 F 
ATOM     20  F   UNL d   1      -1.188   3.429   1.126  0.00  0.00    -0.165 F 
ENDBRANCH   3  17
BRANCH  10  21
ATOM     21  C   UNL d   1      -3.492  -1.274   0.108  0.00  0.00     0.432 C 
ATOM     22  F   UNL d   1      -4.479  -0.335   0.120  0.00  0.00    -0.165 F 
ATOM     23  F   UNL d   1      -3.740  -2.077  -0.960  0.00  0.00    -0.165 F 
ATOM     24  F   UNL d   1      -3.673  -2.031   1.222  0.00  0.00    -0.165 F 
ENDBRANCH  10  21
TORSDOF 3
