REMARK  2 active torsions:
REMARK  status: ('A' for Active; 'I' for Inactive)
REMARK    1  A    between atoms: C_7  and  C_2 
REMARK    2  A    between atoms: O_11  and  N_4 
ROOT
ATOM      1  C   UNL d   1      -1.201   0.028   0.002  0.00  0.00     0.047 A 
ATOM      2  C   UNL d   1      -1.261  -1.373   0.005  0.00  0.00     0.003 A 
ATOM      3  C   UNL d   1       0.040   0.676  -0.001  0.00  0.00     0.048 A 
ATOM      4  C   UNL d   1      -0.068  -2.114   0.003  0.00  0.00     0.016 A 
ATOM      5  C   UNL d   1       1.216  -0.073  -0.002  0.00  0.00     0.035 A 
ATOM      6 CL   UNL d   1      -2.610   1.028   0.003  0.00  0.00    -0.083 Cl
ATOM      7  C   UNL d   1       1.168  -1.464   0.000  0.00  0.00     0.025 A 
ATOM      8 CL   UNL d   1       2.738   0.728  -0.005  0.00  0.00    -0.084 Cl
ENDROOT
BRANCH   2   9
ATOM      9  C   UNL d   1      -2.548  -2.101   0.009  0.00  0.00     0.126 C 
ATOM     10  N   UNL d   1      -2.595  -3.398   0.010  0.00  0.00    -0.280 N 
ATOM     11  HN  UNL d   1      -1.786  -4.020   0.008  1.00  0.00     0.193 HD
BRANCH  10  12
ATOM     12  O   UNL d   1      -3.933  -3.806   0.014  0.00  0.00    -0.290 OA
ATOM     13  H   UNL d   1      -3.856  -4.779   0.014  0.00  0.00     0.244 HD
ENDBRANCH  10  12
ENDBRANCH   2   9
TORSDOF 2
