REMARK  6 active torsions:
REMARK  status: ('A' for Active; 'I' for Inactive)
REMARK    1  A    between atoms: C_2  and  C_1 
REMARK    2  A    between atoms: O_10  and  C_2 
REMARK    3  A    between atoms: C_3  and  C_12 
REMARK    4  A    between atoms: N_4  and  O_10 
REMARK    5  A    between atoms: C_13  and  C_6 
REMARK    6  A    between atoms: N_23  and  C_6 
ROOT
ATOM      1  N   UNL d   1       0.558   3.414  -0.197  0.00  0.00    -0.246 N 
ATOM      2  HN  UNL d   1       1.113   2.558  -0.190  1.00  0.00     0.196 HD
ATOM      3  C   UNL d   1       1.087   4.605  -0.152  0.00  0.00     0.109 C 
ENDROOT
BRANCH   3   4
ATOM      4  C   UNL d   1       0.344   5.902  -0.061  0.00  0.00     0.004 A 
ATOM      5  C   UNL d   1      -0.794   6.035   0.741  0.00  0.00     0.015 A 
ATOM      6  C   UNL d   1      -1.480   7.250   0.795  0.00  0.00     0.017 A 
ATOM      7  C   UNL d   1      -1.019   8.364   0.078  0.00  0.00     0.048 A 
ATOM      8  C   UNL d   1       0.153   8.239  -0.686  0.00  0.00     0.017 A 
ATOM      9  C   UNL d   1       0.828   7.016  -0.757  0.00  0.00     0.015 A 
BRANCH   7  10
ATOM     10  C   UNL d   1      -1.758   9.679   0.125  0.00  0.00     0.417 C 
ATOM     11  F   UNL d   1      -2.909   9.632   0.852  0.00  0.00    -0.166 F 
ATOM     12  F   UNL d   1      -1.010  10.675   0.675  0.00  0.00    -0.166 F 
ATOM     13  F   UNL d   1      -2.116  10.120  -1.113  0.00  0.00    -0.166 F 
ENDBRANCH   7  10
ENDBRANCH   3   4
BRANCH   3  14
ATOM     14  N   UNL d   1       2.461   4.656  -0.187  0.00  0.00    -0.286 NA
ATOM     15  H   UNL d   1       2.880   3.747  -0.010  0.00  0.00     0.125 HD
ATOM     16  H   UNL d   1       2.903   5.407   0.329  0.00  0.00     0.125 HD
ENDBRANCH   3  14
BRANCH   1  17
ATOM     17  O   UNL d   1      -0.849   3.415  -0.254  0.00  0.00    -0.192 OA
BRANCH  17  18
ATOM     18  C   UNL d   1      -1.332   2.132  -0.143  0.00  0.00     0.341 C 
ATOM     19  O   UNL d   1      -0.660   1.110  -0.043  0.00  0.00    -0.255 OA
BRANCH  18  20
ATOM     20  C   UNL d   1      -2.771   2.144  -0.136  0.00  0.00     0.176 A 
ATOM     21  O   UNL d   1      -3.449   3.328  -0.191  0.00  0.00    -0.232 OA
ATOM     22  N   UNL d   1      -4.814   3.082  -0.157  0.00  0.00    -0.272 N 
ATOM     23  C   UNL d   1      -4.934   1.754  -0.087  0.00  0.00     0.117 A 
ATOM     24  HN  UNL d   1      -5.567   3.770  -0.180  1.00  0.00     0.194 HD
ATOM     25  C   UNL d   1      -3.684   1.115  -0.066  0.00  0.00     0.065 A 
ENDBRANCH  18  20
ENDBRANCH  17  18
ENDBRANCH   1  17
TORSDOF 6
