REMARK  5 active torsions:
REMARK  status: ('A' for Active; 'I' for Inactive)
REMARK    1  A    between atoms: C_8  and  C_1 
REMARK    2  A    between atoms: C_13  and  C_4 
REMARK    3  A    between atoms: C_5  and  C_6 
REMARK       I    between atoms: N_10  and  C_8 
REMARK    4  A    between atoms: N_11  and  N_10 
REMARK    5  A    between atoms: C_12  and  N_11 
ROOT
ATOM      1  C   UNL d   1       0.309  -2.647  -0.213  0.00  0.00     0.271 C 
ATOM      2  N   UNL d   1      -0.659  -3.644  -0.126  0.00  0.00    -0.282 N 
ATOM      3  O   UNL d   1       1.506  -2.900  -0.347  0.00  0.00    -0.266 OA
ATOM      4  H   UNL d   1      -1.557  -3.371   0.265  0.00  0.00     0.184 HD
ENDROOT
BRANCH   1   5
ATOM      5  C   UNL d   1      -0.178  -1.293  -0.066  0.00  0.00     0.093 A 
ATOM      6  C   UNL d   1      -1.320  -0.613  -0.596  0.00  0.00     0.083 A 
ATOM      7  N   UNL d   1      -1.350   0.653  -0.135  0.00  0.00    -0.259 N 
ATOM      8  O   UNL d   1      -0.254   0.812   0.670  0.00  0.00    -0.241 OA
ATOM      9  HN  UNL d   1      -2.056   1.359  -0.346  1.00  0.00     0.195 HD
ATOM     10  C   UNL d   1       0.446  -0.342   0.715  0.00  0.00     0.090 A 
ATOM     11  C   UNL d   1       1.638  -0.348   1.591  0.00  0.00     0.080 C 
BRANCH   6  12
ATOM     12  C   UNL d   1      -2.374  -1.072  -1.505  0.00  0.00    -0.006 A 
ATOM     13  C   UNL d   1      -2.152  -2.075  -2.458  0.00  0.00     0.014 A 
ATOM     14  C   UNL d   1      -3.186  -2.499  -3.301  0.00  0.00     0.001 A 
ATOM     15  C   UNL d   1      -4.445  -1.908  -3.222  0.00  0.00     0.000 A 
ATOM     16  C   UNL d   1      -4.675  -0.891  -2.302  0.00  0.00     0.001 A 
ATOM     17  C   UNL d   1      -3.648  -0.479  -1.449  0.00  0.00     0.014 A 
ENDBRANCH   6  12
ENDBRANCH   1   5
BRANCH   2  18
ATOM     18  N   UNL d   1      -0.161  -4.911   0.264  0.00  0.00    -0.202 NA
ATOM     19  H   UNL d   1       0.591  -5.188  -0.376  0.00  0.00     0.153 HD
BRANCH  18  20
ATOM     20  C   UNL d   1      -1.108  -5.939   0.486  0.00  0.00     0.042 A 
ATOM     21  C   UNL d   1      -2.189  -5.869   1.383  0.00  0.00     0.070 A 
ATOM     22  C   UNL d   1      -2.961  -7.038   1.620  0.00  0.00     0.018 A 
ATOM     23  C   UNL d   1      -2.679  -8.245   0.990  0.00  0.00     0.001 A 
ATOM     24  C   UNL d   1      -1.621  -8.317   0.102  0.00  0.00     0.002 A 
ATOM     25  C   UNL d   1      -0.845  -7.180  -0.142  0.00  0.00     0.026 A 
BRANCH  21  26
ATOM     26  C   UNL d   1      -2.576  -4.675   2.223  0.00  0.00     0.419 C 
ATOM     27  F   UNL d   1      -2.021  -3.483   1.872  0.00  0.00    -0.166 F 
ATOM     28  F   UNL d   1      -3.921  -4.446   2.178  0.00  0.00    -0.166 F 
ATOM     29  F   UNL d   1      -2.284  -4.847   3.543  0.00  0.00    -0.166 F 
ENDBRANCH  21  26
ENDBRANCH  18  20
ENDBRANCH   2  18
TORSDOF 5
