REMARK  6 active torsions:
REMARK  status: ('A' for Active; 'I' for Inactive)
REMARK    1  A    between atoms: C_6  and  C_2 
REMARK    2  A    between atoms: S_11  and  C_3 
REMARK    3  A    between atoms: C_14  and  C_7 
REMARK    4  A    between atoms: C_13  and  S_11 
REMARK    5  A    between atoms: C_12  and  C_13 
REMARK    6  A    between atoms: C_19  and  C_12 
ROOT
ATOM      1  C   UNL d   1       0.594   0.088   0.027  0.00  0.00     0.093 A 
ATOM      2  C   UNL d   1      -0.083   1.319   0.028  0.00  0.00     0.073 A 
ATOM      3  C   UNL d   1      -0.171  -1.086   0.024  0.00  0.00     0.092 A 
ATOM      4  N   UNL d   1      -1.528  -1.077   0.030  0.00  0.00    -0.349 N 
ATOM      5  HN  UNL d   1      -2.050  -1.953   0.069  1.00  0.00     0.166 HD
ATOM      6  C   UNL d   1      -2.180   0.107  -0.016  0.00  0.00     0.044 A 
ATOM      7  C   UNL d   1      -1.487   1.310   0.010  0.00  0.00     0.048 A 
ATOM      8  C   UNL d   1       2.024   0.030   0.023  0.00  0.00     0.103 C 
ATOM      9  N   UNL d   1       3.187   0.026   0.029  0.00  0.00    -0.191 NA
ENDROOT
BRANCH   2  10
ATOM     10  C   UNL d   1       0.588   2.670   0.015  0.00  0.00     0.419 C 
ATOM     11  F   UNL d   1       1.942   2.662   0.046  0.00  0.00    -0.166 F 
ATOM     12  F   UNL d   1       0.246   3.385  -1.094  0.00  0.00    -0.166 F 
ATOM     13  F   UNL d   1       0.199   3.434   1.073  0.00  0.00    -0.166 F 
ENDBRANCH   2  10
BRANCH   3  14
ATOM     14  S   UNL d   1       0.575  -2.717   0.069  0.00  0.00    -0.103 SA
BRANCH  14  15
ATOM     15  C   UNL d   1      -0.729  -3.744  -0.704  0.00  0.00     0.164 C 
BRANCH  15  16
ATOM     16  C   UNL d   1      -0.977  -3.405  -2.167  0.00  0.00     0.169 C 
ATOM     17  O   UNL d   1      -0.408  -2.490  -2.761  0.00  0.00    -0.291 OA
BRANCH  16  18
ATOM     18  C   UNL d   1      -1.968  -4.244  -2.927  0.00  0.00     0.010 A 
ATOM     19  C   UNL d   1      -2.610  -5.359  -2.371  0.00  0.00     0.015 A 
ATOM     20  C   UNL d   1      -3.534  -6.092  -3.126  0.00  0.00     0.001 A 
ATOM     21  C   UNL d   1      -3.822  -5.721  -4.438  0.00  0.00     0.000 A 
ATOM     22  C   UNL d   1      -3.179  -4.624  -5.005  0.00  0.00     0.001 A 
ATOM     23  C   UNL d   1      -2.254  -3.891  -4.255  0.00  0.00     0.015 A 
ENDBRANCH  16  18
ENDBRANCH  15  16
ENDBRANCH  14  15
ENDBRANCH   3  14
BRANCH   6  24
ATOM     24  C   UNL d   1      -3.648   0.035  -0.139  0.00  0.00    -0.009 A 
ATOM     25  C   UNL d   1      -4.367  -1.047   0.401  0.00  0.00     0.013 A 
ATOM     26  C   UNL d   1      -5.755  -1.135   0.268  0.00  0.00     0.001 A 
ATOM     27  C   UNL d   1      -6.455  -0.141  -0.411  0.00  0.00     0.000 A 
ATOM     28  C   UNL d   1      -5.769   0.937  -0.958  0.00  0.00     0.001 A 
ATOM     29  C   UNL d   1      -4.381   1.021  -0.826  0.00  0.00     0.013 A 
ENDBRANCH   6  24
TORSDOF 6
