REMARK  7 active torsions:
REMARK  status: ('A' for Active; 'I' for Inactive)
REMARK    1  A    between atoms: S_13  and  C_3 
REMARK    2  A    between atoms: O_20  and  C_4 
REMARK    3  A    between atoms: C_10  and  C_18 
REMARK       I    between atoms: N_11  and  C_10 
REMARK    4  A    between atoms: C_14  and  N_11 
REMARK    5  A    between atoms: C_23  and  C_12 
REMARK    6  A    between atoms: C_18  and  S_13 
REMARK    7  A    between atoms: C_24  and  C_23 
ROOT
ATOM      1  S   UNL d   1       2.190  -2.183   1.351  0.00  0.00    -0.085 SA
ENDROOT
BRANCH   1   2
ATOM      2  C   UNL d   1       1.357  -0.876   0.482  0.00  0.00     0.146 A 
ATOM      3  N   UNL d   1       0.560  -0.089   1.212  0.00  0.00    -0.318 N 
ATOM      4  C   UNL d   1       0.133   1.005   0.579  0.00  0.00     0.143 A 
ATOM      5  HN  UNL d   1       0.299  -0.307   2.174  1.00  0.00     0.170 HD
ATOM      6  C   UNL d   1       0.460   1.371  -0.699  0.00  0.00     0.081 A 
ATOM      7  C   UNL d   1       1.266   0.483  -1.373  0.00  0.00     0.015 A 
ATOM      8  N   UNL d   1       1.701  -0.655  -0.795  0.00  0.00    -0.340 N 
ATOM      9  HN  UNL d   1       2.272  -1.324  -1.312  1.00  0.00     0.167 HD
BRANCH   4  10
ATOM     10  O   UNL d   1      -0.659   1.808   1.335  0.00  0.00    -0.346 OA
ATOM     11  H   UNL d   1      -0.709   1.290   2.159  0.00  0.00     0.219 HD
ENDBRANCH   4  10
BRANCH   7  12
ATOM     12  C   UNL d   1       1.781   0.780  -2.757  0.00  0.00     0.057 C 
BRANCH  12  13
ATOM     13  C   UNL d   1       1.318  -0.220  -3.818  0.00  0.00     0.002 C 
ATOM     14  C   UNL d   1      -0.186  -0.189  -4.048  0.00  0.00     0.005 C 
ENDBRANCH  12  13
ENDBRANCH   7  12
ENDBRANCH   1   2
BRANCH   1  15
ATOM     15  C   UNL d   1       3.601  -2.433   0.232  0.00  0.00     0.185 C 
BRANCH  15  16
ATOM     16  C   UNL d   1       4.450  -1.192  -0.020  0.00  0.00     0.231 C 
ATOM     17  N   UNL d   1       4.578  -0.302   1.038  0.00  0.00    -0.326 N 
ATOM     18  H   UNL d   1       4.208  -0.604   1.934  0.00  0.00     0.169 HD
ATOM     19  O   UNL d   1       5.043  -1.083  -1.091  0.00  0.00    -0.272 OA
BRANCH  17  20
ATOM     20  C   UNL d   1       5.151   0.991   0.976  0.00  0.00     0.036 A 
ATOM     21  C   UNL d   1       5.485   1.624  -0.228  0.00  0.00     0.056 A 
ATOM     22  C   UNL d   1       5.997   2.925  -0.234  0.00  0.00     0.074 A 
ATOM     23 CL   UNL d   1       6.366   3.683  -1.736  0.00  0.00    -0.081 Cl
ATOM     24  C   UNL d   1       6.187   3.601   0.966  0.00  0.00     0.138 A 
ATOM     25  C   UNL d   1       5.873   2.986   2.173  0.00  0.00     0.046 A 
ATOM     26  F   UNL d   1       6.666   4.854   0.982  0.00  0.00    -0.204 F 
ATOM     27  C   UNL d   1       5.349   1.687   2.179  0.00  0.00     0.032 A 
ENDBRANCH  17  20
ENDBRANCH  15  16
ENDBRANCH   1  15
TORSDOF 7
