REMARK  3 active torsions:
REMARK  status: ('A' for Active; 'I' for Inactive)
REMARK    1  A    between atoms: N_5  and  C_1 
REMARK       I    between atoms: C_7  and  N_5 
REMARK    2  A    between atoms: C_10  and  C_7 
REMARK    3  A    between atoms: N_9  and  C_10 
ROOT
ATOM      1  N   UNL d   1      -3.328  -2.312   0.710  0.00  0.00    -0.310 N 
ATOM      2  C   UNL d   1      -2.318  -2.541  -0.201  0.00  0.00     0.251 C 
ATOM      3  O   UNL d   1      -2.220  -1.982  -1.296  0.00  0.00    -0.271 OA
ATOM      4  H   UNL d   1      -3.277  -2.688   1.645  0.00  0.00     0.170 HD
ENDROOT
BRANCH   1   5
ATOM      5  C   UNL d   1      -4.344  -1.399   0.513  0.00  0.00     0.130 A 
ATOM      6  N   UNL d   1      -5.131  -1.034   1.531  0.00  0.00    -0.245 N 
ATOM      7  O   UNL d   1      -5.948  -0.027   1.038  0.00  0.00    -0.241 OA
ATOM      8  HN  UNL d   1      -5.130  -1.417   2.477  1.00  0.00     0.196 HD
ATOM      9  C   UNL d   1      -5.672   0.169  -0.278  0.00  0.00     0.076 A 
ATOM     10  C   UNL d   1      -4.708  -0.723  -0.670  0.00  0.00     0.084 A 
ATOM     11  C   UNL d   1      -6.384   1.262  -0.961  0.00  0.00     0.079 C 
ENDBRANCH   1   5
BRANCH   2  12
ATOM     12  C   UNL d   1      -1.283  -3.575   0.259  0.00  0.00     0.374 C 
BRANCH  12  13
ATOM     13  N   UNL d   1      -0.041  -3.005   0.801  0.00  0.00     0.097 N 
ATOM     14  C   UNL d   1      -0.175  -2.255   2.047  0.00  0.00     0.273 C 
ATOM     15  C   UNL d   1       0.119  -0.811   1.689  0.00  0.00     0.032 C 
ATOM     16  C   UNL d   1       1.153  -0.943   0.591  0.00  0.00     0.032 C 
ATOM     17  C   UNL d   1       0.736  -2.201  -0.157  0.00  0.00     0.273 C 
ENDBRANCH  12  13
ENDBRANCH   2  12
TORSDOF 3
