REMARK  5 active torsions:
REMARK  status: ('A' for Active; 'I' for Inactive)
REMARK    1  A    between atoms: C_6  and  C_1 
REMARK       I    between atoms: N_9  and  C_1 
REMARK    2  A    between atoms: O_5  and  C_4 
REMARK    3  A    between atoms: C_7  and  O_5 
REMARK    4  A    between atoms: C_15  and  C_8 
REMARK    5  A    between atoms: C_12  and  N_9 
ROOT
ATOM      1  N   UNL d   1      -3.204  -1.456   1.750  0.00  0.00    -0.344 N 
ATOM      2  HN  UNL d   1      -3.703  -1.697   2.607  1.00  0.00     0.167 HD
ATOM      3  C   UNL d   1      -3.863  -1.193   0.603  0.00  0.00     0.148 A 
ATOM      4  C   UNL d   1      -1.117  -1.033   0.592  0.00  0.00     0.050 A 
ATOM      5  C   UNL d   1      -1.854  -1.388   1.717  0.00  0.00     0.119 A 
ATOM      6  C   UNL d   1      -3.230  -0.789  -0.561  0.00  0.00     0.059 A 
ATOM      7  C   UNL d   1      -1.835  -0.705  -0.562  0.00  0.00     0.035 A 
ENDROOT
BRANCH   4   8
ATOM      8  N   UNL d   1       0.293  -0.960   0.560  0.00  0.00    -0.322 N 
ATOM      9  C   UNL d   1       1.135  -1.406   1.560  0.00  0.00     0.245 C 
ATOM     10  O   UNL d   1       0.813  -2.052   2.547  0.00  0.00    -0.268 OA
ATOM     11  H   UNL d   1       0.705  -0.568  -0.276  0.00  0.00     0.169 HD
BRANCH   9  12
ATOM     12  C   UNL d   1       2.551  -1.016   1.325  0.00  0.00     0.075 C 
ATOM     13  C   UNL d   1       3.485  -1.342   2.234  0.00  0.00     0.017 C 
BRANCH  13  14
ATOM     14  C   UNL d   1       4.903  -0.976   2.129  0.00  0.00    -0.036 A 
ATOM     15  C   UNL d   1       5.329   0.216   1.526  0.00  0.00     0.011 A 
ATOM     16  C   UNL d   1       6.686   0.536   1.462  0.00  0.00     0.001 A 
ATOM     17  C   UNL d   1       7.632  -0.323   2.017  0.00  0.00     0.000 A 
ATOM     18  C   UNL d   1       7.221  -1.497   2.644  0.00  0.00     0.001 A 
ATOM     19  C   UNL d   1       5.862  -1.818   2.706  0.00  0.00     0.011 A 
ENDBRANCH  13  14
ENDBRANCH   9  12
ENDBRANCH   4   8
BRANCH   3  20
ATOM     20  O   UNL d   1      -5.242  -1.354   0.562  0.00  0.00    -0.291 OA
BRANCH  20  21
ATOM     21  C   UNL d   1      -5.779  -2.262   1.449  0.00  0.00     0.116 A 
ATOM     22  C   UNL d   1      -6.938  -1.907   2.136  0.00  0.00     0.150 A 
ATOM     23  F   UNL d   1      -7.513  -0.714   1.926  0.00  0.00    -0.203 F 
ATOM     24  C   UNL d   1      -7.513  -2.779   3.059  0.00  0.00     0.045 A 
ATOM     25  C   UNL d   1      -6.929  -4.025   3.294  0.00  0.00     0.003 A 
ATOM     26  C   UNL d   1      -5.790  -4.404   2.586  0.00  0.00     0.003 A 
ATOM     27  C   UNL d   1      -5.228  -3.534   1.650  0.00  0.00     0.040 A 
ENDBRANCH  20  21
ENDBRANCH   3  20
TORSDOF 5
