REMARK  5 active torsions:
REMARK  status: ('A' for Active; 'I' for Inactive)
REMARK    1  A    between atoms: C_4  and  S_1 
REMARK    2  A    between atoms: C_8  and  S_1 
REMARK    3  A    between atoms: C_2  and  C_3 
REMARK       I    between atoms: C_3  and  N_6 
REMARK    4  A    between atoms: C_5  and  C_4 
REMARK    5  A    between atoms: N_6  and  C_12 
ROOT
ATOM      1  C   UNL d   1       0.846   2.466   0.650  0.00  0.00    -0.022 A 
ATOM      2  C   UNL d   1       1.681   2.454   1.776  0.00  0.00     0.043 A 
ATOM      3  C   UNL d   1       1.922   3.625   2.512  0.00  0.00     0.054 A 
ATOM      4  C   UNL d   1       1.303   4.829   2.166  0.00  0.00     0.036 A 
ATOM      5  C   UNL d   1       0.236   3.684   0.312  0.00  0.00     0.012 A 
ATOM      6 CL   UNL d   1       2.409   1.003   2.362  0.00  0.00    -0.084 Cl
ATOM      7  C   UNL d   1       0.454   4.844   1.063  0.00  0.00     0.030 A 
ENDROOT
BRANCH   1   8
ATOM      8  C   UNL d   1       0.528   1.253  -0.188  0.00  0.00     0.186 C 
BRANCH   8   9
ATOM      9  S   UNL d   1       1.560   1.136  -1.643  0.00  0.00     0.179 S 
ATOM     10  O   UNL d   1       1.754   2.459  -2.210  0.00  0.00    -0.222 OA
ATOM     11  O   UNL d   1       1.028   0.069  -2.473  0.00  0.00    -0.222 OA
BRANCH   9  12
ATOM     12  C   UNL d   1       3.139   0.552  -1.074  0.00  0.00     0.059 A 
ATOM     13  C   UNL d   1       3.213  -0.696  -0.445  0.00  0.00     0.025 A 
ATOM     14  C   UNL d   1       4.436  -1.140   0.058  0.00  0.00     0.025 A 
ATOM     15  C   UNL d   1       5.578  -0.356  -0.105  0.00  0.00     0.034 A 
ATOM     16  C   UNL d   1       5.513   0.862  -0.783  0.00  0.00     0.025 A 
ATOM     17 CL   UNL d   1       7.079  -0.895   0.539  0.00  0.00    -0.084 Cl
ATOM     18  C   UNL d   1       4.288   1.323  -1.271  0.00  0.00     0.025 A 
ENDBRANCH   9  12
ENDBRANCH   8   9
ENDBRANCH   1   8
BRANCH   4  19
ATOM     19  N   UNL d   1       1.593   5.967   2.946  0.00  0.00    -0.323 N 
ATOM     20  C   UNL d   1       0.984   7.225   2.871  0.00  0.00     0.277 C 
ATOM     21  O   UNL d   1       0.005   7.459   2.155  0.00  0.00    -0.268 OA
ATOM     22  H   UNL d   1       2.301   5.853   3.670  0.00  0.00     0.169 HD
BRANCH  20  23
ATOM     23  C   UNL d   1       1.633   8.347   3.724  0.00  0.00     0.269 C 
ATOM     24 CL   UNL d   1       2.843   7.694   4.869  0.00  0.00    -0.073 Cl
ATOM     25 CL   UNL d   1       2.435   9.481   2.607  0.00  0.00    -0.073 Cl
ATOM     26 CL   UNL d   1       0.358   9.182   4.649  0.00  0.00    -0.073 Cl
ENDBRANCH  20  23
ENDBRANCH   4  19
TORSDOF 5
