REMARK  4 active torsions:
REMARK  status: ('A' for Active; 'I' for Inactive)
REMARK       I    between atoms: N_11  and  C_1 
REMARK       I    between atoms: N_12  and  C_1 
REMARK       I    between atoms: C_2  and  N_3 
REMARK       I    between atoms: N_13  and  C_2 
REMARK    1  A    between atoms: N_3  and  N_9 
REMARK    2  A    between atoms: N_7  and  N_5 
REMARK    3  A    between atoms: C_17  and  C_15 
REMARK    4  A    between atoms: C_16  and  C_18 
ROOT
ATOM      1  C   UNL d   1       1.247  -0.499  -4.738  0.00  0.00    -0.019 A 
ATOM      2  C   UNL d   1       2.526  -0.932  -7.180  0.00  0.00    -0.019 A 
ATOM      3  C   UNL d   1       2.351  -1.357  -4.807  0.00  0.00     0.014 A 
ATOM      4  C   UNL d   1       0.772   0.133  -5.891  0.00  0.00     0.014 A 
ATOM      5  C   UNL d   1       1.415  -0.083  -7.114  0.00  0.00     0.014 A 
ATOM      6  C   UNL d   1       2.991  -1.575  -6.030  0.00  0.00     0.014 A 
ENDROOT
BRANCH   1   7
ATOM      7  C   UNL d   1       0.575  -0.236  -3.451  0.00  0.00     0.118 C 
ATOM      8  N   UNL d   1       0.993  -0.759  -2.342  0.00  0.00    -0.309 N 
ATOM      9  HN  UNL d   1       1.792  -1.388  -2.262  1.00  0.00     0.186 HD
BRANCH   8  10
ATOM     10  N   UNL d   1       0.197  -0.341  -1.268  0.00  0.00    -0.281 N 
ATOM     11  C   UNL d   1       0.586  -0.854  -0.145  0.00  0.00     0.141 C 
ATOM     12  N   UNL d   1      -0.005  -0.582   1.040  0.00  0.00    -0.278 NA
ATOM     13  N   UNL d   1       1.619  -1.717   0.016  0.00  0.00    -0.278 NA
ATOM     14  H   UNL d   1      -0.899  -0.128   0.903  0.00  0.00     0.126 HD
ATOM     15  H   UNL d   1      -0.091  -1.409   1.620  0.00  0.00     0.126 HD
ATOM     16  H   UNL d   1       2.110  -1.756  -0.875  0.00  0.00     0.126 HD
ATOM     17  H   UNL d   1       2.243  -1.421   0.756  0.00  0.00     0.126 HD
ATOM     18  HN  UNL d   1      -0.597   0.293  -1.361  1.00  0.00     0.189 HD
ENDBRANCH   8  10
ENDBRANCH   1   7
BRANCH   2  19
ATOM     19  C   UNL d   1       3.222  -1.166  -8.460  0.00  0.00     0.118 C 
ATOM     20  N   UNL d   1       2.891  -0.535  -9.542  0.00  0.00    -0.309 N 
ATOM     21  HN  UNL d   1       2.159   0.172  -9.602  1.00  0.00     0.186 HD
BRANCH  20  22
ATOM     22  N   UNL d   1       3.680  -0.959 -10.618  0.00  0.00    -0.277 N 
ATOM     23  C   UNL d   1       3.320  -0.410 -11.738  0.00  0.00     0.163 C 
ATOM     24  N   UNL d   1       2.293   0.464 -11.877  0.00  0.00    -0.273 NA
ATOM     25  N   UNL d   1       3.929  -0.687 -12.911  0.00  0.00    -0.375 N 
ATOM     26  H   UNL d   1       1.971   0.700 -10.940  0.00  0.00     0.127 HD
ATOM     27  H   UNL d   1       2.505   1.290 -12.414  0.00  0.00     0.127 HD
ATOM     28  H   UNL d   1       4.798  -1.194 -12.797  0.00  0.00     0.158 HD
ATOM     29  H   UNL d   1       3.962   0.049 -13.599  0.00  0.00     0.158 HD
ATOM     30  HN  UNL d   1       4.449  -1.624 -10.532  1.00  0.00     0.189 HD
ENDBRANCH  20  22
ENDBRANCH   2  19
TORSDOF 4
