REMARK  7 active torsions:
REMARK  status: ('A' for Active; 'I' for Inactive)
REMARK    1  A    between atoms: C_5  and  C_1 
REMARK    2  A    between atoms: C_6  and  C_1 
REMARK    3  A    between atoms: C_3  and  N_7 
REMARK    4  A    between atoms: N_7  and  C_4 
REMARK    5  A    between atoms: O_15  and  C_5 
REMARK    6  A    between atoms: N_8  and  C_6 
REMARK    7  A    between atoms: C_17  and  O_15 
ROOT
ATOM      1  C   UNL d   1       1.043   0.055  -0.072  0.00  0.00     0.117 C 
ATOM      2  C   UNL d   1       0.374  -0.277  -1.189  0.00  0.00     0.116 C 
ENDROOT
BRANCH   1   3
ATOM      3  C   UNL d   1       0.315   0.548   1.109  0.00  0.00     0.304 C 
ATOM      4  O   UNL d   1      -0.899   0.701   1.156  0.00  0.00    -0.258 OA
BRANCH   3   5
ATOM      5  O   UNL d   1       1.197   0.897   2.076  0.00  0.00    -0.317 OA
BRANCH   5   6
ATOM      6  C   UNL d   1       0.687   1.736   3.121  0.00  0.00     0.174 C 
ATOM      7  C   UNL d   1       0.799   3.180   2.666  0.00  0.00     0.034 C 
ENDBRANCH   5   6
ENDBRANCH   3   5
ENDBRANCH   1   3
BRANCH   1   8
ATOM      8  C   UNL d   1       2.563   0.055  -0.072  0.00  0.00    -0.029 C 
BRANCH   8   9
ATOM      9  N   UNL d   1       3.824   0.055  -0.072  0.00  0.00    -0.365 N 
ATOM     10  HN2 UNL d   1       2.804   0.055  -0.072  1.00  0.00     0.165 HD
ATOM     11  HN1 UNL d   1       4.844   0.055  -0.072  1.00  0.00     0.165 HD
ENDBRANCH   8   9
ENDBRANCH   1   8
BRANCH   2  12
ATOM     12  N   UNL d   1       0.902  -0.676  -2.403  0.00  0.00    -0.363 N 
ATOM     13  H   UNL d   1       0.982   0.087  -3.075  0.00  0.00     0.165 HD
BRANCH  12  14
ATOM     14  C   UNL d   1       1.228  -1.941  -2.784  0.00  0.00     0.045 A 
ATOM     15  C   UNL d   1       1.831  -2.260  -4.050  0.00  0.00    -0.028 A 
ATOM     16  C   UNL d   1       2.033  -3.625  -4.163  0.00  0.00     0.058 A 
ATOM     17  C   UNL d   1       2.216  -1.302  -5.132  0.00  0.00     0.051 C 
ATOM     18  S   UNL d   1       1.528  -4.496  -2.787  0.00  0.00    -0.111 SA
ATOM     19  C   UNL d   1       1.020  -3.062  -2.011  0.00  0.00     0.079 A 
ENDBRANCH  12  14
ENDBRANCH   2  12
TORSDOF 7
