REMARK  5 active torsions:
REMARK  status: ('A' for Active; 'I' for Inactive)
REMARK    1  A    between atoms: N_9  and  C_2 
REMARK    2  A    between atoms: C_3  and  C_7 
REMARK    3  A    between atoms: C_10  and  C_3 
REMARK    4  A    between atoms: C_11  and  C_3 
REMARK    5  A    between atoms: C_7  and  N_9 
ROOT
ATOM      1  N   UNL d   1       2.049  -1.355   0.117  0.00  0.00    -0.349 N 
ATOM      2  H   UNL d   1       2.789  -0.677   0.270  0.00  0.00     0.167 HD
ENDROOT
BRANCH   1   3
ATOM      3  C   UNL d   1       2.455  -2.667   0.038  0.00  0.00     0.108 C 
BRANCH   3   4
ATOM      4  C   UNL d   1       3.670  -3.250   0.077  0.00  0.00     0.070 C 
BRANCH   4   5
ATOM      5  C   UNL d   1       4.965  -2.523   0.183  0.00  0.00     0.160 C 
ATOM      6  O   UNL d   1       5.898  -3.033   0.807  0.00  0.00    -0.293 OA
ATOM      7  C   UNL d   1       5.151  -1.192  -0.497  0.00  0.00     0.097 C 
ENDBRANCH   4   5
BRANCH   4   8
ATOM      8  C   UNL d   1       3.653  -4.754   0.047  0.00  0.00     0.160 C 
ATOM      9  O   UNL d   1       2.654  -5.386   0.400  0.00  0.00    -0.293 OA
ATOM     10  C   UNL d   1       4.864  -5.493  -0.462  0.00  0.00     0.097 C 
ENDBRANCH   4   8
ENDBRANCH   3   4
ENDBRANCH   1   3
BRANCH   1  11
ATOM     11  C   UNL d   1       0.819  -0.769   0.067  0.00  0.00     0.145 A 
ATOM     12  C   UNL d   1      -0.487  -1.331  -0.005  0.00  0.00     0.088 A 
ATOM     13  C   UNL d   1      -1.343  -0.259  -0.018  0.00  0.00     0.093 A 
ATOM     14 BR   UNL d   1      -1.041  -3.123  -0.040  0.00  0.00    -0.044 Br
ATOM     15  O   UNL d   1      -0.613   0.884   0.033  0.00  0.00    -0.240 OA
ATOM     16  C   UNL d   1      -2.808  -0.085  -0.068  0.00  0.00     0.080 C 
ATOM     17  N   UNL d   1       0.726   0.571   0.091  0.00  0.00    -0.243 N 
ATOM     18  HN  UNL d   1       1.501   1.231   0.142  1.00  0.00     0.196 HD
ENDBRANCH   1  11
TORSDOF 5
