REMARK  6 active torsions:
REMARK  status: ('A' for Active; 'I' for Inactive)
REMARK    1  A    between atoms: O_19  and  C_2 
REMARK    2  A    between atoms: O_20  and  C_7 
REMARK    3  A    between atoms: C_21  and  N_10 
REMARK    4  A    between atoms: C_15  and  C_14 
REMARK    5  A    between atoms: C_16  and  C_22 
REMARK    6  A    between atoms: C_22  and  C_21 
ROOT
ATOM      1  N   UNL d   1       4.605  -0.646  -0.071  0.00  0.00    -0.398 N 
ATOM      2  HN  UNL d   1       4.646   0.373  -0.085  1.00  0.00     0.158 HD
ATOM      3  C   UNL d   1       3.496  -1.301  -0.063  0.00  0.00     0.094 C 
ENDROOT
BRANCH   1   4
ATOM      4  C   UNL d   1       5.805  -1.491  -0.058  0.00  0.00     0.123 C 
BRANCH   4   5
ATOM      5  C   UNL d   1       7.031  -0.573  -0.048  0.00  0.00     0.058 C 
BRANCH   5   6
ATOM      6  C   UNL d   1       8.330  -1.341  -0.055  0.00  0.00    -0.054 A 
ATOM      7  C   UNL d   1       8.931  -1.702  -1.272  0.00  0.00     0.046 A 
ATOM      8  C   UNL d   1      10.130  -2.431  -1.311  0.00  0.00     0.102 A 
ATOM      9  C   UNL d   1      10.746  -2.784  -0.097  0.00  0.00     0.101 A 
ATOM     10  C   UNL d   1      10.133  -2.441   1.117  0.00  0.00     0.040 A 
ATOM     11  C   UNL d   1       8.937  -1.725   1.141  0.00  0.00     0.010 A 
BRANCH   8  12
ATOM     12  O   UNL d   1      10.718  -2.851  -2.474  0.00  0.00    -0.353 OA
ATOM     13  C   UNL d   1      10.075  -2.529  -3.700  0.00  0.00     0.210 C 
ENDBRANCH   8  12
BRANCH   9  14
ATOM     14  O   UNL d   1      11.901  -3.506   0.068  0.00  0.00    -0.353 OA
ATOM     15  C   UNL d   1      12.912  -3.325  -0.915  0.00  0.00     0.210 C 
ENDBRANCH   9  14
ENDBRANCH   5   6
ENDBRANCH   4   5
ENDBRANCH   1   4
BRANCH   3  16
ATOM     16  C   UNL d   1       2.193  -0.602  -0.067  0.00  0.00    -0.018 A 
ATOM     17  C   UNL d   1       1.017  -1.357  -0.056  0.00  0.00     0.052 A 
ATOM     18  C   UNL d   1      -0.178  -0.664  -0.050  0.00  0.00     0.105 A 
ATOM     19  C   UNL d   1      -0.223   0.712  -0.062  0.00  0.00     0.105 A 
ATOM     20  O   UNL d   1      -1.419  -1.220  -0.031  0.00  0.00    -0.323 OA
ATOM     21  O   UNL d   1      -1.496   1.191  -0.052  0.00  0.00    -0.323 OA
ATOM     22  C   UNL d   1       0.922   1.478  -0.080  0.00  0.00     0.040 A 
ATOM     23  C   UNL d   1      -2.248  -0.039  -0.001  0.00  0.00     0.352 A 
ATOM     24  C   UNL d   1       2.148   0.808  -0.081  0.00  0.00     0.015 A 
ENDBRANCH   3  16
TORSDOF 6
