REMARK  2 active torsions:
REMARK  status: ('A' for Active; 'I' for Inactive)
REMARK    1  A    between atoms: C_7  and  C_1 
REMARK    2  A    between atoms: S_9  and  C_2 
ROOT
ATOM      1  C   UNL d   1      -0.171  -1.172   0.033  0.00  0.00     0.041 A 
ATOM      2  C   UNL d   1       1.139  -0.742   0.208  0.00  0.00     0.056 A 
ATOM      3  S   UNL d   1       1.265   0.968   0.143  0.00  0.00    -0.071 SA
ATOM      4  C   UNL d   1      -1.089  -0.030  -0.041  0.00  0.00    -0.019 A 
ATOM      5  C   UNL d   1      -0.412   1.177  -0.029  0.00  0.00     0.093 A 
ATOM      6  C   UNL d   1      -1.012   2.473  -0.124  0.00  0.00     0.107 C 
ATOM      7  N   UNL d   1      -1.520   3.518  -0.199  0.00  0.00    -0.191 NA
ATOM      8  C   UNL d   1      -2.591  -0.128  -0.102  0.00  0.00     0.051 C 
ENDROOT
BRANCH   1   9
ATOM      9  C   UNL d   1      -0.623  -2.568  -0.085  0.00  0.00     0.158 C 
ATOM     10  O   UNL d   1      -1.473  -2.866  -0.928  0.00  0.00    -0.293 OA
ATOM     11  C   UNL d   1      -0.111  -3.646   0.832  0.00  0.00     0.097 C 
ENDBRANCH   1   9
BRANCH   2  12
ATOM     12  S   UNL d   1       2.627  -1.641   0.512  0.00  0.00    -0.126 SA
ATOM     13  C   UNL d   1       2.800  -2.679  -0.949  0.00  0.00     0.096 C 
ENDBRANCH   2  12
TORSDOF 2
