REMARK  1 active torsions:
REMARK  status: ('A' for Active; 'I' for Inactive)
REMARK    1  A    between atoms: S_6  and  C_1 
ROOT
ATOM      1  C   UNL d   1       1.137  -1.601   0.108  0.00  0.00     0.115 A 
ATOM      2  C   UNL d   1       0.019  -0.782   0.058  0.00  0.00     0.046 A 
ATOM      3  S   UNL d   1       2.574  -0.662   0.097  0.00  0.00    -0.069 SA
ATOM      4  C   UNL d   1       0.351   0.625   0.018  0.00  0.00    -0.017 A 
ATOM      5  C   UNL d   1       1.715   0.793   0.005  0.00  0.00     0.060 A 
ATOM      6  C   UNL d   1      -1.367  -1.235   0.035  0.00  0.00     0.162 C 
ATOM      7  C   UNL d   1      -0.714   1.695  -0.039  0.00  0.00     0.050 C 
ATOM      8  C   UNL d   1      -2.119   1.160   0.358  0.00  0.00    -0.037 C 
ATOM      9  C   UNL d   1      -2.390  -0.186  -0.356  0.00  0.00     0.093 C 
ATOM     10  O   UNL d   1      -1.698  -2.380   0.326  0.00  0.00    -0.292 OA
ATOM     11 BR   UNL d   1       2.583   2.453  -0.118  0.00  0.00    -0.042 Br
ATOM     12  C   UNL d   1      -3.199   2.169  -0.073  0.00  0.00     0.015 C 
ATOM     13  C   UNL d   1      -2.217   0.988   1.890  0.00  0.00     0.015 C 
ENDROOT
BRANCH   1  14
ATOM     14  S   UNL d   1       1.350  -3.377   0.065  0.00  0.00     0.179 S 
ATOM     15  O   UNL d   1       0.555  -3.812  -1.063  0.00  0.00    -0.222 OA
ATOM     16  O   UNL d   1       2.779  -3.631   0.109  0.00  0.00    -0.222 OA
ATOM     17  C   UNL d   1       0.656  -3.990   1.576  0.00  0.00     0.167 C 
ENDBRANCH   1  14
TORSDOF 1
