REMARK  5 active torsions:
REMARK  status: ('A' for Active; 'I' for Inactive)
REMARK    1  A    between atoms: C_2  and  S_1 
REMARK    2  A    between atoms: N_3  and  S_1 
REMARK    3  A    between atoms: C_18  and  N_3 
REMARK    4  A    between atoms: C_10  and  O_19 
REMARK    5  A    between atoms: O_19  and  C_13 
ROOT
ATOM      1  N   UNL d   1      -0.053  -2.403   4.340  0.00  0.00    -0.344 N 
ATOM      2  HN  UNL d   1      -0.789  -2.735   4.962  1.00  0.00     0.167 HD
ATOM      3  C   UNL d   1       1.220  -2.851   4.447  0.00  0.00     0.148 A 
ATOM      4  C   UNL d   1       0.647  -1.049   2.466  0.00  0.00     0.058 A 
ATOM      5  C   UNL d   1      -0.303  -1.496   3.372  0.00  0.00     0.120 A 
ATOM      6  C   UNL d   1       2.229  -2.500   3.562  0.00  0.00     0.059 A 
ATOM      7  C   UNL d   1       1.929  -1.586   2.546  0.00  0.00     0.036 A 
ENDROOT
BRANCH   4   8
ATOM      8  N   UNL d   1       0.349  -0.036   1.514  0.00  0.00    -0.279 N 
ATOM      9  H   UNL d   1      -0.054   0.838   1.856  0.00  0.00     0.179 HD
BRANCH   8  10
ATOM     10  S   UNL d   1      -0.292  -0.455   0.012  0.00  0.00     0.265 S 
ATOM     11  O   UNL d   1      -0.629   0.780  -0.664  0.00  0.00    -0.200 OA
ATOM     12  O   UNL d   1       0.642  -1.382  -0.598  0.00  0.00    -0.200 OA
BRANCH  10  13
ATOM     13  C   UNL d   1      -1.803  -1.339   0.304  0.00  0.00     0.107 A 
ATOM     14  C   UNL d   1      -2.836  -0.744   1.032  0.00  0.00     0.066 A 
ATOM     15  N   UNL d   1      -2.712   0.463   1.642  0.00  0.00    -0.364 N 
ATOM     16  C   UNL d   1      -4.042  -1.483   1.141  0.00  0.00    -0.008 A 
ATOM     17  C   UNL d   1      -3.776   0.966   2.313  0.00  0.00     0.088 A 
ATOM     18  HN  UNL d   1      -1.834   0.980   1.597  1.00  0.00     0.165 HD
ATOM     19  C   UNL d   1      -4.985   0.319   2.447  0.00  0.00     0.018 A 
ATOM     20  C   UNL d   1      -5.113  -0.929   1.855  0.00  0.00     0.015 A 
ATOM     21  C   UNL d   1      -4.177  -2.747   0.551  0.00  0.00     0.014 A 
ATOM     22  C   UNL d   1      -3.126  -3.313  -0.158  0.00  0.00     0.003 A 
ATOM     23  C   UNL d   1      -1.936  -2.610  -0.285  0.00  0.00     0.028 A 
ENDBRANCH  10  13
ENDBRANCH   8  10
ENDBRANCH   4   8
BRANCH   3  24
ATOM     24  O   UNL d   1       1.559  -3.668   5.524  0.00  0.00    -0.294 OA
BRANCH  24  25
ATOM     25  C   UNL d   1       0.847  -3.473   6.691  0.00  0.00     0.079 A 
ATOM     26  C   UNL d   1       0.482  -4.600   7.428  0.00  0.00     0.045 A 
ATOM     27  C   UNL d   1      -0.288  -4.465   8.598  0.00  0.00    -0.037 A 
ATOM     28  C   UNL d   1      -0.685  -5.702   9.361  0.00  0.00     0.050 C 
ATOM     29  C   UNL d   1      -0.689  -3.177   9.020  0.00  0.00     0.046 A 
ATOM     30  C   UNL d   1      -0.291  -2.036   8.303  0.00  0.00    -0.037 A 
ATOM     31 CL   UNL d   1      -1.685  -3.016  10.432  0.00  0.00    -0.083 Cl
ATOM     32  C   UNL d   1       0.509  -2.203   7.162  0.00  0.00     0.045 A 
ATOM     33  C   UNL d   1      -0.702  -0.628   8.635  0.00  0.00     0.050 C 
ENDBRANCH  24  25
ENDBRANCH   3  24
TORSDOF 5
