REMARK  2 active torsions:
REMARK  status: ('A' for Active; 'I' for Inactive)
REMARK    1  A    between atoms: C_4  and  C_1 
REMARK    2  A    between atoms: C_14  and  C_7 
ROOT
ATOM      1  C   UNL d   1       0.337   1.091  -0.001  0.00  0.00     0.157 A 
ATOM      2  N   UNL d   1       1.260   0.120  -0.281  0.00  0.00    -0.317 N 
ATOM      3  HN  UNL d   1       2.211   0.227  -0.634  1.00  0.00     0.169 HD
ATOM      4  N   UNL d   1      -0.850   0.633   0.420  0.00  0.00    -0.241 N 
ATOM      5  HN  UNL d   1      -1.682   1.166   0.672  1.00  0.00     0.196 HD
ATOM      6  C   UNL d   1       0.612  -0.983   0.018  0.00  0.00     0.182 A 
ATOM      7  O   UNL d   1      -0.671  -0.752   0.430  0.00  0.00    -0.217 OA
ENDROOT
BRANCH   1   8
ATOM      8  C   UNL d   1       0.621   2.532  -0.101  0.00  0.00     0.112 A 
ATOM      9  C   UNL d   1       1.742   3.196  -0.523  0.00  0.00     0.059 A 
ATOM     10  C   UNL d   1       1.450   4.561  -0.361  0.00  0.00     0.128 A 
ATOM     11 BR   UNL d   1       3.362   2.546  -1.188  0.00  0.00    -0.047 Br
ATOM     12  N   UNL d   1       0.220   4.759   0.126  0.00  0.00    -0.310 N 
ATOM     13  N   UNL d   1      -0.264   3.508   0.266  0.00  0.00    -0.296 N 
ATOM     14  HN  UNL d   1      -0.241   5.643   0.339  1.00  0.00     0.186 HD
ATOM     15  H   UNL d   1      -1.201   3.384   0.634  0.00  0.00     0.187 HD
ENDBRANCH   1   8
BRANCH   6  16
ATOM     16  C   UNL d   1       1.085  -2.363   0.036  0.00  0.00     0.017 A 
ATOM     17  C   UNL d   1       2.418  -2.639  -0.309  0.00  0.00     0.017 A 
ATOM     18  C   UNL d   1       2.922  -3.942  -0.243  0.00  0.00     0.025 A 
ATOM     19  C   UNL d   1       2.093  -4.983   0.165  0.00  0.00     0.034 A 
ATOM     20  C   UNL d   1       0.762  -4.734   0.494  0.00  0.00     0.025 A 
ATOM     21 CL   UNL d   1       2.716  -6.582   0.274  0.00  0.00    -0.084 Cl
ATOM     22  C   UNL d   1       0.260  -3.429   0.427  0.00  0.00     0.017 A 
ENDBRANCH   6  16
TORSDOF 2
