REMARK  3 active torsions:
REMARK  status: ('A' for Active; 'I' for Inactive)
REMARK    1  A    between atoms: C_2  and  N_1 
REMARK    2  A    between atoms: C_14  and  C_10 
REMARK    3  A    between atoms: C_15  and  C_14 
ROOT
ATOM      1  N   UNL d   1      -0.313   1.115   0.007  0.00  0.00    -0.232 N 
ATOM      2  N   UNL d   1       0.957   0.678  -0.218  0.00  0.00    -0.279 N 
ATOM      3  HN  UNL d   1       1.784   1.222  -0.464  1.00  0.00     0.189 HD
ATOM      4  N   UNL d   1      -0.419  -1.084   0.234  0.00  0.00    -0.339 N 
ATOM      5  HN  UNL d   1      -0.741  -2.040   0.382  1.00  0.00     0.168 HD
ATOM      6  C   UNL d   1       0.847  -0.642  -0.037  0.00  0.00     0.104 A 
ATOM      7  C   UNL d   1      -1.119   0.028   0.255  0.00  0.00     0.210 A 
ENDROOT
BRANCH   1   8
ATOM      8  C   UNL d   1      -0.689   2.478   0.014  0.00  0.00     0.150 A 
ATOM      9  N   UNL d   1      -1.943   2.821   0.327  0.00  0.00    -0.243 N 
ATOM     10  O   UNL d   1      -1.951   4.209   0.284  0.00  0.00    -0.241 OA
ATOM     11  HN  UNL d   1      -2.721   2.200   0.547  1.00  0.00     0.196 HD
ATOM     12  C   UNL d   1      -0.711   4.660  -0.064  0.00  0.00     0.076 A 
ATOM     13  C   UNL d   1       0.129   3.590  -0.252  0.00  0.00     0.086 A 
ATOM     14  C   UNL d   1      -0.549   6.122  -0.147  0.00  0.00     0.079 C 
ENDBRANCH   1   8
BRANCH   6  15
ATOM     15  C   UNL d   1       2.000  -1.567  -0.104  0.00  0.00     0.155 C 
BRANCH  15  16
ATOM     16  C   UNL d   1       2.694  -1.663   1.234  0.00  0.00     0.130 C 
ATOM     17  O   UNL d   1       3.893  -1.393   1.356  0.00  0.00    -0.298 OA
ATOM     18  C   UNL d   1       1.912  -2.176   2.418  0.00  0.00     0.091 C 
ENDBRANCH  15  16
ENDBRANCH   6  15
TORSDOF 3
