REMARK  10 active torsions:
REMARK  status: ('A' for Active; 'I' for Inactive)
REMARK       I    between atoms: N_5  and  C_1 
REMARK    1  A    between atoms: O_8  and  C_1 
REMARK    2  A    between atoms: C_2  and  N_5 
REMARK    3  A    between atoms: C_3  and  C_2 
REMARK    4  A    between atoms: C_4  and  C_2 
REMARK    5  A    between atoms: C_6  and  C_3 
REMARK       I    between atoms: N_7  and  C_4 
REMARK       I    between atoms: N_16  and  C_6 
REMARK    6  A    between atoms: C_15  and  N_7 
REMARK    7  A    between atoms: C_14  and  O_8 
REMARK    8  A    between atoms: C_9  and  C_15 
REMARK    9  A    between atoms: O_17  and  C_9 
REMARK   10  A    between atoms: C_21  and  O_17 
ROOT
ATOM      1  C   UNL d   1       1.046   0.879  -2.194  0.00  0.00     0.187 C 
ENDROOT
BRANCH   1   2
ATOM      2  N   UNL d   1       0.373   0.357  -1.007  0.00  0.00    -0.323 N 
ATOM      3  C   UNL d   1       1.062   0.027   0.126  0.00  0.00     0.362 C 
ATOM      4  O   UNL d   1       2.265   0.186   0.266  0.00  0.00    -0.238 OA
ATOM      5  H   UNL d   1      -0.600   0.086  -1.047  0.00  0.00     0.165 HD
BRANCH   3   6
ATOM      6  O   UNL d   1       0.224  -0.531   1.030  0.00  0.00    -0.294 OA
BRANCH   6   7
ATOM      7  C   UNL d   1       0.734  -1.040   2.295  0.00  0.00     0.061 C 
ATOM      8  C   UNL d   1       1.383   0.064   3.140  0.00  0.00     0.046 C 
ATOM      9  C   UNL d   1      -0.503  -1.559   3.045  0.00  0.00     0.046 C 
ATOM     10  C   UNL d   1       1.694  -2.216   2.073  0.00  0.00     0.046 C 
ENDBRANCH   6   7
ENDBRANCH   3   6
ENDBRANCH   1   2
BRANCH   1  11
ATOM     11  C   UNL d   1       1.969  -0.140  -2.872  0.00  0.00     0.137 C 
BRANCH  11  12
ATOM     12  C   UNL d   1       1.301  -1.459  -3.203  0.00  0.00     0.217 C 
ATOM     13  O   UNL d   1       0.092  -1.662  -3.153  0.00  0.00    -0.274 OA
ATOM     14  N   UNL d   1       2.151  -2.433  -3.629  0.00  0.00    -0.370 N 
ATOM     15  H   UNL d   1       3.156  -2.360  -3.529  0.00  0.00     0.159 HD
ATOM     16  H   UNL d   1       1.757  -3.347  -3.816  0.00  0.00     0.159 HD
ENDBRANCH  11  12
ENDBRANCH   1  11
BRANCH   1  17
ATOM     17  C   UNL d   1       0.085   1.533  -3.215  0.00  0.00     0.241 C 
ATOM     18  N   UNL d   1      -0.909   0.728  -3.719  0.00  0.00    -0.350 N 
ATOM     19  H   UNL d   1      -0.849  -0.278  -3.551  0.00  0.00     0.163 HD
ATOM     20  O   UNL d   1       0.244   2.690  -3.600  0.00  0.00    -0.271 OA
BRANCH  18  21
ATOM     21  C   UNL d   1      -1.839   1.190  -4.740  0.00  0.00     0.233 C 
BRANCH  21  22
ATOM     22  C   UNL d   1      -1.463   1.008  -6.214  0.00  0.00     0.276 C 
ATOM     23  O   UNL d   1      -2.240   1.275  -7.124  0.00  0.00    -0.263 OA
BRANCH  22  24
ATOM     24  O   UNL d   1      -0.201   0.527  -6.396  0.00  0.00    -0.321 OA
BRANCH  24  25
ATOM     25  C   UNL d   1       0.178   0.310  -7.767  0.00  0.00     0.174 C 
ATOM     26  C   UNL d   1       0.637   1.600  -8.428  0.00  0.00     0.034 C 
ENDBRANCH  24  25
ENDBRANCH  22  24
ENDBRANCH  21  22
ENDBRANCH  18  21
ENDBRANCH   1  17
TORSDOF 10
