REMARK  10 active torsions:
REMARK  status: ('A' for Active; 'I' for Inactive)
REMARK    1  A    between atoms: S_11  and  C_1 
REMARK    2  A    between atoms: N_6  and  C_2 
REMARK    3  A    between atoms: N_5  and  C_3 
REMARK    4  A    between atoms: C_18  and  C_4 
REMARK    5  A    between atoms: C_9  and  S_11 
REMARK    6  A    between atoms: C_23  and  C_10 
REMARK    7  A    between atoms: C_13  and  C_14 
REMARK    8  A    between atoms: O_30  and  C_18 
REMARK    9  A    between atoms: O_31  and  C_23 
REMARK   10  A    between atoms: O_32  and  C_23 
ROOT
ATOM      1  C   UNL d   1       3.845  -5.101   0.452  0.00  0.00     0.068 A 
ATOM      2  N   UNL d   1       4.221  -2.808   1.141  0.00  0.00    -0.348 N 
ATOM      3  HN  UNL d   1       4.602  -2.145   1.816  1.00  0.00     0.166 HD
ATOM      4  C   UNL d   1       3.645  -2.357   0.003  0.00  0.00     0.096 A 
ATOM      5  C   UNL d   1       4.293  -4.166   1.390  0.00  0.00     0.082 A 
ATOM      6  C   UNL d   1       3.216  -3.238  -0.985  0.00  0.00     0.079 A 
ATOM      7  C   UNL d   1       3.340  -4.614  -0.762  0.00  0.00     0.045 A 
ATOM      8  C   UNL d   1       2.562  -2.810  -2.176  0.00  0.00     0.102 C 
ATOM      9  N   UNL d   1       2.015  -2.516  -3.157  0.00  0.00    -0.191 NA
ENDROOT
BRANCH   4  10
ATOM     10  S   UNL d   1       3.158  -0.638   0.040  0.00  0.00    -0.066 SA
BRANCH  10  11
ATOM     11  C   UNL d   1       4.594   0.311  -0.445  0.00  0.00     0.073 A 
ATOM     12  C   UNL d   1       4.745   0.799  -1.759  0.00  0.00     0.123 A 
ATOM     13  C   UNL d   1       5.809   1.632  -2.166  0.00  0.00     0.053 A 
ATOM     14  C   UNL d   1       6.772   2.050  -1.245  0.00  0.00     0.052 A 
ATOM     15  C   UNL d   1       6.646   1.608   0.077  0.00  0.00     0.053 A 
ATOM     16  C   UNL d   1       5.576   0.759   0.461  0.00  0.00     0.123 A 
BRANCH  12  17
ATOM     17  N   UNL d   1       3.766   0.514  -2.792  0.00  0.00    -0.114 N 
ATOM     18  O   UNL d   1       2.645   1.017  -2.662  0.00  0.00    -0.532 OA
ATOM     19  O   UNL d   1       4.169  -0.152  -3.753  0.00  0.00    -0.532 OA
ENDBRANCH  12  17
BRANCH  14  20
ATOM     20  C   UNL d   1       7.888   2.970  -1.687  0.00  0.00     0.417 C 
ATOM     21  F   UNL d   1       8.699   3.365  -0.669  0.00  0.00    -0.166 F 
ATOM     22  F   UNL d   1       8.693   2.387  -2.614  0.00  0.00    -0.166 F 
ATOM     23  F   UNL d   1       7.415   4.110  -2.259  0.00  0.00    -0.166 F 
ENDBRANCH  14  20
BRANCH  16  24
ATOM     24  N   UNL d   1       5.512   0.440   1.881  0.00  0.00    -0.114 N 
ATOM     25  O   UNL d   1       4.527   0.848   2.508  0.00  0.00    -0.532 OA
ATOM     26  O   UNL d   1       6.512  -0.101   2.368  0.00  0.00    -0.532 OA
ENDBRANCH  16  24
ENDBRANCH  10  11
ENDBRANCH   4  10
BRANCH   1  27
ATOM     27  C   UNL d   1       3.731  -6.555   0.737  0.00  0.00     0.295 C 
ATOM     28  O   UNL d   1       3.522  -7.018   1.845  0.00  0.00    -0.259 OA
BRANCH  27  29
ATOM     29  O   UNL d   1       3.801  -7.265  -0.416  0.00  0.00    -0.322 OA
ATOM     30  C   UNL d   1       3.536  -8.666  -0.277  0.00  0.00     0.213 C 
ENDBRANCH  27  29
ENDBRANCH   1  27
BRANCH   5  31
ATOM     31  C   UNL d   1       4.895  -4.577   2.740  0.00  0.00     0.310 C 
BRANCH  31  32
ATOM     32  O   UNL d   1       6.318  -4.619   2.554  0.00  0.00    -0.360 OA
ATOM     33  C   UNL d   1       6.994  -5.054   3.726  0.00  0.00     0.205 C 
ENDBRANCH  31  32
BRANCH  31  34
ATOM     34  O   UNL d   1       4.553  -3.656   3.787  0.00  0.00    -0.360 OA
ATOM     35  C   UNL d   1       3.164  -3.647   4.087  0.00  0.00     0.205 C 
ENDBRANCH  31  34
ENDBRANCH   5  31
TORSDOF 10
