REMARK  12 active torsions:
REMARK  status: ('A' for Active; 'I' for Inactive)
REMARK    1  A    between atoms: N_4  and  S_1 
REMARK    2  A    between atoms: C_6  and  S_1 
REMARK    3  A    between atoms: S_2  and  N_5 
REMARK    4  A    between atoms: C_3  and  S_2 
REMARK    5  A    between atoms: C_10  and  N_4 
REMARK    6  A    between atoms: N_5  and  N_11 
REMARK    7  A    between atoms: C_7  and  C_12 
REMARK    8  A    between atoms: C_8  and  C_13 
REMARK    9  A    between atoms: C_9  and  C_10 
REMARK       I    between atoms: N_11  and  C_9 
REMARK   10  A    between atoms: C_29  and  C_10 
REMARK   11  A    between atoms: C_33  and  C_29 
REMARK   12  A    between atoms: S_31  and  C_33 
ROOT
ATOM      1  C   UNL d   1       1.103  -1.703  -1.968  0.00  0.00     0.187 C 
ENDROOT
BRANCH   1   2
ATOM      2  C   UNL d   1       2.594  -1.969  -2.177  0.00  0.00     0.260 C 
ATOM      3  N   UNL d   1       3.329  -2.339  -1.072  0.00  0.00    -0.259 N 
ATOM      4  H   UNL d   1       3.008  -2.138  -0.122  0.00  0.00     0.190 HD
ATOM      5  O   UNL d   1       3.095  -1.924  -3.304  0.00  0.00    -0.269 OA
BRANCH   3   6
ATOM      6  N   UNL d   1       4.747  -2.572  -1.266  0.00  0.00    -0.220 N 
ATOM      7  H   UNL d   1       5.144  -2.547  -2.212  0.00  0.00     0.200 HD
BRANCH   6   8
ATOM      8  S   UNL d   1       5.785  -2.921   0.008  0.00  0.00     0.277 S 
ATOM      9  O   UNL d   1       7.144  -2.915  -0.482  0.00  0.00    -0.199 OA
ATOM     10  O   UNL d   1       5.381  -2.094   1.128  0.00  0.00    -0.199 OA
BRANCH   8  11
ATOM     11  C   UNL d   1       5.344  -4.591   0.394  0.00  0.00     0.102 A 
ATOM     12  C   UNL d   1       5.416  -5.606  -0.562  0.00  0.00     0.057 A 
ATOM     13 CL   UNL d   1       5.994  -5.382  -2.174  0.00  0.00    -0.083 Cl
ATOM     14  C   UNL d   1       4.986  -6.895  -0.223  0.00  0.00     0.025 A 
ATOM     15  C   UNL d   1       4.499  -7.169   1.057  0.00  0.00     0.002 A 
ATOM     16  C   UNL d   1       4.450  -6.159   2.014  0.00  0.00     0.002 A 
ATOM     17  C   UNL d   1       4.873  -4.872   1.688  0.00  0.00     0.027 A 
ENDBRANCH   8  11
ENDBRANCH   6   8
ENDBRANCH   3   6
ENDBRANCH   1   2
BRANCH   1  18
ATOM     18  N   UNL d   1       0.656  -1.376  -0.595  0.00  0.00    -0.301 N 
ATOM     19  H   UNL d   1      -0.336  -1.502  -0.396  0.00  0.00     0.173 HD
BRANCH  18  20
ATOM     20  S   UNL d   1       1.175   0.036   0.154  0.00  0.00     0.259 S 
ATOM     21  O   UNL d   1       2.592  -0.112   0.389  0.00  0.00    -0.201 OA
ATOM     22  O   UNL d   1       0.243   0.261   1.236  0.00  0.00    -0.201 OA
BRANCH  20  23
ATOM     23  C   UNL d   1       0.932   1.310  -1.058  0.00  0.00     0.081 A 
ATOM     24  C   UNL d   1      -0.295   1.980  -1.124  0.00  0.00     0.041 A 
ATOM     25  C   UNL d   1      -0.464   3.046  -2.020  0.00  0.00     0.050 A 
ATOM     26  C   UNL d   1       0.613   3.418  -2.847  0.00  0.00     0.032 A 
ATOM     27  C   UNL d   1       1.852   2.755  -2.778  0.00  0.00     0.050 A 
ATOM     28  C   UNL d   1       2.004   1.697  -1.872  0.00  0.00     0.041 A 
BRANCH  25  29
ATOM     29  C   UNL d   1      -1.760   3.825  -2.076  0.00  0.00     0.417 C 
ATOM     30  F   UNL d   1      -2.710   3.358  -1.220  0.00  0.00    -0.166 F 
ATOM     31  F   UNL d   1      -1.584   5.138  -1.761  0.00  0.00    -0.166 F 
ATOM     32  F   UNL d   1      -2.327   3.807  -3.312  0.00  0.00    -0.166 F 
ENDBRANCH  25  29
BRANCH  27  33
ATOM     33  C   UNL d   1       3.008   3.217  -3.639  0.00  0.00     0.417 C 
ATOM     34  F   UNL d   1       4.136   2.475  -3.477  0.00  0.00    -0.166 F 
ATOM     35  F   UNL d   1       2.715   3.176  -4.967  0.00  0.00    -0.166 F 
ATOM     36  F   UNL d   1       3.361   4.504  -3.371  0.00  0.00    -0.166 F 
ENDBRANCH  27  33
ENDBRANCH  20  23
ENDBRANCH  18  20
ENDBRANCH   1  18
BRANCH   1  37
ATOM     37  C   UNL d   1       0.310  -2.927  -2.480  0.00  0.00     0.045 C 
BRANCH  37  38
ATOM     38  C   UNL d   1      -1.221  -2.789  -2.482  0.00  0.00     0.076 C 
BRANCH  38  39
ATOM     39  S   UNL d   1      -1.794  -1.248  -3.273  0.00  0.00    -0.173 SA
ATOM     40  C   UNL d   1      -3.555  -1.347  -2.870  0.00  0.00     0.089 C 
ENDBRANCH  38  39
ENDBRANCH  37  38
ENDBRANCH   1  37
TORSDOF 12
