REMARK  2 active torsions:
REMARK  status: ('A' for Active; 'I' for Inactive)
REMARK    1  A    between atoms: C_8  and  N_1 
REMARK    2  A    between atoms: C_10  and  C_8 
ROOT
ATOM      1  N   UNL d   1       1.030  -0.734   0.185  0.00  0.00    -0.253 N 
ATOM      2  N   UNL d   1       0.458  -0.374   1.394  0.00  0.00    -0.300 N 
ATOM      3  HN  UNL d   1       0.925  -0.570   2.279  1.00  0.00     0.187 HD
ATOM      4  C   UNL d   1       0.424  -0.538  -1.048  0.00  0.00     0.262 A 
ATOM      5  C   UNL d   1      -0.875   0.165  -1.028  0.00  0.00     0.078 A 
ATOM      6  C   UNL d   1      -0.692   0.220   1.359  0.00  0.00     0.022 A 
ATOM      7  C   UNL d   1      -1.428   0.549   0.122  0.00  0.00     0.031 A 
ATOM      8  O   UNL d   1       0.890  -0.886  -2.132  0.00  0.00    -0.267 OA
ATOM      9  C   UNL d   1      -1.348   0.601   2.660  0.00  0.00     0.069 C 
ENDROOT
BRANCH   1  10
ATOM     10  C   UNL d   1       2.309  -1.436   0.254  0.00  0.00     0.191 C 
BRANCH  10  11
ATOM     11  C   UNL d   1       2.120  -2.934   0.350  0.00  0.00    -0.038 A 
ATOM     12  C   UNL d   1       2.122  -3.725  -0.809  0.00  0.00     0.010 A 
ATOM     13  C   UNL d   1       1.828  -5.088  -0.736  0.00  0.00     0.024 A 
ATOM     14  C   UNL d   1       1.534  -5.666   0.497  0.00  0.00     0.034 A 
ATOM     15  C   UNL d   1       1.561  -4.901   1.661  0.00  0.00     0.024 A 
ATOM     16 CL   UNL d   1       1.099  -7.329   0.579  0.00  0.00    -0.084 Cl
ATOM     17  C   UNL d   1       1.854  -3.538   1.587  0.00  0.00     0.010 A 
ENDBRANCH  10  11
ENDBRANCH   1  10
TORSDOF 2
