REMARK  3 active torsions:
REMARK  status: ('A' for Active; 'I' for Inactive)
REMARK    1  A    between atoms: C_2  and  N_1 
REMARK       I    between atoms: C_8  and  N_1 
REMARK    2  A    between atoms: N_3  and  C_10 
REMARK    3  A    between atoms: C_14  and  N_6 
ROOT
ATOM      1  C   UNL d   1       0.201   1.356   0.223  0.00  0.00     0.056 A 
ATOM      2  C   UNL d   1       0.599   2.613  -0.258  0.00  0.00     0.063 A 
ATOM      3  C   UNL d   1      -0.137   3.758   0.049  0.00  0.00     0.057 A 
ATOM      4  C   UNL d   1      -1.252   3.687   0.888  0.00  0.00     0.049 A 
ATOM      5  C   UNL d   1      -0.901   1.279   1.079  0.00  0.00     0.033 A 
ATOM      6 CL   UNL d   1       1.960   2.775  -1.315  0.00  0.00    -0.082 Cl
ATOM      7  C   UNL d   1      -1.621   2.437   1.406  0.00  0.00     0.033 A 
ENDROOT
BRANCH   4   8
ATOM      8  N   UNL d   1      -1.979   4.872   1.117  0.00  0.00    -0.300 N 
ATOM      9  N   UNL d   1      -2.432   4.942   2.277  0.00  0.00    -0.300 N 
ATOM     10  HN  UNL d   1      -2.283   4.226   2.988  1.00  0.00     0.187 HD
ATOM     11  HN  UNL d   1      -2.119   5.594   0.411  1.00  0.00     0.187 HD
BRANCH   9  12
ATOM     12  C   UNL d   1      -3.174   6.125   2.497  0.00  0.00     0.048 A 
ATOM     13  C   UNL d   1      -3.865   6.817   1.488  0.00  0.00     0.031 A 
ATOM     14  C   UNL d   1      -4.606   7.964   1.782  0.00  0.00     0.002 A 
ATOM     15  C   UNL d   1      -4.675   8.432   3.092  0.00  0.00     0.000 A 
ATOM     16  C   UNL d   1      -4.003   7.754   4.107  0.00  0.00     0.002 A 
ATOM     17  C   UNL d   1      -3.261   6.608   3.808  0.00  0.00     0.031 A 
ENDBRANCH   9  12
ENDBRANCH   4   8
BRANCH   1  18
ATOM     18  N   UNL d   1       0.953   0.219  -0.117  0.00  0.00    -0.326 N 
ATOM     19  C   UNL d   1       0.544  -1.052  -0.387  0.00  0.00     0.218 C 
ATOM     20  O   UNL d   1       1.385  -1.948  -0.507  0.00  0.00    -0.274 OA
ATOM     21  C   UNL d   1      -0.912  -1.337  -0.650  0.00  0.00     0.117 C 
ATOM     22  H   UNL d   1       1.935   0.365  -0.328  0.00  0.00     0.169 HD
ENDBRANCH   1  18
TORSDOF 3
