REMARK  5 active torsions:
REMARK  status: ('A' for Active; 'I' for Inactive)
REMARK    1  A    between atoms: C_13  and  N_3 
REMARK    2  A    between atoms: C_8  and  C_4 
REMARK       I    between atoms: N_11  and  C_8 
REMARK    3  A    between atoms: C_9  and  C_10 
REMARK       I    between atoms: C_10  and  N_12 
REMARK    4  A    between atoms: N_12  and  N_11 
REMARK    5  A    between atoms: N_17  and  C_14 
ROOT
ATOM      1  C   UNL d   1      -2.522  -0.156  -0.069  0.00  0.00     0.290 C 
ATOM      2  N   UNL d   1      -3.393   0.909   0.042  0.00  0.00    -0.262 N 
ATOM      3  O   UNL d   1      -2.922  -1.309  -0.226  0.00  0.00    -0.264 OA
ATOM      4  H   UNL d   1      -3.058   1.849   0.253  0.00  0.00     0.190 HD
ENDROOT
BRANCH   1   5
ATOM      5  C   UNL d   1      -1.100   0.199  -0.013  0.00  0.00     0.143 A 
ATOM      6  N   UNL d   1      -0.650   1.471   0.052  0.00  0.00    -0.272 N 
ATOM      7  N   UNL d   1       0.705   1.309   0.036  0.00  0.00    -0.196 N 
ATOM      8  HN  UNL d   1      -1.189   2.336   0.102  1.00  0.00     0.189 HD
ATOM      9  N   UNL d   1       1.145   0.029  -0.036  0.00  0.00    -0.281 N 
ATOM     10  C   UNL d   1       0.012  -0.679  -0.035  0.00  0.00     0.057 A 
ATOM     11  HN  UNL d   1       2.106  -0.311  -0.081  1.00  0.00     0.189 HD
ATOM     12  C   UNL d   1       0.080  -2.158  -0.031  0.00  0.00     0.072 C 
BRANCH   7  13
ATOM     13  C   UNL d   1       1.623   2.390   0.126  0.00  0.00     0.074 A 
ATOM     14  C   UNL d   1       1.172   3.701   0.331  0.00  0.00     0.033 A 
ATOM     15  C   UNL d   1       2.099   4.739   0.467  0.00  0.00     0.002 A 
ATOM     16  C   UNL d   1       3.467   4.480   0.385  0.00  0.00     0.000 A 
ATOM     17  C   UNL d   1       3.921   3.181   0.162  0.00  0.00     0.002 A 
ATOM     18  C   UNL d   1       3.003   2.138   0.033  0.00  0.00     0.033 A 
ENDBRANCH   7  13
ENDBRANCH   1   5
BRANCH   2  19
ATOM     19  N   UNL d   1      -4.775   0.691  -0.028  0.00  0.00    -0.263 N 
ATOM     20  C   UNL d   1      -5.632   1.647   0.476  0.00  0.00     0.271 C 
ATOM     21  O   UNL d   1      -5.239   2.682   1.008  0.00  0.00    -0.266 OA
ATOM     22  H   UNL d   1      -5.104  -0.228  -0.336  0.00  0.00     0.190 HD
BRANCH  20  23
ATOM     23  C   UNL d   1      -7.090   1.363   0.349  0.00  0.00     0.054 A 
ATOM     24  C   UNL d   1      -7.657   0.727  -0.776  0.00  0.00     0.021 A 
ATOM     25  C   UNL d   1      -9.038   0.472  -0.768  0.00  0.00     0.024 A 
ATOM     26  C   UNL d   1      -9.854   0.929   0.271  0.00  0.00     0.002 A 
ATOM     27  C   UNL d   1      -9.294   1.609   1.347  0.00  0.00     0.001 A 
ATOM     28  C   UNL d   1      -7.916   1.821   1.389  0.00  0.00     0.019 A 
BRANCH  24  29
ATOM     29  N   UNL d   1      -6.886   0.171  -1.816  0.00  0.00    -0.302 NA
ATOM     30  H   UNL d   1      -6.051   0.717  -2.028  0.00  0.00     0.124 HD
ATOM     31  H   UNL d   1      -7.422  -0.003  -2.665  0.00  0.00     0.124 HD
ENDBRANCH  24  29
ENDBRANCH  20  23
ENDBRANCH   2  19
TORSDOF 5
