REMARK  2 active torsions:
REMARK  status: ('A' for Active; 'I' for Inactive)
REMARK    1  A    between atoms: N_13  and  N_7 
REMARK    2  A    between atoms: C_15  and  N_13 
ROOT
ATOM      1  S   UNL d   1       0.856  -1.680  -0.064  0.00  0.00     0.286 S 
ATOM      2  C   UNL d   1       2.168  -0.593  -0.514  0.00  0.00     0.216 C 
ATOM      3  N   UNL d   1       1.195  -1.956   1.586  0.00  0.00    -0.273 N 
ATOM      4  C   UNL d   1       2.279   0.604   0.382  0.00  0.00     0.232 C 
ATOM      5  C   UNL d   1       2.115   0.315   1.793  0.00  0.00     0.085 A 
ATOM      6  C   UNL d   1       1.652  -0.864   2.351  0.00  0.00     0.066 A 
ATOM      7  N   UNL d   1       3.004  -0.930  -1.453  0.00  0.00    -0.285 N 
ATOM      8  HN  UNL d   1       2.866  -1.782  -1.996  1.00  0.00     0.188 HD
ATOM      9  S   UNL d   1       2.524   1.475   2.974  0.00  0.00    -0.096 SA
ATOM     10  O   UNL d   1      -0.366  -0.908  -0.147  0.00  0.00    -0.198 OA
ATOM     11  O   UNL d   1       1.029  -2.923  -0.789  0.00  0.00    -0.198 OA
ATOM     12  C   UNL d   1       1.700  -0.820   3.776  0.00  0.00     0.039 A 
ATOM     13  C   UNL d   1       2.145   0.397   4.246  0.00  0.00     0.053 A 
ATOM     14  O   UNL d   1       2.535   1.693  -0.124  0.00  0.00    -0.284 OA
ATOM     15  C   UNL d   1       0.959  -3.297   2.130  0.00  0.00     0.170 C 
ENDROOT
BRANCH   7  16
ATOM     16  N   UNL d   1       4.067  -0.114  -1.689  0.00  0.00    -0.298 N 
ATOM     17  H   UNL d   1       3.907   0.899  -1.764  0.00  0.00     0.187 HD
BRANCH  16  18
ATOM     18  C   UNL d   1       5.003  -0.583  -2.649  0.00  0.00     0.069 A 
ATOM     19  C   UNL d   1       5.859   0.302  -3.327  0.00  0.00     0.062 A 
ATOM     20 CL   UNL d   1       5.751   2.009  -3.067  0.00  0.00    -0.082 Cl
ATOM     21  C   UNL d   1       6.803  -0.171  -4.245  0.00  0.00     0.026 A 
ATOM     22  C   UNL d   1       6.924  -1.541  -4.479  0.00  0.00     0.002 A 
ATOM     23  C   UNL d   1       6.111  -2.436  -3.791  0.00  0.00     0.002 A 
ATOM     24  C   UNL d   1       5.166  -1.960  -2.880  0.00  0.00     0.033 A 
ENDBRANCH  16  18
ENDBRANCH   7  16
TORSDOF 2
