REMARK  2 active torsions:
REMARK  status: ('A' for Active; 'I' for Inactive)
REMARK    1  A    between atoms: C_5  and  N_1 
REMARK    2  A    between atoms: C_8  and  C_2 
ROOT
ATOM      1  N   UNL d   1      -0.163  -1.336  -0.064  0.00  0.00    -0.222 N 
ATOM      2  C   UNL d   1       1.074  -0.690  -0.014  0.00  0.00     0.150 A 
ATOM      3  N   UNL d   1      -1.121  -0.388  -0.164  0.00  0.00     0.001 NA
ATOM      4  N   UNL d   1      -0.506   0.778  -0.078  0.00  0.00    -0.007 NA
ATOM      5  N   UNL d   1       0.844   0.611   0.031  0.00  0.00    -0.269 N 
ATOM      6  HN  UNL d   1       1.541   1.348   0.128  1.00  0.00     0.185 HD
ENDROOT
BRANCH   1   7
ATOM      7  C   UNL d   1      -0.491  -2.709   0.094  0.00  0.00     0.078 A 
ATOM      8  C   UNL d   1      -1.579  -3.296  -0.580  0.00  0.00     0.064 A 
ATOM      9  C   UNL d   1      -1.848  -4.661  -0.412  0.00  0.00     0.050 A 
ATOM     10 CL   UNL d   1      -2.558  -2.477  -1.747  0.00  0.00    -0.082 Cl
ATOM     11  C   UNL d   1      -1.050  -5.439   0.421  0.00  0.00     0.035 A 
ATOM     12  C   UNL d   1       0.014  -4.865   1.108  0.00  0.00     0.026 A 
ATOM     13 CL   UNL d   1      -1.369  -7.118   0.591  0.00  0.00    -0.084 Cl
ATOM     14  C   UNL d   1       0.291  -3.503   0.956  0.00  0.00     0.034 A 
ENDBRANCH   1   7
BRANCH   2  15
ATOM     15  C   UNL d   1       2.402  -1.296  -0.048  0.00  0.00     0.026 A 
ATOM     16  C   UNL d   1       3.438  -0.744   0.701  0.00  0.00     0.102 A 
ATOM     17  N   UNL d   1       4.686  -1.270   0.783  0.00  0.00    -0.374 N 
ATOM     18  C   UNL d   1       4.927  -2.383   0.061  0.00  0.00     0.087 A 
ATOM     19  HN  UNL d   1       5.408  -0.844   1.363  1.00  0.00     0.164 HD
ATOM     20  C   UNL d   1       3.983  -2.986  -0.751  0.00  0.00     0.018 A 
ATOM     21  C   UNL d   1       2.709  -2.424  -0.817  0.00  0.00     0.018 A 
ENDBRANCH   2  15
TORSDOF 2
