REMARK  7 active torsions:
REMARK  status: ('A' for Active; 'I' for Inactive)
REMARK    1  A    between atoms: N_3  and  C_1 
REMARK    2  A    between atoms: C_6  and  C_2 
REMARK    3  A    between atoms: N_16  and  C_6 
REMARK    4  A    between atoms: O_13  and  N_8 
REMARK    5  A    between atoms: C_10  and  O_13 
REMARK       I    between atoms: N_15  and  C_10 
REMARK    6  A    between atoms: C_17  and  N_15 
REMARK    7  A    between atoms: C_18  and  C_17 
ROOT
ATOM      1  C   UNL d   1       2.515  -1.631  -0.001  0.00  0.00     0.109 C 
ATOM      2  N   UNL d   1       2.547  -2.929   0.089  0.00  0.00    -0.244 N 
ATOM      3  HN  UNL d   1       3.415  -3.461   0.151  1.00  0.00     0.196 HD
ENDROOT
BRANCH   1   4
ATOM      4  C   UNL d   1       1.332  -0.767   0.005  0.00  0.00     0.013 A 
ATOM      5  C   UNL d   1       0.052  -1.020   0.623  0.00  0.00     0.059 A 
ATOM      6  C   UNL d   1      -0.841   0.017   0.449  0.00  0.00     0.144 A 
ATOM      7  S   UNL d   1      -0.179   1.308  -0.426  0.00  0.00    -0.077 SA
ATOM      8  C   UNL d   1       1.310   0.485  -0.601  0.00  0.00     0.067 A 
BRANCH   6   9
ATOM      9  N   UNL d   1      -2.196   0.080   0.933  0.00  0.00    -0.108 N 
ATOM     10  O   UNL d   1      -2.600  -0.905   1.565  0.00  0.00    -0.531 OA
ATOM     11  O   UNL d   1      -2.856   1.102   0.701  0.00  0.00    -0.531 OA
ENDBRANCH   6   9
ENDBRANCH   1   4
BRANCH   1  12
ATOM     12  N   UNL d   1       3.693  -0.949  -0.109  0.00  0.00    -0.286 NA
ATOM     13  H   UNL d   1       3.735  -0.035   0.331  0.00  0.00     0.125 HD
ATOM     14  H   UNL d   1       4.502  -1.522   0.107  0.00  0.00     0.125 HD
ENDBRANCH   1  12
BRANCH   2  15
ATOM     15  O   UNL d   1       1.269  -3.533   0.093  0.00  0.00    -0.180 OA
BRANCH  15  16
ATOM     16  C   UNL d   1       1.361  -4.910  -0.024  0.00  0.00     0.382 C 
ATOM     17  O   UNL d   1       0.372  -5.612  -0.194  0.00  0.00    -0.236 OA
ATOM     18  N   UNL d   1       2.646  -5.381   0.048  0.00  0.00    -0.335 N 
ATOM     19  H   UNL d   1       3.323  -4.629   0.095  0.00  0.00     0.164 HD
BRANCH  18  20
ATOM     20  C   UNL d   1       3.042  -6.700  -0.378  0.00  0.00     0.124 C 
BRANCH  20  21
ATOM     21  C   UNL d   1       3.325  -6.752  -1.879  0.00  0.00     0.015 C 
ATOM     22  C   UNL d   1       4.475  -5.842  -2.294  0.00  0.00     0.006 C 
ENDBRANCH  20  21
ENDBRANCH  18  20
ENDBRANCH  15  16
ENDBRANCH   2  15
TORSDOF 7
