REMARK  6 active torsions:
REMARK  status: ('A' for Active; 'I' for Inactive)
REMARK    1  A    between atoms: S_2  and  C_1 
REMARK    2  A    between atoms: C_11  and  S_2 
REMARK    3  A    between atoms: S_13  and  C_3 
REMARK    4  A    between atoms: C_7  and  C_5 
REMARK    5  A    between atoms: S_8  and  C_7 
REMARK    6  A    between atoms: C_14  and  S_8 
ROOT
ATOM      1  C   UNL d   1       1.599   0.761   0.158  0.00  0.00     0.084 A 
ATOM      2  C   UNL d   1       0.349   1.346   0.258  0.00  0.00     0.063 A 
ATOM      3  C   UNL d   1       1.514  -0.674   0.078  0.00  0.00     0.049 A 
ATOM      4  C   UNL d   1       0.221  -1.154   0.190  0.00  0.00     0.065 A 
ATOM      5  S   UNL d   1      -0.876   0.146   0.376  0.00  0.00    -0.077 SA
ENDROOT
BRANCH   4   6
ATOM      6  C   UNL d   1      -0.188  -2.558   0.236  0.00  0.00     0.230 C 
ATOM      7  O   UNL d   1       0.548  -3.462   0.606  0.00  0.00    -0.279 OA
BRANCH   6   8
ATOM      8  S   UNL d   1      -1.760  -2.893  -0.495  0.00  0.00    -0.047 SA
BRANCH   8   9
ATOM      9  C   UNL d   1      -2.663  -3.928   0.642  0.00  0.00     0.008 A 
ATOM     10  C   UNL d   1      -4.063  -3.913   0.515  0.00  0.00     0.019 A 
ATOM     11  C   UNL d   1      -4.871  -4.768   1.269  0.00  0.00     0.001 A 
ATOM     12  C   UNL d   1      -4.290  -5.653   2.170  0.00  0.00     0.000 A 
ATOM     13  C   UNL d   1      -2.905  -5.666   2.326  0.00  0.00     0.001 A 
ATOM     14  C   UNL d   1      -2.096  -4.808   1.568  0.00  0.00     0.019 A 
ENDBRANCH   8   9
ENDBRANCH   6   8
ENDBRANCH   4   6
BRANCH   1  15
ATOM     15  S   UNL d   1       3.127   1.585   0.184  0.00  0.00     0.180 S 
ATOM     16  O   UNL d   1       4.121   0.526   0.170  0.00  0.00    -0.222 OA
ATOM     17  O   UNL d   1       3.034   2.546  -0.896  0.00  0.00    -0.222 OA
BRANCH  15  18
ATOM     18  C   UNL d   1       3.195   2.435   1.769  0.00  0.00     0.105 C 
ATOM     19  C   UNL d   1       3.080   1.465   2.941  0.00  0.00     0.026 C 
ATOM     20  C   UNL d   1       4.479   3.254   1.882  0.00  0.00     0.026 C 
ENDBRANCH  15  18
ENDBRANCH   1  15
BRANCH   2  21
ATOM     21  S   UNL d   1      -0.137   3.031   0.438  0.00  0.00    -0.126 SA
ATOM     22  C   UNL d   1       0.255   3.775  -1.162  0.00  0.00     0.096 C 
ENDBRANCH   2  21
TORSDOF 6
