REMARK  5 active torsions:
REMARK  status: ('A' for Active; 'I' for Inactive)
REMARK    1  A    between atoms: C_5  and  N_1 
REMARK    2  A    between atoms: S_2  and  C_7 
REMARK    3  A    between atoms: N_11  and  S_2 
REMARK    4  A    between atoms: C_21  and  N_11 
REMARK    5  A    between atoms: C_16  and  C_21 
ROOT
ATOM      1  C   UNL d   1       2.856  -1.651   0.120  0.00  0.00     0.067 A 
ATOM      2  C   UNL d   1       5.040  -3.402   0.313  0.00  0.00     0.076 A 
ATOM      3  C   UNL d   1       3.066  -2.640  -0.856  0.00  0.00     0.062 A 
ATOM      4  C   UNL d   1       4.170  -3.494  -0.774  0.00  0.00     0.051 A 
ATOM      5  C   UNL d   1       3.770  -1.530   1.176  0.00  0.00     0.033 A 
ATOM      6  C   UNL d   1       4.846  -2.417   1.287  0.00  0.00     0.027 A 
ATOM      7 CL   UNL d   1       2.068  -2.768  -2.264  0.00  0.00    -0.082 Cl
ENDROOT
BRANCH   1   8
ATOM      8  N   UNL d   1       1.754  -0.773   0.054  0.00  0.00    -0.250 N 
ATOM      9  C   UNL d   1       1.869   0.590  -0.005  0.00  0.00     0.232 C 
ATOM     10  C   UNL d   1       0.494   1.181  -0.164  0.00  0.00     0.123 C 
ATOM     11  O   UNL d   1       2.894   1.256   0.007  0.00  0.00    -0.273 OA
ATOM     12  C   UNL d   1      -0.453   0.012   0.114  0.00  0.00     0.050 C 
ATOM     13  C   UNL d   1       0.454  -1.201   0.159  0.00  0.00     0.240 C 
ATOM     14  C   UNL d   1      -1.562  -0.156  -0.923  0.00  0.00     0.020 C 
ATOM     15  C   UNL d   1      -1.232   0.189   1.420  0.00  0.00     0.020 C 
ATOM     16  O   UNL d   1       0.068  -2.345   0.358  0.00  0.00    -0.272 OA
ATOM     17  C   UNL d   1      -2.686   0.762  -0.462  0.00  0.00     0.001 C 
ATOM     18  C   UNL d   1      -2.481   0.977   1.035  0.00  0.00     0.001 C 
ENDBRANCH   1   8
BRANCH   2  19
ATOM     19  S   UNL d   1       6.447  -4.490   0.421  0.00  0.00     0.241 S 
ATOM     20  O   UNL d   1       7.199  -4.333  -0.804  0.00  0.00    -0.206 OA
ATOM     21  O   UNL d   1       7.041  -4.273   1.724  0.00  0.00    -0.206 OA
BRANCH  19  22
ATOM     22  N   UNL d   1       5.756  -6.032   0.463  0.00  0.00    -0.215 NA
ATOM     23  H   UNL d   1       4.925  -6.071   1.050  0.00  0.00     0.139 HD
BRANCH  22  24
ATOM     24  C   UNL d   1       5.634  -6.734  -0.822  0.00  0.00     0.109 C 
BRANCH  24  25
ATOM     25  C   UNL d   1       5.052  -8.111  -0.695  0.00  0.00    -0.001 A 
ATOM     26  C   UNL d   1       3.705  -8.358  -0.059  0.00  0.00     0.006 A 
ATOM     27  C   UNL d   1       4.955  -8.872   0.605  0.00  0.00     0.006 A 
ENDBRANCH  24  25
ENDBRANCH  22  24
ENDBRANCH  19  22
ENDBRANCH   2  19
TORSDOF 5
