REMARK  4 active torsions:
REMARK  status: ('A' for Active; 'I' for Inactive)
REMARK    1  A    between atoms: C_10  and  N_1 
REMARK    2  A    between atoms: C_7  and  C_5 
REMARK       I    between atoms: C_9  and  N_12 
REMARK       I    between atoms: N_13  and  C_9 
REMARK    3  A    between atoms: N_12  and  C_23 
REMARK    4  A    between atoms: C_24  and  N_13 
ROOT
ATOM      1  C   UNL d   1       2.007  -1.531   0.383  0.00  0.00     0.057 A 
ATOM      2  C   UNL d   1       1.998  -2.845  -0.099  0.00  0.00     0.034 A 
ATOM      3  C   UNL d   1       3.218  -0.962   0.784  0.00  0.00     0.034 A 
ATOM      4  C   UNL d   1       4.426  -2.971   0.137  0.00  0.00     0.036 A 
ATOM      5  C   UNL d   1       4.408  -1.687   0.684  0.00  0.00     0.032 A 
ATOM      6  C   UNL d   1       3.204  -3.556  -0.224  0.00  0.00     0.032 A 
ENDROOT
BRANCH   1   7
ATOM      7  N   UNL d   1       0.834  -0.725   0.400  0.00  0.00    -0.255 N 
ATOM      8  C   UNL d   1      -0.503  -1.093   0.474  0.00  0.00     0.076 C 
ATOM      9  C   UNL d   1      -1.217   0.022   0.081  0.00  0.00     0.069 C 
ATOM     10  C   UNL d   1      -1.026  -2.317   1.018  0.00  0.00     0.033 A 
ATOM     11  C   UNL d   1      -0.279   1.078   0.015  0.00  0.00     0.135 C 
ATOM     12  N   UNL d   1       0.960   0.628   0.281  0.00  0.00    -0.289 N 
ATOM     13  HN  UNL d   1       1.812   1.180   0.373  1.00  0.00     0.187 HD
ATOM     14  S   UNL d   1      -2.474  -3.019   0.428  0.00  0.00    -0.100 SA
ATOM     15  C   UNL d   1      -0.541  -3.014   2.109  0.00  0.00     0.021 A 
ATOM     16  C   UNL d   1      -2.484  -4.201   1.663  0.00  0.00     0.050 A 
ATOM     17  C   UNL d   1      -1.387  -4.096   2.486  0.00  0.00     0.008 A 
BRANCH  11  18
ATOM     18  C   UNL d   1      -0.605   2.527  -0.232  0.00  0.00     0.434 C 
ATOM     19  F   UNL d   1       0.473   3.351  -0.190  0.00  0.00    -0.165 F 
ATOM     20  F   UNL d   1      -1.190   2.706  -1.448  0.00  0.00    -0.165 F 
ATOM     21  F   UNL d   1      -1.492   2.996   0.689  0.00  0.00    -0.165 F 
ENDBRANCH  11  18
ENDBRANCH   1   7
BRANCH   4  22
ATOM     22  N   UNL d   1       5.618  -3.687  -0.143  0.00  0.00    -0.309 N 
ATOM     23  C   UNL d   1       6.910  -3.200  -0.002  0.00  0.00     0.325 C 
ATOM     24  N   UNL d   1       7.842  -4.017  -0.626  0.00  0.00    -0.309 N 
ATOM     25  O   UNL d   1       7.194  -2.150   0.564  0.00  0.00    -0.247 OA
ATOM     26  H   UNL d   1       7.502  -4.869  -1.042  0.00  0.00     0.170 HD
ATOM     27  H   UNL d   1       5.506  -4.590  -0.576  0.00  0.00     0.170 HD
BRANCH  24  28
ATOM     28  C   UNL d   1       9.209  -3.716  -0.840  0.00  0.00     0.036 A 
ATOM     29  C   UNL d   1       9.841  -2.562  -0.358  0.00  0.00     0.032 A 
ATOM     30  C   UNL d   1      11.175  -2.288  -0.670  0.00  0.00     0.044 A 
ATOM     31  C   UNL d   1      11.887  -3.172  -1.462  0.00  0.00     0.116 A 
ATOM     32  C   UNL d   1      11.294  -4.337  -1.933  0.00  0.00     0.044 A 
ATOM     33  F   UNL d   1      13.159  -2.900  -1.780  0.00  0.00    -0.206 F 
ATOM     34  C   UNL d   1       9.957  -4.611  -1.619  0.00  0.00     0.032 A 
ENDBRANCH  24  28
ENDBRANCH   4  22
TORSDOF 4
