REMARK  7 active torsions:
REMARK  status: ('A' for Active; 'I' for Inactive)
REMARK    1  A    between atoms: C_5  and  C_1 
REMARK    2  A    between atoms: C_21  and  N_2 
REMARK       I    between atoms: N_10  and  C_5 
REMARK    3  A    between atoms: C_7  and  C_11 
REMARK    4  A    between atoms: C_8  and  N_12 
REMARK    5  A    between atoms: N_13  and  C_8 
REMARK    6  A    between atoms: N_12  and  N_10 
REMARK    7  A    between atoms: C_17  and  N_13 
ROOT
ATOM      1  N   UNL d   1       1.245  -3.838   1.452  0.00  0.00    -0.273 N 
ATOM      2  H   UNL d   1       1.728  -2.944   1.559  0.00  0.00     0.189 HD
ENDROOT
BRANCH   1   3
ATOM      3  C   UNL d   1       2.000  -4.984   1.375  0.00  0.00     0.191 C 
ATOM      4  S   UNL d   1       1.567  -6.369   0.539  0.00  0.00    -0.039 SA
BRANCH   3   5
ATOM      5  N   UNL d   1       3.204  -4.956   2.032  0.00  0.00    -0.332 N 
ATOM      6  H   UNL d   1       3.871  -5.652   1.710  0.00  0.00     0.168 HD
BRANCH   5   7
ATOM      7  C   UNL d   1       3.478  -4.413   3.310  0.00  0.00     0.035 A 
ATOM      8  C   UNL d   1       4.808  -4.407   3.747  0.00  0.00     0.045 A 
ATOM      9  C   UNL d   1       5.141  -3.969   5.043  0.00  0.00     0.050 A 
ATOM     10  C   UNL d   1       4.115  -3.558   5.906  0.00  0.00     0.016 A 
ATOM     11  C   UNL d   1       2.789  -3.575   5.481  0.00  0.00     0.003 A 
ATOM     12  C   UNL d   1       2.473  -3.996   4.188  0.00  0.00     0.029 A 
BRANCH   9  13
ATOM     13  C   UNL d   1       6.571  -3.944   5.524  0.00  0.00     0.417 C 
ATOM     14  F   UNL d   1       7.467  -4.374   4.592  0.00  0.00    -0.166 F 
ATOM     15  F   UNL d   1       6.977  -2.695   5.884  0.00  0.00    -0.166 F 
ATOM     16  F   UNL d   1       6.766  -4.731   6.618  0.00  0.00    -0.166 F 
ENDBRANCH   9  13
ENDBRANCH   5   7
ENDBRANCH   3   5
ENDBRANCH   1   3
BRANCH   1  17
ATOM     17  N   UNL d   1      -0.041  -3.767   0.894  0.00  0.00    -0.262 N 
ATOM     18  C   UNL d   1      -0.554  -2.546   0.493  0.00  0.00     0.288 C 
ATOM     19  O   UNL d   1       0.159  -1.553   0.403  0.00  0.00    -0.264 OA
ATOM     20  H   UNL d   1      -0.594  -4.616   0.912  0.00  0.00     0.190 HD
BRANCH  18  21
ATOM     21  C   UNL d   1      -1.984  -2.549   0.239  0.00  0.00     0.122 A 
ATOM     22  N   UNL d   1      -2.686  -1.614  -0.483  0.00  0.00    -0.287 N 
ATOM     23  N   UNL d   1      -4.021  -1.811  -0.463  0.00  0.00    -0.302 N 
ATOM     24  C   UNL d   1      -4.187  -2.942   0.219  0.00  0.00     0.024 A 
ATOM     25  HN  UNL d   1      -4.744  -1.223  -0.879  1.00  0.00     0.186 HD
ATOM     26  C   UNL d   1      -2.951  -3.446   0.674  0.00  0.00     0.063 A 
ATOM     27  C   UNL d   1      -5.545  -3.502   0.408  0.00  0.00     0.070 C 
BRANCH  22  28
ATOM     28  C   UNL d   1      -2.193  -0.561  -1.355  0.00  0.00     0.145 C 
ATOM     29  C   UNL d   1      -2.200  -1.011  -2.808  0.00  0.00     0.028 C 
ENDBRANCH  22  28
ENDBRANCH  18  21
ENDBRANCH   1  17
TORSDOF 7
