REMARK  6 active torsions:
REMARK  status: ('A' for Active; 'I' for Inactive)
REMARK    1  A    between atoms: C_4  and  C_1 
REMARK    2  A    between atoms: O_16  and  C_3 
REMARK    3  A    between atoms: O_17  and  C_4 
REMARK    4  A    between atoms: C_9  and  N_10 
REMARK    5  A    between atoms: N_10  and  C_11 
REMARK    6  A    between atoms: O_18  and  C_12 
ROOT
ATOM      1  C   UNL d   1      -2.212  -4.394   0.974  0.00  0.00     0.139 C 
ATOM      2  C   UNL d   1      -3.488  -4.415   0.353  0.00  0.00     0.112 C 
ATOM      3  C   UNL d   1      -1.879  -5.420   1.905  0.00  0.00     0.112 C 
ATOM      4  N   UNL d   1      -4.524  -4.393  -0.167  0.00  0.00    -0.191 NA
ATOM      5  N   UNL d   1      -1.599  -6.252   2.663  0.00  0.00    -0.191 NA
ATOM      6  C   UNL d   1      -1.323  -3.418   0.711  0.00  0.00     0.122 C 
ENDROOT
BRANCH   6   7
ATOM      7  N   UNL d   1      -1.428  -2.324  -0.128  0.00  0.00    -0.361 N 
ATOM      8  H   UNL d   1      -2.354  -2.124  -0.502  0.00  0.00     0.165 HD
BRANCH   7   9
ATOM      9  C   UNL d   1      -0.528  -1.230  -0.169  0.00  0.00     0.067 A 
ATOM     10  C   UNL d   1       0.875  -1.357  -0.027  0.00  0.00     0.114 A 
ATOM     11  C   UNL d   1       1.693  -0.228   0.185  0.00  0.00     0.108 A 
ATOM     12  C   UNL d   1       1.125   1.050   0.083  0.00  0.00     0.087 A 
ATOM     13  C   UNL d   1      -0.251   1.186  -0.116  0.00  0.00     0.040 A 
ATOM     14  C   UNL d   1      -1.071   0.060  -0.220  0.00  0.00     0.035 A 
BRANCH  10  15
ATOM     15  O   UNL d   1       1.435  -2.616  -0.079  0.00  0.00    -0.352 OA
ATOM     16  C   UNL d   1       1.683  -2.966  -1.448  0.00  0.00     0.210 C 
ENDBRANCH  10  15
BRANCH  11  17
ATOM     17  C   UNL d   1       3.068  -0.386   0.720  0.00  0.00     0.298 C 
ATOM     18  O   UNL d   1       3.492   0.254   1.670  0.00  0.00    -0.259 OA
BRANCH  17  19
ATOM     19  O   UNL d   1       3.762  -1.322   0.028  0.00  0.00    -0.322 OA
ATOM     20  C   UNL d   1       5.001  -1.712   0.625  0.00  0.00     0.213 C 
ENDBRANCH  17  19
ENDBRANCH  11  17
BRANCH  12  21
ATOM     21  O   UNL d   1       1.792   2.238   0.223  0.00  0.00    -0.355 OA
ATOM     22  C   UNL d   1       2.927   2.379  -0.631  0.00  0.00     0.210 C 
ENDBRANCH  12  21
ENDBRANCH   7   9
ENDBRANCH   6   7
TORSDOF 6
