REMARK  8 active torsions:
REMARK  status: ('A' for Active; 'I' for Inactive)
REMARK    1  A    between atoms: C_7  and  C_1 
REMARK    2  A    between atoms: N_6  and  C_2 
REMARK    3  A    between atoms: C_8  and  C_3 
REMARK    4  A    between atoms: N_11  and  C_4 
REMARK    5  A    between atoms: C_9  and  N_6 
REMARK    6  A    between atoms: C_10  and  C_7 
REMARK    7  A    between atoms: O_18  and  C_8 
REMARK    8  A    between atoms: C_28  and  O_18 
ROOT
ATOM      1  C   UNL d   1      -0.222   1.110   0.106  0.00  0.00     0.085 C 
ATOM      2  C   UNL d   1       0.823  -1.140   0.096  0.00  0.00     0.094 C 
ATOM      3  C   UNL d   1      -0.570  -1.218   0.047  0.00  0.00     0.101 C 
ATOM      4  C   UNL d   1      -1.154   0.095   0.038  0.00  0.00     0.066 C 
ATOM      5  S   UNL d   1       1.345   0.482   0.345  0.00  0.00    -0.065 SA
ENDROOT
BRANCH   2   6
ATOM      6  N   UNL d   1       1.687  -2.196   0.029  0.00  0.00    -0.349 N 
ATOM      7  H   UNL d   1       1.249  -3.124   0.002  0.00  0.00     0.166 HD
BRANCH   6   8
ATOM      8  C   UNL d   1       2.943  -2.280  -0.637  0.00  0.00     0.044 A 
ATOM      9  C   UNL d   1       3.916  -3.151  -0.070  0.00  0.00    -0.035 A 
ATOM     10  C   UNL d   1       5.156  -3.346  -0.705  0.00  0.00     0.009 A 
ATOM     11  C   UNL d   1       3.698  -3.906   1.218  0.00  0.00     0.050 C 
ATOM     12  C   UNL d   1       5.455  -2.696  -1.891  0.00  0.00     0.001 A 
ATOM     13  C   UNL d   1       4.508  -1.858  -2.465  0.00  0.00     0.009 A 
ATOM     14  C   UNL d   1       3.241  -1.656  -1.874  0.00  0.00    -0.035 A 
ATOM     15  C   UNL d   1       2.310  -0.792  -2.681  0.00  0.00     0.050 C 
ENDBRANCH   6   8
ENDBRANCH   2   6
BRANCH   3  16
ATOM     16  C   UNL d   1      -1.273  -2.498  -0.081  0.00  0.00     0.298 C 
ATOM     17  O   UNL d   1      -0.695  -3.577  -0.174  0.00  0.00    -0.259 OA
BRANCH  16  18
ATOM     18  O   UNL d   1      -2.631  -2.357  -0.149  0.00  0.00    -0.318 OA
BRANCH  18  19
ATOM     19  C   UNL d   1      -3.355  -3.467  -0.696  0.00  0.00     0.174 C 
ATOM     20  C   UNL d   1      -3.397  -3.307  -2.206  0.00  0.00     0.034 C 
ENDBRANCH  18  19
ENDBRANCH  16  18
ENDBRANCH   3  16
BRANCH   1  21
ATOM     21  C   UNL d   1      -0.484   2.542   0.093  0.00  0.00     0.201 C 
ATOM     22  O   UNL d   1      -1.522   3.030   0.545  0.00  0.00    -0.286 OA
BRANCH  21  23
ATOM     23  C   UNL d   1       0.472   3.493  -0.539  0.00  0.00     0.015 A 
ATOM     24  C   UNL d   1       0.646   4.745   0.066  0.00  0.00     0.017 A 
ATOM     25  C   UNL d   1       1.486   5.697  -0.517  0.00  0.00     0.020 A 
ATOM     26  C   UNL d   1       2.143   5.396  -1.714  0.00  0.00     0.011 A 
ATOM     27  C   UNL d   1       1.960   4.160  -2.334  0.00  0.00     0.020 A 
ATOM     28 BR   UNL d   1       3.266   6.691  -2.509  0.00  0.00    -0.051 Br
ATOM     29  C   UNL d   1       1.120   3.204  -1.748  0.00  0.00     0.017 A 
ENDBRANCH  21  23
ENDBRANCH   1  21
BRANCH   4  30
ATOM     30  N   UNL d   1      -2.480   0.345  -0.083  0.00  0.00    -0.397 N 
ATOM     31  H   UNL d   1      -3.165  -0.396   0.053  0.00  0.00     0.156 HD
ATOM     32  H   UNL d   1      -2.845   1.275   0.145  0.00  0.00     0.156 HD
ENDBRANCH   4  30
TORSDOF 8
