REMARK  4 active torsions:
REMARK  status: ('A' for Active; 'I' for Inactive)
REMARK    1  A    between atoms: C_7  and  C_1 
REMARK    2  A    between atoms: S_10  and  C_8 
REMARK    3  A    between atoms: N_14  and  C_9 
REMARK    4  A    between atoms: C_15  and  S_10 
ROOT
ATOM      1  C   UNL d   1      -1.011   2.480  -0.157  0.00  0.00     0.049 A 
ATOM      2  C   UNL d   1      -1.760   2.692   1.001  0.00  0.00     0.089 A 
ATOM      3  N   UNL d   1      -2.499   3.825   1.175  0.00  0.00    -0.359 N 
ATOM      4  HN  UNL d   1      -3.044   3.965   2.026  1.00  0.00     0.166 HD
ATOM      5  C   UNL d   1      -1.010   3.487  -1.140  0.00  0.00     0.020 A 
ATOM      6  C   UNL d   1      -2.495   4.756   0.197  0.00  0.00     0.089 A 
ATOM      7  C   UNL d   1      -1.768   4.636  -0.969  0.00  0.00     0.018 A 
ENDROOT
BRANCH   1   8
ATOM      8  C   UNL d   1      -0.246   1.270  -0.491  0.00  0.00     0.165 A 
ATOM      9  N   UNL d   1       0.731   1.239  -1.340  0.00  0.00    -0.330 N 
ATOM     10  C   UNL d   1       1.009  -0.096  -1.443  0.00  0.00     0.126 A 
ATOM     11  HN  UNL d   1       1.182   2.020  -1.816  1.00  0.00     0.168 HD
ATOM     12  C   UNL d   1       1.832  -0.687  -2.321  0.00  0.00     0.120 C 
ATOM     13  C   UNL d   1       0.144  -0.872  -0.520  0.00  0.00     0.318 A 
ATOM     14  O   UNL d   1      -0.650   0.092   0.032  0.00  0.00    -0.255 OA
ATOM     15  O   UNL d   1       0.107  -2.070  -0.308  0.00  0.00    -0.257 OA
BRANCH  12  16
ATOM     16  N   UNL d   1       2.636  -0.164  -3.335  0.00  0.00    -0.396 N 
ATOM     17  C   UNL d   1       2.918   1.263  -3.495  0.00  0.00     0.148 C 
ATOM     18  C   UNL d   1       3.442  -1.030  -4.196  0.00  0.00     0.148 C 
ENDBRANCH  12  16
ENDBRANCH   1   8
BRANCH   2  19
ATOM     19  S   UNL d   1      -1.943   1.506   2.314  0.00  0.00    -0.072 SA
BRANCH  19  20
ATOM     20  C   UNL d   1      -0.818   2.072   3.574  0.00  0.00     0.007 A 
ATOM     21  C   UNL d   1      -0.895   3.351   4.132  0.00  0.00     0.019 A 
ATOM     22  C   UNL d   1      -0.111   3.690   5.241  0.00  0.00     0.008 A 
ATOM     23  C   UNL d   1       0.754   2.751   5.817  0.00  0.00    -0.062 A 
ATOM     24  C   UNL d   1       0.864   1.486   5.232  0.00  0.00     0.008 A 
ATOM     25  C   UNL d   1       1.528   3.095   7.056  0.00  0.00     0.048 C 
ATOM     26  C   UNL d   1       0.081   1.150   4.123  0.00  0.00     0.019 A 
ENDBRANCH  19  20
ENDBRANCH   2  19
TORSDOF 4
