REMARK  4 active torsions:
REMARK  status: ('A' for Active; 'I' for Inactive)
REMARK    1  A    between atoms: S_8  and  C_1 
REMARK    2  A    between atoms: C_14  and  S_8 
REMARK    3  A    between atoms: N_9  and  C_16 
REMARK    4  A    between atoms: N_17  and  C_12 
ROOT
ATOM      1  S   UNL d   1       4.097   0.032  -0.525  0.00  0.00    -0.063 SA
ENDROOT
BRANCH   1   2
ATOM      2  C   UNL d   1       5.380  -0.926   0.179  0.00  0.00     0.118 A 
ATOM      3  N   UNL d   1       6.634  -0.542   0.232  0.00  0.00    -0.342 N 
ATOM      4  C   UNL d   1       7.424  -1.555   0.769  0.00  0.00     0.072 A 
ATOM      5  HN  UNL d   1       6.980   0.367  -0.075  1.00  0.00     0.167 HD
ATOM      6  C   UNL d   1       8.816  -1.552   1.010  0.00  0.00     0.063 A 
ATOM      7  C   UNL d   1       6.730  -2.726   1.091  0.00  0.00     0.037 A 
ATOM      8  C   UNL d   1       9.480  -2.659   1.540  0.00  0.00     0.050 A 
ATOM      9 CL   UNL d   1       9.656  -0.117   0.609  0.00  0.00    -0.082 Cl
ATOM     10  C   UNL d   1       8.751  -3.802   1.836  0.00  0.00     0.037 A 
ATOM     11  C   UNL d   1       7.372  -3.862   1.621  0.00  0.00     0.045 A 
ATOM     12 CL   UNL d   1       9.558  -5.179   2.482  0.00  0.00    -0.084 Cl
ATOM     13  S   UNL d   1       5.064  -2.517   0.731  0.00  0.00    -0.063 SA
ENDBRANCH   1   2
BRANCH   1  14
ATOM     14  C   UNL d   1       4.683   1.688  -0.182  0.00  0.00     0.034 A 
ATOM     15  C   UNL d   1       4.292   2.440   0.947  0.00  0.00     0.050 A 
ATOM     16  C   UNL d   1       4.762   3.758   1.067  0.00  0.00     0.031 A 
ATOM     17  C   UNL d   1       5.582   4.338   0.096  0.00  0.00     0.002 A 
ATOM     18  C   UNL d   1       5.960   3.595  -1.017  0.00  0.00     0.002 A 
ATOM     19  C   UNL d   1       5.508   2.283  -1.156  0.00  0.00     0.021 A 
BRANCH  15  20
ATOM     20  N   UNL d   1       3.525   1.976   2.036  0.00  0.00    -0.351 N 
ATOM     21  C   UNL d   1       2.349   1.481   1.838  0.00  0.00     0.178 C 
ATOM     22  HN  UNL d   1       3.900   2.032   2.982  1.00  0.00     0.166 HD
BRANCH  21  23
ATOM     23  N   UNL d   1       1.495   1.049   2.827  0.00  0.00    -0.386 N 
ATOM     24  C   UNL d   1       1.641   1.510   4.199  0.00  0.00     0.149 C 
ATOM     25  C   UNL d   1       0.291   0.296   2.534  0.00  0.00     0.149 C 
ENDBRANCH  21  23
ENDBRANCH  15  20
ENDBRANCH   1  14
TORSDOF 4
