REMARK  4 active torsions:
REMARK  status: ('A' for Active; 'I' for Inactive)
REMARK    1  A    between atoms: C_8  and  C_3 
REMARK    2  A    between atoms: C_9  and  C_8 
REMARK    3  A    between atoms: O_12  and  C_9 
REMARK    4  A    between atoms: C_15  and  O_12 
ROOT
ATOM      1  N   UNL d   1      -1.903  -1.456   0.018  0.00  0.00    -0.301 N 
ATOM      2  HN  UNL d   1      -2.659  -2.141   0.017  1.00  0.00     0.186 HD
ATOM      3  C   UNL d   1      -0.662  -1.834  -0.038  0.00  0.00     0.046 A 
ATOM      4  N   UNL d   1      -2.171  -0.119   0.079  0.00  0.00    -0.266 N 
ATOM      5  C   UNL d   1      -1.244   0.893   0.052  0.00  0.00     0.271 A 
ATOM      6  C   UNL d   1       0.478  -0.884   0.009  0.00  0.00     0.004 A 
ATOM      7  C   UNL d   1       0.170   0.477   0.020  0.00  0.00     0.045 A 
ATOM      8  O   UNL d   1      -1.558   2.076   0.068  0.00  0.00    -0.266 OA
ATOM      9  C   UNL d   1       1.819  -1.285   0.031  0.00  0.00     0.014 A 
ATOM     10  C   UNL d   1       1.191   1.434   0.018  0.00  0.00     0.018 A 
ATOM     11  C   UNL d   1       2.838  -0.330   0.035  0.00  0.00     0.001 A 
ATOM     12  C   UNL d   1       2.524   1.032   0.025  0.00  0.00     0.001 A 
ATOM     13  H   UNL d   1      -3.152   0.150   0.100  0.00  0.00     0.190 HD
ENDROOT
BRANCH   3  14
ATOM     14  C   UNL d   1      -0.403  -3.319  -0.140  0.00  0.00     0.170 C 
BRANCH  14  15
ATOM     15  C   UNL d   1       0.195  -3.736  -1.452  0.00  0.00     0.264 C 
ATOM     16  O   UNL d   1       0.530  -2.982  -2.354  0.00  0.00    -0.265 OA
BRANCH  15  17
ATOM     17  O   UNL d   1       0.272  -5.098  -1.503  0.00  0.00    -0.322 OA
BRANCH  17  18
ATOM     18  C   UNL d   1       0.435  -5.644  -2.821  0.00  0.00     0.174 C 
ATOM     19  C   UNL d   1      -0.946  -5.804  -3.429  0.00  0.00     0.034 C 
ENDBRANCH  17  18
ENDBRANCH  15  17
ENDBRANCH  14  15
ENDBRANCH   3  14
TORSDOF 4
