REMARK  8 active torsions:
REMARK  status: ('A' for Active; 'I' for Inactive)
REMARK    1  A    between atoms: C_5  and  S_1 
REMARK    2  A    between atoms: C_13  and  S_1 
REMARK    3  A    between atoms: C_2  and  C_3 
REMARK       I    between atoms: N_6  and  C_2 
REMARK    4  A    between atoms: C_4  and  C_7 
REMARK    5  A    between atoms: C_11  and  N_6 
REMARK    6  A    between atoms: C_10  and  S_27 
REMARK    7  A    between atoms: C_30  and  C_13 
REMARK    8  A    between atoms: S_27  and  C_30 
ROOT
ATOM      1  C   UNL d   1       1.609   3.300   5.662  0.00  0.00     0.065 A 
ATOM      2  C   UNL d   1       1.814   2.139   4.910  0.00  0.00     0.085 A 
ATOM      3  N   UNL d   1       1.814   0.905   5.481  0.00  0.00    -0.360 N 
ATOM      4  HN  UNL d   1       1.929   0.067   4.911  1.00  0.00     0.166 HD
ATOM      5  C   UNL d   1       1.474   3.163   7.055  0.00  0.00     0.021 A 
ATOM      6  C   UNL d   1       1.659   0.812   6.819  0.00  0.00     0.089 A 
ATOM      7  C   UNL d   1       1.504   1.905   7.645  0.00  0.00     0.018 A 
ENDROOT
BRANCH   2   8
ATOM      8  S   UNL d   1       2.183   2.156   3.155  0.00  0.00    -0.110 SA
BRANCH   8   9
ATOM      9  C   UNL d   1       2.167   0.370   2.732  0.00  0.00     0.096 C 
BRANCH   9  10
ATOM     10  C   UNL d   1       0.746  -0.148   2.721  0.00  0.00     0.158 C 
BRANCH  10  11
ATOM     11  S   UNL d   1       0.670  -1.837   2.168  0.00  0.00     0.191 S 
ATOM     12  O   UNL d   1       1.056  -1.869   0.764  0.00  0.00    -0.221 OA
ATOM     13  O   UNL d   1       1.322  -2.678   3.147  0.00  0.00    -0.221 OA
BRANCH  11  14
ATOM     14  C   UNL d   1      -1.071  -2.210   2.232  0.00  0.00     0.128 A 
ATOM     15  N   UNL d   1      -1.848  -1.188   2.677  0.00  0.00    -0.356 N 
ATOM     16  C   UNL d   1      -3.177  -1.410   2.702  0.00  0.00     0.105 A 
ATOM     17  HN  UNL d   1      -1.447  -0.299   2.976  1.00  0.00     0.166 HD
ATOM     18  C   UNL d   1      -3.765  -2.601   2.300  0.00  0.00     0.063 A 
ATOM     19  C   UNL d   1      -2.923  -3.634   1.858  0.00  0.00     0.020 A 
ATOM     20  C   UNL d   1      -1.544  -3.443   1.817  0.00  0.00     0.042 A 
BRANCH  18  21
ATOM     21  C   UNL d   1      -5.257  -2.752   2.337  0.00  0.00     0.418 C 
ATOM     22  F   UNL d   1      -5.902  -1.650   2.811  0.00  0.00    -0.166 F 
ATOM     23  F   UNL d   1      -5.782  -2.989   1.104  0.00  0.00    -0.166 F 
ATOM     24  F   UNL d   1      -5.658  -3.786   3.124  0.00  0.00    -0.166 F 
ENDBRANCH  18  21
ENDBRANCH  11  14
ENDBRANCH  10  11
ENDBRANCH   9  10
ENDBRANCH   8   9
ENDBRANCH   2   8
BRANCH   1  25
ATOM     25  C   UNL d   1       1.579   4.687   5.125  0.00  0.00     0.259 C 
ATOM     26  N   UNL d   1       0.975   4.877   3.899  0.00  0.00    -0.321 N 
ATOM     27  H   UNL d   1       0.426   4.119   3.504  0.00  0.00     0.169 HD
ATOM     28  O   UNL d   1       2.002   5.592   5.841  0.00  0.00    -0.267 OA
BRANCH  26  29
ATOM     29  C   UNL d   1       0.961   6.086   3.163  0.00  0.00     0.057 A 
ATOM     30  C   UNL d   1      -0.043   6.299   2.201  0.00  0.00     0.062 A 
ATOM     31  C   UNL d   1      -0.070   7.471   1.441  0.00  0.00     0.050 A 
ATOM     32 CL   UNL d   1      -1.308   5.141   1.966  0.00  0.00    -0.082 Cl
ATOM     33  C   UNL d   1       0.934   8.420   1.611  0.00  0.00     0.035 A 
ATOM     34  C   UNL d   1       1.948   8.216   2.543  0.00  0.00     0.026 A 
ATOM     35 CL   UNL d   1       0.930   9.851   0.656  0.00  0.00    -0.084 Cl
ATOM     36  C   UNL d   1       1.954   7.058   3.326  0.00  0.00     0.033 A 
ENDBRANCH  26  29
ENDBRANCH   1  25
TORSDOF 8
