REMARK  2 active torsions:
REMARK  status: ('A' for Active; 'I' for Inactive)
REMARK    1  A    between atoms: C_2  and  C_1 
REMARK    2  A    between atoms: C_14  and  C_8 
ROOT
ATOM      1  C   UNL d   1      -0.281  -1.045   0.028  0.00  0.00     0.193 A 
ATOM      2  O   UNL d   1      -1.082   0.043  -0.227  0.00  0.00    -0.271 OA
ATOM      3  N   UNL d   1       0.939  -0.683   0.384  0.00  0.00    -0.276 N 
ATOM      4  HN  UNL d   1       1.713  -1.304   0.619  1.00  0.00     0.189 HD
ATOM      5  N   UNL d   1       0.966   0.698   0.378  0.00  0.00    -0.277 N 
ATOM      6  HN  UNL d   1       1.762   1.294   0.602  1.00  0.00     0.189 HD
ATOM      7  C   UNL d   1      -0.241   1.091   0.026  0.00  0.00     0.174 A 
ENDROOT
BRANCH   1   8
ATOM      8  C   UNL d   1      -0.743  -2.459  -0.058  0.00  0.00     0.110 A 
ATOM      9  N   UNL d   1      -1.981  -2.793  -0.446  0.00  0.00    -0.257 N 
ATOM     10  O   UNL d   1      -2.037  -4.175  -0.362  0.00  0.00    -0.242 OA
ATOM     11  HN  UNL d   1      -2.726  -2.163  -0.741  1.00  0.00     0.195 HD
ATOM     12  C   UNL d   1      -0.841  -4.651   0.079  0.00  0.00     0.075 A 
ATOM     13  C   UNL d   1       0.022  -3.601   0.269  0.00  0.00     0.070 A 
ATOM     14  C   UNL d   1      -0.743  -6.110   0.256  0.00  0.00     0.079 C 
ENDBRANCH   1   8
BRANCH   7  15
ATOM     15  C   UNL d   1      -0.790   2.435  -0.111  0.00  0.00     0.017 A 
ATOM     16  C   UNL d   1      -2.143   2.651  -0.421  0.00  0.00     0.017 A 
ATOM     17  C   UNL d   1      -2.651   3.949  -0.539  0.00  0.00     0.025 A 
ATOM     18  C   UNL d   1      -1.810   5.042  -0.349  0.00  0.00     0.034 A 
ATOM     19  C   UNL d   1      -0.467   4.849  -0.038  0.00  0.00     0.025 A 
ATOM     20 CL   UNL d   1      -2.435   6.638  -0.497  0.00  0.00    -0.084 Cl
ATOM     21  C   UNL d   1       0.040   3.551   0.081  0.00  0.00     0.017 A 
ENDBRANCH   7  15
TORSDOF 2
