REMARK  4 active torsions:
REMARK  status: ('A' for Active; 'I' for Inactive)
REMARK    1  A    between atoms: N_2  and  S_1 
REMARK    2  A    between atoms: C_5  and  S_1 
REMARK       I    between atoms: C_3  and  N_6 
REMARK    3  A    between atoms: C_4  and  C_3 
REMARK    4  A    between atoms: N_6  and  C_17 
ROOT
ATOM      1  C   UNL d   1       0.709  -1.422  -0.953  0.00  0.00     0.074 A 
ATOM      2  C   UNL d   1       1.551  -2.533  -0.875  0.00  0.00     0.027 A 
ATOM      3  C   UNL d   1      -0.502  -1.502  -1.639  0.00  0.00     0.027 A 
ATOM      4  C   UNL d   1      -0.069  -3.846  -2.130  0.00  0.00     0.035 A 
ATOM      5  C   UNL d   1      -0.884  -2.713  -2.231  0.00  0.00     0.031 A 
ATOM      6  C   UNL d   1       1.162  -3.737  -1.468  0.00  0.00     0.031 A 
ENDROOT
BRANCH   1   7
ATOM      7  S   UNL d   1       1.108   0.051  -0.045  0.00  0.00     0.243 S 
ATOM      8  O   UNL d   1      -0.087   0.448   0.673  0.00  0.00    -0.206 OA
ATOM      9  O   UNL d   1       2.344  -0.194   0.667  0.00  0.00    -0.206 OA
BRANCH   7  10
ATOM     10  N   UNL d   1       1.410   1.224  -1.243  0.00  0.00    -0.202 NA
ATOM     11  C   UNL d   1       2.543   0.975  -2.188  0.00  0.00     0.134 C 
ATOM     12  C   UNL d   1       3.902   1.312  -1.560  0.00  0.00     0.183 C 
ATOM     13  O   UNL d   1       3.934   2.658  -1.064  0.00  0.00    -0.389 OA
ATOM     14  C   UNL d   1       2.900   2.874  -0.092  0.00  0.00     0.183 C 
ATOM     15  C   UNL d   1       1.516   2.623  -0.704  0.00  0.00     0.134 C 
ENDBRANCH   7  10
ENDBRANCH   1   7
BRANCH   4  16
ATOM     16  N   UNL d   1      -0.425  -5.125  -2.602  0.00  0.00    -0.323 N 
ATOM     17  C   UNL d   1      -1.606  -5.514  -3.216  0.00  0.00     0.263 C 
ATOM     18  O   UNL d   1      -2.482  -4.735  -3.580  0.00  0.00    -0.267 OA
ATOM     19  H   UNL d   1       0.221  -5.879  -2.401  0.00  0.00     0.169 HD
BRANCH  17  20
ATOM     20  C   UNL d   1      -1.764  -6.959  -3.389  0.00  0.00     0.072 A 
ATOM     21  S   UNL d   1      -0.560  -8.091  -2.927  0.00  0.00    -0.097 SA
ATOM     22  C   UNL d   1      -1.538  -9.422  -3.369  0.00  0.00     0.050 A 
ATOM     23  C   UNL d   1      -2.750  -9.024  -3.885  0.00  0.00     0.009 A 
ATOM     24  C   UNL d   1      -2.874  -7.605  -3.908  0.00  0.00     0.025 A 
ENDBRANCH  17  20
ENDBRANCH   4  16
TORSDOF 4
