REMARK  5 active torsions:
REMARK  status: ('A' for Active; 'I' for Inactive)
REMARK    1  A    between atoms: S_16  and  C_1 
REMARK    2  A    between atoms: C_2  and  S_15 
REMARK    3  A    between atoms: S_15  and  C_18 
REMARK    4  A    between atoms: C_17  and  S_16 
REMARK    5  A    between atoms: C_18  and  C_17 
ROOT
ATOM      1  C   UNL d   1      -2.783   2.825  -0.113  0.00  0.00     0.093 C 
ENDROOT
BRANCH   1   2
ATOM      2  S   UNL d   1      -3.250   2.007  -1.679  0.00  0.00    -0.092 SA
BRANCH   2   3
ATOM      3  C   UNL d   1      -2.632   0.426  -1.416  0.00  0.00     0.160 A 
ATOM      4  N   UNL d   1      -2.871  -0.566  -2.314  0.00  0.00    -0.331 N 
ATOM      5  C   UNL d   1      -2.249  -1.669  -1.816  0.00  0.00     0.199 A 
ATOM      6  H   UNL d   1      -3.402  -0.483  -3.167  0.00  0.00     0.168 HD
ATOM      7  N   UNL d   1      -1.669  -1.367  -0.675  0.00  0.00    -0.294 N 
ATOM      8  N   UNL d   1      -1.914  -0.032  -0.421  0.00  0.00    -0.279 N 
ATOM      9  HN  UNL d   1      -1.134  -2.004  -0.085  1.00  0.00     0.187 HD
ATOM     10  HN  UNL d   1      -1.595   0.499   0.390  1.00  0.00     0.189 HD
ENDBRANCH   2   3
ENDBRANCH   1   2
BRANCH   1  11
ATOM     11  C   UNL d   1      -3.339   4.248  -0.021  0.00  0.00     0.093 C 
BRANCH  11  12
ATOM     12  S   UNL d   1      -5.159   4.262   0.151  0.00  0.00    -0.092 SA
BRANCH  12  13
ATOM     13  C   UNL d   1      -5.479   5.947   0.064  0.00  0.00     0.160 A 
ATOM     14  N   UNL d   1      -6.758   6.405   0.034  0.00  0.00    -0.331 N 
ATOM     15  C   UNL d   1      -6.660   7.762  -0.034  0.00  0.00     0.199 A 
ATOM     16  H   UNL d   1      -7.594   5.843   0.054  0.00  0.00     0.168 HD
ATOM     17  N   UNL d   1      -5.393   8.109  -0.048  0.00  0.00    -0.294 N 
ATOM     18  N   UNL d   1      -4.640   6.952   0.014  0.00  0.00    -0.279 N 
ATOM     19  HN  UNL d   1      -5.030   9.061  -0.096  1.00  0.00     0.187 HD
ATOM     20  HN  UNL d   1      -3.622   6.892   0.020  1.00  0.00     0.189 HD
ENDBRANCH  12  13
ENDBRANCH  11  12
ENDBRANCH   1  11
TORSDOF 5
