REMARK  4 active torsions:
REMARK  status: ('A' for Active; 'I' for Inactive)
REMARK    1  A    between atoms: C_6  and  C_1 
REMARK    2  A    between atoms: C_12  and  C_4 
REMARK       I    between atoms: N_8  and  C_6 
REMARK    3  A    between atoms: N_11  and  N_8 
REMARK    4  A    between atoms: C_15  and  N_11 
ROOT
ATOM      1  C   UNL d   1       0.214  -2.700   0.147  0.00  0.00     0.271 C 
ATOM      2  N   UNL d   1      -0.685  -3.740   0.280  0.00  0.00    -0.282 N 
ATOM      3  O   UNL d   1       1.405  -3.015   0.068  0.00  0.00    -0.266 OA
ATOM      4  H   UNL d   1      -0.233  -4.637   0.113  0.00  0.00     0.184 HD
ENDROOT
BRANCH   1   5
ATOM      5  C   UNL d   1      -0.190  -1.306   0.097  0.00  0.00     0.093 A 
ATOM      6  C   UNL d   1      -1.294  -0.549   0.613  0.00  0.00     0.083 A 
ATOM      7  N   UNL d   1      -1.194   0.739   0.238  0.00  0.00    -0.259 N 
ATOM      8  O   UNL d   1      -0.003   0.868  -0.424  0.00  0.00    -0.241 OA
ATOM      9  HN  UNL d   1      -1.875   1.477   0.414  1.00  0.00     0.195 HD
ATOM     10  C   UNL d   1       0.611  -0.334  -0.487  0.00  0.00     0.090 A 
ATOM     11  C   UNL d   1       1.942  -0.342  -1.131  0.00  0.00     0.080 C 
BRANCH   6  12
ATOM     12  C   UNL d   1      -2.428  -0.941   1.448  0.00  0.00    -0.006 A 
ATOM     13  C   UNL d   1      -3.695  -0.383   1.209  0.00  0.00     0.014 A 
ATOM     14  C   UNL d   1      -4.799  -0.765   1.973  0.00  0.00     0.001 A 
ATOM     15  C   UNL d   1      -4.649  -1.710   2.985  0.00  0.00     0.000 A 
ATOM     16  C   UNL d   1      -3.392  -2.248   3.252  0.00  0.00     0.001 A 
ATOM     17  C   UNL d   1      -2.282  -1.854   2.499  0.00  0.00     0.014 A 
ENDBRANCH   6  12
ENDBRANCH   1   5
BRANCH   2  18
ATOM     18  N   UNL d   1      -2.018  -3.726  -0.146  0.00  0.00    -0.203 NA
ATOM     19  H   UNL d   1      -2.449  -2.813  -0.301  0.00  0.00     0.153 HD
BRANCH  18  20
ATOM     20  C   UNL d   1      -2.876  -4.585   0.598  0.00  0.00     0.029 A 
ATOM     21  C   UNL d   1      -4.207  -4.720   0.183  0.00  0.00     0.049 A 
ATOM     22  C   UNL d   1      -5.077  -5.603   0.830  0.00  0.00     0.041 A 
ATOM     23 CL   UNL d   1      -6.700  -5.711   0.244  0.00  0.00    -0.084 Cl
ATOM     24  C   UNL d   1      -4.640  -6.390   1.908  0.00  0.00    -0.040 A 
ATOM     25  C   UNL d   1      -3.317  -6.243   2.336  0.00  0.00     0.010 A 
ATOM     26  C   UNL d   1      -5.537  -7.382   2.594  0.00  0.00     0.050 C 
ATOM     27  C   UNL d   1      -2.445  -5.369   1.678  0.00  0.00     0.026 A 
ENDBRANCH  18  20
ENDBRANCH   2  18
TORSDOF 4
