REMARK  4 active torsions:
REMARK  status: ('A' for Active; 'I' for Inactive)
REMARK    1  A    between atoms: O_5  and  N_1 
REMARK    2  A    between atoms: C_3  and  O_5 
REMARK    3  A    between atoms: C_9  and  C_3 
REMARK    4  A    between atoms: C_4  and  C_8 
ROOT
ATOM      1  N   UNL d   1       0.955   0.030   0.164  0.00  0.00    -0.261 N 
ATOM      2  HN  UNL d   1       0.442   0.679   0.761  1.00  0.00     0.194 HD
ATOM      3  C   UNL d   1       2.249   0.030   0.048  0.00  0.00     0.039 C 
ATOM      4  C   UNL d   1       3.002  -0.980  -0.791  0.00  0.00     0.071 C 
ENDROOT
BRANCH   1   5
ATOM      5  O   UNL d   1       0.335  -0.963  -0.625  0.00  0.00    -0.195 OA
BRANCH   5   6
ATOM      6  C   UNL d   1      -1.022  -0.907  -0.439  0.00  0.00     0.315 C 
ATOM      7  O   UNL d   1      -1.627  -0.201   0.357  0.00  0.00    -0.257 OA
BRANCH   6   8
ATOM      8  C   UNL d   1      -1.740  -1.819  -1.375  0.00  0.00     0.041 A 
ATOM      9  C   UNL d   1      -3.146  -1.804  -1.342  0.00  0.00     0.019 A 
ATOM     10  C   UNL d   1      -3.891  -2.607  -2.209  0.00  0.00     0.025 A 
ATOM     11  C   UNL d   1      -3.234  -3.433  -3.116  0.00  0.00     0.034 A 
ATOM     12  C   UNL d   1      -1.840  -3.467  -3.155  0.00  0.00     0.025 A 
ATOM     13 CL   UNL d   1      -4.148  -4.410  -4.199  0.00  0.00    -0.084 Cl
ATOM     14  C   UNL d   1      -1.091  -2.663  -2.286  0.00  0.00     0.019 A 
ENDBRANCH   6   8
ENDBRANCH   5   6
ENDBRANCH   1   5
BRANCH   3  15
ATOM     15  C   UNL d   1       3.028   1.080   0.775  0.00  0.00    -0.009 A 
ATOM     16  C   UNL d   1       2.536   1.580   1.988  0.00  0.00     0.059 A 
ATOM     17  C   UNL d   1       3.245   2.573   2.662  0.00  0.00     0.155 A 
ATOM     18  F   UNL d   1       2.777   3.040   3.826  0.00  0.00    -0.203 F 
ATOM     19  C   UNL d   1       4.429   3.078   2.134  0.00  0.00     0.154 A 
ATOM     20  C   UNL d   1       4.917   2.600   0.923  0.00  0.00     0.046 A 
ATOM     21  F   UNL d   1       5.104   4.034   2.783  0.00  0.00    -0.203 F 
ATOM     22  C   UNL d   1       4.215   1.601   0.239  0.00  0.00     0.017 A 
ENDBRANCH   3  15
TORSDOF 4
