REMARK  4 active torsions:
REMARK  status: ('A' for Active; 'I' for Inactive)
REMARK    1  A    between atoms: C_8  and  C_1 
REMARK    2  A    between atoms: C_2  and  C_11 
REMARK       I    between atoms: N_6  and  C_2 
REMARK    3  A    between atoms: C_5  and  C_7 
REMARK    4  A    between atoms: C_13  and  N_6 
ROOT
ATOM      1  C   UNL d   1      -0.730  -1.682  -5.193  0.00  0.00     0.256 C 
ATOM      2  N   UNL d   1      -1.433  -0.827  -6.031  0.00  0.00    -0.323 N 
ATOM      3  O   UNL d   1      -0.129  -1.347  -4.175  0.00  0.00    -0.267 OA
ATOM      4  H   UNL d   1      -1.964  -1.225  -6.791  0.00  0.00     0.169 HD
ENDROOT
BRANCH   2   5
ATOM      5  C   UNL d   1      -1.679   0.547  -5.781  0.00  0.00     0.035 A 
ATOM      6  C   UNL d   1      -1.057   1.257  -4.750  0.00  0.00     0.043 A 
ATOM      7  C   UNL d   1      -1.451   2.557  -4.401  0.00  0.00     0.001 A 
ATOM      8  C   UNL d   1      -2.436   3.181  -5.173  0.00  0.00     0.014 A 
ATOM      9  C   UNL d   1      -3.014   2.513  -6.256  0.00  0.00     0.003 A 
ATOM     10  C   UNL d   1      -2.640   1.200  -6.556  0.00  0.00     0.029 A 
BRANCH   7  11
ATOM     11  C   UNL d   1      -0.877   3.176  -3.216  0.00  0.00     0.102 A 
ATOM     12  O   UNL d   1      -1.349   4.410  -2.847  0.00  0.00    -0.304 OA
ATOM     13  C   UNL d   1      -0.679   4.684  -1.690  0.00  0.00     0.233 A 
ATOM     14  N   UNL d   1       0.170   3.765  -1.301  0.00  0.00    -0.354 N 
ATOM     15  C   UNL d   1       0.049   2.796  -2.262  0.00  0.00     0.127 A 
ATOM     16  HN  UNL d   1       0.775   3.769  -0.479  1.00  0.00     0.166 HD
ENDBRANCH   7  11
ENDBRANCH   2   5
BRANCH   1  17
ATOM     17  C   UNL d   1      -0.753  -3.143  -5.508  0.00  0.00     0.032 A 
ATOM     18  C   UNL d   1      -1.184  -3.681  -6.724  0.00  0.00     0.018 A 
ATOM     19  C   UNL d   1      -1.206  -5.071  -6.909  0.00  0.00     0.017 A 
ATOM     20  C   UNL d   1      -0.788  -5.943  -5.889  0.00  0.00     0.048 A 
ATOM     21  C   UNL d   1      -0.333  -5.399  -4.683  0.00  0.00     0.017 A 
ATOM     22  C   UNL d   1      -0.318  -4.016  -4.497  0.00  0.00     0.018 A 
BRANCH  20  23
ATOM     23  C   UNL d   1      -0.845  -7.438  -6.091  0.00  0.00     0.417 C 
ATOM     24  F   UNL d   1      -0.353  -8.150  -5.040  0.00  0.00    -0.166 F 
ATOM     25  F   UNL d   1      -0.141  -7.845  -7.182  0.00  0.00    -0.166 F 
ATOM     26  F   UNL d   1      -2.119  -7.883  -6.279  0.00  0.00    -0.166 F 
ENDBRANCH  20  23
ENDBRANCH   1  17
TORSDOF 4
