REMARK  4 active torsions:
REMARK  status: ('A' for Active; 'I' for Inactive)
REMARK    1  A    between atoms: C_7  and  C_1 
REMARK    2  A    between atoms: S_10  and  C_8 
REMARK    3  A    between atoms: C_14  and  C_9 
REMARK    4  A    between atoms: C_15  and  S_10 
ROOT
ATOM      1  C   UNL d   1      -0.313   1.140  -0.503  0.00  0.00     0.165 A 
ATOM      2  N   UNL d   1      -0.862  -0.035  -0.498  0.00  0.00    -0.331 N 
ATOM      3  HN  UNL d   1      -1.847  -0.277  -0.400  1.00  0.00     0.168 HD
ATOM      4  O   UNL d   1       1.030   1.201  -0.642  0.00  0.00    -0.255 OA
ATOM      5  C   UNL d   1       0.212  -0.868  -0.657  0.00  0.00     0.111 A 
ATOM      6  C   UNL d   1       1.468  -0.081  -0.767  0.00  0.00     0.316 A 
ATOM      7  C   UNL d   1       0.223  -2.205  -0.662  0.00  0.00     0.047 C 
ATOM      8  O   UNL d   1       2.610  -0.464  -0.908  0.00  0.00    -0.257 OA
ENDROOT
BRANCH   1   9
ATOM      9  C   UNL d   1      -1.006   2.408  -0.247  0.00  0.00     0.049 A 
ATOM     10  C   UNL d   1      -0.610   3.662  -0.717  0.00  0.00     0.089 A 
ATOM     11  N   UNL d   1      -1.257   4.803  -0.346  0.00  0.00    -0.359 N 
ATOM     12  C   UNL d   1      -2.315   4.699   0.488  0.00  0.00     0.089 A 
ATOM     13  HN  UNL d   1      -0.950   5.713  -0.690  1.00  0.00     0.166 HD
ATOM     14  C   UNL d   1      -2.794   3.497   0.969  0.00  0.00     0.018 A 
ATOM     15  C   UNL d   1      -2.133   2.336   0.587  0.00  0.00     0.020 A 
BRANCH  10  16
ATOM     16  S   UNL d   1       0.785   3.949  -1.791  0.00  0.00    -0.072 SA
BRANCH  16  17
ATOM     17  C   UNL d   1       0.036   4.062  -3.405  0.00  0.00     0.007 A 
ATOM     18  C   UNL d   1      -0.972   4.988  -3.695  0.00  0.00     0.020 A 
ATOM     19  C   UNL d   1      -1.469   5.113  -4.998  0.00  0.00     0.025 A 
ATOM     20  C   UNL d   1      -0.950   4.317  -6.017  0.00  0.00     0.034 A 
ATOM     21  C   UNL d   1       0.052   3.391  -5.744  0.00  0.00     0.025 A 
ATOM     22 CL   UNL d   1      -1.536   4.494  -7.625  0.00  0.00    -0.084 Cl
ATOM     23  C   UNL d   1       0.546   3.266  -4.440  0.00  0.00     0.020 A 
ENDBRANCH  16  17
ENDBRANCH  10  16
ENDBRANCH   1   9
BRANCH   7  24
ATOM     24  C   UNL d   1      -0.969  -3.032  -0.486  0.00  0.00    -0.034 A 
ATOM     25  C   UNL d   1      -1.674  -3.506  -1.596  0.00  0.00     0.012 A 
ATOM     26  C   UNL d   1      -2.771  -4.354  -1.422  0.00  0.00     0.007 A 
ATOM     27  C   UNL d   1      -3.181  -4.733  -0.138  0.00  0.00    -0.062 A 
ATOM     28  C   UNL d   1      -2.485  -4.240   0.972  0.00  0.00     0.007 A 
ATOM     29  C   UNL d   1      -4.319  -5.695   0.035  0.00  0.00     0.048 C 
ATOM     30  C   UNL d   1      -1.388  -3.392   0.798  0.00  0.00     0.012 A 
ENDBRANCH   7  24
TORSDOF 4
