REMARK  4 active torsions:
REMARK  status: ('A' for Active; 'I' for Inactive)
REMARK    1  A    between atoms: C_4  and  C_1 
REMARK    2  A    between atoms: C_5  and  C_2 
REMARK       I    between atoms: N_6  and  C_4 
REMARK       I    between atoms: N_7  and  C_5 
REMARK    3  A    between atoms: C_11  and  N_6 
REMARK    4  A    between atoms: C_12  and  N_7 
ROOT
ATOM      1  C   UNL d   1       0.226   1.210  -0.226  0.00  0.00     0.071 A 
ATOM      2  C   UNL d   1       0.209  -1.185   0.222  0.00  0.00     0.071 A 
ATOM      3  C   UNL d   1       0.914   0.005  -0.009  0.00  0.00     0.147 A 
ATOM      4  F   UNL d   1       2.259  -0.005  -0.023  0.00  0.00    -0.204 F 
ATOM      5  C   UNL d   1      -1.181   1.193  -0.263  0.00  0.00     0.020 A 
ATOM      6  C   UNL d   1      -1.197  -1.143   0.287  0.00  0.00     0.020 A 
ATOM      7  C   UNL d   1      -1.889   0.031   0.018  0.00  0.00     0.002 A 
ENDROOT
BRANCH   1   8
ATOM      8  C   UNL d   1       0.869   2.557  -0.334  0.00  0.00     0.259 C 
ATOM      9  N   UNL d   1       2.232   2.644  -0.121  0.00  0.00    -0.323 N 
ATOM     10  H   UNL d   1       2.772   1.787  -0.142  0.00  0.00     0.169 HD
ATOM     11  O   UNL d   1       0.138   3.517  -0.569  0.00  0.00    -0.267 OA
BRANCH   9  12
ATOM     12  C   UNL d   1       2.945   3.827   0.196  0.00  0.00     0.035 A 
ATOM     13  C   UNL d   1       2.324   5.042   0.513  0.00  0.00     0.031 A 
ATOM     14  C   UNL d   1       3.077   6.147   0.929  0.00  0.00     0.026 A 
ATOM     15  C   UNL d   1       4.460   6.047   1.020  0.00  0.00     0.034 A 
ATOM     16  C   UNL d   1       5.097   4.857   0.679  0.00  0.00     0.026 A 
ATOM     17 CL   UNL d   1       5.381   7.389   1.573  0.00  0.00    -0.084 Cl
ATOM     18  C   UNL d   1       4.341   3.750   0.271  0.00  0.00     0.031 A 
ENDBRANCH   9  12
ENDBRANCH   1   8
BRANCH   2  19
ATOM     19  C   UNL d   1       0.828  -2.546   0.322  0.00  0.00     0.259 C 
ATOM     20  N   UNL d   1       2.187  -2.648   0.072  0.00  0.00    -0.323 N 
ATOM     21  H   UNL d   1       2.738  -1.801   0.086  0.00  0.00     0.169 HD
ATOM     22  O   UNL d   1       0.092  -3.490   0.581  0.00  0.00    -0.267 OA
BRANCH  20  23
ATOM     23  C   UNL d   1       2.874  -3.840  -0.259  0.00  0.00     0.035 A 
ATOM     24  C   UNL d   1       2.233  -5.043  -0.575  0.00  0.00     0.031 A 
ATOM     25  C   UNL d   1       2.965  -6.159  -0.998  0.00  0.00     0.026 A 
ATOM     26  C   UNL d   1       4.349  -6.078  -1.100  0.00  0.00     0.034 A 
ATOM     27  C   UNL d   1       5.007  -4.897  -0.768  0.00  0.00     0.026 A 
ATOM     28 CL   UNL d   1       5.248  -7.436  -1.658  0.00  0.00    -0.084 Cl
ATOM     29  C   UNL d   1       4.272  -3.781  -0.352  0.00  0.00     0.031 A 
ENDBRANCH  20  23
ENDBRANCH   2  19
TORSDOF 4
