REMARK  3 active torsions:
REMARK  status: ('A' for Active; 'I' for Inactive)
REMARK    1  A    between atoms: C_3  and  S_1 
REMARK    2  A    between atoms: C_4  and  S_1 
REMARK    3  A    between atoms: C_2  and  C_4 
ROOT
ATOM      1  C   UNL d   1       0.635  -1.336   1.154  0.00  0.00     0.188 C 
ENDROOT
BRANCH   1   2
ATOM      2  C   UNL d   1       1.234  -2.617   0.618  0.00  0.00    -0.001 A 
ATOM      3  C   UNL d   1       2.573  -2.968   0.884  0.00  0.00     0.043 A 
ATOM      4 CL   UNL d   1       3.649  -1.917   1.738  0.00  0.00    -0.084 Cl
ATOM      5  C   UNL d   1       3.084  -4.219   0.515  0.00  0.00     0.024 A 
ATOM      6  C   UNL d   1       2.275  -5.148  -0.130  0.00  0.00     0.003 A 
ATOM      7  C   UNL d   1       0.963  -4.809  -0.441  0.00  0.00     0.024 A 
ATOM      8  C   UNL d   1       0.451  -3.554  -0.084  0.00  0.00     0.043 A 
ATOM      9 CL   UNL d   1      -1.200  -3.249  -0.502  0.00  0.00    -0.084 Cl
ENDBRANCH   1   2
BRANCH   1  10
ATOM     10  S   UNL d   1       0.852   0.029   0.019  0.00  0.00     0.186 S 
ATOM     11  O   UNL d   1       2.255   0.358  -0.118  0.00  0.00    -0.222 OA
ATOM     12  O   UNL d   1      -0.009  -0.119  -1.139  0.00  0.00    -0.222 OA
BRANCH  10  13
ATOM     13  C   UNL d   1       0.172   1.417   0.930  0.00  0.00     0.100 A 
ATOM     14  S   UNL d   1      -1.469   1.295   1.408  0.00  0.00    -0.090 SA
ATOM     15  C   UNL d   1      -1.426   2.814   2.195  0.00  0.00     0.051 A 
ATOM     16  C   UNL d   1      -0.195   3.418   2.079  0.00  0.00     0.009 A 
ATOM     17  C   UNL d   1       0.728   2.614   1.347  0.00  0.00     0.031 A 
ENDBRANCH  10  13
ENDBRANCH   1  10
TORSDOF 3
