REMARK  1 active torsions:
REMARK  status: ('A' for Active; 'I' for Inactive)
REMARK       I    between atoms: C_2  and  N_1 
REMARK    1  A    between atoms: C_8  and  C_2 
ROOT
ATOM      1  N   UNL d   1      -1.838   3.031  -2.452  0.00  0.00    -0.197 NA
ATOM      2  C   UNL d   1      -0.796   3.253  -1.995  0.00  0.00     0.068 C 
ATOM      3  C   UNL d   1       0.480   3.532  -1.336  0.00  0.00     0.226 C 
ENDROOT
BRANCH   3   4
ATOM      4  C   UNL d   1       1.286   2.272  -1.098  0.00  0.00     0.233 C 
ATOM      5  N   UNL d   1       0.856   1.356  -0.149  0.00  0.00    -0.346 N 
ATOM      6  C   UNL d   1       1.630   0.127   0.072  0.00  0.00     0.157 C 
ATOM      7  C   UNL d   1      -0.487   1.284   0.443  0.00  0.00     0.157 C 
ATOM      8  C   UNL d   1       0.834  -1.118  -0.381  0.00  0.00     0.136 C 
ATOM      9  C   UNL d   1       1.520  -2.395   0.086  0.00  0.00     0.041 C 
ATOM     10  O   UNL d   1      -0.496  -1.128   0.178  0.00  0.00    -0.378 OA
ATOM     11  C   UNL d   1      -1.222   0.071  -0.156  0.00  0.00     0.136 C 
ATOM     12  C   UNL d   1      -2.631  -0.065   0.394  0.00  0.00     0.041 C 
ATOM     13  O   UNL d   1       2.350   2.119  -1.705  0.00  0.00    -0.272 OA
ENDBRANCH   3   4
TORSDOF 1
