REMARK  4 active torsions:
REMARK  status: ('A' for Active; 'I' for Inactive)
REMARK    1  A    between atoms: C_12  and  N_3 
REMARK    2  A    between atoms: O_9  and  C_4 
REMARK    3  A    between atoms: C_8  and  C_10 
REMARK    4  A    between atoms: C_15  and  O_9 
ROOT
ATOM      1  C   UNL d   1      -0.777   1.323   0.319  0.00  0.00     0.291 A 
ATOM      2  C   UNL d   1      -1.441  -0.014   0.328  0.00  0.00     0.139 A 
ATOM      3  N   UNL d   1       0.614   1.308   0.119  0.00  0.00    -0.220 N 
ATOM      4  C   UNL d   1      -0.756  -1.140   0.119  0.00  0.00     0.120 A 
ATOM      5  N   UNL d   1       1.342   0.144  -0.025  0.00  0.00    -0.299 N 
ATOM      6  HN  UNL d   1       2.354   0.168  -0.153  1.00  0.00     0.186 HD
ATOM      7  C   UNL d   1       0.702  -0.975   0.007  0.00  0.00     0.146 A 
ATOM      8  O   UNL d   1      -1.478   2.331   0.429  0.00  0.00    -0.264 OA
ATOM      9 CL   UNL d   1      -3.161  -0.044   0.544  0.00  0.00    -0.075 Cl
ENDROOT
BRANCH   4  10
ATOM     10  O   UNL d   1      -1.361  -2.388   0.082  0.00  0.00    -0.307 OA
BRANCH  10  11
ATOM     11  C   UNL d   1      -0.883  -3.348  -0.778  0.00  0.00     0.077 A 
ATOM     12  C   UNL d   1      -0.377  -3.066  -2.051  0.00  0.00     0.053 A 
ATOM     13  C   UNL d   1       0.126  -4.098  -2.857  0.00  0.00     0.050 A 
ATOM     14  C   UNL d   1       0.054  -5.421  -2.391  0.00  0.00     0.016 A 
ATOM     15  C   UNL d   1      -0.503  -5.704  -1.144  0.00  0.00     0.004 A 
ATOM     16  C   UNL d   1      -0.971  -4.668  -0.338  0.00  0.00     0.037 A 
BRANCH  13  17
ATOM     17  C   UNL d   1       0.744  -3.803  -4.202  0.00  0.00     0.417 C 
ATOM     18  F   UNL d   1       0.811  -2.472  -4.485  0.00  0.00    -0.166 F 
ATOM     19  F   UNL d   1       2.021  -4.267  -4.296  0.00  0.00    -0.166 F 
ATOM     20  F   UNL d   1       0.058  -4.373  -5.230  0.00  0.00    -0.166 F 
ENDBRANCH  13  17
ENDBRANCH  10  11
ENDBRANCH   4  10
BRANCH   3  21
ATOM     21  C   UNL d   1       1.413   2.501   0.046  0.00  0.00     0.060 A 
ATOM     22  C   UNL d   1       0.990   3.721   0.591  0.00  0.00     0.031 A 
ATOM     23  C   UNL d   1       1.767   4.879   0.472  0.00  0.00     0.002 A 
ATOM     24  C   UNL d   1       2.984   4.839  -0.199  0.00  0.00     0.000 A 
ATOM     25  C   UNL d   1       3.437   3.635  -0.729  0.00  0.00     0.002 A 
ATOM     26  C   UNL d   1       2.666   2.475  -0.594  0.00  0.00     0.031 A 
ENDBRANCH   3  21
TORSDOF 4
