REMARK  3 active torsions:
REMARK  status: ('A' for Active; 'I' for Inactive)
REMARK    1  A    between atoms: N_3  and  C_1 
REMARK       I    between atoms: C_2  and  N_5 
REMARK    2  A    between atoms: C_6  and  C_2 
REMARK    3  A    between atoms: N_8  and  C_4 
REMARK       I    between atoms: N_5  and  C_7 
REMARK       I    between atoms: C_7  and  N_8 
ROOT
ATOM      1  C   UNL d   1       0.512   6.481   1.621  0.00  0.00     0.265 C 
ATOM      2  N   UNL d   1       1.331   5.383   1.406  0.00  0.00    -0.275 N 
ATOM      3  C   UNL d   1       0.933   4.125   1.015  0.00  0.00     0.327 C 
ATOM      4  N   UNL d   1      -0.309   3.732   1.446  0.00  0.00    -0.306 N 
ATOM      5  O   UNL d   1      -0.688   6.357   1.854  0.00  0.00    -0.267 OA
ATOM      6  O   UNL d   1       1.673   3.482   0.277  0.00  0.00    -0.247 OA
ATOM      7  H   UNL d   1       2.284   5.556   1.109  0.00  0.00     0.173 HD
ATOM      8  H   UNL d   1      -0.887   4.518   1.734  0.00  0.00     0.171 HD
ENDROOT
BRANCH   4   9
ATOM      9  C   UNL d   1      -0.955   2.499   1.140  0.00  0.00     0.076 C 
ATOM     10  C   UNL d   1      -0.291   1.291   0.843  0.00  0.00     0.130 C 
ATOM     11  C   UNL d   1      -0.982   0.177   0.340  0.00  0.00     0.039 C 
ATOM     12  C   UNL d   1      -2.357   0.241   0.162  0.00  0.00     0.010 C 
ATOM     13  C   UNL d   1      -3.071   1.384   0.548  0.00  0.00    -0.054 C 
ATOM     14  C   UNL d   1      -4.567   1.376   0.362  0.00  0.00     0.049 C 
ATOM     15  C   UNL d   1      -2.379   2.505   1.084  0.00  0.00    -0.027 C 
ATOM     16  C   UNL d   1      -3.156   3.712   1.563  0.00  0.00     0.051 C 
BRANCH  10  17
ATOM     17  N   UNL d   1       1.089   1.038   1.248  0.00  0.00    -0.113 N 
ATOM     18  O   UNL d   1       1.415   1.375   2.398  0.00  0.00    -0.532 OA
ATOM     19  O   UNL d   1       1.805   0.392   0.466  0.00  0.00    -0.532 OA
ENDBRANCH  10  17
ENDBRANCH   4   9
BRANCH   1  20
ATOM     20  C   UNL d   1       1.158   7.825   1.597  0.00  0.00     0.109 A 
ATOM     21  C   UNL d   1       0.376   8.983   1.655  0.00  0.00     0.135 A 
ATOM     22  F   UNL d   1      -0.963   8.919   1.710  0.00  0.00    -0.205 F 
ATOM     23  C   UNL d   1       0.957  10.254   1.639  0.00  0.00     0.043 A 
ATOM     24  C   UNL d   1       2.341  10.392   1.564  0.00  0.00     0.006 A 
ATOM     25  C   UNL d   1       3.138   9.253   1.499  0.00  0.00     0.043 A 
ATOM     26  C   UNL d   1       2.544   7.987   1.515  0.00  0.00     0.135 A 
ATOM     27  F   UNL d   1       3.357   6.923   1.439  0.00  0.00    -0.205 F 
ENDBRANCH   1  20
TORSDOF 3
