REMARK  4 active torsions:
REMARK  status: ('A' for Active; 'I' for Inactive)
REMARK    1  A    between atoms: C_6  and  S_1 
REMARK    2  A    between atoms: C_9  and  S_1 
REMARK    3  A    between atoms: C_4  and  C_6 
REMARK    4  A    between atoms: C_12  and  C_5 
ROOT
ATOM      1  N   UNL d   1       0.685  -3.661  -1.763  0.00  0.00    -0.352 N 
ATOM      2  HN  UNL d   1       0.281  -4.332  -1.110  1.00  0.00     0.166 HD
ATOM      3  C   UNL d   1       0.822  -2.372  -1.528  0.00  0.00     0.065 A 
ATOM      4  C   UNL d   1       1.169  -3.976  -3.025  0.00  0.00     0.049 A 
ATOM      5  S   UNL d   1       1.525  -1.466  -2.811  0.00  0.00    -0.085 SA
ATOM      6  C   UNL d   1       1.640  -2.897  -3.747  0.00  0.00     0.081 A 
ENDROOT
BRANCH   3   7
ATOM      7  C   UNL d   1       0.488  -1.726  -0.234  0.00  0.00     0.210 C 
BRANCH   7   8
ATOM      8  S   UNL d   1      -1.165  -1.092  -0.274  0.00  0.00     0.181 S 
ATOM      9  O   UNL d   1      -1.296  -0.150  -1.372  0.00  0.00    -0.222 OA
ATOM     10  O   UNL d   1      -1.489  -0.658   1.076  0.00  0.00    -0.222 OA
BRANCH   8  11
ATOM     11  C   UNL d   1      -2.236  -2.471  -0.627  0.00  0.00     0.059 A 
ATOM     12  C   UNL d   1      -2.785  -3.209   0.428  0.00  0.00     0.025 A 
ATOM     13  C   UNL d   1      -3.698  -4.230   0.150  0.00  0.00     0.025 A 
ATOM     14  C   UNL d   1      -4.059  -4.500  -1.170  0.00  0.00     0.034 A 
ATOM     15  C   UNL d   1      -3.518  -3.758  -2.220  0.00  0.00     0.025 A 
ATOM     16 CL   UNL d   1      -5.198  -5.745  -1.506  0.00  0.00    -0.084 Cl
ATOM     17  C   UNL d   1      -2.610  -2.732  -1.950  0.00  0.00     0.025 A 
ENDBRANCH   8  11
ENDBRANCH   7   8
ENDBRANCH   3   7
BRANCH   4  18
ATOM     18  C   UNL d   1       1.156  -5.348  -3.518  0.00  0.00    -0.009 A 
ATOM     19  C   UNL d   1       0.158  -6.231  -3.080  0.00  0.00     0.015 A 
ATOM     20  C   UNL d   1       0.128  -7.553  -3.532  0.00  0.00     0.024 A 
ATOM     21  C   UNL d   1       1.103  -8.004  -4.419  0.00  0.00     0.034 A 
ATOM     22  C   UNL d   1       2.107  -7.144  -4.857  0.00  0.00     0.024 A 
ATOM     23 CL   UNL d   1       1.073  -9.633  -4.972  0.00  0.00    -0.084 Cl
ATOM     24  C   UNL d   1       2.134  -5.820  -4.407  0.00  0.00     0.015 A 
ENDBRANCH   4  18
TORSDOF 4
