REMARK  4 active torsions:
REMARK  status: ('A' for Active; 'I' for Inactive)
REMARK    1  A    between atoms: N_2  and  S_1 
REMARK    2  A    between atoms: C_5  and  S_1 
REMARK    3  A    between atoms: C_6  and  N_2 
REMARK    4  A    between atoms: C_7  and  C_6 
ROOT
ATOM      1  S   UNL d   1       0.913   0.002   0.002  0.00  0.00     0.241 S 
ATOM      2  O   UNL d   1       2.013   0.908  -0.236  0.00  0.00    -0.206 OA
ATOM      3  O   UNL d   1       0.978  -1.031   1.013  0.00  0.00    -0.206 OA
ENDROOT
BRANCH   1   4
ATOM      4  N   UNL d   1       0.508  -0.756  -1.448  0.00  0.00    -0.211 NA
ATOM      5  H   UNL d   1      -0.449  -1.108  -1.440  0.00  0.00     0.140 HD
BRANCH   4   6
ATOM      6  C   UNL d   1       0.833  -0.024  -2.680  0.00  0.00     0.143 C 
BRANCH   6   7
ATOM      7  C   UNL d   1       0.416  -0.808  -3.903  0.00  0.00    -0.044 A 
ATOM      8  C   UNL d   1      -0.472  -0.262  -4.840  0.00  0.00     0.008 A 
ATOM      9  C   UNL d   1      -0.845  -0.993  -5.970  0.00  0.00     0.001 A 
ATOM     10  C   UNL d   1      -0.335  -2.273  -6.177  0.00  0.00     0.000 A 
ATOM     11  C   UNL d   1       0.552  -2.825  -5.256  0.00  0.00     0.001 A 
ATOM     12  C   UNL d   1       0.927  -2.097  -4.126  0.00  0.00     0.008 A 
ENDBRANCH   6   7
ENDBRANCH   4   6
ENDBRANCH   1   4
BRANCH   1  13
ATOM     13  C   UNL d   1      -0.541   0.971   0.346  0.00  0.00     0.074 A 
ATOM     14  C   UNL d   1      -1.574   0.407   1.105  0.00  0.00     0.025 A 
ATOM     15  C   UNL d   1      -2.681   1.184   1.446  0.00  0.00     0.002 A 
ATOM     16  C   UNL d   1      -2.751   2.516   1.037  0.00  0.00     0.000 A 
ATOM     17  C   UNL d   1      -1.715   3.077   0.288  0.00  0.00     0.002 A 
ATOM     18  C   UNL d   1      -0.601   2.308  -0.055  0.00  0.00     0.025 A 
ENDBRANCH   1  13
TORSDOF 4
