REMARK  8 active torsions:
REMARK  status: ('A' for Active; 'I' for Inactive)
REMARK    1  A    between atoms: N_6  and  C_1 
REMARK    2  A    between atoms: C_7  and  C_2 
REMARK    3  A    between atoms: C_12  and  C_3 
REMARK       I    between atoms: C_8  and  N_6 
REMARK    4  A    between atoms: O_16  and  C_7 
REMARK    5  A    between atoms: C_9  and  C_8 
REMARK    6  A    between atoms: C_10  and  C_11 
REMARK    7  A    between atoms: O_18  and  C_10 
REMARK    8  A    between atoms: C_21  and  O_16 
ROOT
ATOM      1  C   UNL d   1      -1.533  -0.064  -0.551  0.00  0.00     0.094 A 
ATOM      2  C   UNL d   1      -1.172  -1.402  -0.652  0.00  0.00     0.085 A 
ATOM      3  C   UNL d   1       0.253  -1.586  -0.359  0.00  0.00     0.006 A 
ATOM      4  S   UNL d   1      -0.191   0.936  -0.273  0.00  0.00    -0.075 SA
ATOM      5  C   UNL d   1       0.891  -0.368  -0.152  0.00  0.00    -0.007 A 
ATOM      6  C   UNL d   1       2.319  -0.048   0.170  0.00  0.00     0.057 C 
ENDROOT
BRANCH   1   7
ATOM      7  N   UNL d   1      -2.804   0.511  -0.567  0.00  0.00    -0.317 N 
ATOM      8  C   UNL d   1      -3.043   1.867  -0.691  0.00  0.00     0.246 C 
ATOM      9  O   UNL d   1      -2.297   2.701  -1.196  0.00  0.00    -0.268 OA
ATOM     10  H   UNL d   1      -3.580  -0.126  -0.423  0.00  0.00     0.169 HD
BRANCH   8  11
ATOM     11  C   UNL d   1      -4.356   2.290  -0.142  0.00  0.00     0.081 C 
ATOM     12  C   UNL d   1      -4.567   3.609  -0.018  0.00  0.00     0.086 C 
BRANCH  12  13
ATOM     13  C   UNL d   1      -5.782   4.121   0.614  0.00  0.00     0.165 C 
ATOM     14  O   UNL d   1      -6.732   3.470   1.007  0.00  0.00    -0.647 OA
BRANCH  13  15
ATOM     15  O   UNL d   1      -5.707   5.452   0.743  0.00  0.00    -0.773 OA
ATOM     16  H   UNL d   1      -6.533   5.714   1.199  0.00  0.00     0.167 HD
ENDBRANCH  13  15
ENDBRANCH  12  13
ENDBRANCH   8  11
ENDBRANCH   1   7
BRANCH   2  17
ATOM     17  C   UNL d   1      -2.089  -2.476  -1.039  0.00  0.00     0.297 C 
ATOM     18  O   UNL d   1      -1.730  -3.487  -1.629  0.00  0.00    -0.259 OA
BRANCH  17  19
ATOM     19  O   UNL d   1      -3.391  -2.234  -0.682  0.00  0.00    -0.318 OA
BRANCH  19  20
ATOM     20  C   UNL d   1      -4.338  -3.230  -1.108  0.00  0.00     0.174 C 
ATOM     21  C   UNL d   1      -4.297  -4.463  -0.222  0.00  0.00     0.034 C 
ENDBRANCH  19  20
ENDBRANCH  17  19
ENDBRANCH   2  17
BRANCH   3  22
ATOM     22  C   UNL d   1       0.969  -2.857  -0.155  0.00  0.00    -0.024 A 
ATOM     23  C   UNL d   1       2.240  -3.082  -0.701  0.00  0.00     0.012 A 
ATOM     24  C   UNL d   1       2.971  -4.226  -0.366  0.00  0.00     0.001 A 
ATOM     25  C   UNL d   1       2.417  -5.185   0.478  0.00  0.00     0.000 A 
ATOM     26  C   UNL d   1       1.132  -5.005   0.981  0.00  0.00     0.001 A 
ATOM     27  C   UNL d   1       0.416  -3.843   0.676  0.00  0.00     0.012 A 
ENDBRANCH   3  22
TORSDOF 8
