REMARK  5 active torsions:
REMARK  status: ('A' for Active; 'I' for Inactive)
REMARK    1  A    between atoms: C_3  and  C_1 
REMARK    2  A    between atoms: C_2  and  C_11 
REMARK    3  A    between atoms: C_6  and  C_3 
REMARK    4  A    between atoms: N_12  and  N_4 
REMARK    5  A    between atoms: C_19  and  N_12 
ROOT
ATOM      1  C   UNL d   1       0.989   0.093   0.029  0.00  0.00     0.175 C 
ATOM      2  N   UNL d   1       0.292  -0.730  -0.704  0.00  0.00    -0.287 N 
ATOM      3  HN  UNL d   1       0.762  -1.482  -1.208  1.00  0.00     0.188 HD
ATOM      4  C   UNL d   1       0.305   1.114   0.780  0.00  0.00     0.123 C 
ATOM      5  N   UNL d   1      -0.301   1.932   1.346  0.00  0.00    -0.190 NA
ENDROOT
BRANCH   1   6
ATOM      6  C   UNL d   1       2.485  -0.032   0.087  0.00  0.00     0.192 C 
ATOM      7  O   UNL d   1       3.093   0.262   1.105  0.00  0.00    -0.290 OA
BRANCH   6   8
ATOM      8  C   UNL d   1       3.161  -0.432  -1.176  0.00  0.00     0.063 A 
ATOM      9  C   UNL d   1       4.646  -0.726  -1.200  0.00  0.00     0.013 A 
ATOM     10  C   UNL d   1       4.126   0.530  -1.834  0.00  0.00     0.013 A 
ENDBRANCH   6   8
ENDBRANCH   1   6
BRANCH   2  11
ATOM     11  N   UNL d   1      -1.063  -0.592  -0.801  0.00  0.00    -0.300 N 
ATOM     12  H   UNL d   1      -1.581   0.234  -0.498  0.00  0.00     0.187 HD
BRANCH  11  13
ATOM     13  C   UNL d   1      -1.783  -1.518  -1.579  0.00  0.00     0.048 A 
ATOM     14  C   UNL d   1      -1.292  -2.804  -1.830  0.00  0.00     0.031 A 
ATOM     15  C   UNL d   1      -1.998  -3.705  -2.632  0.00  0.00     0.018 A 
ATOM     16  C   UNL d   1      -3.206  -3.328  -3.231  0.00  0.00     0.048 A 
ATOM     17  C   UNL d   1      -3.697  -2.035  -2.996  0.00  0.00     0.018 A 
ATOM     18  C   UNL d   1      -2.994  -1.142  -2.176  0.00  0.00     0.031 A 
BRANCH  16  19
ATOM     19  C   UNL d   1      -3.961  -4.283  -4.125  0.00  0.00     0.417 C 
ATOM     20  F   UNL d   1      -3.362  -5.501  -4.249  0.00  0.00    -0.166 F 
ATOM     21  F   UNL d   1      -5.223  -4.532  -3.678  0.00  0.00    -0.166 F 
ATOM     22  F   UNL d   1      -4.100  -3.807  -5.393  0.00  0.00    -0.166 F 
ENDBRANCH  16  19
ENDBRANCH  11  13
ENDBRANCH   2  11
TORSDOF 5
