REMARK  5 active torsions:
REMARK  status: ('A' for Active; 'I' for Inactive)
REMARK    1  A    between atoms: C_3  and  S_1 
REMARK    2  A    between atoms: C_8  and  S_1 
REMARK    3  A    between atoms: C_2  and  C_4 
REMARK    4  A    between atoms: C_4  and  C_9 
REMARK    5  A    between atoms: N_15  and  C_5 
ROOT
ATOM      1  C   UNL d   1       0.358  -0.795  -1.295  0.00  0.00     0.064 A 
ATOM      2  C   UNL d   1      -0.500  -2.021  -3.662  0.00  0.00     0.014 A 
ATOM      3  C   UNL d   1       0.781  -2.092  -1.591  0.00  0.00     0.025 A 
ATOM      4  C   UNL d   1      -0.514  -0.118  -2.152  0.00  0.00     0.025 A 
ATOM      5  C   UNL d   1      -0.966  -0.745  -3.319  0.00  0.00     0.017 A 
ATOM      6  C   UNL d   1       0.348  -2.702  -2.772  0.00  0.00     0.017 A 
ENDROOT
BRANCH   1   7
ATOM      7  S   UNL d   1       1.007   0.048   0.133  0.00  0.00     0.206 S 
ATOM      8  O   UNL d   1       1.154   1.445  -0.235  0.00  0.00    -0.217 OA
ATOM      9  O   UNL d   1       2.160  -0.706   0.598  0.00  0.00    -0.217 OA
BRANCH   7  10
ATOM     10  C   UNL d   1      -0.231  -0.047   1.402  0.00  0.00     0.064 A 
ATOM     11  C   UNL d   1      -0.232  -1.128   2.288  0.00  0.00     0.024 A 
ATOM     12  C   UNL d   1      -1.174  -1.172   3.317  0.00  0.00     0.002 A 
ATOM     13  C   UNL d   1      -2.100  -0.138   3.460  0.00  0.00     0.000 A 
ATOM     14  C   UNL d   1      -2.089   0.945   2.580  0.00  0.00     0.002 A 
ATOM     15  C   UNL d   1      -1.149   0.998   1.550  0.00  0.00     0.024 A 
ENDBRANCH   7  10
ENDBRANCH   1   7
BRANCH   2  16
ATOM     16  C   UNL d   1      -0.900  -2.724  -4.912  0.00  0.00     0.183 C 
ATOM     17  O   UNL d   1      -0.932  -3.954  -4.922  0.00  0.00    -0.288 OA
BRANCH  16  18
ATOM     18  C   UNL d   1      -1.292  -1.994  -6.151  0.00  0.00     0.072 C 
ATOM     19  C   UNL d   1      -0.928  -0.755  -6.509  0.00  0.00     0.088 C 
BRANCH  19  20
ATOM     20  N   UNL d   1      -1.295  -0.011  -7.626  0.00  0.00    -0.398 N 
ATOM     21  C   UNL d   1      -2.215  -0.471  -8.668  0.00  0.00     0.148 C 
ATOM     22  C   UNL d   1      -0.830   1.365  -7.821  0.00  0.00     0.148 C 
ENDBRANCH  19  20
ENDBRANCH  16  18
ENDBRANCH   2  16
TORSDOF 5
