REMARK  5 active torsions:
REMARK  status: ('A' for Active; 'I' for Inactive)
REMARK       I    between atoms: N_2  and  C_1 
REMARK    1  A    between atoms: O_8  and  C_1 
REMARK    2  A    between atoms: C_3  and  C_9 
REMARK       I    between atoms: N_4  and  C_3 
REMARK    3  A    between atoms: C_5  and  N_4 
REMARK    4  A    between atoms: C_18  and  O_8 
REMARK    5  A    between atoms: C_19  and  C_18 
ROOT
ATOM      1  C   UNL d   1       0.783  -0.081   0.006  0.00  0.00     0.363 C 
ATOM      2  N   UNL d   1       0.068   0.712   0.890  0.00  0.00    -0.328 N 
ATOM      3  C   UNL d   1      -1.833   2.606   2.011  0.00  0.00     0.081 C 
ATOM      4  O   UNL d   1       1.769   0.319  -0.610  0.00  0.00    -0.238 OA
ATOM      5  C   UNL d   1      -0.981   0.217   1.772  0.00  0.00     0.129 C 
ATOM      6  C   UNL d   1       0.476   2.098   1.085  0.00  0.00     0.129 C 
ATOM      7  C   UNL d   1      -2.204   1.136   1.748  0.00  0.00     0.034 C 
ATOM      8  C   UNL d   1      -0.734   3.033   1.028  0.00  0.00     0.034 C 
ENDROOT
BRANCH   3   9
ATOM      9  C   UNL d   1      -1.438   2.884   3.472  0.00  0.00     0.222 C 
ATOM     10  N   UNL d   1      -2.420   2.567   4.382  0.00  0.00    -0.356 N 
ATOM     11  H   UNL d   1      -3.302   2.224   4.030  0.00  0.00     0.162 HD
ATOM     12  O   UNL d   1      -0.367   3.381   3.796  0.00  0.00    -0.273 OA
BRANCH  10  13
ATOM     13  C   UNL d   1      -2.322   2.728   5.824  0.00  0.00     0.092 C 
ATOM     14  C   UNL d   1      -2.078   4.154   6.369  0.00  0.00     0.064 C 
ATOM     15  C   UNL d   1      -1.783   3.814   7.805  0.00  0.00    -0.050 A 
ATOM     16  C   UNL d   1      -1.939   4.603   8.932  0.00  0.00     0.007 A 
ATOM     17  C   UNL d   1      -1.317   2.492   7.906  0.00  0.00    -0.050 A 
ATOM     18  C   UNL d   1      -1.638   4.045  10.177  0.00  0.00     0.001 A 
ATOM     19  C   UNL d   1      -1.165   2.725  10.277  0.00  0.00     0.001 A 
ATOM     20  C   UNL d   1      -0.990   1.941   9.132  0.00  0.00     0.007 A 
ATOM     21  C   UNL d   1      -1.282   1.845   6.549  0.00  0.00     0.064 C 
ENDBRANCH  10  13
ENDBRANCH   3   9
BRANCH   1  22
ATOM     22  O   UNL d   1       0.227  -1.307  -0.185  0.00  0.00    -0.299 OA
BRANCH  22  23
ATOM     23  C   UNL d   1       0.608  -1.949  -1.409  0.00  0.00     0.219 C 
BRANCH  23  24
ATOM     24  C   UNL d   1       1.381  -3.227  -1.199  0.00  0.00    -0.034 A 
ATOM     25  C   UNL d   1       0.832  -4.289  -0.468  0.00  0.00     0.009 A 
ATOM     26  C   UNL d   1       1.502  -5.512  -0.384  0.00  0.00     0.001 A 
ATOM     27  C   UNL d   1       2.727  -5.686  -1.024  0.00  0.00     0.000 A 
ATOM     28  C   UNL d   1       3.293  -4.631  -1.738  0.00  0.00     0.001 A 
ATOM     29  C   UNL d   1       2.626  -3.408  -1.822  0.00  0.00     0.009 A 
ENDBRANCH  23  24
ENDBRANCH  22  23
ENDBRANCH   1  22
TORSDOF 5
