REMARK  2 active torsions:
REMARK  status: ('A' for Active; 'I' for Inactive)
REMARK    1  A    between atoms: N_2  and  C_1 
REMARK       I    between atoms: C_6  and  N_2 
REMARK    2  A    between atoms: C_8  and  C_6 
ROOT
ATOM      1  N   UNL d   1       4.274   3.238  -1.132  0.00  0.00    -0.197 NA
ATOM      2  C   UNL d   1       3.911   2.179  -1.425  0.00  0.00     0.068 C 
ATOM      3  C   UNL d   1       3.416   0.865  -1.833  0.00  0.00     0.226 C 
ENDROOT
BRANCH   3   4
ATOM      4  C   UNL d   1       3.732  -0.195  -0.798  0.00  0.00     0.235 C 
ATOM      5  N   UNL d   1       2.783  -0.690   0.061  0.00  0.00    -0.325 N 
ATOM      6  H   UNL d   1       3.065  -1.595   0.418  0.00  0.00     0.169 HD
ATOM      7  O   UNL d   1       4.855  -0.713  -0.773  0.00  0.00    -0.272 OA
BRANCH   5   8
ATOM      8  C   UNL d   1       1.425  -0.340   0.161  0.00  0.00     0.046 C 
ATOM      9  C   UNL d   1       0.436  -1.329  -0.003  0.00  0.00    -0.034 C 
ATOM     10  C   UNL d   1      -0.918  -0.944  -0.050  0.00  0.00     0.015 C 
ATOM     11  C   UNL d   1       0.719  -2.806  -0.076  0.00  0.00     0.050 C 
ATOM     12  C   UNL d   1      -1.302   0.390   0.100  0.00  0.00    -0.061 C 
ATOM     13  C   UNL d   1      -0.325   1.328   0.431  0.00  0.00     0.015 C 
ATOM     14  C   UNL d   1      -2.749   0.776   0.012  0.00  0.00     0.048 C 
ATOM     15  C   UNL d   1       1.030   0.962   0.521  0.00  0.00    -0.034 C 
ATOM     16  C   UNL d   1       1.946   1.933   1.222  0.00  0.00     0.050 C 
ENDBRANCH   5   8
ENDBRANCH   3   4
TORSDOF 2
