REMARK  3 active torsions:
REMARK  status: ('A' for Active; 'I' for Inactive)
REMARK    1  A    between atoms: O_5  and  C_1 
REMARK    2  A    between atoms: O_15  and  C_2 
REMARK    3  A    between atoms: C_10  and  O_5 
ROOT
ATOM      1  C   UNL d   1      -0.790   1.106  -0.121  0.00  0.00     0.149 A 
ATOM      2  C   UNL d   1      -1.319  -0.160  -0.300  0.00  0.00     0.178 A 
ATOM      3  N   UNL d   1      -0.607  -1.292  -0.251  0.00  0.00    -0.325 N 
ATOM      4  HN  UNL d   1      -1.045  -2.209  -0.338  1.00  0.00     0.169 HD
ATOM      5  N   UNL d   1       1.352   0.026   0.028  0.00  0.00    -0.347 N 
ATOM      6  HN  UNL d   1       2.366   0.075   0.135  1.00  0.00     0.167 HD
ATOM      7  C   UNL d   1       0.591   1.149  -0.008  0.00  0.00     0.045 A 
ATOM      8  C   UNL d   1       0.716  -1.153  -0.082  0.00  0.00     0.079 A 
ATOM      9  C   UNL d   1       1.332   2.451   0.056  0.00  0.00     0.071 C 
ATOM     10  C   UNL d   1       1.534  -2.405  -0.017  0.00  0.00     0.089 C 
ENDROOT
BRANCH   1  11
ATOM     11  O   UNL d   1      -1.496   2.278  -0.139  0.00  0.00    -0.303 OA
BRANCH  11  12
ATOM     12  C   UNL d   1      -2.630   2.430   0.634  0.00  0.00     0.098 A 
ATOM     13  C   UNL d   1      -3.521   3.453   0.267  0.00  0.00     0.069 A 
ATOM     14  C   UNL d   1      -4.723   3.636   0.952  0.00  0.00     0.050 A 
ATOM     15 CL   UNL d   1      -3.176   4.501  -1.064  0.00  0.00    -0.081 Cl
ATOM     16  C   UNL d   1      -5.039   2.795   2.016  0.00  0.00     0.035 A 
ATOM     17  C   UNL d   1      -4.152   1.801   2.418  0.00  0.00     0.026 A 
ATOM     18 CL   UNL d   1      -6.540   2.981   2.835  0.00  0.00    -0.084 Cl
ATOM     19  C   UNL d   1      -2.936   1.636   1.747  0.00  0.00     0.041 A 
ENDBRANCH  11  12
ENDBRANCH   1  11
BRANCH   2  20
ATOM     20  O   UNL d   1      -2.643  -0.372  -0.564  0.00  0.00    -0.344 OA
ATOM     21  H   UNL d   1      -3.017   0.469  -0.868  0.00  0.00     0.219 HD
ENDBRANCH   2  20
TORSDOF 3
