REMARK  6 active torsions:
REMARK  status: ('A' for Active; 'I' for Inactive)
REMARK    1  A    between atoms: N_4  and  S_1 
REMARK    2  A    between atoms: C_8  and  S_1 
REMARK    3  A    between atoms: C_5  and  C_2 
REMARK    4  A    between atoms: C_3  and  N_7 
REMARK    5  A    between atoms: N_7  and  N_4 
REMARK    6  A    between atoms: O_16  and  C_5 
ROOT
ATOM      1  N   UNL d   1       0.582  -0.090   1.417  0.00  0.00    -0.222 N 
ATOM      2  H   UNL d   1      -0.304   0.420   1.555  0.00  0.00     0.200 HD
ENDROOT
BRANCH   1   3
ATOM      3  S   UNL d   1       1.337  -0.005  -0.099  0.00  0.00     0.276 S 
ATOM      4  O   UNL d   1       1.014  -1.226  -0.811  0.00  0.00    -0.199 OA
ATOM      5  O   UNL d   1       2.708   0.402   0.102  0.00  0.00    -0.199 OA
BRANCH   3   6
ATOM      6  C   UNL d   1       0.473   1.340  -0.865  0.00  0.00     0.081 A 
ATOM      7  C   UNL d   1       0.619   2.628  -0.338  0.00  0.00     0.027 A 
ATOM      8  C   UNL d   1      -0.092   3.686  -0.908  0.00  0.00     0.025 A 
ATOM      9  C   UNL d   1      -0.928   3.451  -2.001  0.00  0.00     0.034 A 
ATOM     10  C   UNL d   1      -1.045   2.171  -2.544  0.00  0.00     0.025 A 
ATOM     11 CL   UNL d   1      -1.831   4.750  -2.678  0.00  0.00    -0.084 Cl
ATOM     12  C   UNL d   1      -0.341   1.107  -1.978  0.00  0.00     0.027 A 
ENDBRANCH   3   6
ENDBRANCH   1   3
BRANCH   1  13
ATOM     13  N   UNL d   1       1.112  -0.984   2.436  0.00  0.00    -0.290 N 
ATOM     14  H   UNL d   1       1.935  -1.510   2.122  0.00  0.00     0.187 HD
BRANCH  13  15
ATOM     15  C   UNL d   1       0.612  -1.163   3.684  0.00  0.00     0.072 A 
ATOM     16  C   UNL d   1      -0.355  -0.423   4.350  0.00  0.00     0.108 A 
ATOM     17  S   UNL d   1      -0.593  -1.031   5.952  0.00  0.00    -0.094 SA
ATOM     18  C   UNL d   1       0.573  -2.252   5.752  0.00  0.00     0.053 A 
ATOM     19  C   UNL d   1       1.136  -2.216   4.499  0.00  0.00     0.039 A 
BRANCH  16  20
ATOM     20  C   UNL d   1      -1.148   0.709   3.900  0.00  0.00     0.302 C 
ATOM     21  O   UNL d   1      -1.435   0.968   2.733  0.00  0.00    -0.259 OA
BRANCH  20  22
ATOM     22  O   UNL d   1      -1.524   1.490   4.958  0.00  0.00    -0.322 OA
ATOM     23  C   UNL d   1      -2.334   2.617   4.630  0.00  0.00     0.213 C 
ENDBRANCH  20  22
ENDBRANCH  16  20
ENDBRANCH  13  15
ENDBRANCH   1  13
TORSDOF 6
