REMARK  5 active torsions:
REMARK  status: ('A' for Active; 'I' for Inactive)
REMARK    1  A    between atoms: O_9  and  C_1 
REMARK       I    between atoms: C_2  and  N_4 
REMARK       I    between atoms: N_7  and  C_2 
REMARK    2  A    between atoms: N_4  and  C_17 
REMARK    3  A    between atoms: C_20  and  N_7 
REMARK    4  A    between atoms: C_19  and  O_9 
REMARK    5  A    between atoms: C_18  and  C_20 
ROOT
ATOM      1  C   UNL d   1       3.293   5.830  -3.362  0.00  0.00     0.320 C 
ATOM      2  N   UNL d   1       2.104   5.188  -3.355  0.00  0.00    -0.309 N 
ATOM      3  N   UNL d   1       4.316   5.384  -2.587  0.00  0.00    -0.339 N 
ATOM      4  O   UNL d   1       3.381   6.837  -4.069  0.00  0.00    -0.247 OA
ATOM      5  H   UNL d   1       1.452   5.721  -3.920  0.00  0.00     0.170 HD
ATOM      6  H   UNL d   1       4.024   4.964  -1.720  0.00  0.00     0.164 HD
ENDROOT
BRANCH   2   7
ATOM      7  C   UNL d   1       1.585   4.011  -2.794  0.00  0.00     0.036 A 
ATOM      8  C   UNL d   1       2.317   3.036  -2.121  0.00  0.00     0.032 A 
ATOM      9  C   UNL d   1       1.669   1.915  -1.582  0.00  0.00     0.039 A 
ATOM     10  C   UNL d   1       0.297   1.739  -1.750  0.00  0.00     0.078 A 
ATOM     11  C   UNL d   1      -0.446   2.701  -2.425  0.00  0.00     0.039 A 
ATOM     12  C   UNL d   1       0.200   3.821  -2.953  0.00  0.00     0.032 A 
BRANCH  10  13
ATOM     13  O   UNL d   1      -0.283   0.668  -1.142  0.00  0.00    -0.255 OA
BRANCH  13  14
ATOM     14  C   UNL d   1      -0.940  -0.243  -2.020  0.00  0.00     0.530 C 
ATOM     15  F   UNL d   1      -1.021   0.186  -3.298  0.00  0.00    -0.144 F 
ATOM     16  F   UNL d   1      -2.192  -0.463  -1.564  0.00  0.00    -0.144 F 
ATOM     17  F   UNL d   1      -0.272  -1.418  -2.006  0.00  0.00    -0.144 F 
ENDBRANCH  13  14
ENDBRANCH  10  13
ENDBRANCH   2   7
BRANCH   3  18
ATOM     18  C   UNL d   1       5.512   6.202  -2.492  0.00  0.00     0.163 C 
BRANCH  18  19
ATOM     19  C   UNL d   1       6.825   5.466  -2.370  0.00  0.00    -0.038 A 
ATOM     20  C   UNL d   1       6.948   4.069  -2.352  0.00  0.00     0.048 A 
ATOM     21  C   UNL d   1       8.221   3.528  -2.287  0.00  0.00     0.105 A 
ATOM     22  O   UNL d   1       8.520   2.200  -2.273  0.00  0.00    -0.323 OA
ATOM     23  C   UNL d   1       9.350   4.313  -2.243  0.00  0.00     0.105 A 
ATOM     24  C   UNL d   1       9.963   2.245  -2.239  0.00  0.00     0.352 A 
ATOM     25  O   UNL d   1      10.495   3.584  -2.200  0.00  0.00    -0.323 OA
ATOM     26  C   UNL d   1       9.275   5.686  -2.255  0.00  0.00     0.040 A 
ATOM     27  C   UNL d   1       8.003   6.260  -2.317  0.00  0.00     0.012 A 
ENDBRANCH  18  19
ENDBRANCH   3  18
TORSDOF 5
