REMARK  4 active torsions:
REMARK  status: ('A' for Active; 'I' for Inactive)
REMARK    1  A    between atoms: C_15  and  C_9 
REMARK    2  A    between atoms: C_10  and  C_14 
REMARK    3  A    between atoms: S_13  and  C_15 
REMARK    4  A    between atoms: C_14  and  S_13 
ROOT
ATOM      1  S   UNL d   1      -2.533   2.698  -0.073  0.00  0.00    -0.154 SA
ENDROOT
BRANCH   1   2
ATOM      2  C   UNL d   1      -0.709   2.586   0.010  0.00  0.00     0.152 C 
BRANCH   2   3
ATOM      3  C   UNL d   1      -0.147   3.250   1.205  0.00  0.00     0.116 A 
ATOM      4  N   UNL d   1      -0.353   2.971   2.476  0.00  0.00    -0.273 N 
ATOM      5  N   UNL d   1       0.380   3.884   3.192  0.00  0.00    -0.007 NA
ATOM      6  HN  UNL d   1      -0.939   2.225   2.852  1.00  0.00     0.185 HD
ATOM      7  N   UNL d   1       1.029   4.710   2.384  0.00  0.00    -0.007 NA
ATOM      8  N   UNL d   1       0.706   4.317   1.145  0.00  0.00    -0.273 N 
ATOM      9  H   UNL d   1       1.072   4.820   0.343  0.00  0.00     0.185 HD
ENDBRANCH   2   3
ENDBRANCH   1   2
BRANCH   1  10
ATOM     10  C   UNL d   1      -2.753   4.506  -0.051  0.00  0.00     0.152 C 
BRANCH  10  11
ATOM     11  C   UNL d   1      -2.139   5.127  -1.243  0.00  0.00     0.116 A 
ATOM     12  N   UNL d   1      -0.907   5.575  -1.387  0.00  0.00    -0.273 N 
ATOM     13  N   UNL d   1      -0.814   6.006  -2.689  0.00  0.00    -0.007 NA
ATOM     14  HN  UNL d   1      -0.174   5.596  -0.679  1.00  0.00     0.185 HD
ATOM     15  N   UNL d   1      -1.956   5.823  -3.334  0.00  0.00    -0.007 NA
ATOM     16  N   UNL d   1      -2.788   5.278  -2.436  0.00  0.00    -0.273 N 
ATOM     17  H   UNL d   1      -3.730   5.026  -2.708  0.00  0.00     0.185 HD
ENDBRANCH  10  11
ENDBRANCH   1  10
TORSDOF 4
