REMARK  5 active torsions:
REMARK  status: ('A' for Active; 'I' for Inactive)
REMARK    1  A    between atoms: C_7  and  C_1 
REMARK    2  A    between atoms: C_8  and  C_2 
REMARK    3  A    between atoms: O_12  and  C_7 
REMARK    4  A    between atoms: N_9  and  O_12 
REMARK    5  A    between atoms: C_17  and  C_15 
ROOT
ATOM      1  C   UNL d   1       0.071  -1.384  -0.055  0.00  0.00     0.102 A 
ATOM      2  C   UNL d   1      -1.248  -0.972  -0.044  0.00  0.00     0.127 A 
ATOM      3  O   UNL d   1      -1.277   0.393  -0.054  0.00  0.00    -0.236 OA
ATOM      4  N   UNL d   1       0.007   0.897  -0.074  0.00  0.00    -0.264 N 
ATOM      5  HN  UNL d   1       0.282   1.879  -0.090  1.00  0.00     0.194 HD
ATOM      6  C   UNL d   1       0.814  -0.168  -0.067  0.00  0.00     0.048 A 
ATOM      7  C   UNL d   1       2.285   0.027  -0.024  0.00  0.00     0.071 C 
ENDROOT
BRANCH   1   8
ATOM      8  C   UNL d   1       0.563  -2.739   0.012  0.00  0.00     0.320 C 
ATOM      9  O   UNL d   1      -0.050  -3.664   0.528  0.00  0.00    -0.257 OA
BRANCH   8  10
ATOM     10  O   UNL d   1       1.810  -2.850  -0.561  0.00  0.00    -0.195 OA
BRANCH  10  11
ATOM     11  N   UNL d   1       2.625  -3.603   0.296  0.00  0.00    -0.268 N 
ATOM     12  C   UNL d   1       3.784  -3.790  -0.244  0.00  0.00     0.126 C 
ATOM     13  HN  UNL d   1       2.343  -3.952   1.212  1.00  0.00     0.194 HD
BRANCH  12  14
ATOM     14  C   UNL d   1       4.864  -4.421   0.535  0.00  0.00    -0.019 A 
ATOM     15  C   UNL d   1       4.663  -4.714   1.891  0.00  0.00     0.014 A 
ATOM     16  C   UNL d   1       5.697  -5.261   2.646  0.00  0.00     0.024 A 
ATOM     17  C   UNL d   1       6.927  -5.517   2.043  0.00  0.00     0.034 A 
ATOM     18  C   UNL d   1       7.130  -5.226   0.692  0.00  0.00     0.024 A 
ATOM     19 CL   UNL d   1       8.205  -6.191   2.975  0.00  0.00    -0.084 Cl
ATOM     20  C   UNL d   1       6.097  -4.672  -0.069  0.00  0.00     0.014 A 
ENDBRANCH  12  14
ENDBRANCH  10  11
ENDBRANCH   8  10
ENDBRANCH   1   8
BRANCH   2  21
ATOM     21  C   UNL d   1      -2.558  -1.614  -0.071  0.00  0.00     0.001 A 
ATOM     22  C   UNL d   1      -3.664  -1.007   0.545  0.00  0.00     0.016 A 
ATOM     23  C   UNL d   1      -4.932  -1.595   0.482  0.00  0.00     0.024 A 
ATOM     24  C   UNL d   1      -5.104  -2.799  -0.195  0.00  0.00     0.034 A 
ATOM     25  C   UNL d   1      -4.019  -3.423  -0.801  0.00  0.00     0.024 A 
ATOM     26 CL   UNL d   1      -6.665  -3.513  -0.294  0.00  0.00    -0.084 Cl
ATOM     27  C   UNL d   1      -2.753  -2.831  -0.741  0.00  0.00     0.016 A 
ENDBRANCH   2  21
TORSDOF 5
