REMARK  8 active torsions:
REMARK  status: ('A' for Active; 'I' for Inactive)
REMARK    1  A    between atoms: C_2  and  N_1 
REMARK    2  A    between atoms: O_4  and  C_3 
REMARK    3  A    between atoms: C_6  and  O_4 
REMARK    4  A    between atoms: C_5  and  O_13 
REMARK    5  A    between atoms: C_12  and  C_5 
REMARK    6  A    between atoms: O_13  and  C_26 
REMARK    7  A    between atoms: C_14  and  C_15 
REMARK    8  A    between atoms: C_26  and  C_24 
ROOT
ATOM      1  C   UNL d   1      -0.447   2.912  -1.204  0.00  0.00     0.137 A 
ATOM      2  C   UNL d   1       0.713   2.658  -0.471  0.00  0.00     0.109 A 
ATOM      3  C   UNL d   1      -1.715   2.918  -0.594  0.00  0.00     0.048 A 
ATOM      4  C   UNL d   1       0.600   2.481   0.912  0.00  0.00     0.040 A 
ATOM      5  C   UNL d   1      -1.821   2.676   0.781  0.00  0.00    -0.031 A 
ATOM      6  C   UNL d   1      -0.654   2.461   1.525  0.00  0.00     0.012 A 
ENDROOT
BRANCH   5   7
ATOM      7  C   UNL d   1      -3.161   2.690   1.468  0.00  0.00     0.217 C 
BRANCH   7   8
ATOM      8  O   UNL d   1      -3.769   3.978   1.330  0.00  0.00    -0.313 OA
BRANCH   8   9
ATOM      9  C   UNL d   1      -3.367   4.906   2.233  0.00  0.00     0.293 C 
ATOM     10  O   UNL d   1      -2.557   4.731   3.130  0.00  0.00    -0.259 OA
BRANCH   9  11
ATOM     11  C   UNL d   1      -4.074   6.194   2.000  0.00  0.00     0.039 A 
ATOM     12  C   UNL d   1      -3.816   7.261   2.862  0.00  0.00     0.018 A 
ATOM     13  C   UNL d   1      -4.496   8.475   2.708  0.00  0.00     0.009 A 
ATOM     14  C   UNL d   1      -5.451   8.659   1.689  0.00  0.00    -0.051 A 
ATOM     15  C   UNL d   1      -5.678   7.579   0.818  0.00  0.00     0.009 A 
ATOM     16  C   UNL d   1      -4.999   6.363   0.968  0.00  0.00     0.018 A 
BRANCH  14  17
ATOM     17  C   UNL d   1      -6.216   9.990   1.571  0.00  0.00    -0.024 C 
ATOM     18  C   UNL d   1      -7.199  10.034   0.378  0.00  0.00     0.019 C 
ATOM     19  C   UNL d   1      -7.043  10.224   2.854  0.00  0.00     0.019 C 
ATOM     20  C   UNL d   1      -5.227  11.161   1.390  0.00  0.00     0.019 C 
ENDBRANCH  14  17
ENDBRANCH   9  11
ENDBRANCH   8   9
ENDBRANCH   7   8
ENDBRANCH   5   7
BRANCH   1  21
ATOM     21  N   UNL d   1      -0.382   3.159  -2.630  0.00  0.00    -0.113 N 
ATOM     22  O   UNL d   1       0.107   2.271  -3.336  0.00  0.00    -0.532 OA
ATOM     23  O   UNL d   1      -0.877   4.221  -3.037  0.00  0.00    -0.532 OA
ENDBRANCH   1  21
BRANCH   2  24
ATOM     24  O   UNL d   1       1.936   2.644  -1.111  0.00  0.00    -0.307 OA
BRANCH  24  25
ATOM     25  C   UNL d   1       2.893   1.752  -0.667  0.00  0.00     0.098 A 
ATOM     26  C   UNL d   1       4.225   2.182  -0.586  0.00  0.00     0.069 A 
ATOM     27  C   UNL d   1       5.216   1.316  -0.117  0.00  0.00     0.050 A 
ATOM     28 CL   UNL d   1       4.681   3.787  -1.029  0.00  0.00    -0.081 Cl
ATOM     29  C   UNL d   1       4.872   0.023   0.273  0.00  0.00     0.035 A 
ATOM     30  C   UNL d   1       3.555  -0.422   0.173  0.00  0.00     0.026 A 
ATOM     31 CL   UNL d   1       6.082  -1.039   0.880  0.00  0.00    -0.084 Cl
ATOM     32  C   UNL d   1       2.571   0.434  -0.323  0.00  0.00     0.041 A 
ENDBRANCH  24  25
ENDBRANCH   2  24
TORSDOF 8
