REMARK  4 active torsions:
REMARK  status: ('A' for Active; 'I' for Inactive)
REMARK    1  A    between atoms: N_2  and  S_1 
REMARK    2  A    between atoms: C_5  and  S_1 
REMARK    3  A    between atoms: S_4  and  N_2 
REMARK    4  A    between atoms: C_9  and  S_4 
ROOT
ATOM      1  N   UNL d   1       0.363  -1.427  -0.554  0.00  0.00    -0.236 N 
ATOM      2  HN  UNL d   1      -0.298  -1.996  -0.024  1.00  0.00     0.189 HD
ENDROOT
BRANCH   1   3
ATOM      3  S   UNL d   1       0.879   0.034   0.107  0.00  0.00     0.276 S 
ATOM      4  O   UNL d   1      -0.290   0.812   0.470  0.00  0.00    -0.199 OA
ATOM      5  O   UNL d   1       1.947   0.625  -0.671  0.00  0.00    -0.199 OA
BRANCH   3   6
ATOM      6  C   UNL d   1       1.648  -0.378   1.664  0.00  0.00     0.122 A 
ATOM      7  S   UNL d   1       0.655  -1.194   2.801  0.00  0.00    -0.064 SA
ATOM      8  C   UNL d   1       1.916  -1.263   3.926  0.00  0.00     0.075 A 
ATOM      9 CL   UNL d   1       1.655  -2.002   5.453  0.00  0.00    -0.076 Cl
ATOM     10  C   UNL d   1       3.082  -0.697   3.479  0.00  0.00     0.033 A 
ATOM     11  C   UNL d   1       2.927  -0.181   2.157  0.00  0.00     0.035 A 
ENDBRANCH   3   6
ENDBRANCH   1   3
BRANCH   1  12
ATOM     12  S   UNL d   1       0.881  -1.980  -2.025  0.00  0.00     0.061 S 
ATOM     13  O   UNL d   1       2.309  -2.175  -2.087  0.00  0.00    -0.244 OA
ATOM     14  C   UNL d   1       0.043  -3.522  -2.228  0.00  0.00     0.143 C 
BRANCH  12  15
ATOM     15  C   UNL d   1       0.300  -0.864  -3.238  0.00  0.00     0.039 A 
ATOM     16  C   UNL d   1       1.214  -0.200  -4.057  0.00  0.00     0.023 A 
ATOM     17  C   UNL d   1       0.748   0.664  -5.053  0.00  0.00     0.025 A 
ATOM     18  C   UNL d   1      -0.624   0.852  -5.222  0.00  0.00     0.034 A 
ATOM     19  C   UNL d   1      -1.535   0.194  -4.395  0.00  0.00     0.025 A 
ATOM     20 CL   UNL d   1      -1.199   1.897  -6.461  0.00  0.00    -0.084 Cl
ATOM     21  C   UNL d   1      -1.074  -0.665  -3.395  0.00  0.00     0.023 A 
ENDBRANCH  12  15
ENDBRANCH   1  12
TORSDOF 4
