REMARK  6 active torsions:
REMARK  status: ('A' for Active; 'I' for Inactive)
REMARK    1  A    between atoms: C_2  and  C_1 
REMARK    2  A    between atoms: C_3  and  C_1 
REMARK    3  A    between atoms: N_4  and  C_1 
REMARK    4  A    between atoms: N_5  and  C_1 
REMARK       I    between atoms: C_6  and  N_4 
REMARK    5  A    between atoms: C_14  and  N_5 
REMARK    6  A    between atoms: C_15  and  C_14 
ROOT
ATOM      1  C   UNL d   1       0.699  -0.041  -0.075  0.00  0.00     0.425 C 
ENDROOT
BRANCH   1   2
ATOM      2  C   UNL d   1       0.201  -1.503  -0.354  0.00  0.00     0.452 C 
ATOM      3  F   UNL d   1      -1.053  -1.788   0.033  0.00  0.00    -0.166 F 
ATOM      4  F   UNL d   1       0.265  -1.784  -1.685  0.00  0.00    -0.166 F 
ATOM      5  F   UNL d   1       1.022  -2.397   0.260  0.00  0.00    -0.166 F 
ENDBRANCH   1   2
BRANCH   1   6
ATOM      6  C   UNL d   1       0.328   0.202   1.438  0.00  0.00     0.452 C 
ATOM      7  F   UNL d   1      -0.635  -0.587   1.945  0.00  0.00    -0.166 F 
ATOM      8  F   UNL d   1       1.430   0.004   2.219  0.00  0.00    -0.166 F 
ATOM      9  F   UNL d   1      -0.048   1.490   1.653  0.00  0.00    -0.166 F 
ENDBRANCH   1   6
BRANCH   1  10
ATOM     10  N   UNL d   1       0.192   0.996  -0.981  0.00  0.00    -0.311 N 
ATOM     11  C   UNL d   1      -1.138   1.216  -1.196  0.00  0.00     0.216 C 
ATOM     12  O   UNL d   1      -2.006   0.539  -0.664  0.00  0.00    -0.274 OA
ATOM     13  C   UNL d   1      -1.441   2.341  -2.143  0.00  0.00     0.117 C 
ATOM     14  H   UNL d   1       0.852   1.729  -1.195  0.00  0.00     0.165 HD
ENDBRANCH   1  10
BRANCH   1  15
ATOM     15  N   UNL d   1       2.190   0.183  -0.287  0.00  0.00     0.136 N 
ATOM     16  H   UNL d   1       2.682  -0.301   0.474  0.00  0.00     0.320 HD
BRANCH  15  17
ATOM     17  C   UNL d   1       2.700  -0.359  -1.553  0.00  0.00     0.312 C 
BRANCH  17  18
ATOM     18  C   UNL d   1       4.189  -0.140  -1.694  0.00  0.00    -0.030 A 
ATOM     19  C   UNL d   1       5.013  -1.198  -2.116  0.00  0.00     0.009 A 
ATOM     20  C   UNL d   1       6.382  -1.001  -2.306  0.00  0.00     0.001 A 
ATOM     21  C   UNL d   1       6.944   0.253  -2.082  0.00  0.00     0.000 A 
ATOM     22  C   UNL d   1       6.138   1.312  -1.666  0.00  0.00     0.001 A 
ATOM     23  C   UNL d   1       4.769   1.118  -1.478  0.00  0.00     0.009 A 
ENDBRANCH  17  18
ENDBRANCH  15  17
ENDBRANCH   1  15
TORSDOF 6
