REMARK  3 active torsions:
REMARK  status: ('A' for Active; 'I' for Inactive)
REMARK    1  A    between atoms: C_4  and  C_12 
REMARK       I    between atoms: C_7  and  N_8 
REMARK    2  A    between atoms: C_13  and  C_7 
REMARK    3  A    between atoms: N_8  and  C_9 
ROOT
ATOM      1  C   UNL d   1      -0.289   0.729   0.124  0.00  0.00     0.117 A 
ATOM      2  N   UNL d   1      -1.304   1.586   0.143  0.00  0.00    -0.328 N 
ATOM      3  HN  UNL d   1      -1.114   2.587   0.178  1.00  0.00     0.169 HD
ATOM      4  N   UNL d   1       0.930   1.263   0.135  0.00  0.00    -0.346 N 
ATOM      5  HN  UNL d   1       1.041   2.276   0.176  1.00  0.00     0.167 HD
ATOM      6  C   UNL d   1      -2.573   1.158   0.116  0.00  0.00     0.109 A 
ATOM      7  C   UNL d   1      -0.492  -0.663   0.074  0.00  0.00     0.014 A 
ATOM      8  C   UNL d   1       0.654  -1.504   0.040  0.00  0.00    -0.046 A 
ATOM      9  C   UNL d   1      -1.833  -1.107   0.055  0.00  0.00     0.019 A 
ATOM     10  C   UNL d   1       2.016   0.470   0.092  0.00  0.00     0.007 A 
ATOM     11  C   UNL d   1       1.921  -0.909   0.049  0.00  0.00     0.032 A 
ATOM     12  C   UNL d   1      -2.880  -0.188   0.071  0.00  0.00     0.050 A 
ATOM     13  C   UNL d   1       0.609  -3.006  -0.018  0.00  0.00     0.049 C 
ATOM     14  C   UNL d   1       3.350   1.151   0.080  0.00  0.00     0.068 C 
ENDROOT
BRANCH   6  15
ATOM     15  N   UNL d   1      -3.630   2.090   0.093  0.00  0.00    -0.309 N 
ATOM     16  C   UNL d   1      -3.445   3.457   0.196  0.00  0.00     0.257 C 
ATOM     17  O   UNL d   1      -2.396   4.039   0.449  0.00  0.00    -0.267 OA
ATOM     18  H   UNL d   1      -4.565   1.722   0.035  0.00  0.00     0.170 HD
BRANCH  16  19
ATOM     19  C   UNL d   1      -4.652   4.313   0.009  0.00  0.00     0.032 A 
ATOM     20  C   UNL d   1      -4.641   5.581   0.612  0.00  0.00     0.018 A 
ATOM     21  C   UNL d   1      -5.678   6.487   0.390  0.00  0.00     0.017 A 
ATOM     22  C   UNL d   1      -6.748   6.145  -0.446  0.00  0.00     0.048 A 
ATOM     23  C   UNL d   1      -6.770   4.866  -1.031  0.00  0.00     0.017 A 
ATOM     24  C   UNL d   1      -5.728   3.955  -0.810  0.00  0.00     0.018 A 
BRANCH  22  25
ATOM     25  C   UNL d   1      -7.841   7.143  -0.750  0.00  0.00     0.417 C 
ATOM     26  F   UNL d   1      -7.676   8.342  -0.126  0.00  0.00    -0.166 F 
ATOM     27  F   UNL d   1      -7.929   7.424  -2.080  0.00  0.00    -0.166 F 
ATOM     28  F   UNL d   1      -9.072   6.694  -0.380  0.00  0.00    -0.166 F 
ENDBRANCH  22  25
ENDBRANCH  16  19
ENDBRANCH   6  15
TORSDOF 3
