REMARK  1 active torsions:
REMARK  status: ('A' for Active; 'I' for Inactive)
REMARK    1  A    between atoms: N_9  and  C_2 
ROOT
ATOM      1  N   UNL d   1      -0.703   1.125   0.071  0.00  0.00    -0.298 N 
ATOM      2  C   UNL d   1      -1.424  -0.035   0.095  0.00  0.00     0.104 A 
ATOM      3  C   UNL d   1      -0.770  -1.217   0.047  0.00  0.00     0.117 A 
ATOM      4  N   UNL d   1       1.318   0.021  -0.040  0.00  0.00    -0.274 N 
ATOM      5  C   UNL d   1       0.722  -1.208  -0.028  0.00  0.00     0.270 A 
ATOM      6  C   UNL d   1       0.656   1.207   0.010  0.00  0.00     0.328 A 
ATOM      7  O   UNL d   1       1.396  -2.233  -0.080  0.00  0.00    -0.266 OA
ATOM      8  O   UNL d   1       1.241   2.285   0.001  0.00  0.00    -0.247 OA
ATOM      9 BR   UNL d   1      -1.637  -2.876   0.058  0.00  0.00    -0.042 Br
ATOM     10  H   UNL d   1      -1.189   2.008   0.147  0.00  0.00     0.171 HD
ATOM     11  H   UNL d   1       2.325   0.051  -0.083  0.00  0.00     0.173 HD
ENDROOT
BRANCH   2  12
ATOM     12  N   UNL d   1      -2.796   0.085   0.171  0.00  0.00    -0.287 NA
ATOM     13  H   UNL d   1      -3.161   0.880  -0.345  0.00  0.00     0.125 HD
ATOM     14  H   UNL d   1      -3.286  -0.778  -0.061  0.00  0.00     0.125 HD
ENDBRANCH   2  12
TORSDOF 1
