REMARK  5 active torsions:
REMARK  status: ('A' for Active; 'I' for Inactive)
REMARK    1  A    between atoms: C_3  and  C_1 
REMARK    2  A    between atoms: C_2  and  C_8 
REMARK    3  A    between atoms: C_6  and  C_3 
REMARK    4  A    between atoms: N_10  and  C_4 
REMARK    5  A    between atoms: C_11  and  N_10 
ROOT
ATOM      1  C   UNL d   1       0.940   0.021   0.053  0.00  0.00     0.110 C 
ATOM      2  C   UNL d   1       0.244  -0.876   0.773  0.00  0.00     0.116 C 
ATOM      3  C   UNL d   1       0.280   0.976  -0.764  0.00  0.00     0.105 C 
ATOM      4  N   UNL d   1      -0.288   1.731  -1.439  0.00  0.00    -0.191 NA
ENDROOT
BRANCH   1   5
ATOM      5  C   UNL d   1       2.431   0.001   0.138  0.00  0.00     0.204 C 
ATOM      6  O   UNL d   1       3.013  -0.397   1.143  0.00  0.00    -0.286 OA
BRANCH   5   7
ATOM      7  C   UNL d   1       3.238   0.501  -1.011  0.00  0.00     0.016 A 
ATOM      8  C   UNL d   1       2.863   0.280  -2.346  0.00  0.00     0.031 A 
ATOM      9  C   UNL d   1       3.648   0.774  -3.401  0.00  0.00     0.048 A 
ATOM     10  C   UNL d   1       4.833   1.464  -3.102  0.00  0.00     0.016 A 
ATOM     11  C   UNL d   1       5.229   1.654  -1.779  0.00  0.00     0.002 A 
ATOM     12  C   UNL d   1       4.436   1.172  -0.736  0.00  0.00     0.015 A 
BRANCH   9  13
ATOM     13  C   UNL d   1       3.240   0.567  -4.841  0.00  0.00     0.417 C 
ATOM     14  F   UNL d   1       2.042  -0.067  -4.977  0.00  0.00    -0.166 F 
ATOM     15  F   UNL d   1       3.125   1.738  -5.525  0.00  0.00    -0.166 F 
ATOM     16  F   UNL d   1       4.140  -0.185  -5.532  0.00  0.00    -0.166 F 
ENDBRANCH   9  13
ENDBRANCH   5   7
ENDBRANCH   1   5
BRANCH   2  17
ATOM     17  N   UNL d   1      -1.127  -1.055   0.813  0.00  0.00    -0.350 N 
ATOM     18  H   UNL d   1      -1.693  -0.302   0.433  0.00  0.00     0.166 HD
BRANCH  17  19
ATOM     19  C   UNL d   1      -1.825  -1.891   1.705  0.00  0.00     0.120 A 
ATOM     20  N   UNL d   1      -1.179  -2.562   2.684  0.00  0.00    -0.350 N 
ATOM     21  C   UNL d   1      -1.934  -3.386   3.454  0.00  0.00     0.106 A 
ATOM     22  HN  UNL d   1      -0.176  -2.455   2.837  1.00  0.00     0.166 HD
ATOM     23  C   UNL d   1      -3.293  -3.557   3.258  0.00  0.00     0.104 A 
ATOM     24  N   UNL d   1      -3.963  -2.916   2.280  0.00  0.00    -0.371 N 
ATOM     25  C   UNL d   1      -3.200  -2.096   1.514  0.00  0.00     0.136 A 
ATOM     26  HN  UNL d   1      -4.965  -3.037   2.127  1.00  0.00     0.164 HD
ENDBRANCH  17  19
ENDBRANCH   2  17
TORSDOF 5
