REMARK  5 active torsions:
REMARK  status: ('A' for Active; 'I' for Inactive)
REMARK    1  A    between atoms: C_4  and  S_1 
REMARK    2  A    between atoms: N_6  and  S_1 
REMARK    3  A    between atoms: S_3  and  C_2 
REMARK    4  A    between atoms: C_14  and  S_3 
REMARK    5  A    between atoms: N_9  and  N_6 
ROOT
ATOM      1  C   UNL d   1      -0.708   1.085   3.833  0.00  0.00     0.072 A 
ATOM      2  C   UNL d   1      -0.146   0.648   1.609  0.00  0.00     0.117 A 
ATOM      3  C   UNL d   1      -0.311   0.101   2.869  0.00  0.00     0.056 A 
ATOM      4  S   UNL d   1      -0.514   2.329   1.604  0.00  0.00    -0.087 SA
ATOM      5  C   UNL d   1      -0.825   2.340   3.280  0.00  0.00     0.074 A 
ENDROOT
BRANCH   2   6
ATOM      6  S   UNL d   1       0.373   0.024   0.032  0.00  0.00     0.261 S 
ATOM      7  O   UNL d   1       1.576   0.768  -0.284  0.00  0.00    -0.204 OA
ATOM      8  O   UNL d   1      -0.780   0.095  -0.837  0.00  0.00    -0.204 OA
BRANCH   6   9
ATOM      9  N   UNL d   1       0.888  -1.604   0.137  0.00  0.00    -0.144 NA
ATOM     10  H   UNL d   1       1.341  -1.846  -0.749  0.00  0.00     0.160 HD
BRANCH   9  11
ATOM     11  N   UNL d   1      -0.058  -2.555   0.613  0.00  0.00    -0.234 NA
ATOM     12  C   UNL d   1      -1.226  -2.803  -0.275  0.00  0.00     0.135 C 
ATOM     13  C   UNL d   1      -0.844  -3.450  -1.611  0.00  0.00     0.183 C 
ATOM     14  O   UNL d   1      -0.159  -4.693  -1.403  0.00  0.00    -0.389 OA
ATOM     15  C   UNL d   1       0.992  -4.524  -0.568  0.00  0.00     0.183 C 
ATOM     16  C   UNL d   1       0.625  -3.871   0.780  0.00  0.00     0.135 C 
ENDBRANCH   9  11
ENDBRANCH   6   9
ENDBRANCH   2   6
BRANCH   1  17
ATOM     17  S   UNL d   1      -0.992   0.767   5.516  0.00  0.00     0.207 S 
ATOM     18  O   UNL d   1      -1.921   1.793   5.941  0.00  0.00    -0.217 OA
ATOM     19  O   UNL d   1      -1.312  -0.644   5.571  0.00  0.00    -0.217 OA
BRANCH  17  20
ATOM     20  C   UNL d   1       0.572   1.041   6.299  0.00  0.00     0.064 A 
ATOM     21  C   UNL d   1       0.912   2.325   6.737  0.00  0.00     0.024 A 
ATOM     22  C   UNL d   1       2.141   2.532   7.364  0.00  0.00     0.002 A 
ATOM     23  C   UNL d   1       3.013   1.460   7.562  0.00  0.00     0.000 A 
ATOM     24  C   UNL d   1       2.658   0.176   7.144  0.00  0.00     0.002 A 
ATOM     25  C   UNL d   1       1.433  -0.040   6.515  0.00  0.00     0.024 A 
ENDBRANCH  17  20
ENDBRANCH   1  17
TORSDOF 5
