REMARK  2 active torsions:
REMARK  status: ('A' for Active; 'I' for Inactive)
REMARK    1  A    between atoms: C_26  and  C_20 
REMARK    2  A    between atoms: C_27  and  C_26 
ROOT
ATOM      1  C   UNL d   1      -3.141   0.129   0.064  0.00  0.00     0.148 A 
ATOM      2  N   UNL d   1      -2.424   1.037  -0.564  0.00  0.00    -0.336 N 
ATOM      3  HN  UNL d   1      -2.812   1.800  -1.118  1.00  0.00     0.168 HD
ATOM      4  S   UNL d   1      -2.200  -1.082   0.867  0.00  0.00    -0.052 SA
ATOM      5  C   UNL d   1      -8.564  -0.676  -0.339  0.00  0.00     0.679 A 
ATOM      6  N   UNL d   1      -4.496   0.070   0.039  0.00  0.00    -0.358 N 
ATOM      7  N   UNL d   1      -7.201  -0.587  -0.336  0.00  0.00    -0.214 N 
ATOM      8  C   UNL d   1      -0.754  -0.318   0.375  0.00  0.00     0.036 A 
ATOM      9  C   UNL d   1      -1.071   0.814  -0.370  0.00  0.00     0.051 A 
ATOM     10  N   UNL d   1      -9.254  -0.234  -1.401  0.00  0.00    -0.201 N 
ATOM     11  HN  UNL d   1      -8.777   0.119  -2.231  1.00  0.00     0.183 HD
ATOM     12  N   UNL d   1      -9.168  -1.151   0.763  0.00  0.00    -0.201 N 
ATOM     13  HN  UNL d   1      -8.621  -1.496   1.553  1.00  0.00     0.183 HD
ATOM     14  C   UNL d   1       0.567  -0.703   0.636  0.00  0.00     0.045 A 
ATOM     15  C   UNL d   1      -5.286  -0.412   1.179  0.00  0.00     0.145 C 
ATOM     16  C   UNL d   1      -5.270   0.827  -0.957  0.00  0.00     0.145 C 
ATOM     17  C   UNL d   1      -6.426  -1.312   0.671  0.00  0.00     0.161 C 
ATOM     18  C   UNL d   1      -6.450  -0.044  -1.472  0.00  0.00     0.161 C 
ATOM     19  C   UNL d   1      -0.016   1.621  -0.852  0.00  0.00     0.032 A 
ATOM     20  C   UNL d   1     -11.302  -0.717  -0.236  0.00  0.00    -0.026 A 
ATOM     21  C   UNL d   1     -10.600  -0.274  -1.332  0.00  0.00     0.114 A 
ATOM     22  C   UNL d   1     -10.511  -1.161   0.796  0.00  0.00     0.114 A 
ATOM     23  C   UNL d   1       1.593   0.108   0.144  0.00  0.00     0.035 A 
ATOM     24  C   UNL d   1       1.311   1.255  -0.593  0.00  0.00     0.026 A 
ATOM     25 CL   UNL d   1       3.228  -0.329   0.449  0.00  0.00    -0.084 Cl
ENDROOT
BRANCH  20  26
ATOM     26  C   UNL d   1     -12.796  -0.723  -0.169  0.00  0.00     0.041 C 
BRANCH  26  27
ATOM     27  C   UNL d   1     -13.370   0.125   0.972  0.00  0.00     0.000 C 
ATOM     28  C   UNL d   1     -13.047   1.607   0.839  0.00  0.00     0.005 C 
ENDBRANCH  26  27
ENDBRANCH  20  26
TORSDOF 2
