REMARK  4 active torsions:
REMARK  status: ('A' for Active; 'I' for Inactive)
REMARK    1  A    between atoms: C_5  and  C_1 
REMARK    2  A    between atoms: C_8  and  C_2 
REMARK    3  A    between atoms: C_10  and  C_8 
REMARK    4  A    between atoms: N_15  and  C_12 
ROOT
ATOM      1  C   UNL d   1      -1.442  -0.644   0.139  0.00  0.00     0.083 A 
ATOM      2  C   UNL d   1      -0.154  -1.279  -0.002  0.00  0.00     0.075 A 
ATOM      3  N   UNL d   1      -1.288   0.690   0.192  0.00  0.00    -0.259 N 
ATOM      4  HN  UNL d   1      -2.030   1.380   0.308  1.00  0.00     0.195 HD
ATOM      5  O   UNL d   1       0.045   0.952   0.061  0.00  0.00    -0.241 OA
ATOM      6  C   UNL d   1       0.729  -0.209  -0.030  0.00  0.00     0.089 A 
ATOM      7  C   UNL d   1       2.195  -0.050  -0.113  0.00  0.00     0.080 C 
ENDROOT
BRANCH   1   8
ATOM      8  C   UNL d   1      -2.793  -1.194   0.332  0.00  0.00     0.015 A 
ATOM      9  C   UNL d   1      -3.946  -0.608  -0.239  0.00  0.00     0.048 A 
ATOM     10  C   UNL d   1      -5.221  -1.123   0.030  0.00  0.00     0.048 A 
ATOM     11 CL   UNL d   1      -3.901   0.731  -1.341  0.00  0.00    -0.083 Cl
ATOM     12  C   UNL d   1      -5.359  -2.245   0.837  0.00  0.00     0.035 A 
ATOM     13  C   UNL d   1      -4.239  -2.852   1.393  0.00  0.00     0.025 A 
ATOM     14 CL   UNL d   1      -6.923  -2.889   1.144  0.00  0.00    -0.084 Cl
ATOM     15  C   UNL d   1      -2.967  -2.315   1.163  0.00  0.00     0.017 A 
ENDBRANCH   1   8
BRANCH   2  16
ATOM     16  C   UNL d   1       0.306  -2.656  -0.002  0.00  0.00     0.188 C 
ATOM     17  O   UNL d   1       1.377  -2.980   0.505  0.00  0.00    -0.287 OA
BRANCH  16  18
ATOM     18  C   UNL d   1      -0.516  -3.743  -0.597  0.00  0.00     0.072 C 
ATOM     19  C   UNL d   1      -1.506  -3.666  -1.495  0.00  0.00     0.088 C 
BRANCH  19  20
ATOM     20  N   UNL d   1      -2.265  -4.699  -2.038  0.00  0.00    -0.398 N 
ATOM     21  C   UNL d   1      -2.069  -6.116  -1.713  0.00  0.00     0.148 C 
ATOM     22  C   UNL d   1      -3.546  -4.425  -2.698  0.00  0.00     0.148 C 
ENDBRANCH  19  20
ENDBRANCH  16  18
ENDBRANCH   2  16
TORSDOF 4
