REMARK  6 active torsions:
REMARK  status: ('A' for Active; 'I' for Inactive)
REMARK    1  A    between atoms: S_2  and  N_1 
REMARK    2  A    between atoms: S_3  and  N_1 
REMARK    3  A    between atoms: C_4  and  N_1 
REMARK    4  A    between atoms: C_5  and  S_2 
REMARK    5  A    between atoms: C_6  and  S_3 
REMARK    6  A    between atoms: C_7  and  C_4 
ROOT
ATOM      1  N   UNL d   1       1.068  -0.337  -0.181  0.00  0.00    -0.190 N 
ENDROOT
BRANCH   1   2
ATOM      2  S   UNL d   1       0.316  -0.263  -1.683  0.00  0.00     0.274 S 
ATOM      3  O   UNL d   1      -0.859  -1.103  -1.733  0.00  0.00    -0.199 OA
ATOM      4  O   UNL d   1       0.187   1.135  -2.052  0.00  0.00    -0.199 OA
BRANCH   2   5
ATOM      5  C   UNL d   1       1.464  -0.974  -2.858  0.00  0.00     0.080 A 
ATOM      6  C   UNL d   1       1.373  -2.331  -3.190  0.00  0.00     0.027 A 
ATOM      7  C   UNL d   1       2.164  -2.843  -4.224  0.00  0.00     0.025 A 
ATOM      8  C   UNL d   1       3.038  -2.003  -4.918  0.00  0.00     0.034 A 
ATOM      9  C   UNL d   1       3.129  -0.652  -4.590  0.00  0.00     0.025 A 
ATOM     10 CL   UNL d   1       3.987  -2.631  -6.209  0.00  0.00    -0.084 Cl
ATOM     11  C   UNL d   1       2.329  -0.131  -3.571  0.00  0.00     0.027 A 
ENDBRANCH   2   5
ENDBRANCH   1   2
BRANCH   1  12
ATOM     12  S   UNL d   1       0.534  -1.505   0.894  0.00  0.00     0.274 S 
ATOM     13  O   UNL d   1      -0.904  -1.559   0.971  0.00  0.00    -0.199 OA
ATOM     14  O   UNL d   1       1.336  -2.692   0.659  0.00  0.00    -0.199 OA
BRANCH  12  15
ATOM     15  C   UNL d   1       1.032  -0.842   2.482  0.00  0.00     0.080 A 
ATOM     16  C   UNL d   1       0.513   0.389   2.903  0.00  0.00     0.027 A 
ATOM     17  C   UNL d   1       0.952   0.943   4.109  0.00  0.00     0.025 A 
ATOM     18  C   UNL d   1       1.890   0.261   4.886  0.00  0.00     0.034 A 
ATOM     19  C   UNL d   1       2.380  -0.982   4.481  0.00  0.00     0.025 A 
ATOM     20 CL   UNL d   1       2.454   0.961   6.353  0.00  0.00    -0.084 Cl
ATOM     21  C   UNL d   1       1.948  -1.542   3.277  0.00  0.00     0.027 A 
ENDBRANCH  12  15
ENDBRANCH   1  12
BRANCH   1  22
ATOM     22  C   UNL d   1       2.498   0.006  -0.100  0.00  0.00     0.200 C 
BRANCH  22  23
ATOM     23  C   UNL d   1       2.759   1.466  -0.329  0.00  0.00     0.002 A 
ATOM     24  S   UNL d   1       4.282   1.951  -0.960  0.00  0.00    -0.105 SA
ATOM     25  C   UNL d   1       3.818   3.594  -1.001  0.00  0.00     0.050 A 
ATOM     26  C   UNL d   1       2.553   3.785  -0.497  0.00  0.00     0.008 A 
ATOM     27  C   UNL d   1       1.956   2.563  -0.075  0.00  0.00     0.017 A 
ENDBRANCH  22  23
ENDBRANCH   1  22
TORSDOF 6
