REMARK  8 active torsions:
REMARK  status: ('A' for Active; 'I' for Inactive)
REMARK    1  A    between atoms: C_8  and  C_1 
REMARK    2  A    between atoms: C_12  and  C_4 
REMARK    3  A    between atoms: S_11  and  C_6 
REMARK    4  A    between atoms: O_15  and  C_8 
REMARK    5  A    between atoms: C_14  and  S_11 
REMARK    6  A    between atoms: O_16  and  C_12 
REMARK    7  A    between atoms: O_17  and  C_12 
REMARK    8  A    between atoms: C_18  and  C_14 
ROOT
ATOM      1  C   UNL d   1      -1.547   1.411   0.075  0.00  0.00     0.068 A 
ATOM      2  N   UNL d   1      -1.420  -0.991  -0.111  0.00  0.00    -0.348 N 
ATOM      3  HN  UNL d   1      -1.897  -1.890  -0.173  1.00  0.00     0.166 HD
ATOM      4  C   UNL d   1      -2.167   0.166  -0.027  0.00  0.00     0.082 A 
ATOM      5  C   UNL d   1       0.606   0.258  -0.057  0.00  0.00     0.079 A 
ATOM      6  C   UNL d   1      -0.063  -0.957  -0.111  0.00  0.00     0.091 A 
ATOM      7  C   UNL d   1      -0.144   1.437   0.058  0.00  0.00     0.045 A 
ATOM      8  C   UNL d   1       2.022   0.383  -0.129  0.00  0.00     0.102 C 
ATOM      9  N   UNL d   1       3.175   0.530  -0.159  0.00  0.00    -0.191 NA
ENDROOT
BRANCH   6  10
ATOM     10  S   UNL d   1       0.682  -2.574  -0.281  0.00  0.00    -0.106 SA
BRANCH  10  11
ATOM     11  C   UNL d   1       1.928  -2.606   1.054  0.00  0.00     0.119 C 
BRANCH  11  12
ATOM     12  C   UNL d   1       2.574  -3.964   1.218  0.00  0.00    -0.049 A 
ATOM     13  C   UNL d   1       3.592  -4.375   0.341  0.00  0.00     0.008 A 
ATOM     14  C   UNL d   1       4.234  -5.603   0.517  0.00  0.00     0.001 A 
ATOM     15  C   UNL d   1       3.865  -6.437   1.570  0.00  0.00     0.000 A 
ATOM     16  C   UNL d   1       2.847  -6.048   2.440  0.00  0.00     0.001 A 
ATOM     17  C   UNL d   1       2.202  -4.820   2.264  0.00  0.00     0.008 A 
ENDBRANCH  11  12
ENDBRANCH  10  11
ENDBRANCH   6  10
BRANCH   1  18
ATOM     18  C   UNL d   1      -2.290   2.682   0.285  0.00  0.00     0.295 C 
ATOM     19  O   UNL d   1      -3.379   2.760   0.827  0.00  0.00    -0.259 OA
BRANCH  18  20
ATOM     20  O   UNL d   1      -1.539   3.729  -0.138  0.00  0.00    -0.322 OA
ATOM     21  C   UNL d   1      -2.075   5.023   0.163  0.00  0.00     0.213 C 
ENDBRANCH  18  20
ENDBRANCH   1  18
BRANCH   4  22
ATOM     22  C   UNL d   1      -3.691  -0.004  -0.116  0.00  0.00     0.310 C 
BRANCH  22  23
ATOM     23  O   UNL d   1      -4.030   0.015  -1.512  0.00  0.00    -0.360 OA
ATOM     24  C   UNL d   1      -5.431  -0.101  -1.726  0.00  0.00     0.205 C 
ENDBRANCH  22  23
BRANCH  22  25
ATOM     25  O   UNL d   1      -4.138  -1.230   0.486  0.00  0.00    -0.360 OA
ATOM     26  C   UNL d   1      -3.876  -1.290   1.880  0.00  0.00     0.205 C 
ENDBRANCH  22  25
ENDBRANCH   4  22
TORSDOF 8
