REMARK  3 active torsions:
REMARK  status: ('A' for Active; 'I' for Inactive)
REMARK    1  A    between atoms: S_7  and  C_2 
REMARK    2  A    between atoms: C_14  and  S_7 
REMARK    3  A    between atoms: C_16  and  C_14 
ROOT
ATOM      1  C   UNL d   1       0.017  -0.708   0.084  0.00  0.00     0.042 A 
ATOM      2  C   UNL d   1       1.134  -1.524   0.054  0.00  0.00     0.057 A 
ATOM      3  C   UNL d   1       0.356   0.700  -0.029  0.00  0.00    -0.014 A 
ATOM      4  C   UNL d   1       1.723   0.892  -0.120  0.00  0.00     0.093 A 
ATOM      5  S   UNL d   1       2.571  -0.589  -0.091  0.00  0.00    -0.071 SA
ATOM      6  C   UNL d   1      -1.380  -1.108   0.242  0.00  0.00     0.162 C 
ATOM      7  C   UNL d   1       2.385   2.161  -0.226  0.00  0.00     0.107 C 
ATOM      8  N   UNL d   1       2.889   3.201  -0.311  0.00  0.00    -0.191 NA
ATOM      9  C   UNL d   1      -0.704   1.785  -0.033  0.00  0.00     0.050 C 
ATOM     10  C   UNL d   1      -2.115   1.271   0.380  0.00  0.00    -0.037 C 
ATOM     11  C   UNL d   1      -2.386  -0.101  -0.272  0.00  0.00     0.093 C 
ATOM     12  O   UNL d   1      -1.744  -2.144   0.789  0.00  0.00    -0.292 OA
ATOM     13  C   UNL d   1      -3.188   2.262  -0.100  0.00  0.00     0.015 C 
ATOM     14  C   UNL d   1      -2.224   1.152   1.916  0.00  0.00     0.015 C 
ENDROOT
BRANCH   2  15
ATOM     15  S   UNL d   1       1.275  -3.281   0.183  0.00  0.00    -0.117 SA
BRANCH  15  16
ATOM     16  C   UNL d   1       0.038  -3.888  -0.995  0.00  0.00     0.118 C 
BRANCH  16  17
ATOM     17  C   UNL d   1       0.031  -5.392  -1.122  0.00  0.00    -0.049 A 
ATOM     18  C   UNL d   1      -0.654  -6.182  -0.182  0.00  0.00     0.009 A 
ATOM     19  C   UNL d   1      -0.729  -7.567  -0.342  0.00  0.00     0.024 A 
ATOM     20  C   UNL d   1      -0.115  -8.170  -1.437  0.00  0.00     0.034 A 
ATOM     21  C   UNL d   1       0.587  -7.402  -2.364  0.00  0.00     0.024 A 
ATOM     22 CL   UNL d   1      -0.235  -9.872  -1.656  0.00  0.00    -0.084 Cl
ATOM     23  C   UNL d   1       0.665  -6.016  -2.204  0.00  0.00     0.009 A 
ENDBRANCH  16  17
ENDBRANCH  15  16
ENDBRANCH   2  15
TORSDOF 3
