REMARK  4 active torsions:
REMARK  status: ('A' for Active; 'I' for Inactive)
REMARK    1  A    between atoms: C_7  and  C_1 
REMARK    2  A    between atoms: C_8  and  C_6 
REMARK    3  A    between atoms: C_15  and  C_11 
REMARK    4  A    between atoms: N_17  and  N_12 
REMARK       I    between atoms: C_16  and  N_17 
ROOT
ATOM      1  C   UNL d   1       2.503   1.676  -0.044  0.00  0.00     0.034 A 
ATOM      2  S   UNL d   1       2.839   3.001   0.983  0.00  0.00    -0.087 SA
ATOM      3  C   UNL d   1       3.449   1.548  -1.040  0.00  0.00     0.023 A 
ATOM      4  C   UNL d   1       4.282   3.364   0.147  0.00  0.00     0.022 A 
ATOM      5  C   UNL d   1       4.472   2.527  -0.934  0.00  0.00     0.021 A 
ENDROOT
BRANCH   1   6
ATOM      6  C   UNL d   1       1.346   0.739   0.108  0.00  0.00     0.067 A 
ATOM      7  C   UNL d   1       0.285   0.832   1.027  0.00  0.00     0.068 A 
ATOM      8  C   UNL d   1      -0.510  -0.279   0.798  0.00  0.00     0.136 A 
ATOM      9  N   UNL d   1       0.121  -0.976  -0.196  0.00  0.00    -0.292 N 
ATOM     10  N   UNL d   1       1.222  -0.350  -0.657  0.00  0.00    -0.297 N 
ATOM     11  C   UNL d   1      -0.167  -2.266  -0.780  0.00  0.00     0.178 C 
ATOM     12  HN  UNL d   1       1.829  -0.643  -1.423  1.00  0.00     0.187 HD
BRANCH   8  13
ATOM     13  C   UNL d   1      -1.760  -0.672   1.476  0.00  0.00     0.434 C 
ATOM     14  F   UNL d   1      -2.384  -1.739   0.928  0.00  0.00    -0.165 F 
ATOM     15  F   UNL d   1      -1.532  -0.979   2.779  0.00  0.00    -0.165 F 
ATOM     16  F   UNL d   1      -2.659   0.345   1.468  0.00  0.00    -0.165 F 
ENDBRANCH   8  13
ENDBRANCH   1   6
BRANCH   4  17
ATOM     17  C   UNL d   1       5.146   4.426   0.598  0.00  0.00     0.126 C 
ATOM     18  N   UNL d   1       6.247   4.634  -0.051  0.00  0.00    -0.308 N 
ATOM     19  HN  UNL d   1       6.493   4.077  -0.869  1.00  0.00     0.186 HD
BRANCH  18  20
ATOM     20  N   UNL d   1       7.059   5.619   0.399  0.00  0.00    -0.271 N 
ATOM     21  C   UNL d   1       8.259   5.899  -0.208  0.00  0.00     0.232 C 
ATOM     22  O   UNL d   1       8.991   6.784   0.237  0.00  0.00    -0.272 OA
ATOM     23  C   UNL d   1       8.646   5.090  -1.424  0.00  0.00     0.119 C 
ATOM     24  H   UNL d   1       6.823   6.166   1.220  0.00  0.00     0.190 HD
ENDBRANCH  18  20
ENDBRANCH   4  17
TORSDOF 4
