REMARK  3 active torsions:
REMARK  status: ('A' for Active; 'I' for Inactive)
REMARK    1  A    between atoms: C_5  and  N_1 
REMARK    2  A    between atoms: C_3  and  C_8 
REMARK    3  A    between atoms: O_16  and  C_4 
ROOT
ATOM      1  N   UNL d   1      -0.042  -1.385   0.012  0.00  0.00    -0.285 N 
ATOM      2  C   UNL d   1      -0.625  -0.593   1.013  0.00  0.00     0.303 A 
ATOM      3  C   UNL d   1      -0.667   0.899   0.687  0.00  0.00     0.210 A 
ATOM      4  N   UNL d   1      -0.189   1.449  -0.380  0.00  0.00    -0.341 N 
ATOM      5  HN  UNL d   1      -0.236   2.455  -0.546  1.00  0.00     0.167 HD
ATOM      6  C   UNL d   1       0.452  -0.747  -1.119  0.00  0.00     0.117 A 
ATOM      7  C   UNL d   1       0.387   0.584  -1.271  0.00  0.00     0.108 A 
ATOM      8  O   UNL d   1      -1.137  -0.933   2.076  0.00  0.00    -0.263 OA
ENDROOT
BRANCH   1   9
ATOM      9  C   UNL d   1       0.030  -2.809   0.167  0.00  0.00     0.043 A 
ATOM     10  C   UNL d   1       0.261  -3.395   1.421  0.00  0.00     0.046 A 
ATOM     11  C   UNL d   1       0.373  -4.789   1.567  0.00  0.00     0.050 A 
ATOM     12  C   UNL d   1       0.205  -5.607   0.442  0.00  0.00     0.016 A 
ATOM     13  C   UNL d   1      -0.038  -5.042  -0.807  0.00  0.00     0.003 A 
ATOM     14  C   UNL d   1      -0.107  -3.654  -0.946  0.00  0.00     0.030 A 
BRANCH  11  15
ATOM     15  C   UNL d   1       0.684  -5.410   2.908  0.00  0.00     0.417 C 
ATOM     16  F   UNL d   1       0.945  -4.500   3.887  0.00  0.00    -0.166 F 
ATOM     17  F   UNL d   1      -0.334  -6.184   3.374  0.00  0.00    -0.166 F 
ATOM     18  F   UNL d   1       1.778  -6.222   2.857  0.00  0.00    -0.166 F 
ENDBRANCH  11  15
ENDBRANCH   1   9
BRANCH   3  19
ATOM     19  O   UNL d   1      -1.285   1.622   1.635  0.00  0.00    -0.342 OA
ATOM     20  H   UNL d   1      -1.600   1.032   2.348  0.00  0.00     0.219 HD
ENDBRANCH   3  19
TORSDOF 3
