REMARK  5 active torsions:
REMARK  status: ('A' for Active; 'I' for Inactive)
REMARK    1  A    between atoms: N_2  and  S_1 
REMARK    2  A    between atoms: C_8  and  S_1 
REMARK       I    between atoms: C_3  and  N_5 
REMARK    3  A    between atoms: C_7  and  C_3 
REMARK    4  A    between atoms: N_5  and  S_4 
REMARK    5  A    between atoms: O_24  and  C_16 
ROOT
ATOM      1  N   UNL d   1       0.504   0.489   0.982  0.00  0.00    -0.305 N 
ATOM      2  S   UNL d   1      -1.403   3.123   0.676  0.00  0.00    -0.122 SA
ATOM      3  C   UNL d   1      -0.969   0.307   0.878  0.00  0.00     0.146 C 
ATOM      4  C   UNL d   1       0.841   1.730   1.730  0.00  0.00     0.146 C 
ATOM      5  C   UNL d   1       0.374   2.995   1.022  0.00  0.00     0.105 C 
ATOM      6  C   UNL d   1      -1.655   1.420   0.083  0.00  0.00     0.105 C 
ENDROOT
BRANCH   2   7
ATOM      7  N   UNL d   1      -1.988   3.002   2.067  0.00  0.00    -0.306 N 
ATOM      8  C   UNL d   1      -3.140   3.690   2.227  0.00  0.00     0.263 C 
ATOM      9  O   UNL d   1      -3.851   4.239   1.385  0.00  0.00    -0.267 OA
ATOM     10  HN  UNL d   1      -1.555   2.454   2.810  1.00  0.00     0.176 HD
BRANCH   8  11
ATOM     11  C   UNL d   1      -3.599   3.846   3.645  0.00  0.00     0.066 A 
ATOM     12  C   UNL d   1      -4.959   3.869   4.014  0.00  0.00     0.084 A 
ATOM     13  C   UNL d   1      -5.319   4.334   5.289  0.00  0.00     0.038 A 
ATOM     14  C   UNL d   1      -4.350   4.706   6.221  0.00  0.00     0.003 A 
ATOM     15  C   UNL d   1      -3.002   4.604   5.891  0.00  0.00     0.001 A 
ATOM     16  C   UNL d   1      -2.630   4.185   4.613  0.00  0.00     0.020 A 
BRANCH  12  17
ATOM     17  O   UNL d   1      -6.044   3.516   3.249  0.00  0.00    -0.355 OA
ATOM     18  C   UNL d   1      -5.868   2.337   2.467  0.00  0.00     0.210 C 
ENDBRANCH  12  17
ENDBRANCH   8  11
ENDBRANCH   2   7
BRANCH   1  19
ATOM     19  S   UNL d   1       1.457   0.080  -0.347  0.00  0.00     0.260 S 
ATOM     20  O   UNL d   1       2.682   0.856  -0.334  0.00  0.00    -0.200 OA
ATOM     21  O   UNL d   1       0.646  -0.029  -1.540  0.00  0.00    -0.200 OA
BRANCH  19  22
ATOM     22  C   UNL d   1       1.975  -1.591   0.057  0.00  0.00     0.079 A 
ATOM     23  C   UNL d   1       1.611  -2.660  -0.771  0.00  0.00     0.027 A 
ATOM     24  C   UNL d   1       2.204  -3.913  -0.580  0.00  0.00     0.025 A 
ATOM     25  C   UNL d   1       3.148  -4.088   0.433  0.00  0.00     0.034 A 
ATOM     26  C   UNL d   1       3.482  -3.032   1.282  0.00  0.00     0.025 A 
ATOM     27 CL   UNL d   1       3.942  -5.606   0.607  0.00  0.00    -0.084 Cl
ATOM     28  C   UNL d   1       2.894  -1.778   1.095  0.00  0.00     0.027 A 
ENDBRANCH  19  22
ENDBRANCH   1  19
TORSDOF 5
