REMARK  2 active torsions:
REMARK  status: ('A' for Active; 'I' for Inactive)
REMARK    1  A    between atoms: C_7  and  C_3 
REMARK    2  A    between atoms: C_10  and  C_4 
ROOT
ATOM      1  N   UNL d   1       1.412  -0.603   0.030  0.00  0.00    -0.349 N 
ATOM      2  HN  UNL d   1       2.295  -1.112   0.080  1.00  0.00     0.166 HD
ATOM      3  C   UNL d   1       0.220  -1.169  -0.020  0.00  0.00     0.085 A 
ATOM      4  C   UNL d   1       1.296   0.779   0.007  0.00  0.00     0.050 A 
ATOM      5  S   UNL d   1      -1.101  -0.060   0.001  0.00  0.00    -0.081 SA
ATOM      6  C   UNL d   1      -0.002   1.247   0.018  0.00  0.00     0.082 A 
ENDROOT
BRANCH   3   7
ATOM      7  C   UNL d   1      -0.015  -2.624  -0.048  0.00  0.00     0.001 A 
ATOM      8  C   UNL d   1      -1.139  -3.186  -0.679  0.00  0.00     0.054 A 
ATOM      9  C   UNL d   1      -1.281  -4.558  -0.671  0.00  0.00     0.105 A 
ATOM     10  O   UNL d   1      -2.303  -5.249  -1.243  0.00  0.00    -0.323 OA
ATOM     11  C   UNL d   1      -0.363  -5.381  -0.065  0.00  0.00     0.105 A 
ATOM     12  C   UNL d   1      -1.894  -6.606  -0.974  0.00  0.00     0.352 A 
ATOM     13  O   UNL d   1      -0.694  -6.695  -0.177  0.00  0.00    -0.323 OA
ATOM     14  C   UNL d   1       0.754  -4.878   0.562  0.00  0.00     0.040 A 
ATOM     15  C   UNL d   1       0.929  -3.488   0.560  0.00  0.00     0.017 A 
ENDBRANCH   3   7
BRANCH   4  16
ATOM     16  C   UNL d   1       2.470   1.645  -0.006  0.00  0.00    -0.009 A 
ATOM     17  C   UNL d   1       2.430   2.927  -0.580  0.00  0.00     0.017 A 
ATOM     18  C   UNL d   1       3.564   3.743  -0.578  0.00  0.00     0.043 A 
ATOM     19  C   UNL d   1       4.741   3.278  -0.009  0.00  0.00     0.116 A 
ATOM     20  C   UNL d   1       4.809   2.010   0.556  0.00  0.00     0.043 A 
ATOM     21  F   UNL d   1       5.828   4.061  -0.008  0.00  0.00    -0.206 F 
ATOM     22  C   UNL d   1       3.676   1.192   0.554  0.00  0.00     0.017 A 
ENDBRANCH   4  16
TORSDOF 2
