REMARK  4 active torsions:
REMARK  status: ('A' for Active; 'I' for Inactive)
REMARK    1  A    between atoms: O_12  and  N_4 
REMARK    2  A    between atoms: C_9  and  C_8 
REMARK    3  A    between atoms: C_21  and  O_12 
REMARK    4  A    between atoms: C_14  and  C_21 
ROOT
ATOM      1  N   UNL d   1      -4.676   0.383  -0.255  0.00  0.00    -0.277 N 
ATOM      2  HN  UNL d   1      -4.685  -0.637  -0.267  1.00  0.00     0.193 HD
ATOM      3  C   UNL d   1      -3.619   1.125  -0.170  0.00  0.00     0.125 C 
ENDROOT
BRANCH   1   4
ATOM      4  O   UNL d   1      -5.811   1.210  -0.327  0.00  0.00    -0.276 OA
BRANCH   4   5
ATOM      5  C   UNL d   1      -6.973   0.380  -0.406  0.00  0.00     0.239 C 
BRANCH   5   6
ATOM      6  C   UNL d   1      -8.212   1.238  -0.487  0.00  0.00    -0.032 A 
ATOM      7  C   UNL d   1      -8.385   2.139  -1.549  0.00  0.00     0.011 A 
ATOM      8  C   UNL d   1      -9.545   2.913  -1.642  0.00  0.00     0.024 A 
ATOM      9  C   UNL d   1     -10.539   2.790  -0.674  0.00  0.00     0.034 A 
ATOM     10  C   UNL d   1     -10.383   1.901   0.387  0.00  0.00     0.024 A 
ATOM     11 CL   UNL d   1     -11.969   3.740  -0.791  0.00  0.00    -0.084 Cl
ATOM     12  C   UNL d   1      -9.223   1.126   0.480  0.00  0.00     0.011 A 
ENDBRANCH   5   6
ENDBRANCH   4   5
ENDBRANCH   1   4
BRANCH   3  13
ATOM     13  C   UNL d   1      -2.263   0.550  -0.069  0.00  0.00    -0.018 A 
ATOM     14  C   UNL d   1      -2.076  -0.839  -0.059  0.00  0.00     0.022 A 
ATOM     15  C   UNL d   1      -0.783  -1.319   0.057  0.00  0.00    -0.022 A 
ATOM     16  C   UNL d   1       0.294  -0.451   0.142  0.00  0.00     0.075 A 
ATOM     17  C   UNL d   1      -0.286  -2.713   0.043  0.00  0.00     0.068 C 
ATOM     18  O   UNL d   1       1.505  -1.086   0.233  0.00  0.00    -0.350 OA
ATOM     19  C   UNL d   1       0.135   0.920   0.116  0.00  0.00     0.038 A 
ATOM     20  C   UNL d   1       1.148  -2.461   0.512  0.00  0.00     0.180 C 
ATOM     21  C   UNL d   1      -1.164   1.427   0.016  0.00  0.00     0.015 A 
ENDBRANCH   3  13
TORSDOF 4
