REMARK  9 active torsions:
REMARK  status: ('A' for Active; 'I' for Inactive)
REMARK    1  A    between atoms: C_4  and  S_1 
REMARK    2  A    between atoms: C_9  and  S_1 
REMARK    3  A    between atoms: C_2  and  N_5 
REMARK    4  A    between atoms: N_12  and  C_2 
REMARK    5  A    between atoms: C_3  and  C_14 
REMARK       I    between atoms: N_6  and  C_3 
REMARK    6  A    between atoms: C_15  and  C_4 
REMARK    7  A    between atoms: N_5  and  N_6 
REMARK    8  A    between atoms: S_13  and  C_15 
REMARK    9  A    between atoms: C_14  and  S_13 
ROOT
ATOM      1  S   UNL d   1       0.327  -1.202  -4.077  0.00  0.00    -0.159 SA
ENDROOT
BRANCH   1   2
ATOM      2  C   UNL d   1       0.976  -0.177  -2.707  0.00  0.00     0.089 C 
BRANCH   2   3
ATOM      3  C   UNL d   1       0.503  -0.833  -1.420  0.00  0.00     0.156 C 
BRANCH   3   4
ATOM      4  S   UNL d   1       1.062   0.037   0.024  0.00  0.00     0.176 S 
ATOM      5  O   UNL d   1       0.495   1.374  -0.004  0.00  0.00    -0.223 OA
ATOM      6  O   UNL d   1       2.490  -0.166   0.155  0.00  0.00    -0.223 OA
BRANCH   4   7
ATOM      7  C   UNL d   1       0.259  -0.865   1.333  0.00  0.00     0.059 A 
ATOM      8  C   UNL d   1       0.886  -1.985   1.885  0.00  0.00     0.023 A 
ATOM      9  C   UNL d   1       0.237  -2.709   2.888  0.00  0.00     0.002 A 
ATOM     10  C   UNL d   1      -1.022  -2.308   3.337  0.00  0.00     0.000 A 
ATOM     11  C   UNL d   1      -1.637  -1.180   2.792  0.00  0.00     0.002 A 
ATOM     12  C   UNL d   1      -0.996  -0.450   1.790  0.00  0.00     0.023 A 
ENDBRANCH   4   7
ENDBRANCH   3   4
ENDBRANCH   2   3
ENDBRANCH   1   2
BRANCH   1  13
ATOM     13  C   UNL d   1       0.937  -0.262  -5.517  0.00  0.00     0.178 C 
BRANCH  13  14
ATOM     14  C   UNL d   1       0.529  -0.880  -6.854  0.00  0.00     0.245 C 
ATOM     15  N   UNL d   1      -0.211  -2.041  -6.805  0.00  0.00    -0.267 N 
ATOM     16  H   UNL d   1      -0.470  -2.481  -5.921  0.00  0.00     0.190 HD
ATOM     17  O   UNL d   1       0.852  -0.361  -7.926  0.00  0.00    -0.271 OA
BRANCH  15  18
ATOM     18  N   UNL d   1      -0.594  -2.662  -7.995  0.00  0.00    -0.274 N 
ATOM     19  H   UNL d   1      -0.327  -2.171  -8.844  0.00  0.00     0.189 HD
BRANCH  18  20
ATOM     20  C   UNL d   1      -1.337  -3.833  -8.010  0.00  0.00     0.186 C 
ATOM     21  S   UNL d   1      -1.838  -4.627  -6.623  0.00  0.00    -0.040 SA
BRANCH  20  22
ATOM     22  N   UNL d   1      -1.595  -4.241  -9.303  0.00  0.00    -0.370 N 
ATOM     23  C   UNL d   1      -2.332  -5.413  -9.738  0.00  0.00     0.148 C 
ATOM     24  H   UNL d   1      -1.208  -3.674 -10.044  0.00  0.00     0.161 HD
ENDBRANCH  20  22
ENDBRANCH  18  20
ENDBRANCH  15  18
ENDBRANCH  13  14
ENDBRANCH   1  13
TORSDOF 9
