REMARK  4 active torsions:
REMARK  status: ('A' for Active; 'I' for Inactive)
REMARK    1  A    between atoms: N_8  and  C_1 
REMARK    2  A    between atoms: C_2  and  C_3 
REMARK       I    between atoms: C_3  and  N_8 
REMARK    3  A    between atoms: O_19  and  C_4 
REMARK    4  A    between atoms: C_18  and  C_10 
ROOT
ATOM      1  C   UNL d   1       4.840   0.691  -0.378  0.00  0.00     0.261 C 
ATOM      2  N   UNL d   1       3.675   1.277   0.058  0.00  0.00    -0.315 N 
ATOM      3  O   UNL d   1       5.819   1.330  -0.745  0.00  0.00    -0.267 OA
ATOM      4  H   UNL d   1       3.022   0.691   0.580  0.00  0.00     0.169 HD
ENDROOT
BRANCH   2   5
ATOM      5  C   UNL d   1       3.290   2.619  -0.021  0.00  0.00     0.146 C 
ATOM      6  C   UNL d   1       3.874   3.610  -0.732  0.00  0.00     0.111 C 
ATOM      7  C   UNL d   1       3.240   4.926  -0.845  0.00  0.00     0.034 A 
ATOM      8  C   UNL d   1       3.829   5.969  -1.572  0.00  0.00     0.017 A 
ATOM      9  C   UNL d   1       1.981   5.133  -0.289  0.00  0.00     0.098 A 
ATOM     10  C   UNL d   1       3.153   7.171  -1.769  0.00  0.00     0.002 A 
ATOM     11  C   UNL d   1       1.873   7.340  -1.248  0.00  0.00     0.009 A 
ATOM     12  C   UNL d   1       1.266   6.322  -0.499  0.00  0.00    -0.027 A 
ATOM     13  C   UNL d   1      -0.116   6.548   0.039  0.00  0.00     0.051 C 
ATOM     14  O   UNL d   1       1.403   4.135   0.517  0.00  0.00    -0.272 OA
ATOM     15  C   UNL d   1       2.053   2.939   0.760  0.00  0.00     0.318 C 
ATOM     16  O   UNL d   1       1.616   2.117   1.566  0.00  0.00    -0.257 OA
BRANCH   6  17
ATOM     17  O   UNL d   1       5.012   3.500  -1.498  0.00  0.00    -0.357 OA
ATOM     18  H   UNL d   1       5.514   2.700  -1.241  0.00  0.00     0.217 HD
ENDBRANCH   6  17
ENDBRANCH   2   5
BRANCH   1  19
ATOM     19  C   UNL d   1       4.887  -0.751  -0.339  0.00  0.00     0.093 A 
ATOM     20  C   UNL d   1       5.986  -1.569   0.074  0.00  0.00     0.083 A 
ATOM     21  N   UNL d   1       5.721  -2.861  -0.171  0.00  0.00    -0.259 N 
ATOM     22  O   UNL d   1       4.465  -2.903  -0.733  0.00  0.00    -0.241 OA
ATOM     23  HN  UNL d   1       6.331  -3.656   0.021  1.00  0.00     0.195 HD
ATOM     24  C   UNL d   1       3.963  -1.646  -0.838  0.00  0.00     0.090 A 
ATOM     25  C   UNL d   1       2.654  -1.536  -1.510  0.00  0.00     0.080 C 
BRANCH  20  26
ATOM     26  C   UNL d   1       7.248  -1.159   0.695  0.00  0.00    -0.006 A 
ATOM     27  C   UNL d   1       8.448  -1.802   0.359  0.00  0.00     0.014 A 
ATOM     28  C   UNL d   1       9.650  -1.418   0.960  0.00  0.00     0.001 A 
ATOM     29  C   UNL d   1       9.667  -0.388   1.899  0.00  0.00     0.000 A 
ATOM     30  C   UNL d   1       8.483   0.260   2.240  0.00  0.00     0.001 A 
ATOM     31  C   UNL d   1       7.280  -0.127   1.646  0.00  0.00     0.014 A 
ENDBRANCH  20  26
ENDBRANCH   1  19
TORSDOF 4
