REMARK  8 active torsions:
REMARK  status: ('A' for Active; 'I' for Inactive)
REMARK    1  A    between atoms: C_4  and  S_1 
REMARK    2  A    between atoms: N_9  and  S_1 
REMARK    3  A    between atoms: C_2  and  C_5 
REMARK    4  A    between atoms: C_3  and  C_15 
REMARK    5  A    between atoms: C_18  and  N_9 
REMARK    6  A    between atoms: C_15  and  S_19 
REMARK    7  A    between atoms: C_26  and  C_18 
REMARK    8  A    between atoms: S_19  and  C_26 
ROOT
ATOM      1  N   UNL d   1       2.661   0.174  -0.049  0.00  0.00    -0.315 N 
ATOM      2  H   UNL d   1       3.063  -0.673   0.361  0.00  0.00     0.172 HD
ENDROOT
BRANCH   1   3
ATOM      3  S   UNL d   1       0.984   0.183   0.006  0.00  0.00     0.258 S 
ATOM      4  O   UNL d   1       0.599  -0.307   1.308  0.00  0.00    -0.201 OA
ATOM      5  O   UNL d   1       0.533   1.461  -0.501  0.00  0.00    -0.201 OA
BRANCH   3   6
ATOM      6  C   UNL d   1       0.525  -1.075  -1.170  0.00  0.00     0.080 A 
ATOM      7  C   UNL d   1       0.857  -2.411  -0.905  0.00  0.00     0.041 A 
ATOM      8  C   UNL d   1       0.451  -3.423  -1.790  0.00  0.00     0.049 A 
ATOM      9  C   UNL d   1      -0.303  -3.072  -2.923  0.00  0.00     0.016 A 
ATOM     10  C   UNL d   1      -0.636  -1.739  -3.176  0.00  0.00     0.002 A 
ATOM     11  C   UNL d   1      -0.221  -0.736  -2.301  0.00  0.00     0.025 A 
BRANCH   8  12
ATOM     12  C   UNL d   1       0.797  -4.872  -1.540  0.00  0.00     0.417 C 
ATOM     13  F   UNL d   1       1.560  -5.066  -0.429  0.00  0.00    -0.166 F 
ATOM     14  F   UNL d   1      -0.306  -5.652  -1.380  0.00  0.00    -0.166 F 
ATOM     15  F   UNL d   1       1.496  -5.422  -2.572  0.00  0.00    -0.166 F 
ENDBRANCH   8  12
ENDBRANCH   3   6
ENDBRANCH   1   3
BRANCH   1  16
ATOM     16  C   UNL d   1       3.335   0.654  -1.268  0.00  0.00     0.142 C 
BRANCH  16  17
ATOM     17  C   UNL d   1       4.850   0.455  -1.135  0.00  0.00     0.094 C 
BRANCH  17  18
ATOM     18  S   UNL d   1       5.203  -1.322  -0.910  0.00  0.00    -0.163 SA
BRANCH  18  19
ATOM     19  C   UNL d   1       7.029  -1.264  -0.830  0.00  0.00     0.117 C 
BRANCH  19  20
ATOM     20  C   UNL d   1       7.554  -2.658  -0.614  0.00  0.00     0.011 A 
ATOM     21  C   UNL d   1       7.766  -3.107   0.696  0.00  0.00     0.125 A 
ATOM     22  F   UNL d   1       7.607  -2.261   1.724  0.00  0.00    -0.205 F 
ATOM     23  C   UNL d   1       8.117  -4.426   0.974  0.00  0.00     0.043 A 
ATOM     24  C   UNL d   1       8.268  -5.333  -0.070  0.00  0.00     0.005 A 
ATOM     25  C   UNL d   1       8.087  -4.906  -1.385  0.00  0.00     0.024 A 
ATOM     26  C   UNL d   1       7.736  -3.578  -1.657  0.00  0.00     0.044 A 
ATOM     27 CL   UNL d   1       7.519  -3.135  -3.314  0.00  0.00    -0.084 Cl
ENDBRANCH  19  20
ENDBRANCH  18  19
ENDBRANCH  17  18
ENDBRANCH  16  17
ENDBRANCH   1  16
TORSDOF 8
