REMARK  4 active torsions:
REMARK  status: ('A' for Active; 'I' for Inactive)
REMARK    1  A    between atoms: C_3  and  C_1 
REMARK    2  A    between atoms: S_4  and  C_2 
REMARK    3  A    between atoms: N_6  and  C_3 
REMARK    4  A    between atoms: C_9  and  S_4 
REMARK       I    between atoms: C_5  and  N_6 
ROOT
ATOM      1  C   UNL d   1       0.202   1.169  -0.099  0.00  0.00    -0.002 A 
ATOM      2  C   UNL d   1       1.611   1.280  -0.002  0.00  0.00     0.015 A 
ATOM      3  C   UNL d   1      -0.365  -0.121  -0.044  0.00  0.00     0.043 A 
ATOM      4 CL   UNL d   1      -2.077  -0.377  -0.070  0.00  0.00    -0.084 Cl
ATOM      5  C   UNL d   1       2.402   0.119   0.060  0.00  0.00     0.019 A 
ATOM      6  C   UNL d   1       1.820  -1.146   0.076  0.00  0.00     0.003 A 
ATOM      7  C   UNL d   1       0.437  -1.264   0.038  0.00  0.00     0.024 A 
ENDROOT
BRANCH   2   8
ATOM      8  S   UNL d   1       2.450   2.865  -0.012  0.00  0.00    -0.090 SA
BRANCH   8   9
ATOM      9  C   UNL d   1       3.411   2.866   1.493  0.00  0.00     0.005 A 
ATOM     10  C   UNL d   1       4.663   3.497   1.472  0.00  0.00     0.020 A 
ATOM     11  C   UNL d   1       5.445   3.571   2.629  0.00  0.00     0.025 A 
ATOM     12  C   UNL d   1       4.975   3.015   3.816  0.00  0.00     0.034 A 
ATOM     13  C   UNL d   1       3.732   2.388   3.853  0.00  0.00     0.025 A 
ATOM     14 CL   UNL d   1       5.929   3.111   5.243  0.00  0.00    -0.084 Cl
ATOM     15  C   UNL d   1       2.949   2.318   2.696  0.00  0.00     0.020 A 
ENDBRANCH   8   9
ENDBRANCH   2   8
BRANCH   1  16
ATOM     16  C   UNL d   1      -0.680   2.385  -0.264  0.00  0.00     0.164 C 
BRANCH  16  17
ATOM     17  N   UNL d   1      -1.153   2.906   0.999  0.00  0.00    -0.357 N 
ATOM     18  C   UNL d   1      -2.067   3.934   1.012  0.00  0.00     0.213 C 
ATOM     19  O   UNL d   1      -2.566   4.411  -0.002  0.00  0.00    -0.274 OA
ATOM     20  C   UNL d   1      -2.409   4.449   2.384  0.00  0.00     0.117 C 
ATOM     21  H   UNL d   1      -0.625   2.706   1.836  0.00  0.00     0.162 HD
ENDBRANCH  16  17
ENDBRANCH   1  16
TORSDOF 4
