REMARK  5 active torsions:
REMARK  status: ('A' for Active; 'I' for Inactive)
REMARK    1  A    between atoms: C_13  and  N_1 
REMARK    2  A    between atoms: C_12  and  C_6 
REMARK    3  A    between atoms: C_10  and  N_16 
REMARK    4  A    between atoms: C_18  and  C_12 
REMARK    5  A    between atoms: N_16  and  N_14 
ROOT
ATOM      1  N   UNL d   1      -0.462  -0.947  -0.979  0.00  0.00    -0.227 N 
ATOM      2  N   UNL d   1       0.704  -0.173   0.661  0.00  0.00    -0.226 N 
ATOM      3  HN  UNL d   1       1.497   0.081   1.250  1.00  0.00     0.210 HD
ATOM      4  N   UNL d   1       0.798  -0.837  -0.475  0.00  0.00    -0.220 N 
ATOM      5  HN  UNL d   1       1.653  -1.199  -0.897  1.00  0.00     0.210 HD
ATOM      6  C   UNL d   1      -1.320  -0.352  -0.052  0.00  0.00     0.125 A 
ATOM      7  N   UNL d   1      -0.591   0.128   0.940  0.00  0.00    -0.271 N 
ATOM      8  HN  UNL d   1      -0.934   0.629   1.759  1.00  0.00     0.190 HD
ENDROOT
BRANCH   6   9
ATOM      9  C   UNL d   1      -2.796  -0.250  -0.076  0.00  0.00     0.126 C 
BRANCH   9  10
ATOM     10  C   UNL d   1      -3.417  -1.589   0.209  0.00  0.00     0.087 C 
ATOM     11  N   UNL d   1      -4.257  -2.102  -0.630  0.00  0.00    -0.315 N 
ATOM     12  HN  UNL d   1      -4.495  -1.644  -1.510  1.00  0.00     0.185 HD
BRANCH  11  13
ATOM     13  N   UNL d   1      -4.798  -3.284  -0.264  0.00  0.00    -0.298 N 
ATOM     14  H   UNL d   1      -4.569  -3.774   0.600  0.00  0.00     0.187 HD
BRANCH  13  15
ATOM     15  C   UNL d   1      -5.653  -3.972  -1.146  0.00  0.00     0.086 A 
ATOM     16  C   UNL d   1      -6.297  -5.146  -0.720  0.00  0.00     0.147 A 
ATOM     17  C   UNL d   1      -7.170  -5.850  -1.543  0.00  0.00     0.086 A 
ATOM     18  F   UNL d   1      -6.066  -5.607   0.520  0.00  0.00    -0.204 F 
ATOM     19  C   UNL d   1      -7.413  -5.372  -2.822  0.00  0.00     0.119 A 
ATOM     20  C   UNL d   1      -6.805  -4.207  -3.278  0.00  0.00     0.045 A 
ATOM     21  F   UNL d   1      -8.246  -6.039  -3.629  0.00  0.00    -0.206 F 
ATOM     22  C   UNL d   1      -5.935  -3.505  -2.438  0.00  0.00     0.037 A 
ENDBRANCH  13  15
ENDBRANCH  11  13
ENDBRANCH   9  10
ENDBRANCH   6   9
BRANCH   1  23
ATOM     23  C   UNL d   1      -0.663  -1.605  -2.226  0.00  0.00     0.059 A 
ATOM     24  C   UNL d   1       0.428  -2.266  -2.822  0.00  0.00     0.031 A 
ATOM     25  C   UNL d   1       0.276  -2.965  -4.024  0.00  0.00     0.002 A 
ATOM     26  C   UNL d   1      -0.964  -3.004  -4.652  0.00  0.00     0.000 A 
ATOM     27  C   UNL d   1      -2.043  -2.332  -4.089  0.00  0.00     0.002 A 
ATOM     28  C   UNL d   1      -1.894  -1.629  -2.887  0.00  0.00     0.031 A 
ENDBRANCH   1  23
TORSDOF 5
