REMARK  1 active torsions:
REMARK  status: ('A' for Active; 'I' for Inactive)
REMARK    1  A    between atoms: C_12  and  C_6 
ROOT
ATOM      1  C   UNL d   1       0.202  -0.769   0.032  0.00  0.00     0.147 A 
ATOM      2  N   UNL d   1       0.261   0.626   0.023  0.00  0.00    -0.242 N 
ATOM      3  C   UNL d   1       1.506  -1.195   0.046  0.00  0.00     0.085 A 
ATOM      4  N   UNL d   1       1.547   1.066   0.025  0.00  0.00    -0.290 N 
ATOM      5  HN  UNL d   1       1.862   2.036   0.037  1.00  0.00     0.187 HD
ATOM      6  C   UNL d   1       2.320  -0.036   0.009  0.00  0.00     0.080 A 
ATOM      7  N   UNL d   1      -0.978  -1.463   0.030  0.00  0.00    -0.344 N 
ATOM      8  HN  UNL d   1      -1.001  -2.483   0.038  1.00  0.00     0.167 HD
ATOM      9  C   UNL d   1      -0.928   1.380   0.016  0.00  0.00     0.034 A 
ATOM     10  C   UNL d   1      -2.110   0.738   0.009  0.00  0.00     0.051 A 
ATOM     11  C   UNL d   1      -2.063  -0.756   0.017  0.00  0.00     0.009 A 
ATOM     12 BR   UNL d   1       2.020  -3.002   0.133  0.00  0.00    -0.044 Br
ATOM     13  C   UNL d   1      -0.863   2.876   0.013  0.00  0.00     0.070 C 
ATOM     14  C   UNL d   1      -3.377  -1.495   0.009  0.00  0.00     0.068 C 
ENDROOT
BRANCH   6  15
ATOM     15  C   UNL d   1       3.786   0.082  -0.048  0.00  0.00    -0.007 A 
ATOM     16  C   UNL d   1       4.571  -0.877  -0.700  0.00  0.00     0.014 A 
ATOM     17  C   UNL d   1       5.960  -0.757  -0.763  0.00  0.00     0.001 A 
ATOM     18  C   UNL d   1       6.589   0.346  -0.200  0.00  0.00     0.000 A 
ATOM     19  C   UNL d   1       5.829   1.321   0.442  0.00  0.00     0.001 A 
ATOM     20  C   UNL d   1       4.436   1.190   0.521  0.00  0.00     0.014 A 
ENDBRANCH   6  15
TORSDOF 1
