REMARK  0 active torsions:
REMARK  status: ('A' for Active; 'I' for Inactive)
ROOT
ATOM      1  N   UNL d   1      -2.823  -0.610  -0.120  0.00  0.00    -0.314 N 
ATOM      2  C   UNL d   1      -2.133   0.575   0.034  0.00  0.00     0.256 A 
ATOM      3  C   UNL d   1      -1.963  -1.750  -0.259  0.00  0.00     0.359 A 
ATOM      4  C   UNL d   1      -0.711   0.217   0.096  0.00  0.00     0.042 A 
ATOM      5  C   UNL d   1      -0.607  -1.171  -0.004  0.00  0.00     0.010 A 
ATOM      6  N   UNL d   1      -2.426  -2.732   0.691  0.00  0.00     0.111 N 
ATOM      7  O   UNL d   1      -2.574   1.705   0.120  0.00  0.00    -0.267 OA
ATOM      8  C   UNL d   1      -4.257  -0.727  -0.113  0.00  0.00     0.130 C 
ATOM      9  C   UNL d   1       0.388   1.050   0.212  0.00  0.00     0.018 A 
ATOM     10  C   UNL d   1       0.640  -1.774   0.027  0.00  0.00     0.012 A 
ATOM     11  C   UNL d   1      -4.775  -2.161  -0.031  0.00  0.00     0.050 C 
ATOM     12  C   UNL d   1      -3.723  -3.242   0.245  0.00  0.00     0.274 C 
ATOM     13  C   UNL d   1       1.646   0.448   0.227  0.00  0.00     0.001 A 
ATOM     14  C   UNL d   1       1.771  -0.952   0.144  0.00  0.00     0.001 A 
ATOM     15  H   UNL d   1      -1.762  -3.500   0.733  0.00  0.00     0.319 HD
ENDROOT
TORSDOF 0
