REMARK  6 active torsions:
REMARK  status: ('A' for Active; 'I' for Inactive)
REMARK    1  A    between atoms: S_16  and  C_3 
REMARK    2  A    between atoms: C_9  and  C_4 
REMARK    3  A    between atoms: O_15  and  N_7 
REMARK    4  A    between atoms: O_19  and  C_9 
REMARK    5  A    between atoms: C_10  and  O_15 
REMARK       I    between atoms: N_14  and  C_10 
REMARK    6  A    between atoms: C_20  and  N_14 
ROOT
ATOM      1  C   UNL d   1       0.104  -0.779  -0.231  0.00  0.00     0.020 C 
ATOM      2  C   UNL d   1       0.390   0.638  -0.148  0.00  0.00    -0.020 C 
ATOM      3  C   UNL d   1       1.196  -1.510  -0.648  0.00  0.00     0.054 C 
ATOM      4  C   UNL d   1       1.755   0.896  -0.269  0.00  0.00     0.088 C 
ATOM      5  S   UNL d   1       2.610  -0.557  -0.629  0.00  0.00    -0.076 SA
ATOM      6  C   UNL d   1      -1.234  -1.278   0.042  0.00  0.00     0.046 C 
ATOM      7  N   UNL d   1      -1.353  -2.450   0.595  0.00  0.00    -0.259 N 
ATOM      8  HN  UNL d   1      -0.572  -3.066   0.819  1.00  0.00     0.194 HD
ATOM      9  C   UNL d   1      -0.713   1.664   0.030  0.00  0.00     0.050 C 
ATOM     10  C   UNL d   1      -2.100   1.060   0.422  0.00  0.00    -0.038 C 
ATOM     11  C   UNL d   1      -2.352  -0.298  -0.282  0.00  0.00     0.069 C 
ATOM     12  C   UNL d   1      -3.216   2.038   0.003  0.00  0.00     0.015 C 
ATOM     13  C   UNL d   1      -2.182   0.874   1.950  0.00  0.00     0.015 C 
ENDROOT
BRANCH   7  14
ATOM     14  O   UNL d   1      -2.705  -2.752   0.842  0.00  0.00    -0.181 OA
BRANCH  14  15
ATOM     15  C   UNL d   1      -2.899  -3.925   1.558  0.00  0.00     0.387 C 
ATOM     16  N   UNL d   1      -1.746  -4.622   1.857  0.00  0.00    -0.301 N 
ATOM     17  H   UNL d   1      -0.907  -4.164   1.518  0.00  0.00     0.171 HD
ATOM     18  O   UNL d   1      -4.043  -4.243   1.865  0.00  0.00    -0.236 OA
BRANCH  16  19
ATOM     19  C   UNL d   1      -1.630  -5.804   2.620  0.00  0.00     0.036 A 
ATOM     20  C   UNL d   1      -2.726  -6.503   3.139  0.00  0.00     0.029 A 
ATOM     21  C   UNL d   1      -2.545  -7.631   3.947  0.00  0.00     0.002 A 
ATOM     22  C   UNL d   1      -1.262  -8.085   4.239  0.00  0.00     0.000 A 
ATOM     23  C   UNL d   1      -0.163  -7.423   3.702  0.00  0.00     0.002 A 
ATOM     24  C   UNL d   1      -0.345  -6.292   2.893  0.00  0.00     0.029 A 
ENDBRANCH  16  19
ENDBRANCH  14  15
ENDBRANCH   7  14
BRANCH   3  25
ATOM     25  S   UNL d   1       1.272  -3.191  -1.173  0.00  0.00    -0.126 SA
ATOM     26  C   UNL d   1      -0.035  -3.222  -2.432  0.00  0.00     0.096 C 
ENDBRANCH   3  25
BRANCH   4  27
ATOM     27  C   UNL d   1       2.464   2.164  -0.164  0.00  0.00     0.300 C 
ATOM     28  O   UNL d   1       1.936   3.263  -0.029  0.00  0.00    -0.259 OA
BRANCH  27  29
ATOM     29  O   UNL d   1       3.818   1.978  -0.222  0.00  0.00    -0.322 OA
ATOM     30  C   UNL d   1       4.616   3.158  -0.142  0.00  0.00     0.213 C 
ENDBRANCH  27  29
ENDBRANCH   4  27
TORSDOF 6
