REMARK  3 active torsions:
REMARK  status: ('A' for Active; 'I' for Inactive)
REMARK    1  A    between atoms: C_11  and  C_5 
REMARK    2  A    between atoms: C_14  and  C_8 
REMARK    3  A    between atoms: C_13  and  C_15 
ROOT
ATOM      1  C   UNL d   1       0.323   0.773   0.012  0.00  0.00     0.150 A 
ATOM      2  N   UNL d   1       0.300  -0.618  -0.039  0.00  0.00    -0.247 N 
ATOM      3  N   UNL d   1       1.569   1.193   0.030  0.00  0.00    -0.324 N 
ATOM      4  HN  UNL d   1       1.909   2.153   0.070  1.00  0.00     0.169 HD
ATOM      5  C   UNL d   1      -2.080  -0.735  -0.010  0.00  0.00     0.067 A 
ATOM      6  N   UNL d   1       1.567  -1.085  -0.069  0.00  0.00    -0.277 N 
ATOM      7  HN  UNL d   1       1.885  -2.052  -0.118  1.00  0.00     0.189 HD
ATOM      8  C   UNL d   1       2.305   0.034  -0.017  0.00  0.00     0.132 A 
ATOM      9  C   UNL d   1      -0.933   1.441   0.039  0.00  0.00     0.080 A 
ATOM     10  C   UNL d   1      -0.882  -1.357  -0.048  0.00  0.00     0.134 A 
ATOM     11  C   UNL d   1      -2.078   0.731   0.029  0.00  0.00     0.045 A 
ATOM     12 CL   UNL d   1      -0.960   3.161   0.081  0.00  0.00    -0.080 Cl
ENDROOT
BRANCH   8  13
ATOM     13  C   UNL d   1       3.765   0.046  -0.010  0.00  0.00     0.010 A 
ATOM     14  C   UNL d   1       4.498  -1.141  -0.161  0.00  0.00     0.031 A 
ATOM     15  C   UNL d   1       5.904  -1.131  -0.155  0.00  0.00     0.048 A 
ATOM     16  C   UNL d   1       6.574   0.088   0.028  0.00  0.00     0.016 A 
ATOM     17  C   UNL d   1       5.856   1.274   0.177  0.00  0.00     0.002 A 
ATOM     18  C   UNL d   1       4.460   1.253   0.150  0.00  0.00     0.015 A 
BRANCH  15  19
ATOM     19  C   UNL d   1       6.692  -2.402  -0.355  0.00  0.00     0.417 C 
ATOM     20  F   UNL d   1       5.915  -3.503  -0.557  0.00  0.00    -0.166 F 
ATOM     21  F   UNL d   1       7.521  -2.331  -1.433  0.00  0.00    -0.166 F 
ATOM     22  F   UNL d   1       7.488  -2.696   0.709  0.00  0.00    -0.166 F 
ENDBRANCH  15  19
ENDBRANCH   8  13
BRANCH   5  23
ATOM     23  C   UNL d   1      -3.383  -1.482  -0.005  0.00  0.00     0.418 C 
ATOM     24  F   UNL d   1      -4.461  -0.659   0.032  0.00  0.00    -0.166 F 
ATOM     25  F   UNL d   1      -3.514  -2.256  -1.111  0.00  0.00    -0.166 F 
ATOM     26  F   UNL d   1      -3.477  -2.304   1.069  0.00  0.00    -0.166 F 
ENDBRANCH   5  23
TORSDOF 3
