REMARK  5 active torsions:
REMARK  status: ('A' for Active; 'I' for Inactive)
REMARK    1  A    between atoms: C_4  and  C_1 
REMARK    2  A    between atoms: N_3  and  C_2 
REMARK       I    between atoms: N_5  and  C_4 
REMARK    3  A    between atoms: C_7  and  N_5 
REMARK    4  A    between atoms: N_10  and  C_7 
REMARK    5  A    between atoms: C_15  and  N_10 
ROOT
ATOM      1  C   UNL d   1       3.568  -3.611   1.244  0.00  0.00     0.237 C 
ATOM      2  N   UNL d   1       2.295  -3.121   1.039  0.00  0.00    -0.201 NA
ATOM      3  O   UNL d   1       4.511  -3.176   0.588  0.00  0.00    -0.274 OA
ATOM      4  H   UNL d   1       2.384  -2.205   0.615  0.00  0.00     0.139 HD
ENDROOT
BRANCH   2   5
ATOM      5  C   UNL d   1       1.269  -3.767   0.370  0.00  0.00     0.157 C 
ATOM      6  S   UNL d   1       1.314  -5.307  -0.272  0.00  0.00    -0.046 SA
BRANCH   5   7
ATOM      7  N   UNL d   1       0.155  -2.986   0.151  0.00  0.00    -0.338 N 
ATOM      8  H   UNL d   1      -0.442  -3.292  -0.613  0.00  0.00     0.168 HD
BRANCH   7   9
ATOM      9  C   UNL d   1      -0.284  -1.868   0.892  0.00  0.00     0.034 A 
ATOM     10  C   UNL d   1      -1.113  -0.938   0.260  0.00  0.00     0.031 A 
ATOM     11  C   UNL d   1      -1.570   0.185   0.958  0.00  0.00     0.026 A 
ATOM     12  C   UNL d   1      -1.236   0.353   2.301  0.00  0.00     0.034 A 
ATOM     13  C   UNL d   1      -0.444  -0.590   2.952  0.00  0.00     0.026 A 
ATOM     14 CL   UNL d   1      -1.812   1.723   3.163  0.00  0.00    -0.084 Cl
ATOM     15  C   UNL d   1       0.034  -1.696   2.245  0.00  0.00     0.031 A 
ENDBRANCH   7   9
ENDBRANCH   5   7
ENDBRANCH   2   5
BRANCH   1  16
ATOM     16  C   UNL d   1       3.763  -4.483   2.405  0.00  0.00     0.036 A 
ATOM     17  C   UNL d   1       5.062  -4.853   2.910  0.00  0.00     0.060 A 
ATOM     18  C   UNL d   1       4.984  -5.576   4.079  0.00  0.00     0.144 A 
ATOM     19  S   UNL d   1       3.385  -5.893   4.546  0.00  0.00    -0.077 SA
ATOM     20  C   UNL d   1       2.768  -5.011   3.212  0.00  0.00     0.068 A 
BRANCH  18  21
ATOM     21  N   UNL d   1       6.089  -6.040   4.876  0.00  0.00    -0.108 N 
ATOM     22  O   UNL d   1       7.207  -5.992   4.345  0.00  0.00    -0.531 OA
ATOM     23  O   UNL d   1       5.858  -6.422   6.030  0.00  0.00    -0.531 OA
ENDBRANCH  18  21
ENDBRANCH   1  16
TORSDOF 5
