REMARK  6 active torsions:
REMARK  status: ('A' for Active; 'I' for Inactive)
REMARK    1  A    between atoms: S_10  and  C_1 
REMARK    2  A    between atoms: C_5  and  C_8 
REMARK    3  A    between atoms: C_18  and  S_10 
REMARK    4  A    between atoms: C_11  and  C_18 
REMARK    5  A    between atoms: O_19  and  C_11 
REMARK    6  A    between atoms: C_20  and  O_19 
ROOT
ATOM      1  C   UNL d   1      -2.370   0.004   0.043  0.00  0.00     0.145 A 
ATOM      2  N   UNL d   1      -1.654   1.102   0.021  0.00  0.00    -0.335 N 
ATOM      3  HN  UNL d   1      -1.989   2.065   0.013  1.00  0.00     0.168 HD
ATOM      4  N   UNL d   1      -1.600  -1.123   0.036  0.00  0.00    -0.335 N 
ATOM      5  C   UNL d   1      -0.350   0.663   0.010  0.00  0.00     0.061 A 
ATOM      6  C   UNL d   1      -0.287  -0.728   0.018  0.00  0.00     0.061 A 
ATOM      7  C   UNL d   1       2.075   0.720  -0.025  0.00  0.00     0.050 A 
ATOM      8  C   UNL d   1       0.843   1.402  -0.011  0.00  0.00     0.048 A 
ATOM      9  C   UNL d   1       0.913  -1.442   0.001  0.00  0.00     0.032 A 
ATOM     10  C   UNL d   1       2.092  -0.688  -0.017  0.00  0.00     0.018 A 
ATOM     11  H   UNL d   1      -1.954  -2.068   0.029  0.00  0.00     0.168 HD
ENDROOT
BRANCH   1  12
ATOM     12  S   UNL d   1      -4.091  -0.131   0.056  0.00  0.00    -0.084 SA
BRANCH  12  13
ATOM     13  C   UNL d   1      -4.548   1.391  -0.831  0.00  0.00     0.193 C 
BRANCH  13  14
ATOM     14  C   UNL d   1      -3.985   1.398  -2.236  0.00  0.00     0.268 C 
ATOM     15  O   UNL d   1      -3.769   0.411  -2.928  0.00  0.00    -0.264 OA
BRANCH  14  16
ATOM     16  O   UNL d   1      -3.751   2.687  -2.623  0.00  0.00    -0.321 OA
BRANCH  16  17
ATOM     17  C   UNL d   1      -2.835   2.833  -3.716  0.00  0.00     0.174 C 
ATOM     18  C   UNL d   1      -1.429   2.868  -3.146  0.00  0.00     0.034 C 
ENDBRANCH  16  17
ENDBRANCH  14  16
ENDBRANCH  13  14
ENDBRANCH  12  13
ENDBRANCH   1  12
BRANCH   7  19
ATOM     19  C   UNL d   1       3.377   1.483  -0.048  0.00  0.00     0.417 C 
ATOM     20  F   UNL d   1       3.219   2.836  -0.062  0.00  0.00    -0.166 F 
ATOM     21  F   UNL d   1       4.160   1.210   1.034  0.00  0.00    -0.166 F 
ATOM     22  F   UNL d   1       4.135   1.185  -1.140  0.00  0.00    -0.166 F 
ENDBRANCH   7  19
TORSDOF 6
