REMARK  5 active torsions:
REMARK  status: ('A' for Active; 'I' for Inactive)
REMARK    1  A    between atoms: C_7  and  C_1 
REMARK    2  A    between atoms: C_2  and  C_8 
REMARK    3  A    between atoms: N_19  and  C_7 
REMARK    4  A    between atoms: C_8  and  O_17 
REMARK    5  A    between atoms: O_17  and  N_11 
ROOT
ATOM      1  C   UNL d   1      -2.760  -1.496  -0.578  0.00  0.00     0.127 C 
ATOM      2  N   UNL d   1      -3.988  -1.148  -0.801  0.00  0.00    -0.244 N 
ATOM      3  HN  UNL d   1      -4.790  -1.772  -0.709  1.00  0.00     0.196 HD
ENDROOT
BRANCH   2   4
ATOM      4  O   UNL d   1      -4.068   0.201  -1.186  0.00  0.00    -0.192 OA
BRANCH   4   5
ATOM      5  C   UNL d   1      -5.329   0.463  -1.694  0.00  0.00     0.333 C 
ATOM      6  O   UNL d   1      -6.290  -0.296  -1.641  0.00  0.00    -0.256 OA
BRANCH   5   7
ATOM      7  C   UNL d   1      -5.365   1.717  -2.433  0.00  0.00     0.134 C 
ATOM      8  N   UNL d   1      -4.360   2.611  -2.424  0.00  0.00    -0.255 N 
ATOM      9  O   UNL d   1      -4.648   3.506  -3.441  0.00  0.00    -0.242 OA
ATOM     10  HN  UNL d   1      -3.554   2.626  -1.800  1.00  0.00     0.195 HD
ATOM     11  C   UNL d   1      -5.815   3.149  -4.038  0.00  0.00     0.075 C 
ATOM     12  C   UNL d   1      -6.378   2.109  -3.345  0.00  0.00     0.072 C 
ATOM     13  C   UNL d   1      -6.159   3.834  -5.294  0.00  0.00     0.079 C 
ENDBRANCH   5   7
ENDBRANCH   4   5
ENDBRANCH   2   4
BRANCH   1  14
ATOM     14  C   UNL d   1      -2.528  -2.884  -0.194  0.00  0.00     0.097 A 
ATOM     15  N   UNL d   1      -1.331  -3.307   0.253  0.00  0.00    -0.258 N 
ATOM     16  O   UNL d   1      -1.499  -4.644   0.574  0.00  0.00    -0.242 OA
ATOM     17  HN  UNL d   1      -0.476  -2.756   0.337  1.00  0.00     0.195 HD
ATOM     18  C   UNL d   1      -2.780  -5.016   0.318  0.00  0.00     0.074 A 
ATOM     19  C   UNL d   1      -3.468  -3.946  -0.191  0.00  0.00     0.069 A 
ATOM     20  C   UNL d   1      -3.145  -6.405   0.644  0.00  0.00     0.079 C 
ENDBRANCH   1  14
BRANCH   1  21
ATOM     21  N   UNL d   1      -1.636  -0.723  -0.647  0.00  0.00    -0.285 NA
ATOM     22  H   UNL d   1      -0.845  -1.081  -0.117  0.00  0.00     0.125 HD
ATOM     23  H   UNL d   1      -1.798   0.270  -0.543  0.00  0.00     0.125 HD
ENDBRANCH   1  21
TORSDOF 5
