REMARK  6 active torsions:
REMARK  status: ('A' for Active; 'I' for Inactive)
REMARK       I    between atoms: N_3  and  C_1 
REMARK    1  A    between atoms: C_16  and  C_1 
REMARK    2  A    between atoms: C_2  and  C_15 
REMARK       I    between atoms: N_4  and  C_2 
REMARK    3  A    between atoms: C_12  and  N_3 
REMARK    4  A    between atoms: C_11  and  N_4 
REMARK    5  A    between atoms: C_15  and  C_17 
REMARK    6  A    between atoms: C_17  and  C_16 
ROOT
ATOM      1  C   UNL d   1       3.290  -0.875  -0.141  0.00  0.00     0.019 C 
ENDROOT
BRANCH   1   2
ATOM      2  C   UNL d   1       4.814  -0.736  -0.203  0.00  0.00     0.103 C 
BRANCH   2   3
ATOM      3  C   UNL d   1       5.505  -0.826   1.148  0.00  0.00     0.222 C 
ATOM      4  N   UNL d   1       6.005   0.383   1.589  0.00  0.00    -0.326 N 
ATOM      5  H   UNL d   1       5.718   1.213   1.079  0.00  0.00     0.169 HD
ATOM      6  O   UNL d   1       5.595  -1.899   1.737  0.00  0.00    -0.273 OA
BRANCH   4   7
ATOM      7  C   UNL d   1       6.870   0.583   2.690  0.00  0.00     0.050 A 
ATOM      8  C   UNL d   1       7.471  -0.427   3.437  0.00  0.00     0.117 A 
ATOM      9  N   UNL d   1       8.329  -0.208   4.474  0.00  0.00    -0.373 N 
ATOM     10  C   UNL d   1       8.597   1.077   4.783  0.00  0.00     0.088 A 
ATOM     11  HN  UNL d   1       8.748  -0.980   4.992  1.00  0.00     0.164 HD
ATOM     12  C   UNL d   1       8.055   2.153   4.102  0.00  0.00     0.019 A 
ATOM     13  C   UNL d   1       7.187   1.899   3.040  0.00  0.00     0.032 A 
ENDBRANCH   4   7
ENDBRANCH   2   3
ENDBRANCH   1   2
BRANCH   1  14
ATOM     14  C   UNL d   1       2.496   0.338   0.366  0.00  0.00     0.103 C 
BRANCH  14  15
ATOM     15  C   UNL d   1       2.644   1.555  -0.520  0.00  0.00     0.222 C 
ATOM     16  N   UNL d   1       1.667   2.100  -1.289  0.00  0.00    -0.326 N 
ATOM     17  H   UNL d   1       2.081   2.827  -1.865  0.00  0.00     0.169 HD
ATOM     18  O   UNL d   1       3.757   2.099  -0.587  0.00  0.00    -0.273 OA
BRANCH  16  19
ATOM     19  C   UNL d   1       0.269   1.986  -1.431  0.00  0.00     0.050 A 
ATOM     20  C   UNL d   1      -0.616   1.249  -0.657  0.00  0.00     0.117 A 
ATOM     21  N   UNL d   1      -1.966   1.231  -0.833  0.00  0.00    -0.373 N 
ATOM     22  C   UNL d   1      -2.473   1.995  -1.822  0.00  0.00     0.088 A 
ATOM     23  HN  UNL d   1      -2.570   0.661  -0.241  1.00  0.00     0.164 HD
ATOM     24  C   UNL d   1      -1.690   2.777  -2.648  0.00  0.00     0.019 A 
ATOM     25  C   UNL d   1      -0.310   2.766  -2.445  0.00  0.00     0.032 A 
ENDBRANCH  16  19
ENDBRANCH  14  15
ENDBRANCH   1  14
TORSDOF 6
