REMARK  4 active torsions:
REMARK  status: ('A' for Active; 'I' for Inactive)
REMARK    1  A    between atoms: C_4  and  C_1 
REMARK       I    between atoms: C_2  and  N_6 
REMARK       I    between atoms: N_5  and  C_2 
REMARK    2  A    between atoms: N_3  and  C_4 
REMARK    3  A    between atoms: C_15  and  N_5 
REMARK    4  A    between atoms: N_6  and  C_12 
ROOT
ATOM      1  N   UNL d   1      -1.108   2.950   0.365  0.00  0.00     0.092 N 
ATOM      2  C   UNL d   1      -3.159   3.465  -0.996  0.00  0.00     0.055 C 
ATOM      3  C   UNL d   1      -3.355   3.236   1.502  0.00  0.00     0.055 C 
ATOM      4  C   UNL d   1      -4.085   3.118   0.164  0.00  0.00     0.089 C 
ATOM      5  C   UNL d   1      -1.798   2.781  -0.923  0.00  0.00     0.275 C 
ATOM      6  C   UNL d   1      -1.954   2.626   1.527  0.00  0.00     0.275 C 
ENDROOT
BRANCH   4   7
ATOM      7  N   UNL d   1      -4.862   1.891  -0.064  0.00  0.00    -0.338 N 
ATOM      8  C   UNL d   1      -4.357   0.612  -0.110  0.00  0.00     0.321 C 
ATOM      9  N   UNL d   1      -5.304  -0.298  -0.527  0.00  0.00    -0.309 N 
ATOM     10  O   UNL d   1      -3.206   0.340   0.167  0.00  0.00    -0.247 OA
ATOM     11  H   UNL d   1      -6.111   0.081  -0.998  0.00  0.00     0.170 HD
ATOM     12  H   UNL d   1      -5.864   1.976  -0.004  0.00  0.00     0.164 HD
BRANCH   9  13
ATOM     13  C   UNL d   1      -5.166  -1.705  -0.511  0.00  0.00     0.036 A 
ATOM     14  C   UNL d   1      -4.114  -2.367   0.135  0.00  0.00     0.032 A 
ATOM     15  C   UNL d   1      -4.087  -3.761   0.215  0.00  0.00     0.044 A 
ATOM     16  C   UNL d   1      -5.114  -4.497  -0.356  0.00  0.00     0.116 A 
ATOM     17  C   UNL d   1      -6.147  -3.865  -1.038  0.00  0.00     0.044 A 
ATOM     18  F   UNL d   1      -5.114  -5.831  -0.240  0.00  0.00    -0.206 F 
ATOM     19  C   UNL d   1      -6.172  -2.469  -1.119  0.00  0.00     0.032 A 
ENDBRANCH   9  13
ENDBRANCH   4   7
BRANCH   1  20
ATOM     20  C   UNL d   1       0.092   2.073   0.415  0.00  0.00     0.315 C 
BRANCH  20  21
ATOM     21  C   UNL d   1       1.167   2.414  -0.591  0.00  0.00     0.030 A 
ATOM     22  C   UNL d   1       1.498   1.484  -1.586  0.00  0.00     0.126 A 
ATOM     23  F   UNL d   1       0.865   0.304  -1.643  0.00  0.00    -0.205 F 
ATOM     24  C   UNL d   1       2.484   1.740  -2.538  0.00  0.00     0.043 A 
ATOM     25  C   UNL d   1       3.169   2.950  -2.511  0.00  0.00     0.005 A 
ATOM     26  C   UNL d   1       2.865   3.889  -1.526  0.00  0.00     0.024 A 
ATOM     27  C   UNL d   1       1.878   3.622  -0.569  0.00  0.00     0.045 A 
ATOM     28 CL   UNL d   1       1.603   4.830   0.639  0.00  0.00    -0.084 Cl
ENDBRANCH  20  21
ENDBRANCH   1  20
TORSDOF 4
