REMARK  2 active torsions:
REMARK  status: ('A' for Active; 'I' for Inactive)
REMARK    1  A    between atoms: C_5  and  C_3 
REMARK    2  A    between atoms: O_13  and  C_7 
ROOT
ATOM      1  N   UNL d   1       1.218  -1.331   0.001  0.00  0.00    -0.350 N 
ATOM      2  HN  UNL d   1       1.239  -2.351   0.023  1.00  0.00     0.166 HD
ATOM      3  C   UNL d   1       2.385  -0.633  -0.041  0.00  0.00     0.119 A 
ATOM      4  C   UNL d   1       0.028  -0.684   0.013  0.00  0.00     0.063 A 
ATOM      5  C   UNL d   1      -0.043   0.727  -0.009  0.00  0.00     0.025 A 
ATOM      6  C   UNL d   1       1.184   1.422  -0.015  0.00  0.00     0.080 A 
ATOM      7  C   UNL d   1       2.397   0.751  -0.038  0.00  0.00     0.071 A 
ATOM      8  C   UNL d   1      -1.178  -1.399   0.036  0.00  0.00     0.038 A 
ATOM      9 BR   UNL d   1      -1.179  -3.305   0.096  0.00  0.00    -0.049 Br
ATOM     10  C   UNL d   1      -1.314   1.359  -0.037  0.00  0.00     0.016 A 
ATOM     11  C   UNL d   1      -2.492   0.616  -0.031  0.00  0.00     0.002 A 
ATOM     12  C   UNL d   1      -2.426  -0.767   0.012  0.00  0.00     0.021 A 
ENDROOT
BRANCH   3  13
ATOM     13  C   UNL d   1       3.709  -1.380  -0.113  0.00  0.00     0.432 C 
ATOM     14  F   UNL d   1       3.591  -2.737  -0.141  0.00  0.00    -0.165 F 
ATOM     15  F   UNL d   1       4.432  -1.049  -1.223  0.00  0.00    -0.165 F 
ATOM     16  F   UNL d   1       4.525  -1.101   0.947  0.00  0.00    -0.165 F 
ENDBRANCH   3  13
BRANCH   6  17
ATOM     17  O   UNL d   1       1.288   2.788  -0.009  0.00  0.00    -0.360 OA
ATOM     18  H   UNL d   1       0.429   3.191   0.181  0.00  0.00     0.217 HD
ENDBRANCH   6  17
TORSDOF 2
