REMARK  7 active torsions:
REMARK  status: ('A' for Active; 'I' for Inactive)
REMARK    1  A    between atoms: C_8  and  C_1 
REMARK    2  A    between atoms: C_7  and  C_2 
REMARK    3  A    between atoms: C_9  and  C_3 
REMARK    4  A    between atoms: O_14  and  C_7 
REMARK    5  A    between atoms: O_15  and  C_8 
REMARK    6  A    between atoms: C_23  and  O_14 
REMARK    7  A    between atoms: C_22  and  O_15 
ROOT
ATOM      1  C   UNL d   1       1.303  -0.978   0.086  0.00  0.00     0.052 C 
ATOM      2  C   UNL d   1      -1.265  -0.972   0.119  0.00  0.00     0.052 C 
ATOM      3  C   UNL d   1       0.015  -1.794  -0.077  0.00  0.00     0.100 C 
ATOM      4  C   UNL d   1       1.252   0.377   0.086  0.00  0.00     0.018 C 
ATOM      5  C   UNL d   1      -1.210   0.381   0.104  0.00  0.00     0.018 C 
ATOM      6  N   UNL d   1       0.020   1.013   0.001  0.00  0.00    -0.362 N 
ATOM      7  C   UNL d   1      -2.403   1.298   0.197  0.00  0.00     0.069 C 
ATOM      8  C   UNL d   1       2.427   1.317   0.176  0.00  0.00     0.069 C 
ATOM      9  H   UNL d   1       0.028   2.029   0.025  0.00  0.00     0.165 HD
ENDROOT
BRANCH   3  10
ATOM     10  C   UNL d   1      -0.007  -2.472  -1.458  0.00  0.00    -0.045 A 
ATOM     11  C   UNL d   1      -0.005  -1.705  -2.638  0.00  0.00     0.009 A 
ATOM     12  C   UNL d   1      -0.023  -2.320  -3.890  0.00  0.00     0.019 A 
ATOM     13  C   UNL d   1      -0.041  -3.709  -3.975  0.00  0.00     0.011 A 
ATOM     14  C   UNL d   1      -0.049  -4.487  -2.819  0.00  0.00     0.019 A 
ATOM     15 BR   UNL d   1      -0.057  -4.542  -5.671  0.00  0.00    -0.051 Br
ATOM     16  C   UNL d   1      -0.038  -3.871  -1.565  0.00  0.00     0.009 A 
ENDBRANCH   3  10
BRANCH   2  17
ATOM     17  C   UNL d   1      -2.480  -1.814   0.289  0.00  0.00     0.292 C 
ATOM     18  O   UNL d   1      -2.437  -2.995   0.599  0.00  0.00    -0.259 OA
BRANCH  17  19
ATOM     19  O   UNL d   1      -3.605  -1.135  -0.037  0.00  0.00    -0.318 OA
BRANCH  19  20
ATOM     20  C   UNL d   1      -4.782  -1.924  -0.247  0.00  0.00     0.174 C 
ATOM     21  C   UNL d   1      -4.828  -2.311  -1.713  0.00  0.00     0.034 C 
ENDBRANCH  19  20
ENDBRANCH  17  19
ENDBRANCH   2  17
BRANCH   1  22
ATOM     22  C   UNL d   1       2.575  -1.744   0.148  0.00  0.00     0.292 C 
ATOM     23  O   UNL d   1       3.655  -1.341  -0.259  0.00  0.00    -0.259 OA
BRANCH  22  24
ATOM     24  O   UNL d   1       2.354  -2.977   0.676  0.00  0.00    -0.318 OA
BRANCH  24  25
ATOM     25  C   UNL d   1       3.463  -3.886   0.614  0.00  0.00     0.174 C 
ATOM     26  C   UNL d   1       3.510  -4.548  -0.753  0.00  0.00     0.034 C 
ENDBRANCH  24  25
ENDBRANCH  22  24
ENDBRANCH   1  22
TORSDOF 7
