REMARK  4 active torsions:
REMARK  status: ('A' for Active; 'I' for Inactive)
REMARK    1  A    between atoms: C_2  and  C_1 
REMARK    2  A    between atoms: C_4  and  C_1 
REMARK    3  A    between atoms: O_5  and  C_1 
REMARK    4  A    between atoms: O_6  and  C_2 
ROOT
ATOM      1  C   UNL d   1       0.947  -0.004  -0.016  0.00  0.00     0.166 C 
ATOM      2  C   UNL d   1       2.451  -0.064  -0.297  0.00  0.00     0.063 C 
ENDROOT
BRANCH   1   3
ATOM      3  C   UNL d   1       0.199  -0.026  -1.375  0.00  0.00     0.180 C 
ATOM      4  O   UNL d   1      -0.148  -1.012  -2.009  0.00  0.00    -0.648 OA
BRANCH   3   5
ATOM      5  O   UNL d   1      -0.007   1.240  -1.843  0.00  0.00    -0.774 OA
ATOM      6  H   UNL d   1       0.360   1.877  -1.185  0.00  0.00     0.167 HD
ENDBRANCH   3   5
ENDBRANCH   1   3
BRANCH   1   7
ATOM      7  C   UNL d   1       0.543  -1.113   0.955  0.00  0.00    -0.014 A 
ATOM      8  C   UNL d   1       0.628  -2.463   0.564  0.00  0.00     0.011 A 
ATOM      9  C   UNL d   1       0.355  -3.498   1.462  0.00  0.00     0.001 A 
ATOM     10  C   UNL d   1      -0.015  -3.206   2.770  0.00  0.00     0.000 A 
ATOM     11  C   UNL d   1      -0.111  -1.880   3.181  0.00  0.00     0.001 A 
ATOM     12  C   UNL d   1       0.175  -0.844   2.286  0.00  0.00     0.011 A 
ENDBRANCH   1   7
BRANCH   1  13
ATOM     13  O   UNL d   1       0.670   1.313   0.525  0.00  0.00    -0.374 OA
ATOM     14  H   UNL d   1      -0.239   1.272   0.881  0.00  0.00     0.211 HD
ENDBRANCH   1  13
TORSDOF 4
