REMARK  0 active torsions:
REMARK  status: ('A' for Active; 'I' for Inactive)
ROOT
ATOM      1  C   UNL d   1      -0.246  -0.710  -0.008  0.00  0.00     0.094 A 
ATOM      2  C   UNL d   1      -1.635  -1.145   0.010  0.00  0.00     0.271 C 
ATOM      3  N   UNL d   1      -2.395   0.016   0.042  0.00  0.00    -0.282 N 
ATOM      4  N   UNL d   1      -1.607   1.183  -0.169  0.00  0.00    -0.202 NA
ATOM      5  C   UNL d   1      -0.289   0.681  -0.074  0.00  0.00     0.046 A 
ATOM      6  C   UNL d   1       0.935  -1.410   0.039  0.00  0.00     0.134 A 
ATOM      7  O   UNL d   1      -2.043  -2.288  -0.020  0.00  0.00    -0.266 OA
ATOM      8  F   UNL d   1       0.966  -2.746   0.099  0.00  0.00    -0.205 F 
ATOM      9  C   UNL d   1       2.102   0.719  -0.028  0.00  0.00     0.005 A 
ATOM     10  C   UNL d   1       0.885   1.413  -0.088  0.00  0.00     0.026 A 
ATOM     11  C   UNL d   1       2.126  -0.687   0.031  0.00  0.00     0.043 A 
ATOM     12  H   UNL d   1      -3.366   0.002  -0.253  0.00  0.00     0.184 HD
ATOM     13  H   UNL d   1      -1.768   1.908   0.533  0.00  0.00     0.153 HD
ENDROOT
TORSDOF 0
