REMARK  8 active torsions:
REMARK  status: ('A' for Active; 'I' for Inactive)
REMARK    1  A    between atoms: C_4  and  C_1 
REMARK       I    between atoms: N_9  and  C_4 
REMARK    2  A    between atoms: C_8  and  N_10 
REMARK    3  A    between atoms: N_13  and  C_8 
REMARK    4  A    between atoms: N_10  and  N_9 
REMARK    5  A    between atoms: C_17  and  N_13 
REMARK    6  A    between atoms: C_14  and  C_17 
REMARK    7  A    between atoms: C_18  and  C_14 
REMARK    8  A    between atoms: O_16  and  C_18 
ROOT
ATOM      1  C   UNL d   1       2.280  -2.508   0.321  0.00  0.00     0.287 C 
ATOM      2  N   UNL d   1       3.593  -2.252   0.646  0.00  0.00    -0.262 N 
ATOM      3  O   UNL d   1       1.651  -1.878  -0.526  0.00  0.00    -0.264 OA
ATOM      4  H   UNL d   1       3.988  -2.711   1.464  0.00  0.00     0.190 HD
ENDROOT
BRANCH   2   5
ATOM      5  N   UNL d   1       4.175  -1.052   0.223  0.00  0.00    -0.274 N 
ATOM      6  H   UNL d   1       3.553  -0.402  -0.254  0.00  0.00     0.189 HD
BRANCH   5   7
ATOM      7  C   UNL d   1       5.527  -0.947   0.013  0.00  0.00     0.186 C 
ATOM      8  S   UNL d   1       6.617  -2.210  -0.041  0.00  0.00    -0.040 SA
BRANCH   7   9
ATOM      9  N   UNL d   1       6.009   0.334  -0.064  0.00  0.00    -0.366 N 
ATOM     10  H   UNL d   1       7.017   0.381  -0.167  0.00  0.00     0.161 HD
BRANCH   9  11
ATOM     11  C   UNL d   1       5.350   1.508   0.498  0.00  0.00     0.124 C 
BRANCH  11  12
ATOM     12  C   UNL d   1       5.223   1.412   2.022  0.00  0.00     0.046 C 
BRANCH  12  13
ATOM     13  C   UNL d   1       4.516   2.620   2.617  0.00  0.00     0.168 C 
BRANCH  13  14
ATOM     14  O   UNL d   1       3.222   2.731   2.029  0.00  0.00    -0.396 OA
ATOM     15  C   UNL d   1       2.514   3.861   2.517  0.00  0.00     0.201 C 
ENDBRANCH  13  14
ENDBRANCH  12  13
ENDBRANCH  11  12
ENDBRANCH   9  11
ENDBRANCH   7   9
ENDBRANCH   5   7
ENDBRANCH   2   5
BRANCH   1  16
ATOM     16  C   UNL d   1       1.692  -3.590   1.119  0.00  0.00     0.109 A 
ATOM     17  N   UNL d   1       2.378  -4.179   2.190  0.00  0.00    -0.349 N 
ATOM     18  C   UNL d   1       1.621  -5.102   2.751  0.00  0.00     0.047 A 
ATOM     19  HN  UNL d   1       3.320  -3.931   2.491  1.00  0.00     0.166 HD
ATOM     20  C   UNL d   1       2.026  -5.933   3.923  0.00  0.00     0.076 C 
ATOM     21  S   UNL d   1       0.071  -5.321   2.048  0.00  0.00    -0.087 SA
ATOM     22  C   UNL d   1       0.423  -4.094   0.910  0.00  0.00     0.086 A 
ENDBRANCH   1  16
TORSDOF 8
