REMARK  3 active torsions:
REMARK  status: ('A' for Active; 'I' for Inactive)
REMARK    1  A    between atoms: C_3  and  S_1 
REMARK    2  A    between atoms: N_9  and  S_1 
REMARK    3  A    between atoms: N_2  and  C_6 
ROOT
ATOM      1  C   UNL d   1       0.549  -1.206  -1.230  0.00  0.00     0.074 A 
ATOM      2  C   UNL d   1      -0.191  -3.140  -3.116  0.00  0.00     0.038 A 
ATOM      3  C   UNL d   1       0.956  -2.528  -1.062  0.00  0.00     0.027 A 
ATOM      4  C   UNL d   1      -0.245  -0.838  -2.314  0.00  0.00     0.027 A 
ATOM      5  C   UNL d   1       0.590  -3.491  -2.003  0.00  0.00     0.031 A 
ATOM      6  C   UNL d   1      -0.606  -1.805  -3.261  0.00  0.00     0.031 A 
ENDROOT
BRANCH   1   7
ATOM      7  S   UNL d   1       1.025  -0.014  -0.011  0.00  0.00     0.239 S 
ATOM      8  O   UNL d   1       1.327  -0.698   1.223  0.00  0.00    -0.206 OA
ATOM      9  O   UNL d   1       0.137   1.119  -0.076  0.00  0.00    -0.206 OA
BRANCH   7  10
ATOM     10  N   UNL d   1       2.501   0.510  -0.619  0.00  0.00    -0.225 NA
ATOM     11  H   UNL d   1       3.270   0.086  -0.095  0.00  0.00     0.136 HD
ATOM     12  H   UNL d   1       2.523   1.526  -0.633  0.00  0.00     0.136 HD
ENDBRANCH   7  10
ENDBRANCH   1   7
BRANCH   2  13
ATOM     13  N   UNL d   1      -0.560  -4.136  -4.075  0.00  0.00    -0.333 N 
ATOM     14  C   UNL d   1      -1.221  -3.928  -5.272  0.00  0.00     0.096 A 
ATOM     15  C   UNL d   1      -1.417  -5.138  -5.903  0.00  0.00     0.019 A 
ATOM     16  C   UNL d   1      -0.853  -6.132  -5.083  0.00  0.00     0.019 A 
ATOM     17  C   UNL d   1      -0.324  -5.495  -3.982  0.00  0.00     0.096 A 
ENDBRANCH   2  13
TORSDOF 3
