REMARK  2 active torsions:
REMARK  status: ('A' for Active; 'I' for Inactive)
REMARK    1  A    between atoms: C_13  and  N_4 
REMARK    2  A    between atoms: C_14  and  C_7 
ROOT
ATOM      1  C   UNL d   1      -0.379   0.593   0.087  0.00  0.00     0.139 A 
ATOM      2  C   UNL d   1      -0.107  -0.786   0.006  0.00  0.00     0.058 A 
ATOM      3  C   UNL d   1       0.661   1.602   0.026  0.00  0.00     0.296 A 
ATOM      4  N   UNL d   1       1.959   1.035  -0.061  0.00  0.00    -0.218 N 
ATOM      5  N   UNL d   1       2.204  -0.343  -0.227  0.00  0.00    -0.289 N 
ATOM      6  HN  UNL d   1       3.164  -0.659  -0.364  1.00  0.00     0.188 HD
ATOM      7  C   UNL d   1       1.246  -1.230  -0.210  0.00  0.00     0.074 A 
ATOM      8  N   UNL d   1      -1.680   0.841   0.264  0.00  0.00    -0.255 N 
ATOM      9  HN  UNL d   1      -2.136   1.752   0.315  1.00  0.00     0.195 HD
ATOM     10  O   UNL d   1      -2.275  -0.400   0.363  0.00  0.00    -0.241 OA
ATOM     11  C   UNL d   1      -1.328  -1.378   0.249  0.00  0.00     0.087 A 
ATOM     12  O   UNL d   1       0.392   2.800   0.046  0.00  0.00    -0.264 OA
ATOM     13  C   UNL d   1      -1.856  -2.743   0.436  0.00  0.00     0.080 C 
ENDROOT
BRANCH   4  14
ATOM     14  C   UNL d   1       3.159   1.828   0.004  0.00  0.00     0.060 A 
ATOM     15  C   UNL d   1       3.175   3.117   0.561  0.00  0.00     0.031 A 
ATOM     16  C   UNL d   1       4.352   3.872   0.622  0.00  0.00     0.002 A 
ATOM     17  C   UNL d   1       5.541   3.354   0.123  0.00  0.00     0.000 A 
ATOM     18  C   UNL d   1       5.555   2.073  -0.422  0.00  0.00     0.002 A 
ATOM     19  C   UNL d   1       4.379   1.315  -0.469  0.00  0.00     0.031 A 
ENDBRANCH   4  14
BRANCH   7  20
ATOM     20  C   UNL d   1       1.599  -2.662  -0.398  0.00  0.00    -0.007 A 
ATOM     21  C   UNL d   1       0.809  -3.533  -1.153  0.00  0.00     0.014 A 
ATOM     22  C   UNL d   1       1.159  -4.881  -1.268  0.00  0.00     0.001 A 
ATOM     23  C   UNL d   1       2.330  -5.353  -0.675  0.00  0.00     0.000 A 
ATOM     24  C   UNL d   1       3.158  -4.476   0.023  0.00  0.00     0.001 A 
ATOM     25  C   UNL d   1       2.795  -3.134   0.163  0.00  0.00     0.014 A 
ENDBRANCH   7  20
TORSDOF 2
