REMARK  6 active torsions:
REMARK  status: ('A' for Active; 'I' for Inactive)
REMARK    1  A    between atoms: C_2  and  N_1 
REMARK       I    between atoms: C_3  and  N_1 
REMARK    2  A    between atoms: N_5  and  C_2 
REMARK    3  A    between atoms: C_8  and  C_3 
REMARK    4  A    between atoms: C_4  and  C_6 
REMARK    5  A    between atoms: C_20  and  N_5 
REMARK    6  A    between atoms: C_21  and  C_10 
ROOT
ATOM      1  N   UNL d   1       0.920   0.768   0.117  0.00  0.00    -0.299 N 
ATOM      2  C   UNL d   1       0.640   0.740  -1.249  0.00  0.00     0.257 C 
ATOM      3  O   UNL d   1       0.069  -0.172  -1.827  0.00  0.00    -0.267 OA
ATOM      4  H   UNL d   1       1.409   1.567   0.476  0.00  0.00     0.171 HD
ENDROOT
BRANCH   1   5
ATOM      5  C   UNL d   1       0.390  -0.001   1.139  0.00  0.00     0.179 C 
ATOM      6  S   UNL d   1      -0.976  -0.956   1.094  0.00  0.00    -0.040 SA
BRANCH   5   7
ATOM      7  N   UNL d   1       1.034   0.152   2.345  0.00  0.00    -0.333 N 
ATOM      8  H   UNL d   1       0.481  -0.151   3.146  0.00  0.00     0.168 HD
BRANCH   7   9
ATOM      9  C   UNL d   1       2.421   0.254   2.596  0.00  0.00     0.034 A 
ATOM     10  C   UNL d   1       2.814   0.591   3.891  0.00  0.00     0.030 A 
ATOM     11  C   UNL d   1       4.163   0.576   4.254  0.00  0.00     0.010 A 
ATOM     12  C   UNL d   1       5.149   0.190   3.334  0.00  0.00    -0.055 A 
ATOM     13  C   UNL d   1       4.749  -0.118   2.027  0.00  0.00     0.010 A 
ATOM     14  C   UNL d   1       3.398  -0.079   1.655  0.00  0.00     0.030 A 
BRANCH  12  15
ATOM     15  C   UNL d   1       6.604   0.043   3.749  0.00  0.00     0.010 C 
ATOM     16  C   UNL d   1       7.217   1.377   4.179  0.00  0.00     0.015 C 
ATOM     17  C   UNL d   1       6.766  -1.004   4.857  0.00  0.00     0.015 C 
ENDBRANCH  12  15
ENDBRANCH   7   9
ENDBRANCH   5   7
ENDBRANCH   1   5
BRANCH   2  18
ATOM     18  C   UNL d   1       1.173   1.873  -2.066  0.00  0.00     0.032 A 
ATOM     19  C   UNL d   1       2.231   2.690  -1.649  0.00  0.00     0.018 A 
ATOM     20  C   UNL d   1       2.741   3.673  -2.505  0.00  0.00     0.017 A 
ATOM     21  C   UNL d   1       2.212   3.850  -3.794  0.00  0.00     0.048 A 
ATOM     22  C   UNL d   1       1.137   3.049  -4.198  0.00  0.00     0.017 A 
ATOM     23  C   UNL d   1       0.622   2.071  -3.341  0.00  0.00     0.018 A 
BRANCH  21  24
ATOM     24  C   UNL d   1       2.834   4.862  -4.729  0.00  0.00     0.417 C 
ATOM     25  F   UNL d   1       2.257   4.897  -5.961  0.00  0.00    -0.166 F 
ATOM     26  F   UNL d   1       2.764   6.131  -4.242  0.00  0.00    -0.166 F 
ATOM     27  F   UNL d   1       4.157   4.617  -4.942  0.00  0.00    -0.166 F 
ENDBRANCH  21  24
ENDBRANCH   2  18
TORSDOF 6
