REMARK  6 active torsions:
REMARK  status: ('A' for Active; 'I' for Inactive)
REMARK    1  A    between atoms: C_6  and  N_1 
REMARK    2  A    between atoms: C_7  and  N_1 
REMARK    3  A    between atoms: C_2  and  C_3 
REMARK    4  A    between atoms: C_3  and  C_6 
REMARK    5  A    between atoms: O_4  and  C_3 
REMARK    6  A    between atoms: C_5  and  C_7 
ROOT
ATOM      1  C   UNL d   1       0.497   0.566   1.160  0.00  0.00     0.306 C 
ENDROOT
BRANCH   1   2
ATOM      2  C   UNL d   1      -1.023   0.310   1.365  0.00  0.00     0.179 C 
BRANCH   2   3
ATOM      3  C   UNL d   1      -1.502  -1.102   1.082  0.00  0.00    -0.028 A 
ATOM      4  C   UNL d   1      -0.749  -2.232   1.430  0.00  0.00     0.010 A 
ATOM      5  C   UNL d   1      -1.227  -3.517   1.163  0.00  0.00     0.001 A 
ATOM      6  C   UNL d   1      -2.471  -3.691   0.563  0.00  0.00     0.000 A 
ATOM      7  C   UNL d   1      -3.243  -2.580   0.234  0.00  0.00     0.001 A 
ATOM      8  C   UNL d   1      -2.764  -1.295   0.494  0.00  0.00     0.010 A 
ENDBRANCH   2   3
BRANCH   2   9
ATOM      9  O   UNL d   1      -1.359   0.659   2.713  0.00  0.00    -0.389 OA
ATOM     10  H   UNL d   1      -1.705  -0.138   3.150  0.00  0.00     0.210 HD
ENDBRANCH   2   9
ENDBRANCH   1   2
BRANCH   1  11
ATOM     11  N   UNL d   1       1.080   0.190  -0.135  0.00  0.00     0.090 N 
ATOM     12  H   UNL d   1       0.907  -0.798  -0.317  0.00  0.00     0.316 HD
BRANCH  11  13
ATOM     13  C   UNL d   1       0.528   0.967  -1.240  0.00  0.00     0.308 C 
BRANCH  13  14
ATOM     14  C   UNL d   1       1.125   0.524  -2.554  0.00  0.00    -0.030 A 
ATOM     15  C   UNL d   1       0.521  -0.498  -3.301  0.00  0.00     0.009 A 
ATOM     16  C   UNL d   1       1.075  -0.908  -4.514  0.00  0.00     0.001 A 
ATOM     17  C   UNL d   1       2.244  -0.312  -4.985  0.00  0.00     0.000 A 
ATOM     18  C   UNL d   1       2.864   0.689  -4.241  0.00  0.00     0.001 A 
ATOM     19  C   UNL d   1       2.311   1.102  -3.026  0.00  0.00     0.009 A 
ENDBRANCH  13  14
ENDBRANCH  11  13
ENDBRANCH   1  11
TORSDOF 6
