REMARK  3 active torsions:
REMARK  status: ('A' for Active; 'I' for Inactive)
REMARK       I    between atoms: N_6  and  C_1 
REMARK       I    between atoms: N_7  and  C_1 
REMARK    1  A    between atoms: C_2  and  C_9 
REMARK    2  A    between atoms: C_11  and  N_6 
REMARK    3  A    between atoms: C_9  and  N_7 
ROOT
ATOM      1  C   UNL d   1       0.810  -0.074  -0.110  0.00  0.00     0.321 C 
ATOM      2  N   UNL d   1       2.168   0.050  -0.320  0.00  0.00    -0.309 N 
ATOM      3  N   UNL d   1       0.124   1.059  -0.480  0.00  0.00    -0.338 N 
ATOM      4  O   UNL d   1       0.238  -1.038   0.378  0.00  0.00    -0.247 OA
ATOM      5  H   UNL d   1       2.503   0.969  -0.560  0.00  0.00     0.170 HD
ATOM      6  H   UNL d   1       0.596   1.820  -0.940  0.00  0.00     0.164 HD
ENDROOT
BRANCH   2   7
ATOM      7  C   UNL d   1       3.149  -0.925  -0.031  0.00  0.00     0.036 A 
ATOM      8  C   UNL d   1       2.848  -2.257   0.265  0.00  0.00     0.029 A 
ATOM      9  C   UNL d   1       3.861  -3.165   0.584  0.00  0.00     0.002 A 
ATOM     10  C   UNL d   1       5.190  -2.753   0.605  0.00  0.00     0.000 A 
ATOM     11  C   UNL d   1       5.507  -1.434   0.286  0.00  0.00     0.002 A 
ATOM     12  C   UNL d   1       4.493  -0.526  -0.040  0.00  0.00     0.029 A 
ENDBRANCH   2   7
BRANCH   3  13
ATOM     13  C   UNL d   1      -1.299   1.186  -0.246  0.00  0.00     0.171 C 
BRANCH  13  14
ATOM     14  C   UNL d   1      -2.010   1.376  -1.553  0.00  0.00     0.006 A 
ATOM     15  C   UNL d   1      -2.636   0.431  -2.359  0.00  0.00    -0.047 A 
ATOM     16  C   UNL d   1      -3.256   1.053  -3.495  0.00  0.00     0.015 A 
ATOM     17  C   UNL d   1      -2.707  -1.041  -2.106  0.00  0.00     0.049 C 
ATOM     18  C   UNL d   1      -3.072   2.416  -3.524  0.00  0.00     0.051 A 
ATOM     19  S   UNL d   1      -2.156   2.963  -2.196  0.00  0.00    -0.104 SA
ENDBRANCH  13  14
ENDBRANCH   3  13
TORSDOF 3
