REMARK  7 active torsions:
REMARK  status: ('A' for Active; 'I' for Inactive)
REMARK    1  A    between atoms: C_5  and  C_1 
REMARK    2  A    between atoms: N_20  and  C_4 
REMARK       I    between atoms: C_6  and  N_21 
REMARK    3  A    between atoms: C_9  and  C_6 
REMARK    4  A    between atoms: C_10  and  C_11 
REMARK    5  A    between atoms: C_28  and  N_20 
REMARK    6  A    between atoms: N_21  and  C_27 
REMARK    7  A    between atoms: C_27  and  C_28 
ROOT
ATOM      1  C   UNL d   1      -2.010   2.400  -7.540  0.00  0.00     0.143 C 
ENDROOT
BRANCH   1   2
ATOM      2  N   UNL d   1      -1.732   3.775  -7.145  0.00  0.00    -0.355 N 
ATOM      3  C   UNL d   1      -2.086   4.867  -7.912  0.00  0.00     0.251 C 
ATOM      4  O   UNL d   1      -2.598   4.780  -9.020  0.00  0.00    -0.268 OA
ATOM      5  H   UNL d   1      -1.198   3.913  -6.299  0.00  0.00     0.162 HD
BRANCH   3   6
ATOM      6  C   UNL d   1      -1.780   6.207  -7.325  0.00  0.00     0.032 A 
ATOM      7  C   UNL d   1      -1.546   7.287  -8.177  0.00  0.00     0.017 A 
ATOM      8  C   UNL d   1      -1.238   8.550  -7.652  0.00  0.00     0.009 A 
ATOM      9  C   UNL d   1      -1.167   8.774  -6.263  0.00  0.00    -0.051 A 
ATOM     10  C   UNL d   1      -1.440   7.681  -5.424  0.00  0.00     0.009 A 
ATOM     11  C   UNL d   1      -1.747   6.416  -5.943  0.00  0.00     0.017 A 
BRANCH   9  12
ATOM     12  C   UNL d   1      -0.796  10.165  -5.714  0.00  0.00    -0.024 C 
ATOM     13  C   UNL d   1      -0.792  10.244  -4.170  0.00  0.00     0.019 C 
ATOM     14  C   UNL d   1       0.622  10.544  -6.192  0.00  0.00     0.019 C 
ATOM     15  C   UNL d   1      -1.800  11.223  -6.219  0.00  0.00     0.019 C 
ENDBRANCH   9  12
ENDBRANCH   3   6
ENDBRANCH   1   2
BRANCH   1  16
ATOM     16  C   UNL d   1      -0.725   1.611  -7.821  0.00  0.00     0.157 C 
BRANCH  16  17
ATOM     17  N   UNL d   1      -0.966   0.218  -8.135  0.00  0.00    -0.224 N 
ATOM     18  H   UNL d   1      -1.445  -0.018  -8.993  0.00  0.00     0.177 HD
BRANCH  17  19
ATOM     19  C   UNL d   1      -1.203  -0.704  -7.149  0.00  0.00     0.678 A 
ATOM     20  N   UNL d   1      -1.581  -1.917  -7.565  0.00  0.00    -0.187 N 
ATOM     21  C   UNL d   1      -1.743  -2.896  -6.634  0.00  0.00     0.133 A 
ATOM     22  HN  UNL d   1      -1.743  -2.104  -8.555  1.00  0.00     0.184 HD
ATOM     23  C   UNL d   1      -1.570  -2.648  -5.285  0.00  0.00     0.052 A 
ATOM     24  C   UNL d   1      -1.214  -1.366  -4.954  0.00  0.00     0.108 A 
ATOM     25  N   UNL d   1      -1.023  -0.390  -5.859  0.00  0.00    -0.202 N 
ATOM     26  HN  UNL d   1      -0.751   0.552  -5.576  1.00  0.00     0.183 HD
BRANCH  21  27
ATOM     27  C   UNL d   1      -2.086  -4.307  -7.078  0.00  0.00     0.433 C 
ATOM     28  F   UNL d   1      -2.271  -4.451  -8.420  0.00  0.00    -0.165 F 
ATOM     29  F   UNL d   1      -3.229  -4.772  -6.493  0.00  0.00    -0.165 F 
ATOM     30  F   UNL d   1      -1.116  -5.206  -6.738  0.00  0.00    -0.165 F 
ENDBRANCH  21  27
ENDBRANCH  17  19
ENDBRANCH  16  17
ENDBRANCH   1  16
TORSDOF 7
