REMARK  2 active torsions:
REMARK  status: ('A' for Active; 'I' for Inactive)
REMARK    1  A    between atoms: C_10  and  C_1 
REMARK    2  A    between atoms: C_9  and  C_2 
ROOT
ATOM      1  C   UNL d   1      -0.657   1.304   0.018  0.00  0.00    -0.004 A 
ATOM      2  C   UNL d   1      -0.691  -1.253   0.014  0.00  0.00    -0.004 A 
ATOM      3  C   UNL d   1      -1.434   0.034   0.132  0.00  0.00     0.184 A 
ATOM      4  C   UNL d   1       0.679   1.264  -0.086  0.00  0.00     0.066 A 
ATOM      5  C   UNL d   1       0.645  -1.250  -0.089  0.00  0.00     0.066 A 
ATOM      6  C   UNL d   1       1.426  -0.003  -0.120  0.00  0.00     0.173 A 
ATOM      7  O   UNL d   1      -2.644   0.051   0.324  0.00  0.00    -0.287 OA
ATOM      8  O   UNL d   1       2.648  -0.019  -0.176  0.00  0.00    -0.288 OA
ENDROOT
BRANCH   1   9
ATOM      9  C   UNL d   1      -1.424   2.598   0.085  0.00  0.00     0.038 C 
ATOM     10  C   UNL d   1      -2.256   2.865  -1.163  0.00  0.00     0.010 C 
ENDBRANCH   1   9
BRANCH   2  11
ATOM     11  C   UNL d   1      -1.493  -2.527   0.077  0.00  0.00     0.038 C 
ATOM     12  C   UNL d   1      -2.332  -2.767  -1.172  0.00  0.00     0.010 C 
ENDBRANCH   2  11
TORSDOF 2
