REMARK  5 active torsions:
REMARK  status: ('A' for Active; 'I' for Inactive)
REMARK    1  A    between atoms: C_7  and  C_1 
REMARK    2  A    between atoms: O_16  and  C_2 
REMARK    3  A    between atoms: C_6  and  C_12 
REMARK    4  A    between atoms: O_14  and  C_7 
REMARK    5  A    between atoms: N_8  and  O_14 
ROOT
ATOM      1  N   UNL d   1      -3.357   4.626  -0.081  0.00  0.00    -0.268 N 
ATOM      2  HN  UNL d   1      -4.345   4.381  -0.015  1.00  0.00     0.194 HD
ATOM      3  C   UNL d   1      -2.896   5.832  -0.143  0.00  0.00     0.130 C 
ENDROOT
BRANCH   1   4
ATOM      4  O   UNL d   1      -2.297   3.699  -0.117  0.00  0.00    -0.195 OA
BRANCH   4   5
ATOM      5  C   UNL d   1      -2.787   2.409  -0.017  0.00  0.00     0.318 C 
ATOM      6  O   UNL d   1      -3.971   2.106   0.091  0.00  0.00    -0.257 OA
BRANCH   5   7
ATOM      7  C   UNL d   1      -1.709   1.415  -0.058  0.00  0.00     0.083 A 
ATOM      8  C   UNL d   1      -1.773   0.076   0.492  0.00  0.00     0.113 A 
ATOM      9  C   UNL d   1      -0.588  -0.604   0.282  0.00  0.00     0.108 A 
ATOM     10 CL   UNL d   1      -0.077  -2.189   0.729  0.00  0.00    -0.073 Cl
ATOM     11  S   UNL d   1       0.567   0.316  -0.566  0.00  0.00    -0.086 SA
ATOM     12  C   UNL d   1      -0.482   1.655  -0.655  0.00  0.00     0.072 A 
BRANCH   8  13
ATOM     13  O   UNL d   1      -2.903  -0.323   1.138  0.00  0.00    -0.353 OA
ATOM     14  C   UNL d   1      -2.966  -1.640   1.649  0.00  0.00     0.210 C 
ENDBRANCH   8  13
ENDBRANCH   5   7
ENDBRANCH   4   5
ENDBRANCH   1   4
BRANCH   3  15
ATOM     15  C   UNL d   1      -3.798   6.998  -0.161  0.00  0.00     0.042 A 
ATOM     16  C   UNL d   1      -5.062   6.914   0.431  0.00  0.00     0.129 A 
ATOM     17  F   UNL d   1      -5.449   5.817   1.097  0.00  0.00    -0.205 F 
ATOM     18  C   UNL d   1      -5.955   7.983   0.380  0.00  0.00     0.043 A 
ATOM     19  C   UNL d   1      -5.591   9.161  -0.265  0.00  0.00     0.005 A 
ATOM     20  C   UNL d   1      -4.325   9.268  -0.842  0.00  0.00     0.025 A 
ATOM     21  C   UNL d   1      -3.426   8.194  -0.788  0.00  0.00     0.048 A 
ATOM     22 CL   UNL d   1      -1.890   8.409  -1.551  0.00  0.00    -0.083 Cl
ENDBRANCH   3  15
TORSDOF 5
