REMARK  9 active torsions:
REMARK  status: ('A' for Active; 'I' for Inactive)
REMARK    1  A    between atoms: C_3  and  C_1 
REMARK    2  A    between atoms: O_5  and  C_2 
REMARK    3  A    between atoms: N_6  and  C_3 
REMARK       I    between atoms: C_4  and  N_6 
REMARK    4  A    between atoms: C_12  and  C_4 
REMARK    5  A    between atoms: C_14  and  O_5 
REMARK    6  A    between atoms: C_7  and  C_13 
REMARK    7  A    between atoms: O_16  and  C_7 
REMARK    8  A    between atoms: C_9  and  C_12 
REMARK    9  A    between atoms: C_13  and  C_9 
ROOT
ATOM      1  C   UNL d   1       0.157   1.019  -0.082  0.00  0.00     0.015 A 
ATOM      2  C   UNL d   1      -0.001  -0.012   0.869  0.00  0.00     0.085 A 
ATOM      3  C   UNL d   1       1.203   0.874  -1.024  0.00  0.00     0.044 A 
ATOM      4 CL   UNL d   1       1.541   2.058  -2.243  0.00  0.00    -0.084 Cl
ATOM      5  C   UNL d   1       0.929  -1.068   0.939  0.00  0.00     0.038 A 
ATOM      6  C   UNL d   1       1.927  -1.204  -0.012  0.00  0.00     0.004 A 
ATOM      7  C   UNL d   1       2.053  -0.239  -1.004  0.00  0.00     0.024 A 
ENDROOT
BRANCH   1   8
ATOM      8  C   UNL d   1      -0.717   2.252  -0.069  0.00  0.00     0.165 C 
BRANCH   8   9
ATOM      9  N   UNL d   1      -2.113   2.041  -0.402  0.00  0.00    -0.357 N 
ATOM     10  C   UNL d   1      -2.499   1.619  -1.655  0.00  0.00     0.218 C 
ATOM     11  O   UNL d   1      -1.722   1.247  -2.527  0.00  0.00    -0.274 OA
ATOM     12  H   UNL d   1      -2.776   2.631   0.088  0.00  0.00     0.162 HD
BRANCH  10  13
ATOM     13  C   UNL d   1      -4.003   1.576  -1.862  0.00  0.00     0.112 C 
BRANCH  13  14
ATOM     14  C   UNL d   1      -4.681   0.295  -1.312  0.00  0.00    -0.030 C 
ATOM     15  C   UNL d   1      -6.185   0.343  -1.643  0.00  0.00     0.016 C 
ATOM     16  C   UNL d   1      -4.088  -0.939  -2.033  0.00  0.00     0.016 C 
BRANCH  14  17
ATOM     17  C   UNL d   1      -4.482   0.080   0.206  0.00  0.00     0.119 C 
BRANCH  17  18
ATOM     18  C   UNL d   1      -4.919   1.202   1.131  0.00  0.00     0.140 C 
ATOM     19  O   UNL d   1      -5.339   2.293   0.784  0.00  0.00    -0.650 OA
BRANCH  18  20
ATOM     20  O   UNL d   1      -4.723   0.885   2.434  0.00  0.00    -0.776 OA
ATOM     21  H   UNL d   1      -4.322   0.004   2.567  0.00  0.00     0.167 HD
ENDBRANCH  18  20
ENDBRANCH  17  18
ENDBRANCH  14  17
ENDBRANCH  13  14
ENDBRANCH  10  13
ENDBRANCH   8   9
ENDBRANCH   1   8
BRANCH   2  22
ATOM     22  O   UNL d   1      -1.069   0.049   1.758  0.00  0.00    -0.310 OA
BRANCH  22  23
ATOM     23  C   UNL d   1      -1.596  -1.157   2.187  0.00  0.00     0.076 A 
ATOM     24  C   UNL d   1      -1.888  -1.287   3.547  0.00  0.00     0.037 A 
ATOM     25  C   UNL d   1      -2.335  -2.514   4.043  0.00  0.00     0.003 A 
ATOM     26  C   UNL d   1      -2.502  -3.603   3.185  0.00  0.00     0.000 A 
ATOM     27  C   UNL d   1      -2.271  -3.456   1.819  0.00  0.00     0.003 A 
ATOM     28  C   UNL d   1      -1.848  -2.227   1.317  0.00  0.00     0.037 A 
ENDBRANCH  22  23
ENDBRANCH   2  22
TORSDOF 9
