REMARK  3 active torsions:
REMARK  status: ('A' for Active; 'I' for Inactive)
REMARK    1  A    between atoms: N_10  and  C_3 
REMARK    2  A    between atoms: O_9  and  C_4 
REMARK    3  A    between atoms: C_11  and  O_9 
ROOT
ATOM      1  N   UNL d   1       1.224   0.922  -0.085  0.00  0.00    -0.313 N 
ATOM      2  HN  UNL d   1       2.148   1.353  -0.057  1.00  0.00     0.170 HD
ATOM      3  C   UNL d   1       1.062  -0.398  -0.067  0.00  0.00     0.157 A 
ATOM      4  C   UNL d   1       0.100   1.655  -0.140  0.00  0.00     0.152 A 
ATOM      5  N   UNL d   1      -0.117  -1.022  -0.021  0.00  0.00    -0.337 N 
ATOM      6  HN  UNL d   1      -0.178  -2.039   0.022  1.00  0.00     0.168 HD
ATOM      7  C   UNL d   1      -1.167   1.122  -0.095  0.00  0.00     0.081 A 
ATOM      8  C   UNL d   1      -1.227  -0.253  -0.033  0.00  0.00     0.012 A 
ATOM      9  C   UNL d   1      -2.540  -0.973  -0.007  0.00  0.00     0.068 C 
ENDROOT
BRANCH   4  10
ATOM     10  O   UNL d   1       0.190   3.040  -0.239  0.00  0.00    -0.294 OA
BRANCH  10  11
ATOM     11  C   UNL d   1       1.321   3.573  -0.821  0.00  0.00     0.077 A 
ATOM     12  C   UNL d   1       1.956   3.012  -1.934  0.00  0.00     0.037 A 
ATOM     13  C   UNL d   1       3.100   3.608  -2.463  0.00  0.00     0.003 A 
ATOM     14  C   UNL d   1       3.587   4.791  -1.911  0.00  0.00     0.000 A 
ATOM     15  C   UNL d   1       2.927   5.381  -0.833  0.00  0.00     0.003 A 
ATOM     16  C   UNL d   1       1.792   4.775  -0.290  0.00  0.00     0.037 A 
ENDBRANCH  10  11
ENDBRANCH   4  10
BRANCH   3  17
ATOM     17  N   UNL d   1       2.201  -1.175  -0.092  0.00  0.00    -0.274 NA
ATOM     18  H   UNL d   1       2.981  -0.639   0.261  0.00  0.00     0.127 HD
ATOM     19  H   UNL d   1       2.018  -2.073   0.329  0.00  0.00     0.127 HD
ENDBRANCH   3  17
TORSDOF 3
