REMARK  3 active torsions:
REMARK  status: ('A' for Active; 'I' for Inactive)
REMARK    1  A    between atoms: C_2  and  C_1 
REMARK       I    between atoms: N_3  and  C_2 
REMARK    2  A    between atoms: C_4  and  N_3 
REMARK    3  A    between atoms: O_17  and  C_6 
ROOT
ATOM      1  C   UNL d   1      -1.896  -2.477  -0.237  0.00  0.00     0.259 C 
ATOM      2  N   UNL d   1      -1.146  -3.627  -0.041  0.00  0.00    -0.320 N 
ATOM      3  O   UNL d   1      -3.121  -2.447  -0.335  0.00  0.00    -0.267 OA
ATOM      4  H   UNL d   1      -0.196  -3.525   0.282  0.00  0.00     0.169 HD
ENDROOT
BRANCH   1   5
ATOM      5  C   UNL d   1      -1.196  -1.151  -0.221  0.00  0.00     0.067 A 
ATOM      6  C   UNL d   1      -1.970   0.027  -0.292  0.00  0.00     0.081 A 
ATOM      7  C   UNL d   1      -1.382   1.290  -0.233  0.00  0.00     0.039 A 
ATOM      8  C   UNL d   1      -0.002   1.404  -0.102  0.00  0.00     0.026 A 
ATOM      9  C   UNL d   1       0.778   0.252  -0.050  0.00  0.00     0.035 A 
ATOM     10  C   UNL d   1       0.197  -1.020  -0.118  0.00  0.00     0.043 A 
ATOM     11 CL   UNL d   1       2.486   0.396   0.112  0.00  0.00    -0.084 Cl
BRANCH   6  12
ATOM     12  O   UNL d   1      -3.335   0.033  -0.420  0.00  0.00    -0.360 OA
ATOM     13  H   UNL d   1      -3.642  -0.904  -0.454  0.00  0.00     0.217 HD
ENDBRANCH   6  12
ENDBRANCH   1   5
BRANCH   2  14
ATOM     14  C   UNL d   1      -1.677  -4.942   0.048  0.00  0.00     0.074 A 
ATOM     15  C   UNL d   1      -2.909  -5.356  -0.488  0.00  0.00     0.146 A 
ATOM     16  C   UNL d   1      -3.409  -6.634  -0.251  0.00  0.00     0.086 A 
ATOM     17  F   UNL d   1      -3.616  -4.577  -1.316  0.00  0.00    -0.204 F 
ATOM     18  C   UNL d   1      -2.659  -7.528   0.493  0.00  0.00     0.119 A 
ATOM     19  C   UNL d   1      -1.403  -7.176   0.973  0.00  0.00     0.044 A 
ATOM     20  F   UNL d   1      -3.141  -8.752   0.741  0.00  0.00    -0.206 F 
ATOM     21  C   UNL d   1      -0.907  -5.888   0.742  0.00  0.00     0.036 A 
ENDBRANCH   2  14
TORSDOF 3
