REMARK  5 active torsions:
REMARK  status: ('A' for Active; 'I' for Inactive)
REMARK    1  A    between atoms: C_5  and  C_1 
REMARK    2  A    between atoms: C_2  and  O_11 
REMARK    3  A    between atoms: O_18  and  C_4 
REMARK    4  A    between atoms: C_15  and  N_6 
REMARK    5  A    between atoms: O_11  and  C_17 
ROOT
ATOM      1  C   UNL d   1      -0.222   3.436   0.178  0.00  0.00     0.102 C 
ATOM      2  N   UNL d   1       0.734   4.293   0.011  0.00  0.00    -0.365 N 
ATOM      3  HN  UNL d   1       1.687   3.976  -0.164  1.00  0.00     0.165 HD
ENDROOT
BRANCH   2   4
ATOM      4  C   UNL d   1       0.441   5.665   0.074  0.00  0.00     0.032 A 
ATOM      5  C   UNL d   1      -0.512   6.204   0.949  0.00  0.00     0.032 A 
ATOM      6  C   UNL d   1      -0.725   7.584   1.031  0.00  0.00     0.039 A 
ATOM      7  C   UNL d   1       0.067   8.458   0.294  0.00  0.00     0.078 A 
ATOM      8  C   UNL d   1       1.002   7.928  -0.603  0.00  0.00     0.039 A 
ATOM      9  C   UNL d   1       1.187   6.547  -0.709  0.00  0.00     0.032 A 
BRANCH   7  10
ATOM     10  O   UNL d   1       0.019   9.817   0.340  0.00  0.00    -0.255 OA
BRANCH  10  11
ATOM     11  C   UNL d   1      -0.447  10.463   1.518  0.00  0.00     0.530 C 
ATOM     12  F   UNL d   1      -0.512   9.665   2.604  0.00  0.00    -0.144 F 
ATOM     13  F   UNL d   1       0.399  11.478   1.810  0.00  0.00    -0.144 F 
ATOM     14  F   UNL d   1      -1.669  10.989   1.288  0.00  0.00    -0.144 F 
ENDBRANCH  10  11
ENDBRANCH   7  10
ENDBRANCH   2   4
BRANCH   1  15
ATOM     15  C   UNL d   1       0.024   1.980   0.207  0.00  0.00     0.016 A 
ATOM     16  C   UNL d   1      -1.018   1.104   0.526  0.00  0.00     0.099 A 
ATOM     17  C   UNL d   1      -0.775  -0.272   0.569  0.00  0.00     0.069 A 
ATOM     18 CL   UNL d   1      -2.048  -1.368   0.968  0.00  0.00    -0.081 Cl
ATOM     19  C   UNL d   1       0.495  -0.777   0.298  0.00  0.00     0.050 A 
ATOM     20  C   UNL d   1       1.528   0.105  -0.013  0.00  0.00     0.036 A 
ATOM     21  C   UNL d   1       1.302   1.480  -0.059  0.00  0.00     0.039 A 
ATOM     22 CL   UNL d   1       3.101  -0.512  -0.340  0.00  0.00    -0.084 Cl
BRANCH  16  23
ATOM     23  O   UNL d   1      -2.265   1.600   0.807  0.00  0.00    -0.358 OA
ATOM     24  H   UNL d   1      -2.848   0.844   1.016  0.00  0.00     0.217 HD
ENDBRANCH  16  23
ENDBRANCH   1  15
TORSDOF 5
