REMARK  4 active torsions:
REMARK  status: ('A' for Active; 'I' for Inactive)
REMARK    1  A    between atoms: C_2  and  S_1 
REMARK    2  A    between atoms: N_3  and  S_1 
REMARK    3  A    between atoms: C_14  and  N_3 
REMARK    4  A    between atoms: C_8  and  C_14 
ROOT
ATOM      1  S   UNL d   1       0.977  -0.107   0.064  0.00  0.00     0.241 S 
ATOM      2  O   UNL d   1       0.269  -0.374  -1.170  0.00  0.00    -0.206 OA
ATOM      3  O   UNL d   1       2.417  -0.015   0.120  0.00  0.00    -0.206 OA
ENDROOT
BRANCH   1   4
ATOM      4  C   UNL d   1       0.466  -1.317   1.256  0.00  0.00     0.076 A 
ATOM      5  C   UNL d   1      -0.395  -2.351   0.871  0.00  0.00     0.051 A 
ATOM      6  C   UNL d   1      -0.776  -3.303   1.815  0.00  0.00     0.074 A 
ATOM      7 CL   UNL d   1      -1.831  -4.581   1.348  0.00  0.00    -0.081 Cl
ATOM      8  C   UNL d   1      -0.301  -3.218   3.124  0.00  0.00     0.138 A 
ATOM      9  C   UNL d   1       0.565  -2.194   3.503  0.00  0.00     0.045 A 
ATOM     10  F   UNL d   1      -0.664  -4.124   4.045  0.00  0.00    -0.204 F 
ATOM     11  C   UNL d   1       0.960  -1.242   2.564  0.00  0.00     0.028 A 
ENDBRANCH   1   4
BRANCH   1  12
ATOM     12  N   UNL d   1       0.295   1.306   0.673  0.00  0.00    -0.215 NA
ATOM     13  H   UNL d   1      -0.331   1.713  -0.023  0.00  0.00     0.139 HD
BRANCH  12  14
ATOM     14  C   UNL d   1       1.206   2.256   1.317  0.00  0.00     0.109 C 
BRANCH  14  15
ATOM     15  C   UNL d   1       0.433   3.492   1.659  0.00  0.00    -0.001 A 
ATOM     16  C   UNL d   1      -0.018   4.435   0.570  0.00  0.00     0.006 A 
ATOM     17  C   UNL d   1       1.069   4.853   1.520  0.00  0.00     0.006 A 
ENDBRANCH  14  15
ENDBRANCH  12  14
ENDBRANCH   1  12
TORSDOF 4
