REMARK  1 active torsions:
REMARK  status: ('A' for Active; 'I' for Inactive)
REMARK    1  A    between atoms: C_8  and  C_6 
ROOT
ATOM      1  C   UNL d   1      -1.805  -0.034  -0.026  0.00  0.00     0.057 A 
ATOM      2  S   UNL d   1      -0.973   1.502  -0.057  0.00  0.00    -0.086 SA
ATOM      3  C   UNL d   1      -0.840  -1.178  -0.081  0.00  0.00     0.200 A 
ATOM      4  C   UNL d   1       0.539  -0.679  -0.062  0.00  0.00     0.032 A 
ATOM      5  C   UNL d   1       0.609   0.709  -0.045  0.00  0.00     0.020 A 
ATOM      6  C   UNL d   1      -3.140  -0.117   0.061  0.00  0.00     0.034 C 
ATOM      7  O   UNL d   1      -1.109  -2.366  -0.135  0.00  0.00    -0.286 OA
ATOM      8  C   UNL d   1       1.677  -1.476  -0.046  0.00  0.00     0.017 A 
ATOM      9  C   UNL d   1       1.845   1.340  -0.010  0.00  0.00     0.020 A 
ATOM     10  C   UNL d   1       2.921  -0.845  -0.007  0.00  0.00     0.001 A 
ATOM     11  C   UNL d   1       3.004   0.555   0.011  0.00  0.00     0.001 A 
ENDROOT
BRANCH   6  12
ATOM     12  C   UNL d   1      -3.909  -1.359   0.142  0.00  0.00    -0.035 A 
ATOM     13  C   UNL d   1      -4.131  -1.968   1.384  0.00  0.00     0.013 A 
ATOM     14  C   UNL d   1      -4.891  -3.137   1.467  0.00  0.00     0.024 A 
ATOM     15  C   UNL d   1      -5.426  -3.698   0.309  0.00  0.00     0.034 A 
ATOM     16  C   UNL d   1      -5.198  -3.107  -0.933  0.00  0.00     0.024 A 
ATOM     17 CL   UNL d   1      -6.382  -5.124   0.414  0.00  0.00    -0.084 Cl
ATOM     18  C   UNL d   1      -4.438  -1.937  -1.017  0.00  0.00     0.013 A 
ENDBRANCH   6  12
TORSDOF 1
