REMARK  2 active torsions:
REMARK  status: ('A' for Active; 'I' for Inactive)
REMARK    1  A    between atoms: C_10  and  C_1 
REMARK    2  A    between atoms: C_9  and  C_2 
ROOT
ATOM      1  C   UNL d   1       2.353   0.717  -0.025  0.00  0.00     0.089 A 
ATOM      2  C   UNL d   1       2.362  -0.682   0.045  0.00  0.00     0.089 A 
ATOM      3  N   UNL d   1       1.166   1.412  -0.054  0.00  0.00    -0.351 N 
ATOM      4  HN  UNL d   1       1.153   2.431  -0.085  1.00  0.00     0.166 HD
ATOM      5  N   UNL d   1       1.191  -1.396   0.020  0.00  0.00    -0.351 N 
ATOM      6  HN  UNL d   1       1.196  -2.416   0.028  1.00  0.00     0.166 HD
ATOM      7  C   UNL d   1       0.023   0.702  -0.040  0.00  0.00     0.059 A 
ATOM      8  C   UNL d   1       0.037  -0.708  -0.015  0.00  0.00     0.059 A 
ATOM      9  C   UNL d   1      -1.198   1.365  -0.042  0.00  0.00     0.032 A 
ATOM     10  C   UNL d   1      -1.171  -1.398  -0.012  0.00  0.00     0.032 A 
ATOM     11  C   UNL d   1      -2.406   0.665  -0.027  0.00  0.00     0.002 A 
ATOM     12  C   UNL d   1      -2.392  -0.723  -0.016  0.00  0.00     0.002 A 
ENDROOT
BRANCH   1  13
ATOM     13  C   UNL d   1       3.559   1.568  -0.076  0.00  0.00     0.061 A 
ATOM     14  N   UNL d   1       4.596   1.140  -0.846  0.00  0.00    -0.364 N 
ATOM     15  C   UNL d   1       5.750   1.841  -0.792  0.00  0.00     0.088 A 
ATOM     16  HN  UNL d   1       4.505   0.318  -1.444  1.00  0.00     0.165 HD
ATOM     17  C   UNL d   1       5.914   3.003  -0.060  0.00  0.00     0.017 A 
ATOM     18  C   UNL d   1       4.824   3.487   0.649  0.00  0.00     0.004 A 
ATOM     19  C   UNL d   1       3.633   2.765   0.641  0.00  0.00     0.032 A 
ENDBRANCH   1  13
BRANCH   2  20
ATOM     20  C   UNL d   1       3.574  -1.514   0.218  0.00  0.00     0.061 A 
ATOM     21  N   UNL d   1       4.547  -1.038   1.042  0.00  0.00    -0.364 N 
ATOM     22  C   UNL d   1       5.685  -1.755   1.158  0.00  0.00     0.088 A 
ATOM     23  HN  UNL d   1       4.420  -0.166   1.556  1.00  0.00     0.165 HD
ATOM     24  C   UNL d   1       5.891  -2.979   0.549  0.00  0.00     0.017 A 
ATOM     25  C   UNL d   1       4.867  -3.500  -0.229  0.00  0.00     0.004 A 
ATOM     26  C   UNL d   1       3.698  -2.761  -0.401  0.00  0.00     0.032 A 
ENDBRANCH   2  20
TORSDOF 2
