REMARK  6 active torsions:
REMARK  status: ('A' for Active; 'I' for Inactive)
REMARK    1  A    between atoms: N_2  and  C_1 
REMARK    2  A    between atoms: C_3  and  C_1 
REMARK    3  A    between atoms: C_4  and  C_1 
REMARK    4  A    between atoms: N_6  and  C_1 
REMARK       I    between atoms: C_5  and  N_2 
REMARK    5  A    between atoms: C_9  and  C_5 
REMARK    6  A    between atoms: C_7  and  N_6 
ROOT
ATOM      1  C   UNL d   1       0.923  -0.153  -0.011  0.00  0.00     0.306 C 
ENDROOT
BRANCH   1   2
ATOM      2  N   UNL d   1       0.336  -0.185   1.351  0.00  0.00    -0.315 N 
ATOM      3  C   UNL d   1       0.338   0.881   2.206  0.00  0.00     0.254 C 
ATOM      4  O   UNL d   1       0.729   1.998   1.899  0.00  0.00    -0.268 OA
ATOM      5  H   UNL d   1      -0.018  -1.078   1.671  0.00  0.00     0.165 HD
BRANCH   3   6
ATOM      6  C   UNL d   1      -0.212   0.625   3.557  0.00  0.00     0.032 A 
ATOM      7  C   UNL d   1       0.121  -0.530   4.274  0.00  0.00     0.017 A 
ATOM      8  C   UNL d   1      -0.413  -0.730   5.548  0.00  0.00     0.001 A 
ATOM      9  C   UNL d   1      -1.276   0.219   6.102  0.00  0.00     0.000 A 
ATOM     10  C   UNL d   1      -1.599   1.374   5.390  0.00  0.00     0.001 A 
ATOM     11  C   UNL d   1      -1.061   1.584   4.120  0.00  0.00     0.017 A 
ENDBRANCH   3   6
ENDBRANCH   1   2
BRANCH   1  12
ATOM     12  C   UNL d   1       0.571   1.111  -0.876  0.00  0.00     0.441 C 
ATOM     13  F   UNL d   1      -0.723   1.483  -0.729  0.00  0.00    -0.166 F 
ATOM     14  F   UNL d   1       1.344   2.179  -0.557  0.00  0.00    -0.166 F 
ATOM     15  F   UNL d   1       0.778   0.901  -2.200  0.00  0.00    -0.166 F 
ENDBRANCH   1  12
BRANCH   1  16
ATOM     16  C   UNL d   1       0.336  -1.292  -0.903  0.00  0.00     0.441 C 
ATOM     17  F   UNL d   1       0.071  -2.401  -0.155  0.00  0.00    -0.166 F 
ATOM     18  F   UNL d   1      -0.845  -0.963  -1.474  0.00  0.00    -0.166 F 
ATOM     19  F   UNL d   1       1.174  -1.680  -1.890  0.00  0.00    -0.166 F 
ENDBRANCH   1  16
BRANCH   1  20
ATOM     20  N   UNL d   1       2.404  -0.216   0.210  0.00  0.00    -0.349 N 
ATOM     21  H   UNL d   1       2.768   0.724   0.394  0.00  0.00     0.162 HD
BRANCH  20  22
ATOM     22  C   UNL d   1       3.173  -1.202   0.797  0.00  0.00     0.033 A 
ATOM     23  C   UNL d   1       2.701  -2.431   1.253  0.00  0.00     0.071 A 
ATOM     24  C   UNL d   1       3.578  -3.390   1.764  0.00  0.00     0.118 A 
ATOM     25  F   UNL d   1       3.080  -4.550   2.216  0.00  0.00    -0.206 F 
ATOM     26  C   UNL d   1       4.944  -3.169   1.815  0.00  0.00     0.042 A 
ATOM     27  C   UNL d   1       5.444  -1.965   1.343  0.00  0.00     0.005 A 
ATOM     28  C   UNL d   1       4.565  -1.000   0.836  0.00  0.00     0.029 A 
ENDBRANCH  20  22
ENDBRANCH   1  20
TORSDOF 6
