REMARK  1 active torsions:
REMARK  status: ('A' for Active; 'I' for Inactive)
REMARK    1  A    between atoms: C_7  and  C_2 
ROOT
ATOM      1  C   UNL d   1       0.031  -0.732  -0.094  0.00  0.00     0.024 C 
ATOM      2  C   UNL d   1      -1.281  -1.481   0.069  0.00  0.00     0.103 C 
ATOM      3  C   UNL d   1      -2.510  -0.569  -0.000  0.00  0.00     0.057 C 
ATOM      4  C   UNL d   1       0.074   0.617  -0.109  0.00  0.00     0.020 C 
ATOM      5  N   UNL d   1      -1.100   1.345  -0.024  0.00  0.00    -0.362 N 
ATOM      6  C   UNL d   1      -2.366   0.775  -0.019  0.00  0.00     0.023 C 
ATOM      7  C   UNL d   1      -3.797  -1.189  -0.018  0.00  0.00     0.098 C 
ATOM      8  C   UNL d   1       1.275  -1.530  -0.290  0.00  0.00     0.158 C 
ATOM      9  N   UNL d   1      -4.849  -1.683  -0.043  0.00  0.00    -0.192 NA
ATOM     10  O   UNL d   1       1.234  -2.757  -0.349  0.00  0.00    -0.293 OA
ATOM     11  C   UNL d   1       1.369   1.389  -0.189  0.00  0.00     0.058 C 
ATOM     12  C   UNL d   1      -3.548   1.712  -0.018  0.00  0.00     0.069 C 
ATOM     13  C   UNL d   1       2.568  -0.787  -0.531  0.00  0.00     0.084 C 
ATOM     14  C   UNL d   1       2.576   0.542   0.203  0.00  0.00     0.014 C 
ATOM     15  H   UNL d   1      -1.036   2.359  -0.083  0.00  0.00     0.165 HD
ENDROOT
BRANCH   2  16
ATOM     16  C   UNL d   1      -1.299  -2.273   1.374  0.00  0.00    -0.044 A 
ATOM     17  C   UNL d   1      -1.456  -3.665   1.331  0.00  0.00     0.018 A 
ATOM     18  C   UNL d   1      -1.509  -4.415   2.510  0.00  0.00    -0.024 A 
ATOM     19  C   UNL d   1      -1.681  -5.901   2.429  0.00  0.00     0.044 C 
ATOM     20  C   UNL d   1      -1.368  -3.767   3.739  0.00  0.00     0.076 A 
ATOM     21  C   UNL d   1      -2.139  -6.440   3.773  0.00  0.00     0.042 C 
ATOM     22  C   UNL d   1      -1.305  -5.844   4.917  0.00  0.00     0.061 C 
ATOM     23  O   UNL d   1      -1.385  -4.409   4.947  0.00  0.00    -0.340 OA
ATOM     24  C   UNL d   1      -1.895  -6.314   6.253  0.00  0.00     0.046 C 
ATOM     25  C   UNL d   1       0.173  -6.259   4.853  0.00  0.00     0.046 C 
ATOM     26  C   UNL d   1      -1.219  -2.383   3.795  0.00  0.00     0.038 A 
ATOM     27  C   UNL d   1      -1.185  -1.636   2.620  0.00  0.00     0.011 A 
ENDBRANCH   2  16
TORSDOF 1
