REMARK  5 active torsions:
REMARK  status: ('A' for Active; 'I' for Inactive)
REMARK    1  A    between atoms: C_7  and  C_2 
REMARK    2  A    between atoms: O_20  and  C_12 
REMARK    3  A    between atoms: O_15  and  C_13 
REMARK    4  A    between atoms: C_19  and  O_15 
REMARK    5  A    between atoms: C_22  and  C_19 
ROOT
ATOM      1  C   UNL d   1       0.035  -0.740  -0.152  0.00  0.00     0.024 C 
ATOM      2  C   UNL d   1      -1.283  -1.482  -0.013  0.00  0.00     0.103 C 
ATOM      3  C   UNL d   1      -2.515  -0.578  -0.111  0.00  0.00     0.057 C 
ATOM      4  C   UNL d   1       0.082   0.609  -0.153  0.00  0.00     0.020 C 
ATOM      5  N   UNL d   1      -1.096   1.335  -0.081  0.00  0.00    -0.362 N 
ATOM      6  C   UNL d   1      -2.363   0.767  -0.094  0.00  0.00     0.023 C 
ATOM      7  C   UNL d   1      -3.808  -1.196  -0.141  0.00  0.00     0.098 C 
ATOM      8  C   UNL d   1       1.284  -1.543  -0.305  0.00  0.00     0.158 C 
ATOM      9  N   UNL d   1      -4.857  -1.681  -0.181  0.00  0.00    -0.192 NA
ATOM     10  O   UNL d   1       1.244  -2.771  -0.331  0.00  0.00    -0.293 OA
ATOM     11  C   UNL d   1       1.381   1.375  -0.195  0.00  0.00     0.058 C 
ATOM     12  C   UNL d   1      -3.542   1.705  -0.048  0.00  0.00     0.069 C 
ATOM     13  C   UNL d   1       2.582  -0.803  -0.535  0.00  0.00     0.084 C 
ATOM     14  C   UNL d   1       2.582   0.520   0.209  0.00  0.00     0.014 C 
ATOM     15  H   UNL d   1      -1.029   2.348  -0.110  0.00  0.00     0.165 HD
ENDROOT
BRANCH   2  16
ATOM     16  C   UNL d   1      -1.338  -2.226   1.315  0.00  0.00    -0.041 A 
ATOM     17  C   UNL d   1      -1.247  -1.536   2.542  0.00  0.00     0.047 A 
ATOM     18  C   UNL d   1      -1.342  -2.212   3.759  0.00  0.00     0.102 A 
ATOM     19  C   UNL d   1      -1.487  -3.610   3.738  0.00  0.00     0.102 A 
ATOM     20  C   UNL d   1      -1.624  -4.284   2.516  0.00  0.00     0.040 A 
ATOM     21  C   UNL d   1      -1.535  -3.604   1.313  0.00  0.00     0.011 A 
BRANCH  18  22
ATOM     22  O   UNL d   1      -1.234  -1.582   4.974  0.00  0.00    -0.353 OA
ATOM     23  C   UNL d   1      -1.674  -0.224   5.019  0.00  0.00     0.210 C 
ENDBRANCH  18  22
BRANCH  19  24
ATOM     24  O   UNL d   1      -1.496  -4.281   4.937  0.00  0.00    -0.344 OA
BRANCH  24  25
ATOM     25  C   UNL d   1      -1.101  -5.653   4.831  0.00  0.00     0.214 C 
BRANCH  25  26
ATOM     26  C   UNL d   1      -0.630  -6.146   6.167  0.00  0.00    -0.034 A 
ATOM     27  C   UNL d   1      -1.202  -7.278   6.758  0.00  0.00     0.009 A 
ATOM     28  C   UNL d   1      -0.730  -7.735   7.986  0.00  0.00     0.001 A 
ATOM     29  C   UNL d   1       0.318  -7.069   8.622  0.00  0.00     0.000 A 
ATOM     30  C   UNL d   1       0.900  -5.949   8.030  0.00  0.00     0.001 A 
ATOM     31  C   UNL d   1       0.429  -5.491   6.805  0.00  0.00     0.009 A 
ENDBRANCH  25  26
ENDBRANCH  24  25
ENDBRANCH  19  24
ENDBRANCH   2  16
TORSDOF 5
