REMARK  2 active torsions:
REMARK  status: ('A' for Active; 'I' for Inactive)
REMARK    1  A    between atoms: O_14  and  C_11 
REMARK    2  A    between atoms: C_15  and  O_14 
ROOT
ATOM      1  N   UNL d   1      -6.715  -2.351   0.477  0.00  0.00    -0.195 NA
ATOM      2  C   UNL d   1      -5.787  -1.656   0.534  0.00  0.00     0.085 C 
ATOM      3  C   UNL d   1      -4.632  -0.738   0.614  0.00  0.00     0.299 C 
ENDROOT
BRANCH   3   4
ATOM      4  O   UNL d   1      -3.490  -1.327  -0.017  0.00  0.00    -0.337 OA
BRANCH   4   5
ATOM      5  C   UNL d   1      -2.313  -0.617   0.028  0.00  0.00     0.072 A 
ATOM      6  C   UNL d   1      -1.163  -1.434   0.002  0.00  0.00     0.070 A 
ATOM      7  C   UNL d   1       0.062  -0.742   0.003  0.00  0.00     0.087 A 
ATOM      8  C   UNL d   1       0.133   0.710   0.013  0.00  0.00     0.085 A 
ATOM      9  N   UNL d   1       1.312  -1.223  -0.007  0.00  0.00    -0.239 N 
ATOM     10  N   UNL d   1       1.422   1.071   0.007  0.00  0.00    -0.240 N 
ATOM     11  C   UNL d   1      -1.019   1.515   0.021  0.00  0.00     0.036 A 
ATOM     12  O   UNL d   1       2.142  -0.114  -0.004  0.00  0.00    -0.156 OA
ATOM     13  HN  UNL d   1       1.797   2.019   0.010  1.00  0.00     0.197 HD
ATOM     14  C   UNL d   1      -2.241   0.803   0.026  0.00  0.00     0.039 A 
ATOM     15  HN  UNL d   1       1.594  -2.203  -0.014  1.00  0.00     0.197 HD
ENDBRANCH   4   5
ENDBRANCH   3   4
TORSDOF 2
