REMARK  7 active torsions:
REMARK  status: ('A' for Active; 'I' for Inactive)
REMARK    1  A    between atoms: N_3  and  C_1 
REMARK       I    between atoms: C_7  and  N_3 
REMARK    2  A    between atoms: N_9  and  N_3 
REMARK    3  A    between atoms: C_13  and  C_6 
REMARK    4  A    between atoms: C_11  and  C_7 
REMARK       I    between atoms: C_10  and  N_9 
REMARK    5  A    between atoms: C_12  and  C_10 
REMARK    6  A    between atoms: O_23  and  C_13 
REMARK    7  A    between atoms: C_32  and  O_23 
ROOT
ATOM      1  N   UNL d   1       1.381  -3.064  -0.185  0.00  0.00    -0.209 N 
ATOM      2  C   UNL d   1       1.004  -3.465  -1.487  0.00  0.00     0.279 C 
ATOM      3  O   UNL d   1       0.248  -2.775  -2.201  0.00  0.00    -0.265 OA
ENDROOT
BRANCH   1   4
ATOM      4  C   UNL d   1       1.251  -1.698   0.079  0.00  0.00     0.116 A 
ATOM      5  C   UNL d   1       0.140  -0.890   0.049  0.00  0.00     0.053 A 
ATOM      6  C   UNL d   1       0.483   0.510   0.066  0.00  0.00    -0.017 A 
ATOM      7  C   UNL d   1      -1.245  -1.355   0.012  0.00  0.00     0.163 C 
ATOM      8  C   UNL d   1      -0.589   1.578  -0.012  0.00  0.00     0.050 C 
ATOM      9  C   UNL d   1       1.860   0.711   0.106  0.00  0.00     0.089 A 
ATOM     10  C   UNL d   1      -1.998   1.043   0.366  0.00  0.00    -0.037 C 
ATOM     11  C   UNL d   1      -2.272  -0.301  -0.352  0.00  0.00     0.093 C 
ATOM     12  C   UNL d   1      -3.072   2.054  -0.076  0.00  0.00     0.015 C 
ATOM     13  C   UNL d   1      -2.111   0.874   1.897  0.00  0.00     0.015 C 
ATOM     14  S   UNL d   1       2.685  -0.792   0.274  0.00  0.00    -0.063 SA
ATOM     15  O   UNL d   1      -1.581  -2.505   0.287  0.00  0.00    -0.292 OA
BRANCH   9  16
ATOM     16  C   UNL d   1       2.567   1.987   0.016  0.00  0.00     0.300 C 
ATOM     17  O   UNL d   1       2.020   3.078  -0.106  0.00  0.00    -0.259 OA
BRANCH  16  18
ATOM     18  O   UNL d   1       3.926   1.829   0.053  0.00  0.00    -0.317 OA
BRANCH  18  19
ATOM     19  C   UNL d   1       4.706   3.025  -0.132  0.00  0.00     0.174 C 
ATOM     20  C   UNL d   1       4.941   3.723   1.197  0.00  0.00     0.034 C 
ENDBRANCH  18  19
ENDBRANCH  16  18
ENDBRANCH   9  16
ENDBRANCH   1   4
BRANCH   1  21
ATOM     21  N   UNL d   1       2.185  -3.831   0.660  0.00  0.00    -0.255 N 
ATOM     22  C   UNL d   1       1.772  -5.072   1.098  0.00  0.00     0.272 C 
ATOM     23  O   UNL d   1       0.730  -5.631   0.779  0.00  0.00    -0.266 OA
ATOM     24  H   UNL d   1       3.003  -3.370   1.044  0.00  0.00     0.191 HD
BRANCH  22  25
ATOM     25  C   UNL d   1       2.802  -5.824   1.853  0.00  0.00     0.055 A 
ATOM     26  C   UNL d   1       3.513  -5.313   2.942  0.00  0.00     0.049 A 
ATOM     27 CL   UNL d   1       3.106  -3.817   3.700  0.00  0.00    -0.083 Cl
ATOM     28  C   UNL d   1       4.599  -6.032   3.458  0.00  0.00     0.025 A 
ATOM     29  C   UNL d   1       4.970  -7.253   2.888  0.00  0.00     0.002 A 
ATOM     30  C   UNL d   1       4.229  -7.786   1.836  0.00  0.00     0.001 A 
ATOM     31  C   UNL d   1       3.139  -7.081   1.329  0.00  0.00     0.019 A 
ENDBRANCH  22  25
ENDBRANCH   1  21
BRANCH   2  32
ATOM     32  C   UNL d   1       1.552  -4.666  -2.186  0.00  0.00     0.056 A 
ATOM     33  C   UNL d   1       2.912  -4.990  -2.310  0.00  0.00     0.049 A 
ATOM     34 CL   UNL d   1       4.198  -4.183  -1.483  0.00  0.00    -0.083 Cl
ATOM     35  C   UNL d   1       3.326  -5.956  -3.253  0.00  0.00     0.025 A 
ATOM     36  C   UNL d   1       2.408  -6.562  -4.109  0.00  0.00     0.002 A 
ATOM     37  C   UNL d   1       1.060  -6.250  -3.999  0.00  0.00     0.001 A 
ATOM     38  C   UNL d   1       0.637  -5.327  -3.038  0.00  0.00     0.019 A 
ENDBRANCH   2  32
TORSDOF 7
