REMARK  6 active torsions:
REMARK  status: ('A' for Active; 'I' for Inactive)
REMARK    1  A    between atoms: C_5  and  S_1 
REMARK    2  A    between atoms: C_16  and  S_1 
REMARK    3  A    between atoms: N_2  and  C_3 
REMARK    4  A    between atoms: O_8  and  C_4 
REMARK    5  A    between atoms: C_6  and  O_8 
REMARK    6  A    between atoms: C_9  and  C_6 
ROOT
ATOM      1  C   UNL d   1      -0.412  -2.128  -3.760  0.00  0.00     0.136 C 
ATOM      2  C   UNL d   1      -1.097  -0.973  -3.333  0.00  0.00     0.114 C 
ATOM      3  C   UNL d   1       0.268  -0.959  -1.330  0.00  0.00     0.067 C 
ATOM      4  C   UNL d   1      -0.700  -0.352  -2.146  0.00  0.00     0.063 C 
ATOM      5  C   UNL d   1       0.492  -2.776  -2.896  0.00  0.00     0.040 C 
ATOM      6  C   UNL d   1       0.819  -2.199  -1.670  0.00  0.00     0.026 C 
ENDROOT
BRANCH   2   7
ATOM      7  O   UNL d   1      -2.165  -0.447  -4.115  0.00  0.00    -0.272 OA
BRANCH   7   8
ATOM      8  C   UNL d   1      -3.284   0.203  -3.586  0.00  0.00     0.298 C 
ATOM      9  O   UNL d   1      -3.443   0.536  -2.421  0.00  0.00    -0.259 OA
BRANCH   8  10
ATOM     10  C   UNL d   1      -4.346   0.381  -4.630  0.00  0.00     0.041 A 
ATOM     11  C   UNL d   1      -5.517   1.094  -4.310  0.00  0.00     0.043 A 
ATOM     12  C   UNL d   1      -6.576   1.181  -5.234  0.00  0.00     0.056 A 
ATOM     13 CL   UNL d   1      -7.995   2.047  -4.760  0.00  0.00    -0.083 Cl
ATOM     14  C   UNL d   1      -6.467   0.561  -6.482  0.00  0.00     0.055 A 
ATOM     15  C   UNL d   1      -5.295  -0.117  -6.814  0.00  0.00     0.026 A 
ATOM     16 CL   UNL d   1      -7.746   0.573  -7.646  0.00  0.00    -0.083 Cl
ATOM     17  C   UNL d   1      -4.242  -0.206  -5.897  0.00  0.00     0.019 A 
ENDBRANCH   8  10
ENDBRANCH   7   8
ENDBRANCH   2   7
BRANCH   1  18
ATOM     18  N   UNL d   1      -0.488  -2.612  -5.146  0.00  0.00    -0.113 N 
ATOM     19  O   UNL d   1      -1.086  -1.925  -5.985  0.00  0.00    -0.532 OA
ATOM     20  O   UNL d   1       0.107  -3.667  -5.417  0.00  0.00    -0.532 OA
ENDBRANCH   1  18
BRANCH   3  21
ATOM     21  S   UNL d   1       0.975  -0.056   0.037  0.00  0.00     0.206 S 
ATOM     22  O   UNL d   1       0.877   1.360  -0.301  0.00  0.00    -0.217 OA
ATOM     23  O   UNL d   1       2.274  -0.648   0.294  0.00  0.00    -0.217 OA
BRANCH  21  24
ATOM     24  C   UNL d   1      -0.035  -0.319   1.465  0.00  0.00     0.064 A 
ATOM     25  C   UNL d   1       0.503  -0.951   2.590  0.00  0.00     0.024 A 
ATOM     26  C   UNL d   1      -0.278  -1.088   3.737  0.00  0.00     0.002 A 
ATOM     27  C   UNL d   1      -1.584  -0.598   3.757  0.00  0.00     0.000 A 
ATOM     28  C   UNL d   1      -2.116   0.034   2.631  0.00  0.00     0.002 A 
ATOM     29  C   UNL d   1      -1.341   0.180   1.481  0.00  0.00     0.024 A 
ENDBRANCH  21  24
ENDBRANCH   3  21
TORSDOF 6
