REMARK  2 active torsions:
REMARK  status: ('A' for Active; 'I' for Inactive)
REMARK    1  A    between atoms: N_7  and  C_2 
REMARK    2  A    between atoms: C_13  and  C_3 
ROOT
ATOM      1  C   UNL d   1       0.111   1.124  -0.005  0.00  0.00     0.048 A 
ATOM      2  C   UNL d   1       1.454   1.562  -0.201  0.00  0.00     0.097 A 
ATOM      3  C   UNL d   1      -1.188   1.780   0.119  0.00  0.00    -0.003 A 
ATOM      4  C   UNL d   1      -0.053  -0.251   0.129  0.00  0.00     0.089 A 
ATOM      5  C   UNL d   1      -2.217   0.871   0.293  0.00  0.00     0.065 A 
ATOM      6  S   UNL d   1      -1.673  -0.739   0.328  0.00  0.00    -0.082 SA
ATOM      7  N   UNL d   1       2.432   0.613  -0.165  0.00  0.00    -0.342 N 
ATOM      8  HN  UNL d   1       3.410   0.889  -0.253  1.00  0.00     0.167 HD
ATOM      9  N   UNL d   1       0.903  -1.195   0.120  0.00  0.00    -0.346 N 
ATOM     10  HN  UNL d   1       0.718  -2.194   0.208  1.00  0.00     0.167 HD
ATOM     11  C   UNL d   1       2.115  -0.675  -0.016  0.00  0.00     0.182 A 
ENDROOT
BRANCH   3  12
ATOM     12  C   UNL d   1      -1.507   3.203   0.091  0.00  0.00    -0.024 A 
ATOM     13  C   UNL d   1      -2.421   3.701  -0.851  0.00  0.00     0.012 A 
ATOM     14  C   UNL d   1      -2.662   5.072  -0.945  0.00  0.00     0.001 A 
ATOM     15  C   UNL d   1      -1.994   5.955  -0.098  0.00  0.00     0.000 A 
ATOM     16  C   UNL d   1      -1.109   5.467   0.863  0.00  0.00     0.001 A 
ATOM     17  C   UNL d   1      -0.876   4.093   0.969  0.00  0.00     0.012 A 
ENDBRANCH   3  12
BRANCH   2  18
ATOM     18  N   UNL d   1       1.854   2.889  -0.364  0.00  0.00    -0.269 NA
ATOM     19  C   UNL d   1       1.351   3.600  -1.548  0.00  0.00     0.097 C 
ATOM     20  C   UNL d   1       2.486   4.538  -1.970  0.00  0.00     0.016 C 
ATOM     21  C   UNL d   1       3.419   4.568  -0.771  0.00  0.00     0.016 C 
ATOM     22  C   UNL d   1       3.292   3.149  -0.239  0.00  0.00     0.097 C 
ENDBRANCH   2  18
TORSDOF 2
