REMARK  2 active torsions:
REMARK  status: ('A' for Active; 'I' for Inactive)
REMARK    1  A    between atoms: C_6  and  C_10 
REMARK    2  A    between atoms: C_9  and  C_7 
ROOT
ATOM      1  N   UNL d   1       8.561   0.817   4.383  0.00  0.00    -0.197 NA
ATOM      2  C   UNL d   1       7.404   0.828   4.450  0.00  0.00     0.063 C 
ATOM      3  C   UNL d   1       5.933   0.847   4.555  0.00  0.00     0.165 C 
ENDROOT
BRANCH   3   4
ATOM      4  C   UNL d   1       5.270   1.377   3.308  0.00  0.00    -0.006 A 
ATOM      5  C   UNL d   1       4.920   0.504   2.273  0.00  0.00     0.130 A 
ATOM      6  C   UNL d   1       4.311   0.958   1.097  0.00  0.00    -0.006 A 
ATOM      7  F   UNL d   1       5.147  -0.809   2.423  0.00  0.00    -0.205 F 
ATOM      8  C   UNL d   1       4.080   2.332   0.946  0.00  0.00     0.011 A 
ATOM      9  C   UNL d   1       4.420   3.217   1.970  0.00  0.00     0.001 A 
ATOM     10  C   UNL d   1       5.004   2.744   3.148  0.00  0.00     0.011 A 
BRANCH   6  11
ATOM     11  C   UNL d   1       3.811  -0.031   0.076  0.00  0.00     0.165 C 
ATOM     12  C   UNL d   1       2.415  -0.412   0.356  0.00  0.00     0.063 C 
ATOM     13  N   UNL d   1       1.312  -0.691   0.587  0.00  0.00    -0.197 NA
ENDBRANCH   6  11
ENDBRANCH   3   4
TORSDOF 2
