REMARK  5 active torsions:
REMARK  status: ('A' for Active; 'I' for Inactive)
REMARK       I    between atoms: N_2  and  C_1 
REMARK    1  A    between atoms: C_3  and  C_1 
REMARK    2  A    between atoms: C_6  and  N_2 
REMARK    3  A    between atoms: O_13  and  C_5 
REMARK    4  A    between atoms: O_14  and  C_7 
REMARK    5  A    between atoms: O_15  and  C_12 
ROOT
ATOM      1  C   UNL d   1       1.086  -0.104   0.161  0.00  0.00     0.256 C 
ATOM      2  N   UNL d   1       0.428  -0.926  -0.737  0.00  0.00    -0.323 N 
ATOM      3  O   UNL d   1       2.299   0.060   0.257  0.00  0.00    -0.267 OA
ATOM      4  H   UNL d   1      -0.575  -0.819  -0.816  0.00  0.00     0.169 HD
ENDROOT
BRANCH   1   5
ATOM      5  C   UNL d   1       0.213   0.713   1.041  0.00  0.00     0.035 A 
ATOM      6  C   UNL d   1       0.648   2.004   1.378  0.00  0.00     0.056 A 
ATOM      7  C   UNL d   1      -0.117   2.837   2.205  0.00  0.00     0.102 A 
ATOM      8  C   UNL d   1      -1.333   2.346   2.715  0.00  0.00     0.101 A 
ATOM      9  C   UNL d   1      -1.751   1.045   2.383  0.00  0.00     0.040 A 
ATOM     10  C   UNL d   1      -0.987   0.226   1.552  0.00  0.00     0.020 A 
BRANCH   7  11
ATOM     11  O   UNL d   1       0.268   4.109   2.532  0.00  0.00    -0.353 OA
ATOM     12  C   UNL d   1       1.508   4.593   2.030  0.00  0.00     0.210 C 
ENDBRANCH   7  11
BRANCH   8  13
ATOM     13  O   UNL d   1      -2.230   2.970   3.542  0.00  0.00    -0.353 OA
ATOM     14  C   UNL d   1      -1.955   4.290   3.986  0.00  0.00     0.210 C 
ENDBRANCH   8  13
ENDBRANCH   1   5
BRANCH   2  15
ATOM     15  C   UNL d   1       1.039  -1.761  -1.700  0.00  0.00     0.037 A 
ATOM     16  C   UNL d   1       2.404  -2.068  -1.688  0.00  0.00     0.066 A 
ATOM     17  C   UNL d   1       2.971  -2.856  -2.690  0.00  0.00     0.070 A 
ATOM     18  C   UNL d   1       2.160  -3.347  -3.713  0.00  0.00     0.037 A 
ATOM     19  C   UNL d   1       0.792  -3.074  -3.721  0.00  0.00     0.005 A 
ATOM     20  C   UNL d   1       0.232  -2.291  -2.710  0.00  0.00     0.029 A 
BRANCH  17  21
ATOM     21  O   UNL d   1       4.292  -3.208  -2.774  0.00  0.00    -0.356 OA
ATOM     22  C   UNL d   1       5.144  -2.728  -1.738  0.00  0.00     0.210 C 
ENDBRANCH  17  21
ENDBRANCH   2  15
TORSDOF 5
