REMARK  5 active torsions:
REMARK  status: ('A' for Active; 'I' for Inactive)
REMARK    1  A    between atoms: C_7  and  C_1 
REMARK    2  A    between atoms: C_14  and  C_6 
REMARK    3  A    between atoms: O_11  and  N_8 
REMARK    4  A    between atoms: C_10  and  O_11 
REMARK    5  A    between atoms: C_12  and  C_10 
ROOT
ATOM      1  C   UNL d   1      -1.401   2.242  -0.037  0.00  0.00     0.064 C 
ATOM      2  N   UNL d   1      -0.871   3.430  -0.043  0.00  0.00    -0.259 N 
ATOM      3  HN  UNL d   1      -1.414   4.293  -0.076  1.00  0.00     0.194 HD
ATOM      4  C   UNL d   1      -0.568   0.979   0.003  0.00  0.00     0.073 C 
ENDROOT
BRANCH   1   5
ATOM      5  C   UNL d   1      -2.841   2.127  -0.067  0.00  0.00     0.125 A 
ATOM      6  C   UNL d   1      -3.857   3.058  -0.101  0.00  0.00     0.073 A 
ATOM      7  C   UNL d   1      -5.064   2.305  -0.126  0.00  0.00     0.068 A 
ATOM      8  N   UNL d   1      -4.781   0.993  -0.111  0.00  0.00    -0.260 N 
ATOM      9  O   UNL d   1      -3.408   0.888  -0.069  0.00  0.00    -0.235 OA
ATOM     10  HN  UNL d   1      -5.451   0.224  -0.129  1.00  0.00     0.195 HD
BRANCH   7  11
ATOM     11  C   UNL d   1      -6.444   2.796  -0.172  0.00  0.00    -0.007 A 
ATOM     12  C   UNL d   1      -7.463   2.015  -0.743  0.00  0.00     0.014 A 
ATOM     13  C   UNL d   1      -8.776   2.493  -0.812  0.00  0.00     0.001 A 
ATOM     14  C   UNL d   1      -9.088   3.752  -0.304  0.00  0.00     0.000 A 
ATOM     15  C   UNL d   1      -8.091   4.531   0.279  0.00  0.00     0.001 A 
ATOM     16  C   UNL d   1      -6.777   4.056   0.345  0.00  0.00     0.014 A 
ENDBRANCH   7  11
ENDBRANCH   1   5
BRANCH   2  17
ATOM     17  O   UNL d   1       0.545   3.393   0.000  0.00  0.00    -0.195 OA
BRANCH  17  18
ATOM     18  C   UNL d   1       1.040   4.666  -0.046  0.00  0.00     0.315 C 
ATOM     19  O   UNL d   1       0.393   5.700  -0.152  0.00  0.00    -0.257 OA
BRANCH  18  20
ATOM     20  C   UNL d   1       2.529   4.680   0.067  0.00  0.00     0.041 A 
ATOM     21  C   UNL d   1       3.167   5.933   0.091  0.00  0.00     0.019 A 
ATOM     22  C   UNL d   1       4.557   6.028   0.213  0.00  0.00     0.025 A 
ATOM     23  C   UNL d   1       5.321   4.869   0.309  0.00  0.00     0.034 A 
ATOM     24  C   UNL d   1       4.705   3.617   0.278  0.00  0.00     0.025 A 
ATOM     25 CL   UNL d   1       7.030   4.982   0.469  0.00  0.00    -0.084 Cl
ATOM     26  C   UNL d   1       3.310   3.519   0.157  0.00  0.00     0.019 A 
ENDBRANCH  18  20
ENDBRANCH  17  18
ENDBRANCH   2  17
TORSDOF 5
