REMARK  5 active torsions:
REMARK  status: ('A' for Active; 'I' for Inactive)
REMARK    1  A    between atoms: C_2  and  C_1 
REMARK    2  A    between atoms: S_17  and  C_3 
REMARK    3  A    between atoms: C_11  and  C_6 
REMARK    4  A    between atoms: C_14  and  C_9 
REMARK       I    between atoms: N_13  and  C_11 
REMARK    5  A    between atoms: C_15  and  N_13 
ROOT
ATOM      1  C   UNL d   1       1.511   0.722   0.079  0.00  0.00     0.023 A 
ATOM      2  C   UNL d   1       0.251   1.260   0.283  0.00  0.00     0.054 A 
ATOM      3  C   UNL d   1       0.185  -1.217   0.097  0.00  0.00     0.075 A 
ATOM      4  C   UNL d   1       1.450  -0.695  -0.095  0.00  0.00     0.040 A 
ATOM      5  S   UNL d   1      -0.948   0.021   0.377  0.00  0.00    -0.077 SA
ENDROOT
BRANCH   1   6
ATOM      6  C   UNL d   1       2.803   1.497   0.058  0.00  0.00     0.086 A 
ATOM      7  N   UNL d   1       2.928   2.653   0.666  0.00  0.00    -0.349 N 
ATOM      8  C   UNL d   1       4.203   3.170   0.514  0.00  0.00     0.050 A 
ATOM      9  HN  UNL d   1       2.180   3.112   1.185  1.00  0.00     0.166 HD
ATOM     10  C   UNL d   1       5.036   2.391  -0.268  0.00  0.00     0.082 A 
ATOM     11  S   UNL d   1       4.230   0.948  -0.729  0.00  0.00    -0.081 SA
BRANCH   8  12
ATOM     12  C   UNL d   1       4.565   4.429   1.158  0.00  0.00    -0.009 A 
ATOM     13  C   UNL d   1       3.626   5.059   1.995  0.00  0.00     0.015 A 
ATOM     14  C   UNL d   1       3.929   6.256   2.650  0.00  0.00     0.024 A 
ATOM     15  C   UNL d   1       5.179   6.840   2.472  0.00  0.00     0.034 A 
ATOM     16  C   UNL d   1       6.125   6.234   1.647  0.00  0.00     0.024 A 
ATOM     17 CL   UNL d   1       5.561   8.310   3.276  0.00  0.00    -0.084 Cl
ATOM     18  C   UNL d   1       5.820   5.035   0.992  0.00  0.00     0.015 A 
ENDBRANCH   8  12
ENDBRANCH   1   6
BRANCH   2  19
ATOM     19  S   UNL d   1      -0.265   2.945   0.431  0.00  0.00    -0.126 SA
ATOM     20  C   UNL d   1       0.485   3.702  -1.034  0.00  0.00     0.096 C 
ENDBRANCH   2  19
BRANCH   3  21
ATOM     21  C   UNL d   1      -0.140  -2.641   0.080  0.00  0.00     0.263 C 
ATOM     22  N   UNL d   1      -1.482  -2.971   0.187  0.00  0.00    -0.322 N 
ATOM     23  H   UNL d   1      -2.134  -2.196   0.186  0.00  0.00     0.169 HD
ATOM     24  O   UNL d   1       0.759  -3.468  -0.062  0.00  0.00    -0.267 OA
BRANCH  22  25
ATOM     25  C   UNL d   1      -2.026  -4.276   0.122  0.00  0.00     0.036 A 
ATOM     26  C   UNL d   1      -1.259  -5.439   0.246  0.00  0.00     0.053 A 
ATOM     27  C   UNL d   1      -1.849  -6.695   0.087  0.00  0.00     0.036 A 
ATOM     28 CL   UNL d   1      -0.882  -8.114   0.217  0.00  0.00    -0.084 Cl
ATOM     29  C   UNL d   1      -3.208  -6.809  -0.184  0.00  0.00     0.024 A 
ATOM     30  C   UNL d   1      -3.989  -5.658  -0.266  0.00  0.00     0.004 A 
ATOM     31  C   UNL d   1      -3.403  -4.398  -0.100  0.00  0.00     0.029 A 
ENDBRANCH  22  25
ENDBRANCH   3  21
TORSDOF 5
