REMARK  4 active torsions:
REMARK  status: ('A' for Active; 'I' for Inactive)
REMARK    1  A    between atoms: C_6  and  C_1 
REMARK    2  A    between atoms: S_8  and  C_3 
REMARK    3  A    between atoms: O_11  and  C_6 
REMARK    4  A    between atoms: C_15  and  O_11 
ROOT
ATOM      1  C   UNL d   1      -1.855  -0.898   0.037  0.00  0.00     0.088 A 
ATOM      2  S   UNL d   1      -2.690   0.600   0.069  0.00  0.00    -0.076 SA
ATOM      3  C   UNL d   1      -1.247   1.516   0.015  0.00  0.00     0.052 A 
ATOM      4  C   UNL d   1      -0.480  -0.702   0.067  0.00  0.00    -0.022 A 
ATOM      5  C   UNL d   1      -0.141   0.693   0.052  0.00  0.00    -0.005 A 
ATOM      6  C   UNL d   1       1.227   1.105   0.022  0.00  0.00     0.010 A 
ATOM      7  C   UNL d   1       2.230   0.213   0.003  0.00  0.00    -0.025 A 
ATOM      8  C   UNL d   1       0.567  -1.784   0.058  0.00  0.00     0.045 A 
ATOM      9  C   UNL d   1       2.022  -1.277  -0.003  0.00  0.00     0.032 A 
ENDROOT
BRANCH   1  10
ATOM     10  C   UNL d   1      -2.562  -2.168  -0.070  0.00  0.00     0.300 C 
ATOM     11  O   UNL d   1      -2.027  -3.268  -0.140  0.00  0.00    -0.259 OA
BRANCH  10  12
ATOM     12  O   UNL d   1      -3.913  -1.975  -0.173  0.00  0.00    -0.317 OA
BRANCH  12  13
ATOM     13  C   UNL d   1      -4.671  -3.086  -0.668  0.00  0.00     0.174 C 
ATOM     14  C   UNL d   1      -4.717  -2.994  -2.182  0.00  0.00     0.034 C 
ENDBRANCH  12  13
ENDBRANCH  10  12
ENDBRANCH   1  10
BRANCH   3  15
ATOM     15  S   UNL d   1      -1.326   3.268  -0.150  0.00  0.00    -0.126 SA
ATOM     16  C   UNL d   1      -0.757   3.799   1.477  0.00  0.00     0.096 C 
ENDBRANCH   3  15
TORSDOF 4
