REMARK  3 active torsions:
REMARK  status: ('A' for Active; 'I' for Inactive)
REMARK    1  A    between atoms: C_2  and  C_1 
REMARK       I    between atoms: N_5  and  C_2 
REMARK    2  A    between atoms: N_7  and  C_3 
REMARK    3  A    between atoms: C_10  and  N_5 
ROOT
ATOM      1  C   UNL d   1       0.999  -0.156   0.062  0.00  0.00     0.127 C 
ATOM      2  C   UNL d   1       0.229   0.412  -0.888  0.00  0.00     0.114 C 
ATOM      3  C   UNL d   1       0.394  -0.863   1.139  0.00  0.00     0.106 C 
ATOM      4  N   UNL d   1      -0.124  -1.455   1.989  0.00  0.00    -0.191 NA
ENDROOT
BRANCH   1   5
ATOM      5  C   UNL d   1       2.492  -0.055  -0.094  0.00  0.00     0.268 C 
ATOM      6  N   UNL d   1       3.253  -0.800   0.798  0.00  0.00    -0.322 N 
ATOM      7  H   UNL d   1       2.784  -1.470   1.391  0.00  0.00     0.169 HD
ATOM      8  O   UNL d   1       2.964   0.654  -0.982  0.00  0.00    -0.266 OA
BRANCH   6   9
ATOM      9  C   UNL d   1       4.661  -0.730   0.964  0.00  0.00     0.036 A 
ATOM     10  C   UNL d   1       5.477   0.245   0.375  0.00  0.00     0.056 A 
ATOM     11  C   UNL d   1       6.848   0.289   0.654  0.00  0.00     0.074 A 
ATOM     12 CL   UNL d   1       7.819   1.525  -0.052  0.00  0.00    -0.081 Cl
ATOM     13  C   UNL d   1       7.416  -0.648   1.511  0.00  0.00     0.138 A 
ATOM     14  C   UNL d   1       6.628  -1.636   2.088  0.00  0.00     0.046 A 
ATOM     15  F   UNL d   1       8.723  -0.611   1.806  0.00  0.00    -0.204 F 
ATOM     16  C   UNL d   1       5.253  -1.675   1.818  0.00  0.00     0.032 A 
ENDBRANCH   6   9
ENDBRANCH   1   5
BRANCH   2  17
ATOM     17  N   UNL d   1      -1.154   0.523  -0.939  0.00  0.00    -0.384 N 
ATOM     18  C   UNL d   1      -1.992   1.025   0.171  0.00  0.00     0.148 C 
ATOM     19  C   UNL d   1      -3.066  -0.012   0.531  0.00  0.00     0.187 C 
ATOM     20  O   UNL d   1      -3.854  -0.364  -0.620  0.00  0.00    -0.388 OA
ATOM     21  C   UNL d   1      -3.012  -0.901  -1.657  0.00  0.00     0.187 C 
ATOM     22  C   UNL d   1      -1.955   0.125  -2.110  0.00  0.00     0.148 C 
ENDBRANCH   2  17
TORSDOF 3
