REMARK  6 active torsions:
REMARK  status: ('A' for Active; 'I' for Inactive)
REMARK    1  A    between atoms: C_6  and  C_1 
REMARK    2  A    between atoms: C_9  and  C_2 
REMARK    3  A    between atoms: C_12  and  N_3 
REMARK    4  A    between atoms: C_8  and  C_15 
REMARK    5  A    between atoms: O_20  and  C_9 
REMARK    6  A    between atoms: N_10  and  O_20 
ROOT
ATOM      1  C   UNL d   1       1.001  -0.878   0.026  0.00  0.00     0.158 C 
ATOM      2  C   UNL d   1      -0.329  -1.281   0.029  0.00  0.00     0.091 C 
ATOM      3  N   UNL d   1       0.997   0.498   0.134  0.00  0.00    -0.251 N 
ATOM      4  N   UNL d   1      -0.256   0.953   0.422  0.00  0.00    -0.303 N 
ATOM      5  HN  UNL d   1      -0.527   1.900   0.690  1.00  0.00     0.186 HD
ATOM      6  C   UNL d   1      -1.049  -0.105   0.279  0.00  0.00     0.127 C 
ENDROOT
BRANCH   2   7
ATOM      7  C   UNL d   1      -0.840  -2.620  -0.182  0.00  0.00     0.318 C 
ATOM      8  O   UNL d   1      -0.223  -3.472  -0.811  0.00  0.00    -0.257 OA
BRANCH   7   9
ATOM      9  O   UNL d   1      -2.086  -2.793   0.374  0.00  0.00    -0.195 OA
BRANCH   9  10
ATOM     10  N   UNL d   1      -2.913  -3.400  -0.583  0.00  0.00    -0.268 N 
ATOM     11  C   UNL d   1      -3.900  -4.016  -0.021  0.00  0.00     0.130 C 
ATOM     12  HN  UNL d   1      -2.756  -3.360  -1.590  1.00  0.00     0.194 HD
BRANCH  11  13
ATOM     13  C   UNL d   1      -4.970  -4.627  -0.833  0.00  0.00     0.042 A 
ATOM     14  C   UNL d   1      -5.047  -4.350  -2.206  0.00  0.00     0.129 A 
ATOM     15  F   UNL d   1      -4.157  -3.548  -2.812  0.00  0.00    -0.205 F 
ATOM     16  C   UNL d   1      -6.067  -4.872  -2.994  0.00  0.00     0.043 A 
ATOM     17  C   UNL d   1      -7.038  -5.686  -2.422  0.00  0.00     0.005 A 
ATOM     18  C   UNL d   1      -6.976  -5.976  -1.059  0.00  0.00     0.025 A 
ATOM     19  C   UNL d   1      -5.949  -5.451  -0.263  0.00  0.00     0.048 A 
ATOM     20 CL   UNL d   1      -5.963  -5.870   1.414  0.00  0.00    -0.083 Cl
ENDBRANCH  11  13
ENDBRANCH   9  10
ENDBRANCH   7   9
ENDBRANCH   2   7
BRANCH   1  21
ATOM     21  C   UNL d   1       2.222  -1.697   0.032  0.00  0.00     0.435 C 
ATOM     22  F   UNL d   1       2.003  -2.937   0.538  0.00  0.00    -0.165 F 
ATOM     23  F   UNL d   1       2.742  -1.857  -1.208  0.00  0.00    -0.165 F 
ATOM     24  F   UNL d   1       3.196  -1.163   0.811  0.00  0.00    -0.165 F 
ENDBRANCH   1  21
BRANCH   3  25
ATOM     25  C   UNL d   1       2.054   1.447   0.009  0.00  0.00     0.057 A 
ATOM     26  C   UNL d   1       3.193   1.197  -0.765  0.00  0.00     0.031 A 
ATOM     27  C   UNL d   1       4.225   2.139  -0.818  0.00  0.00     0.002 A 
ATOM     28  C   UNL d   1       4.122   3.336  -0.113  0.00  0.00     0.000 A 
ATOM     29  C   UNL d   1       2.973   3.611   0.622  0.00  0.00     0.002 A 
ATOM     30  C   UNL d   1       1.934   2.679   0.671  0.00  0.00     0.031 A 
ENDBRANCH   3  25
TORSDOF 6
