REMARK  5 active torsions:
REMARK  status: ('A' for Active; 'I' for Inactive)
REMARK    1  A    between atoms: C_2  and  C_1 
REMARK    2  A    between atoms: O_3  and  C_1 
REMARK    3  A    between atoms: C_8  and  O_3 
REMARK    4  A    between atoms: O_7  and  C_9 
REMARK    5  A    between atoms: C_12  and  O_7 
ROOT
ATOM      1  C   UNL d   1      -1.060   1.107   0.209  0.00  0.00     0.079 A 
ATOM      2  C   UNL d   1      -3.842   1.183   0.355  0.00  0.00     0.076 A 
ATOM      3  C   UNL d   1      -1.720   0.354   1.179  0.00  0.00     0.040 A 
ATOM      4  C   UNL d   1      -1.774   1.972  -0.624  0.00  0.00     0.040 A 
ATOM      5  C   UNL d   1      -3.170   2.007  -0.550  0.00  0.00     0.040 A 
ATOM      6  C   UNL d   1      -3.113   0.404   1.260  0.00  0.00     0.040 A 
ENDROOT
BRANCH   1   7
ATOM      7  O   UNL d   1       0.341   1.090   0.054  0.00  0.00    -0.275 OA
BRANCH   7   8
ATOM      8  C   UNL d   1       1.011  -0.126   0.092  0.00  0.00     0.304 C 
ATOM      9  O   UNL d   1       0.539  -1.229   0.313  0.00  0.00    -0.259 OA
BRANCH   8  10
ATOM     10  C   UNL d   1       2.447   0.089  -0.158  0.00  0.00     0.116 A 
ATOM     11  C   UNL d   1       2.897   1.014  -1.101  0.00  0.00     0.135 A 
ATOM     12  F   UNL d   1       2.034   1.763  -1.802  0.00  0.00    -0.205 F 
ATOM     13  C   UNL d   1       4.259   1.161  -1.366  0.00  0.00     0.043 A 
ATOM     14  C   UNL d   1       5.192   0.373  -0.692  0.00  0.00     0.006 A 
ATOM     15  C   UNL d   1       4.752  -0.559   0.246  0.00  0.00     0.043 A 
ATOM     16  C   UNL d   1       3.385  -0.695   0.504  0.00  0.00     0.135 A 
ATOM     17  F   UNL d   1       3.009  -1.595   1.425  0.00  0.00    -0.205 F 
ENDBRANCH   8  10
ENDBRANCH   7   8
ENDBRANCH   1   7
BRANCH   2  18
ATOM     18  O   UNL d   1      -5.221   1.218   0.329  0.00  0.00    -0.311 OA
BRANCH  18  19
ATOM     19  C   UNL d   1      -5.917   0.035   0.476  0.00  0.00     0.076 A 
ATOM     20  C   UNL d   1      -7.182   0.131   1.061  0.00  0.00     0.037 A 
ATOM     21  C   UNL d   1      -7.944  -1.020   1.277  0.00  0.00     0.003 A 
ATOM     22  C   UNL d   1      -7.446  -2.268   0.904  0.00  0.00     0.000 A 
ATOM     23  C   UNL d   1      -6.203  -2.363   0.280  0.00  0.00     0.003 A 
ATOM     24  C   UNL d   1      -5.452  -1.211   0.042  0.00  0.00     0.037 A 
ENDBRANCH  18  19
ENDBRANCH   2  18
TORSDOF 5
