REMARK  5 active torsions:
REMARK  status: ('A' for Active; 'I' for Inactive)
REMARK    1  A    between atoms: C_7  and  C_3 
REMARK    2  A    between atoms: C_6  and  O_8 
REMARK    3  A    between atoms: C_12  and  C_6 
REMARK    4  A    between atoms: C_13  and  C_7 
REMARK    5  A    between atoms: O_8  and  C_14 
ROOT
ATOM      1  C   UNL d   1      -3.223   1.090  -0.061  0.00  0.00    -0.034 A 
ATOM      2  C   UNL d   1      -5.799   0.019   0.128  0.00  0.00     0.079 A 
ATOM      3  C   UNL d   1      -3.573   0.274   1.021  0.00  0.00     0.014 A 
ATOM      4  C   UNL d   1      -4.178   1.383  -1.041  0.00  0.00     0.014 A 
ATOM      5  C   UNL d   1      -5.469   0.851  -0.945  0.00  0.00     0.038 A 
ATOM      6  C   UNL d   1      -4.863  -0.249   1.126  0.00  0.00     0.038 A 
ENDROOT
BRANCH   1   7
ATOM      7  C   UNL d   1      -1.861   1.617  -0.147  0.00  0.00     0.046 C 
BRANCH   7   8
ATOM      8  C   UNL d   1      -0.858   0.991  -0.767  0.00  0.00     0.105 A 
ATOM      9  C   UNL d   1       0.561   1.461  -0.801  0.00  0.00     0.276 A 
ATOM     10  N   UNL d   1       1.218   0.505  -1.523  0.00  0.00    -0.274 N 
ATOM     11  O   UNL d   1       1.019   2.462  -0.285  0.00  0.00    -0.266 OA
ATOM     12  C   UNL d   1       0.371  -0.492  -1.927  0.00  0.00     0.327 A 
ATOM     13  H   UNL d   1       2.205   0.517  -1.718  0.00  0.00     0.173 HD
ATOM     14  N   UNL d   1      -0.895  -0.183  -1.461  0.00  0.00    -0.304 N 
ATOM     15  O   UNL d   1       0.677  -1.475  -2.578  0.00  0.00    -0.247 OA
ATOM     16  H   UNL d   1      -1.709  -0.761  -1.615  0.00  0.00     0.171 HD
ENDBRANCH   7   8
ENDBRANCH   1   7
BRANCH   2  17
ATOM     17  O   UNL d   1      -7.119  -0.476   0.160  0.00  0.00    -0.275 OA
BRANCH  17  18
ATOM     18  C   UNL d   1      -7.346  -1.777   0.586  0.00  0.00     0.298 C 
ATOM     19  O   UNL d   1      -6.523  -2.579   1.002  0.00  0.00    -0.259 OA
BRANCH  18  20
ATOM     20  C   UNL d   1      -8.767  -2.143   0.361  0.00  0.00     0.039 A 
ATOM     21  C   UNL d   1      -9.804  -1.202   0.369  0.00  0.00     0.017 A 
ATOM     22  C   UNL d   1     -11.118  -1.616   0.128  0.00  0.00     0.001 A 
ATOM     23  C   UNL d   1     -11.397  -2.962  -0.120  0.00  0.00     0.000 A 
ATOM     24  C   UNL d   1     -10.368  -3.902  -0.114  0.00  0.00     0.001 A 
ATOM     25  C   UNL d   1      -9.058  -3.495   0.134  0.00  0.00     0.017 A 
ENDBRANCH  18  20
ENDBRANCH  17  18
ENDBRANCH   2  17
TORSDOF 5
