REMARK  6 active torsions:
REMARK  status: ('A' for Active; 'I' for Inactive)
REMARK    1  A    between atoms: C_3  and  C_1 
REMARK    2  A    between atoms: S_5  and  C_1 
REMARK    3  A    between atoms: C_4  and  C_2 
REMARK    4  A    between atoms: O_9  and  C_3 
REMARK    5  A    between atoms: O_10  and  C_4 
REMARK    6  A    between atoms: C_8  and  S_5 
ROOT
ATOM      1  C   UNL d   1       1.056  -0.173  -0.007  0.00  0.00     0.085 C 
ATOM      2  C   UNL d   1       1.272  -1.401   0.504  0.00  0.00     0.107 C 
ENDROOT
BRANCH   1   3
ATOM      3  C   UNL d   1       1.455   0.451  -1.322  0.00  0.00     0.183 C 
ATOM      4  O   UNL d   1       1.095   1.577  -1.645  0.00  0.00    -0.646 OA
BRANCH   3   5
ATOM      5  O   UNL d   1       2.229  -0.253  -2.163  0.00  0.00    -0.772 OA
ATOM      6  H   UNL d   1       2.463  -1.180  -1.929  0.00  0.00     0.167 HD
ENDBRANCH   3   5
ENDBRANCH   1   3
BRANCH   1   7
ATOM      7  S   UNL d   1       0.258   0.974   1.080  0.00  0.00    -0.084 SA
BRANCH   7   8
ATOM      8  C   UNL d   1      -1.480   0.760   0.708  0.00  0.00     0.005 A 
ATOM      9  C   UNL d   1      -2.389   1.048   1.738  0.00  0.00     0.019 A 
ATOM     10  C   UNL d   1      -3.768   0.963   1.527  0.00  0.00     0.001 A 
ATOM     11  C   UNL d   1      -4.258   0.588   0.281  0.00  0.00     0.000 A 
ATOM     12  C   UNL d   1      -3.368   0.308  -0.755  0.00  0.00     0.001 A 
ATOM     13  C   UNL d   1      -1.987   0.401  -0.545  0.00  0.00     0.019 A 
ENDBRANCH   7   8
ENDBRANCH   1   7
BRANCH   2  14
ATOM     14  C   UNL d   1       1.973  -2.526  -0.124  0.00  0.00     0.166 C 
ATOM     15  O   UNL d   1       2.445  -2.489  -1.246  0.00  0.00    -0.647 OA
BRANCH  14  16
ATOM     16  O   UNL d   1       2.070  -3.607   0.668  0.00  0.00    -0.773 OA
ATOM     17  H   UNL d   1       1.678  -3.551   1.560  0.00  0.00     0.167 HD
ENDBRANCH  14  16
ENDBRANCH   2  14
TORSDOF 6
