REMARK  7 active torsions:
REMARK  status: ('A' for Active; 'I' for Inactive)
REMARK    1  A    between atoms: S_3  and  C_1 
REMARK    2  A    between atoms: C_2  and  S_3 
REMARK    3  A    between atoms: C_19  and  C_7 
REMARK    4  A    between atoms: S_17  and  C_10 
REMARK    5  A    between atoms: C_16  and  C_20 
REMARK    6  A    between atoms: C_18  and  C_16 
REMARK    7  A    between atoms: C_20  and  S_17 
ROOT
ATOM      1  C   UNL d   1       2.151   2.788   0.118  0.00  0.00     0.051 A 
ATOM      2  N   UNL d   1       4.265   2.320  -0.937  0.00  0.00    -0.335 N 
ATOM      3  HN  UNL d   1       4.800   1.969  -1.731  1.00  0.00     0.168 HD
ATOM      4  C   UNL d   1       2.902   2.351  -0.971  0.00  0.00     0.063 A 
ATOM      5  C   UNL d   1       4.884   2.761   0.167  0.00  0.00     0.145 A 
ATOM      6  N   UNL d   1       4.255   3.273   1.229  0.00  0.00    -0.345 N 
ATOM      7  HN  UNL d   1       4.764   3.648   2.029  1.00  0.00     0.167 HD
ATOM      8  C   UNL d   1       2.905   3.264   1.179  0.00  0.00     0.111 A 
ENDROOT
BRANCH   5   9
ATOM      9  S   UNL d   1       6.651   2.602   0.279  0.00  0.00    -0.086 SA
BRANCH   9  10
ATOM     10  C   UNL d   1       6.980   1.705  -1.264  0.00  0.00     0.166 C 
BRANCH  10  11
ATOM     11  C   UNL d   1       8.443   1.327  -1.364  0.00  0.00     0.169 C 
ATOM     12  O   UNL d   1       9.285   2.096  -1.827  0.00  0.00    -0.291 OA
BRANCH  11  13
ATOM     13  C   UNL d   1       8.878  -0.041  -0.952  0.00  0.00     0.011 A 
ATOM     14  C   UNL d   1       9.994  -0.603  -1.593  0.00  0.00     0.017 A 
ATOM     15  C   UNL d   1      10.463  -1.867  -1.225  0.00  0.00     0.025 A 
ATOM     16  C   UNL d   1       9.826  -2.567  -0.204  0.00  0.00     0.034 A 
ATOM     17  C   UNL d   1       8.714  -2.021   0.438  0.00  0.00     0.025 A 
ATOM     18 CL   UNL d   1      10.421  -4.107   0.278  0.00  0.00    -0.084 Cl
ATOM     19  C   UNL d   1       8.235  -0.760   0.063  0.00  0.00     0.017 A 
ENDBRANCH  11  13
ENDBRANCH  10  11
ENDBRANCH   9  10
ENDBRANCH   5   9
BRANCH   4  20
ATOM     20  C   UNL d   1       2.356   1.881  -2.270  0.00  0.00    -0.008 A 
ATOM     21  C   UNL d   1       2.972   0.809  -2.947  0.00  0.00     0.014 A 
ATOM     22  C   UNL d   1       2.527   0.379  -4.201  0.00  0.00     0.001 A 
ATOM     23  C   UNL d   1       1.441   1.003  -4.805  0.00  0.00     0.000 A 
ATOM     24  C   UNL d   1       0.814   2.066  -4.163  0.00  0.00     0.001 A 
ATOM     25  C   UNL d   1       1.279   2.510  -2.920  0.00  0.00     0.014 A 
ENDBRANCH   4  20
BRANCH   1  26
ATOM     26  S   UNL d   1       0.377   2.728   0.271  0.00  0.00    -0.050 SA
BRANCH  26  27
ATOM     27  C   UNL d   1       0.236   1.194   1.070  0.00  0.00     0.151 A 
ATOM     28  N   UNL d   1      -0.872   0.392   0.994  0.00  0.00    -0.341 N 
ATOM     29  C   UNL d   1      -0.632  -0.708   1.784  0.00  0.00     0.109 A 
ATOM     30  C   UNL d   1      -2.090   0.575   0.243  0.00  0.00     0.158 C 
ATOM     31  C   UNL d   1       0.628  -0.512   2.299  0.00  0.00     0.107 A 
ATOM     32  N   UNL d   1       1.155   0.668   1.852  0.00  0.00    -0.345 N 
ATOM     33  HN  UNL d   1       2.070   1.060   2.077  1.00  0.00     0.167 HD
ENDBRANCH  26  27
ENDBRANCH   1  26
TORSDOF 7
