REMARK  3 active torsions:
REMARK  status: ('A' for Active; 'I' for Inactive)
REMARK    1  A    between atoms: C_3  and  C_1 
REMARK    2  A    between atoms: C_6  and  C_3 
REMARK    3  A    between atoms: N_9  and  C_4 
ROOT
ATOM      1  N   UNL d   1       5.035  -4.505  -1.218  0.00  0.00    -0.191 NA
ATOM      2  C   UNL d   1       4.045  -4.050  -1.614  0.00  0.00     0.099 C 
ATOM      3  C   UNL d   1       0.968  -1.932  -1.811  0.00  0.00     0.015 A 
ATOM      4  C   UNL d   1       2.147  -2.518  -1.328  0.00  0.00     0.038 A 
ATOM      5  C   UNL d   1       2.825  -3.471  -2.099  0.00  0.00     0.045 A 
ATOM      6  C   UNL d   1       0.455  -2.334  -3.051  0.00  0.00     0.015 A 
ATOM      7  C   UNL d   1       1.127  -3.289  -3.816  0.00  0.00     0.002 A 
ATOM      8  C   UNL d   1       2.313  -3.853  -3.344  0.00  0.00     0.023 A 
ENDROOT
BRANCH   3   9
ATOM      9  C   UNL d   1       0.220  -0.907  -1.030  0.00  0.00     0.183 C 
ATOM     10  O   UNL d   1      -0.995  -0.802  -1.156  0.00  0.00    -0.288 OA
BRANCH   9  11
ATOM     11  C   UNL d   1       1.016  -0.006  -0.153  0.00  0.00     0.072 C 
ATOM     12  C   UNL d   1       0.429   0.725   0.803  0.00  0.00     0.088 C 
BRANCH  12  13
ATOM     13  N   UNL d   1       1.003   1.615   1.704  0.00  0.00    -0.398 N 
ATOM     14  C   UNL d   1       2.419   1.975   1.733  0.00  0.00     0.148 C 
ATOM     15  C   UNL d   1       0.203   2.290   2.730  0.00  0.00     0.148 C 
ENDBRANCH  12  13
ENDBRANCH   9  11
ENDBRANCH   3   9
TORSDOF 3
