REMARK  7 active torsions:
REMARK  status: ('A' for Active; 'I' for Inactive)
REMARK    1  A    between atoms: C_3  and  S_1 
REMARK    2  A    between atoms: N_5  and  S_1 
REMARK    3  A    between atoms: C_7  and  C_2 
REMARK    4  A    between atoms: C_4  and  N_6 
REMARK    5  A    between atoms: C_8  and  N_5 
REMARK    6  A    between atoms: N_6  and  C_9 
REMARK    7  A    between atoms: O_17  and  C_7 
ROOT
ATOM      1  C   UNL d   1       0.606   2.221   1.610  0.00  0.00     0.069 A 
ATOM      2  C   UNL d   1       1.894   1.924   2.106  0.00  0.00     0.060 A 
ATOM      3  C   UNL d   1      -0.184   3.166   2.281  0.00  0.00     0.032 A 
ATOM      4  C   UNL d   1       2.327   2.583   3.277  0.00  0.00     0.032 A 
ATOM      5  C   UNL d   1       0.261   3.796   3.442  0.00  0.00     0.002 A 
ATOM      6  C   UNL d   1       1.520   3.505   3.942  0.00  0.00     0.002 A 
ENDROOT
BRANCH   1   7
ATOM      7  N   UNL d   1       0.073   1.714   0.383  0.00  0.00    -0.278 N 
ATOM      8  H   UNL d   1      -0.599   2.311  -0.101  0.00  0.00     0.179 HD
BRANCH   7   9
ATOM      9  S   UNL d   1      -0.284   0.099   0.076  0.00  0.00     0.265 S 
ATOM     10  O   UNL d   1      -1.121   0.125  -1.113  0.00  0.00    -0.200 OA
ATOM     11  O   UNL d   1       0.949  -0.669   0.046  0.00  0.00    -0.200 OA
BRANCH   9  12
ATOM     12  C   UNL d   1      -1.314  -0.540   1.371  0.00  0.00     0.101 A 
ATOM     13  C   UNL d   1      -2.481   0.096   1.798  0.00  0.00     0.057 A 
ATOM     14 CL   UNL d   1      -3.086   1.567   1.131  0.00  0.00    -0.083 Cl
ATOM     15  C   UNL d   1      -3.282  -0.513   2.780  0.00  0.00     0.025 A 
ATOM     16  C   UNL d   1      -2.964  -1.776   3.283  0.00  0.00     0.002 A 
ATOM     17  C   UNL d   1      -1.839  -2.440   2.808  0.00  0.00     0.002 A 
ATOM     18  C   UNL d   1      -1.012  -1.822   1.866  0.00  0.00     0.027 A 
ENDBRANCH   9  12
ENDBRANCH   7   9
ENDBRANCH   1   7
BRANCH   2  19
ATOM     19  N   UNL d   1       2.786   1.069   1.397  0.00  0.00    -0.356 N 
ATOM     20  H   UNL d   1       2.967   1.486   0.484  0.00  0.00     0.166 HD
BRANCH  19  21
ATOM     21  C   UNL d   1       3.903   0.503   1.994  0.00  0.00     0.032 C 
ATOM     22  C   UNL d   1       3.922  -0.509   2.885  0.00  0.00     0.050 C 
ATOM     23  C   UNL d   1       5.251  -0.933   3.412  0.00  0.00     0.121 C 
ATOM     24  S   UNL d   1       6.447   0.276   2.781  0.00  0.00    -0.158 SA
ATOM     25  C   UNL d   1       5.265   1.060   1.649  0.00  0.00     0.132 C 
BRANCH  22  26
ATOM     26  C   UNL d   1       2.715  -1.209   3.383  0.00  0.00     0.291 C 
ATOM     27  O   UNL d   1       1.588  -0.748   3.451  0.00  0.00    -0.260 OA
BRANCH  26  28
ATOM     28  O   UNL d   1       3.068  -2.452   3.809  0.00  0.00    -0.323 OA
ATOM     29  C   UNL d   1       1.971  -3.206   4.327  0.00  0.00     0.213 C 
ENDBRANCH  26  28
ENDBRANCH  22  26
ENDBRANCH  19  21
ENDBRANCH   2  19
TORSDOF 7
