REMARK  9 active torsions:
REMARK  status: ('A' for Active; 'I' for Inactive)
REMARK    1  A    between atoms: C_4  and  C_1 
REMARK    2  A    between atoms: C_2  and  C_6 
REMARK       I    between atoms: N_5  and  C_2 
REMARK       I    between atoms: C_3  and  N_8 
REMARK    3  A    between atoms: C_18  and  C_3 
REMARK    4  A    between atoms: N_8  and  N_5 
REMARK    5  A    between atoms: S_9  and  C_11 
REMARK    6  A    between atoms: C_19  and  S_9 
REMARK    7  A    between atoms: O_10  and  C_18 
REMARK    8  A    between atoms: C_12  and  O_10 
REMARK    9  A    between atoms: C_21  and  C_19 
ROOT
ATOM      1  C   UNL d   1       1.157   0.372   9.701  0.00  0.00     0.260 C 
ATOM      2  N   UNL d   1       1.027   0.160  11.059  0.00  0.00    -0.265 N 
ATOM      3  O   UNL d   1       2.201   0.117   9.097  0.00  0.00    -0.269 OA
ATOM      4  H   UNL d   1       0.265   0.574  11.602  0.00  0.00     0.190 HD
ENDROOT
BRANCH   1   5
ATOM      5  C   UNL d   1      -0.079   0.933   8.987  0.00  0.00     0.280 C 
BRANCH   5   6
ATOM      6  O   UNL d   1      -1.209   1.265   9.777  0.00  0.00    -0.341 OA
BRANCH   6   7
ATOM      7  C   UNL d   1      -1.221   2.486  10.400  0.00  0.00     0.086 A 
ATOM      8  C   UNL d   1      -2.461   2.987  10.847  0.00  0.00     0.034 A 
ATOM      9  C   UNL d   1      -2.486   4.232  11.500  0.00  0.00     0.021 A 
ATOM     10  C   UNL d   1      -1.319   4.954  11.743  0.00  0.00     0.002 A 
ATOM     11  C   UNL d   1      -0.101   4.449  11.319  0.00  0.00     0.003 A 
ATOM     12  C   UNL d   1      -0.051   3.228  10.643  0.00  0.00     0.038 A 
BRANCH   8  13
ATOM     13  S   UNL d   1      -4.076   2.247  10.588  0.00  0.00    -0.122 SA
BRANCH  13  14
ATOM     14  C   UNL d   1      -3.851   0.472  10.934  0.00  0.00     0.118 C 
BRANCH  14  15
ATOM     15  C   UNL d   1      -3.074   0.095  12.173  0.00  0.00    -0.049 A 
ATOM     16  C   UNL d   1      -3.250   0.746  13.403  0.00  0.00     0.009 A 
ATOM     17  C   UNL d   1      -2.491   0.378  14.518  0.00  0.00     0.024 A 
ATOM     18  C   UNL d   1      -1.575  -0.666  14.420  0.00  0.00     0.034 A 
ATOM     19  C   UNL d   1      -1.429  -1.362  13.224  0.00  0.00     0.024 A 
ATOM     20 CL   UNL d   1      -0.624  -1.108  15.785  0.00  0.00    -0.084 Cl
ATOM     21  C   UNL d   1      -2.181  -0.988  12.109  0.00  0.00     0.009 A 
ENDBRANCH  14  15
ENDBRANCH  13  14
ENDBRANCH   8  13
ENDBRANCH   6   7
ENDBRANCH   5   6
ENDBRANCH   1   5
BRANCH   2  22
ATOM     22  N   UNL d   1       2.185  -0.194  11.767  0.00  0.00    -0.263 N 
ATOM     23  C   UNL d   1       2.366   0.285  13.052  0.00  0.00     0.270 C 
ATOM     24  O   UNL d   1       1.526   0.982  13.616  0.00  0.00    -0.266 OA
ATOM     25  H   UNL d   1       2.938  -0.557  11.191  0.00  0.00     0.190 HD
BRANCH  23  26
ATOM     26  C   UNL d   1       3.641  -0.090  13.749  0.00  0.00     0.034 A 
ATOM     27  C   UNL d   1       3.830   0.327  15.080  0.00  0.00     0.033 A 
ATOM     28  C   UNL d   1       4.991  -0.027  15.793  0.00  0.00     0.048 A 
ATOM     29  C   UNL d   1       5.973  -0.798  15.153  0.00  0.00     0.016 A 
ATOM     30  C   UNL d   1       5.797  -1.214  13.836  0.00  0.00     0.002 A 
ATOM     31  C   UNL d   1       4.637  -0.867  13.139  0.00  0.00     0.017 A 
BRANCH  28  32
ATOM     32  C   UNL d   1       5.202   0.383  17.232  0.00  0.00     0.417 C 
ATOM     33  F   UNL d   1       4.195   1.139  17.745  0.00  0.00    -0.166 F 
ATOM     34  F   UNL d   1       6.341   1.111  17.398  0.00  0.00    -0.166 F 
ATOM     35  F   UNL d   1       5.326  -0.691  18.060  0.00  0.00    -0.166 F 
ENDBRANCH  28  32
ENDBRANCH  23  26
ENDBRANCH   2  22
TORSDOF 9
