REMARK  3 active torsions:
REMARK  status: ('A' for Active; 'I' for Inactive)
REMARK    1  A    between atoms: O_8  and  C_1 
REMARK    2  A    between atoms: C_14  and  O_8 
REMARK    3  A    between atoms: C_9  and  C_10 
ROOT
ATOM      1  C   UNL d   1       0.735  -1.790  -1.028  0.00  0.00     0.117 A 
ATOM      2  N   UNL d   1       1.244   1.153   0.915  0.00  0.00    -0.191 NA
ATOM      3  N   UNL d   1       0.102  -5.153  -2.118  0.00  0.00    -0.191 NA
ATOM      4  C   UNL d   1       1.364  -0.531  -1.065  0.00  0.00     0.080 A 
ATOM      5  C   UNL d   1       0.946  -2.697  -2.086  0.00  0.00     0.080 A 
ATOM      6  C   UNL d   1       1.280   0.387   0.042  0.00  0.00     0.102 C 
ATOM      7  C   UNL d   1       0.478  -4.056  -2.074  0.00  0.00     0.102 C 
ATOM      8  C   UNL d   1       1.675  -2.288  -3.216  0.00  0.00     0.026 A 
ATOM      9  C   UNL d   1       2.113  -0.157  -2.192  0.00  0.00     0.026 A 
ATOM     10  C   UNL d   1       2.249  -1.021  -3.272  0.00  0.00     0.003 A 
ENDROOT
BRANCH   1  11
ATOM     11  O   UNL d   1       0.005  -2.075   0.112  0.00  0.00    -0.308 OA
BRANCH  11  12
ATOM     12  C   UNL d   1      -1.193  -2.746   0.003  0.00  0.00     0.076 A 
ATOM     13  C   UNL d   1      -1.480  -3.647   1.029  0.00  0.00     0.038 A 
ATOM     14  C   UNL d   1      -2.631  -4.435   0.966  0.00  0.00     0.018 A 
ATOM     15  C   UNL d   1      -3.512  -4.312  -0.116  0.00  0.00     0.009 A 
ATOM     16  C   UNL d   1      -3.231  -3.393  -1.133  0.00  0.00     0.018 A 
ATOM     17  C   UNL d   1      -2.093  -2.583  -1.054  0.00  0.00     0.038 A 
BRANCH  15  18
ATOM     18  C   UNL d   1      -4.729  -5.171  -0.135  0.00  0.00     0.155 C 
ATOM     19  O   UNL d   1      -4.724  -6.244   0.464  0.00  0.00    -0.293 OA
ATOM     20  C   UNL d   1      -5.969  -4.685  -0.842  0.00  0.00     0.096 C 
ENDBRANCH  15  18
ENDBRANCH  11  12
ENDBRANCH   1  11
TORSDOF 3
