REMARK  5 active torsions:
REMARK  status: ('A' for Active; 'I' for Inactive)
REMARK    1  A    between atoms: N_2  and  C_6 
REMARK    2  A    between atoms: C_18  and  C_4 
REMARK       I    between atoms: C_5  and  N_17 
REMARK    3  A    between atoms: C_9  and  C_5 
REMARK    4  A    between atoms: N_17  and  C_19 
REMARK    5  A    between atoms: C_19  and  C_18 
ROOT
ATOM      1  C   UNL d   1      -1.984   2.191  -5.238  0.00  0.00     0.251 C 
ATOM      2  O   UNL d   1      -0.945   1.951  -5.837  0.00  0.00    -0.268 OA
ATOM      3  N   UNL d   1      -2.081   2.211  -3.859  0.00  0.00    -0.357 N 
ATOM      4  H   UNL d   1      -2.881   2.656  -3.428  0.00  0.00     0.162 HD
ENDROOT
BRANCH   1   5
ATOM      5  C   UNL d   1      -3.225   2.504  -6.000  0.00  0.00     0.032 A 
ATOM      6  C   UNL d   1      -3.098   3.088  -7.270  0.00  0.00     0.019 A 
ATOM      7  C   UNL d   1      -4.232   3.353  -8.044  0.00  0.00     0.037 A 
ATOM      8  C   UNL d   1      -5.498   3.019  -7.547  0.00  0.00     0.102 A 
ATOM      9  C   UNL d   1      -5.634   2.429  -6.282  0.00  0.00     0.037 A 
ATOM     10  C   UNL d   1      -4.495   2.171  -5.510  0.00  0.00     0.019 A 
BRANCH   8  11
ATOM     11  N   UNL d   1      -6.692   3.273  -8.365  0.00  0.00    -0.116 N 
ATOM     12  O   UNL d   1      -6.533   3.817  -9.465  0.00  0.00    -0.532 OA
ATOM     13  O   UNL d   1      -7.790   2.928  -7.901  0.00  0.00    -0.532 OA
ENDBRANCH   8  11
ENDBRANCH   1   5
BRANCH   3  14
ATOM     14  C   UNL d   1      -0.906   1.944  -3.055  0.00  0.00     0.123 C 
BRANCH  14  15
ATOM     15  C   UNL d   1      -1.198   1.957  -1.555  0.00  0.00     0.027 C 
BRANCH  15  16
ATOM     16  C   UNL d   1       0.030   1.622  -0.755  0.00  0.00     0.029 A 
ATOM     17  C   UNL d   1       0.030   1.628   0.756  0.00  0.00     0.117 A 
ATOM     18  C   UNL d   1       0.768   2.699  -0.001  0.00  0.00     0.050 A 
ATOM     19 CL   UNL d   1      -1.411   2.094   1.643  0.00  0.00    -0.101 Cl
ATOM     20 CL   UNL d   1       0.988   0.394   1.569  0.00  0.00    -0.101 Cl
ENDBRANCH  15  16
ENDBRANCH  14  15
ENDBRANCH   3  14
TORSDOF 5
