REMARK  9 active torsions:
REMARK  status: ('A' for Active; 'I' for Inactive)
REMARK    1  A    between atoms: N_2  and  S_1 
REMARK    2  A    between atoms: C_5  and  S_1 
REMARK    3  A    between atoms: C_4  and  N_2 
REMARK    4  A    between atoms: C_17  and  N_2 
REMARK    5  A    between atoms: C_6  and  C_3 
REMARK       I    between atoms: N_9  and  C_6 
REMARK    6  A    between atoms: C_14  and  N_9 
REMARK    7  A    between atoms: C_10  and  C_14 
REMARK    8  A    between atoms: O_19  and  C_10 
REMARK    9  A    between atoms: C_15  and  C_17 
ROOT
ATOM      1  C   UNL d   1      -1.859  -1.657   1.159  0.00  0.00     0.059 A 
ATOM      2  C   UNL d   1      -0.574  -2.094   0.777  0.00  0.00     0.061 A 
ATOM      3  C   UNL d   1      -2.511  -2.277   2.241  0.00  0.00     0.019 A 
ATOM      4  C   UNL d   1       0.066  -3.077   1.552  0.00  0.00     0.031 A 
ATOM      5  C   UNL d   1      -1.881  -3.291   2.964  0.00  0.00     0.001 A 
ATOM      6  C   UNL d   1      -0.588  -3.680   2.629  0.00  0.00     0.002 A 
ENDROOT
BRANCH   2   7
ATOM      7  N   UNL d   1       0.119  -1.507  -0.359  0.00  0.00    -0.267 N 
BRANCH   7   8
ATOM      8  S   UNL d   1       1.170  -0.229   0.062  0.00  0.00     0.265 S 
ATOM      9  O   UNL d   1       2.435  -0.827   0.443  0.00  0.00    -0.200 OA
ATOM     10  O   UNL d   1       0.484   0.687   0.951  0.00  0.00    -0.200 OA
BRANCH   8  11
ATOM     11  C   UNL d   1       1.427   0.647  -1.473  0.00  0.00     0.080 A 
ATOM     12  C   UNL d   1       2.730   0.890  -1.929  0.00  0.00     0.032 A 
ATOM     13  C   UNL d   1       2.935   1.612  -3.113  0.00  0.00    -0.060 A 
ATOM     14  C   UNL d   1       4.321   1.924  -3.599  0.00  0.00     0.048 C 
ATOM     15  C   UNL d   1       1.825   2.044  -3.852  0.00  0.00     0.007 A 
ATOM     16  C   UNL d   1       0.529   1.788  -3.398  0.00  0.00     0.002 A 
ATOM     17  C   UNL d   1       0.325   1.098  -2.203  0.00  0.00     0.025 A 
ENDBRANCH   8  11
ENDBRANCH   7   8
BRANCH   7  18
ATOM     18  C   UNL d   1       0.650  -2.449  -1.374  0.00  0.00     0.168 C 
BRANCH  18  19
ATOM     19  C   UNL d   1      -0.502  -3.167  -2.019  0.00  0.00    -0.016 C 
ATOM     20  C   UNL d   1      -0.603  -4.498  -2.143  0.00  0.00     0.008 C 
ENDBRANCH  18  19
ENDBRANCH   7  18
ENDBRANCH   2   7
BRANCH   1  21
ATOM     21  C   UNL d   1      -2.571  -0.580   0.409  0.00  0.00     0.254 C 
ATOM     22  N   UNL d   1      -3.388   0.251   1.149  0.00  0.00    -0.347 N 
ATOM     23  H   UNL d   1      -3.393   0.210   2.163  0.00  0.00     0.163 HD
ATOM     24  O   UNL d   1      -2.439  -0.435  -0.802  0.00  0.00    -0.268 OA
BRANCH  22  25
ATOM     25  C   UNL d   1      -3.958   1.431   0.530  0.00  0.00     0.232 C 
BRANCH  25  26
ATOM     26  C   UNL d   1      -4.961   2.128   1.436  0.00  0.00     0.158 C 
ATOM     27  O   UNL d   1      -5.243   1.762   2.571  0.00  0.00    -0.649 OA
BRANCH  26  28
ATOM     28  O   UNL d   1      -5.519   3.223   0.865  0.00  0.00    -0.775 OA
ATOM     29  H   UNL d   1      -5.201   3.404  -0.042  0.00  0.00     0.167 HD
ENDBRANCH  26  28
ENDBRANCH  25  26
ENDBRANCH  22  25
ENDBRANCH   1  21
TORSDOF 9
