REMARK  5 active torsions:
REMARK  status: ('A' for Active; 'I' for Inactive)
REMARK    1  A    between atoms: C_2  and  C_1 
REMARK    2  A    between atoms: C_13  and  C_8 
REMARK       I    between atoms: C_12  and  N_16 
REMARK    3  A    between atoms: C_18  and  C_12 
REMARK    4  A    between atoms: C_15  and  C_13 
REMARK       I    between atoms: N_17  and  C_15 
REMARK    5  A    between atoms: N_16  and  N_17 
ROOT
ATOM      1  C   UNL d   1       2.296  -5.396  -2.870  0.00  0.00     0.241 C 
ATOM      2  N   UNL d   1       1.483  -4.315  -3.085  0.00  0.00    -0.267 N 
ATOM      3  O   UNL d   1       2.374  -6.308  -3.702  0.00  0.00    -0.271 OA
ATOM      4  H   UNL d   1       1.505  -3.494  -2.474  0.00  0.00     0.190 HD
ENDROOT
BRANCH   1   5
ATOM      5  C   UNL d   1       3.057  -5.484  -1.565  0.00  0.00     0.162 C 
BRANCH   5   6
ATOM      6  C   UNL d   1       3.184  -4.275  -0.687  0.00  0.00     0.025 A 
ATOM      7  N   UNL d   1       2.648  -3.038  -1.033  0.00  0.00    -0.351 N 
ATOM      8  C   UNL d   1       2.972  -2.130  -0.125  0.00  0.00     0.101 A 
ATOM      9  HN  UNL d   1       2.087  -2.857  -1.866  1.00  0.00     0.166 HD
ATOM     10  S   UNL d   1       3.883  -2.718   1.208  0.00  0.00    -0.080 SA
ATOM     11  C   UNL d   1       3.859  -4.280   0.523  0.00  0.00     0.077 A 
BRANCH   8  12
ATOM     12  C   UNL d   1       2.600  -0.675  -0.245  0.00  0.00     0.073 A 
ATOM     13  N   UNL d   1       3.083   0.286   0.634  0.00  0.00    -0.352 N 
ATOM     14  C   UNL d   1       2.652   1.476   0.278  0.00  0.00     0.047 A 
ATOM     15  HN  UNL d   1       3.684   0.096   1.437  1.00  0.00     0.166 HD
ATOM     16  C   UNL d   1       3.022   2.745   0.967  0.00  0.00     0.076 C 
ATOM     17  S   UNL d   1       1.608   1.507  -1.086  0.00  0.00    -0.087 SA
ATOM     18  C   UNL d   1       1.773  -0.194  -1.238  0.00  0.00     0.083 A 
ENDBRANCH   8  12
ENDBRANCH   5   6
ENDBRANCH   1   5
BRANCH   2  19
ATOM     19  N   UNL d   1       0.869  -4.195  -4.341  0.00  0.00    -0.263 N 
ATOM     20  C   UNL d   1      -0.255  -3.406  -4.453  0.00  0.00     0.270 C 
ATOM     21  O   UNL d   1      -0.683  -2.693  -3.548  0.00  0.00    -0.266 OA
ATOM     22  H   UNL d   1       1.050  -4.964  -4.984  0.00  0.00     0.190 HD
BRANCH  20  23
ATOM     23  C   UNL d   1      -0.958  -3.455  -5.765  0.00  0.00     0.033 A 
ATOM     24  C   UNL d   1      -2.350  -3.292  -5.791  0.00  0.00     0.019 A 
ATOM     25  C   UNL d   1      -3.032  -3.267  -7.011  0.00  0.00     0.025 A 
ATOM     26  C   UNL d   1      -2.323  -3.396  -8.204  0.00  0.00     0.034 A 
ATOM     27  C   UNL d   1      -0.938  -3.563  -8.187  0.00  0.00     0.025 A 
ATOM     28 CL   UNL d   1      -3.156  -3.325  -9.707  0.00  0.00    -0.084 Cl
ATOM     29  C   UNL d   1      -0.253  -3.597  -6.968  0.00  0.00     0.019 A 
ENDBRANCH  20  23
ENDBRANCH   2  19
TORSDOF 5
