REMARK  5 active torsions:
REMARK  status: ('A' for Active; 'I' for Inactive)
REMARK    1  A    between atoms: C_3  and  C_1 
REMARK    2  A    between atoms: C_2  and  O_7 
REMARK    3  A    between atoms: C_8  and  C_2 
REMARK    4  A    between atoms: N_11  and  C_3 
REMARK    5  A    between atoms: O_7  and  N_5 
ROOT
ATOM      1  C   UNL d   1      -1.419   2.855  -0.055  0.00  0.00     0.111 C 
ATOM      2  N   UNL d   1      -2.489   3.579  -0.225  0.00  0.00    -0.246 N 
ATOM      3  HN  UNL d   1      -2.480   4.585  -0.396  1.00  0.00     0.196 HD
ENDROOT
BRANCH   1   4
ATOM      4  C   UNL d   1      -0.090   3.563  -0.100  0.00  0.00     0.027 A 
ATOM      5  C   UNL d   1       1.105   2.978  -0.562  0.00  0.00     0.069 A 
ATOM      6  C   UNL d   1       2.297   3.728  -0.522  0.00  0.00     0.056 A 
ATOM      7 CL   UNL d   1       1.133   1.375  -1.234  0.00  0.00    -0.082 Cl
ATOM      8 CL   UNL d   1       3.817   3.090  -1.057  0.00  0.00    -0.083 Cl
ATOM      9  C   UNL d   1       2.301   5.042  -0.044  0.00  0.00     0.026 A 
ATOM     10  C   UNL d   1       1.118   5.626   0.394  0.00  0.00     0.003 A 
ATOM     11  C   UNL d   1      -0.068   4.891   0.365  0.00  0.00     0.016 A 
ENDBRANCH   1   4
BRANCH   1  12
ATOM     12  N   UNL d   1      -1.472   1.504   0.191  0.00  0.00    -0.286 NA
ATOM     13  H   UNL d   1      -0.676   0.949  -0.110  0.00  0.00     0.125 HD
ATOM     14  H   UNL d   1      -2.361   1.075  -0.040  0.00  0.00     0.125 HD
ENDBRANCH   1  12
BRANCH   2  15
ATOM     15  O   UNL d   1      -3.661   2.799  -0.144  0.00  0.00    -0.196 OA
BRANCH  15  16
ATOM     16  C   UNL d   1      -4.776   3.600  -0.193  0.00  0.00     0.314 C 
ATOM     17  O   UNL d   1      -4.765   4.827  -0.284  0.00  0.00    -0.260 OA
BRANCH  16  18
ATOM     18  C   UNL d   1      -6.058   2.783  -0.204  0.00  0.00     0.279 C 
ATOM     19 CL   UNL d   1      -5.818   1.054   0.154  0.00  0.00    -0.097 Cl
ATOM     20 CL   UNL d   1      -7.215   3.465   0.965  0.00  0.00    -0.097 Cl
ENDBRANCH  16  18
ENDBRANCH  15  16
ENDBRANCH   2  15
TORSDOF 5
