REMARK  2 active torsions:
REMARK  status: ('A' for Active; 'I' for Inactive)
REMARK    1  A    between atoms: C_8  and  O_11 
REMARK    2  A    between atoms: O_11  and  C_12 
ROOT
ATOM      1  N   UNL d   1       1.198  -0.151  -0.038  0.00  0.00    -0.195 NA
ATOM      2  C   UNL d   1       2.356  -0.236  -0.052  0.00  0.00     0.085 C 
ATOM      3  C   UNL d   1       3.824  -0.362  -0.036  0.00  0.00     0.299 C 
ENDROOT
BRANCH   3   4
ATOM      4  O   UNL d   1       4.344  -0.183  -1.358  0.00  0.00    -0.337 OA
BRANCH   4   5
ATOM      5  C   UNL d   1       5.701  -0.267  -1.511  0.00  0.00     0.073 A 
ATOM      6  C   UNL d   1       6.569  -0.985  -0.689  0.00  0.00     0.060 A 
ATOM      7  C   UNL d   1       7.936  -1.017  -0.985  0.00  0.00     0.038 A 
ATOM      8 CL   UNL d   1       9.000  -1.917   0.026  0.00  0.00    -0.084 Cl
ATOM      9  C   UNL d   1       8.448  -0.339  -2.087  0.00  0.00     0.048 A 
ATOM     10  C   UNL d   1       7.575   0.368  -2.908  0.00  0.00     0.038 A 
ATOM     11  C   UNL d   1       6.208   0.400  -2.630  0.00  0.00     0.060 A 
ATOM     12 CL   UNL d   1       8.187   1.209  -4.278  0.00  0.00    -0.084 Cl
ENDBRANCH   4   5
ENDBRANCH   3   4
TORSDOF 2
