REMARK  4 active torsions:
REMARK  status: ('A' for Active; 'I' for Inactive)
REMARK    1  A    between atoms: N_2  and  S_1 
REMARK    2  A    between atoms: C_6  and  S_1 
REMARK    3  A    between atoms: C_4  and  N_2 
REMARK    4  A    between atoms: C_3  and  C_5 
ROOT
ATOM      1  N   UNL d   1       0.621   1.568  -0.124  0.00  0.00    -0.180 NA
ATOM      2  H   UNL d   1      -0.382   1.605  -0.336  0.00  0.00     0.146 HD
ENDROOT
BRANCH   1   3
ATOM      3  S   UNL d   1       0.953  -0.086   0.162  0.00  0.00     0.245 S 
ATOM      4  O   UNL d   1      -0.313  -0.702   0.489  0.00  0.00    -0.206 OA
ATOM      5  O   UNL d   1       2.121  -0.224   1.003  0.00  0.00    -0.206 OA
BRANCH   3   6
ATOM      6  C   UNL d   1       1.420  -0.632  -1.467  0.00  0.00     0.074 A 
ATOM      7  C   UNL d   1       2.562  -0.087  -2.062  0.00  0.00     0.026 A 
ATOM      8  C   UNL d   1       2.954  -0.527  -3.329  0.00  0.00     0.025 A 
ATOM      9  C   UNL d   1       2.208  -1.508  -3.985  0.00  0.00     0.034 A 
ATOM     10  C   UNL d   1       1.072  -2.055  -3.387  0.00  0.00     0.025 A 
ATOM     11 CL   UNL d   1       2.700  -2.052  -5.542  0.00  0.00    -0.084 Cl
ATOM     12  C   UNL d   1       0.672  -1.618  -2.122  0.00  0.00     0.026 A 
ENDBRANCH   3   6
ENDBRANCH   1   3
BRANCH   1  13
ATOM     13  C   UNL d   1       0.902   2.429   1.003  0.00  0.00     0.044 A 
ATOM     14  C   UNL d   1      -0.065   2.718   1.976  0.00  0.00     0.057 A 
ATOM     15  C   UNL d   1       0.248   3.543   3.062  0.00  0.00     0.041 A 
ATOM     16 CL   UNL d   1      -1.677   2.116   1.841  0.00  0.00    -0.082 Cl
ATOM     17  C   UNL d   1       1.535   4.087   3.195  0.00  0.00     0.049 A 
ATOM     18  C   UNL d   1       2.505   3.772   2.228  0.00  0.00     0.018 A 
ATOM     19  C   UNL d   1       2.192   2.943   1.146  0.00  0.00     0.027 A 
BRANCH  17  20
ATOM     20  C   UNL d   1       1.881   5.002   4.347  0.00  0.00     0.417 C 
ATOM     21  F   UNL d   1       0.835   5.237   5.186  0.00  0.00    -0.166 F 
ATOM     22  F   UNL d   1       2.883   4.508   5.124  0.00  0.00    -0.166 F 
ATOM     23  F   UNL d   1       2.302   6.226   3.925  0.00  0.00    -0.166 F 
ENDBRANCH  17  20
ENDBRANCH   1  13
TORSDOF 4
