REMARK  5 active torsions:
REMARK  status: ('A' for Active; 'I' for Inactive)
REMARK    1  A    between atoms: N_2  and  S_1 
REMARK    2  A    between atoms: C_3  and  S_1 
REMARK    3  A    between atoms: C_6  and  N_2 
REMARK    4  A    between atoms: C_4  and  C_7 
REMARK    5  A    between atoms: C_5  and  C_8 
ROOT
ATOM      1  C   UNL d   1       0.876  -0.016  -1.941  0.00  0.00     0.076 A 
ATOM      2  C   UNL d   1       0.839   0.976  -4.159  0.00  0.00     0.050 A 
ATOM      3  C   UNL d   1       0.577  -1.448  -3.885  0.00  0.00     0.050 A 
ATOM      4  C   UNL d   1       0.962   1.116  -2.766  0.00  0.00     0.041 A 
ATOM      5  C   UNL d   1       0.685  -1.290  -2.494  0.00  0.00     0.041 A 
ATOM      6  C   UNL d   1       0.647  -0.306  -4.704  0.00  0.00     0.032 A 
ENDROOT
BRANCH   1   7
ATOM      7  S   UNL d   1       1.209   0.129  -0.197  0.00  0.00     0.243 S 
ATOM      8  O   UNL d   1       0.879  -1.131   0.429  0.00  0.00    -0.206 OA
ATOM      9  O   UNL d   1       2.558   0.663  -0.126  0.00  0.00    -0.206 OA
BRANCH   7  10
ATOM     10  N   UNL d   1       0.130   1.317   0.456  0.00  0.00    -0.205 NA
ATOM     11  C   UNL d   1       0.684   1.823   1.755  0.00  0.00     0.130 C 
BRANCH  10  12
ATOM     12  C   UNL d   1      -1.317   0.892   0.630  0.00  0.00     0.082 C 
ATOM     13  C   UNL d   1      -2.218   1.976   1.325  0.00  0.00     0.027 C 
ATOM     14  C   UNL d   1      -2.118   3.280   0.568  0.00  0.00    -0.024 C 
ATOM     15  C   UNL d   1      -3.619   1.560   0.855  0.00  0.00     0.018 C 
ATOM     16  C   UNL d   1      -2.712   3.090  -0.618  0.00  0.00    -0.026 C 
ATOM     17  C   UNL d   1      -3.257   1.679  -0.623  0.00  0.00     0.010 C 
ATOM     18  C   UNL d   1      -2.078   0.686  -0.712  0.00  0.00     0.030 C 
ENDBRANCH  10  12
ENDBRANCH   7  10
ENDBRANCH   1   7
BRANCH   2  19
ATOM     19  C   UNL d   1       0.956   2.166  -5.088  0.00  0.00     0.417 C 
ATOM     20  F   UNL d   1       1.096   3.354  -4.442  0.00  0.00    -0.166 F 
ATOM     21  F   UNL d   1       2.024   2.062  -5.926  0.00  0.00    -0.166 F 
ATOM     22  F   UNL d   1      -0.136   2.300  -5.892  0.00  0.00    -0.166 F 
ENDBRANCH   2  19
BRANCH   3  23
ATOM     23  C   UNL d   1       0.438  -2.816  -4.516  0.00  0.00     0.417 C 
ATOM     24  F   UNL d   1       0.377  -3.830  -3.611  0.00  0.00    -0.166 F 
ATOM     25  F   UNL d   1      -0.685  -2.921  -5.277  0.00  0.00    -0.166 F 
ATOM     26  F   UNL d   1       1.481  -3.109  -5.341  0.00  0.00    -0.166 F 
ENDBRANCH   3  23
TORSDOF 5
