REMARK  5 active torsions:
REMARK  status: ('A' for Active; 'I' for Inactive)
REMARK    1  A    between atoms: N_4  and  C_1 
REMARK    2  A    between atoms: C_2  and  C_3 
REMARK       I    between atoms: N_6  and  C_2 
REMARK    3  A    between atoms: O_20  and  C_5 
REMARK       I    between atoms: C_7  and  N_6 
REMARK       I    between atoms: N_9  and  C_7 
REMARK    4  A    between atoms: C_16  and  N_9 
REMARK    5  A    between atoms: O_25  and  C_12 
ROOT
ATOM      1  C   UNL d   1      -1.553  -2.747   0.843  0.00  0.00     0.265 C 
ATOM      2  N   UNL d   1      -1.060  -3.832   1.554  0.00  0.00    -0.275 N 
ATOM      3  C   UNL d   1      -1.540  -5.120   1.503  0.00  0.00     0.327 C 
ATOM      4  N   UNL d   1      -2.885  -5.227   1.248  0.00  0.00    -0.309 N 
ATOM      5  O   UNL d   1      -2.748  -2.682   0.556  0.00  0.00    -0.267 OA
ATOM      6  O   UNL d   1      -0.747  -6.047   1.647  0.00  0.00    -0.247 OA
ATOM      7  H   UNL d   1      -0.068  -3.832   1.759  0.00  0.00     0.173 HD
ATOM      8  H   UNL d   1      -3.369  -4.332   1.211  0.00  0.00     0.170 HD
ENDROOT
BRANCH   1   9
ATOM      9  C   UNL d   1      -0.593  -1.624   0.513  0.00  0.00     0.101 A 
ATOM     10  C   UNL d   1       0.781  -1.660   0.855  0.00  0.00     0.119 A 
ATOM     11  C   UNL d   1       1.571  -0.511   0.641  0.00  0.00     0.137 A 
ATOM     12  C   UNL d   1       1.073   0.625   0.003  0.00  0.00     0.042 A 
ATOM     13  C   UNL d   1      -0.250   0.633  -0.407  0.00  0.00     0.040 A 
ATOM     14  C   UNL d   1      -1.072  -0.477  -0.166  0.00  0.00     0.086 A 
BRANCH  10  15
ATOM     15  O   UNL d   1       1.288  -2.793   1.442  0.00  0.00    -0.352 OA
ATOM     16  C   UNL d   1       2.369  -3.402   0.720  0.00  0.00     0.210 C 
ENDBRANCH  10  15
BRANCH  11  17
ATOM     17  N   UNL d   1       2.932  -0.439   1.139  0.00  0.00    -0.113 N 
ATOM     18  O   UNL d   1       3.107  -0.612   2.351  0.00  0.00    -0.532 OA
ATOM     19  O   UNL d   1       3.816  -0.193   0.307  0.00  0.00    -0.532 OA
ENDBRANCH  11  17
BRANCH  14  20
ATOM     20  O   UNL d   1      -2.386  -0.337  -0.540  0.00  0.00    -0.355 OA
ATOM     21  C   UNL d   1      -2.555  -0.564  -1.941  0.00  0.00     0.210 C 
ENDBRANCH  14  20
ENDBRANCH   1   9
BRANCH   4  22
ATOM     22  C   UNL d   1      -3.635  -6.381   0.968  0.00  0.00     0.038 A 
ATOM     23  C   UNL d   1      -3.078  -7.651   0.804  0.00  0.00     0.055 A 
ATOM     24  C   UNL d   1      -3.884  -8.739   0.442  0.00  0.00     0.058 A 
ATOM     25 CL   UNL d   1      -3.112 -10.269   0.209  0.00  0.00    -0.082 Cl
ATOM     26  C   UNL d   1      -5.259  -8.564   0.261  0.00  0.00     0.055 A 
ATOM     27  C   UNL d   1      -5.825  -7.303   0.452  0.00  0.00     0.028 A 
ATOM     28 CL   UNL d   1      -6.308  -9.854  -0.211  0.00  0.00    -0.083 Cl
ATOM     29  C   UNL d   1      -5.015  -6.217   0.799  0.00  0.00     0.031 A 
ENDBRANCH   4  22
TORSDOF 5
