REMARK  5 active torsions:
REMARK  status: ('A' for Active; 'I' for Inactive)
REMARK    1  A    between atoms: N_4  and  S_1 
REMARK    2  A    between atoms: C_6  and  S_1 
REMARK    3  A    between atoms: C_5  and  C_2 
REMARK    4  A    between atoms: C_3  and  N_4 
REMARK    5  A    between atoms: O_16  and  C_5 
ROOT
ATOM      1  N   UNL d   1       0.645  -0.634  -1.336  0.00  0.00    -0.180 NA
ATOM      2  H   UNL d   1       1.195  -0.195  -0.596  0.00  0.00     0.146 HD
ENDROOT
BRANCH   1   3
ATOM      3  C   UNL d   1       0.833   0.012  -2.616  0.00  0.00     0.040 A 
ATOM      4  C   UNL d   1      -0.164   0.074  -3.607  0.00  0.00     0.061 A 
ATOM      5  C   UNL d   1       0.148   0.620  -4.867  0.00  0.00     0.021 A 
ATOM      6  C   UNL d   1       1.431   1.097  -5.143  0.00  0.00     0.025 A 
ATOM      7  C   UNL d   1       2.413   1.022  -4.163  0.00  0.00     0.035 A 
ATOM      8  C   UNL d   1       2.124   0.480  -2.910  0.00  0.00     0.049 A 
ATOM      9 CL   UNL d   1       4.002   1.589  -4.501  0.00  0.00    -0.084 Cl
BRANCH   4  10
ATOM     10  C   UNL d   1      -1.568  -0.380  -3.433  0.00  0.00     0.294 C 
ATOM     11  O   UNL d   1      -2.269  -0.736  -4.367  0.00  0.00    -0.259 OA
BRANCH  10  12
ATOM     12  O   UNL d   1      -1.982  -0.210  -2.153  0.00  0.00    -0.322 OA
ATOM     13  C   UNL d   1      -3.353  -0.555  -1.949  0.00  0.00     0.213 C 
ENDBRANCH  10  12
ENDBRANCH   4  10
ENDBRANCH   1   3
BRANCH   1  14
ATOM     14  S   UNL d   1       1.000  -2.304  -1.366  0.00  0.00     0.245 S 
ATOM     15  O   UNL d   1       2.436  -2.412  -1.513  0.00  0.00    -0.206 OA
ATOM     16  O   UNL d   1       0.083  -2.968  -2.264  0.00  0.00    -0.206 OA
BRANCH  14  17
ATOM     17  C   UNL d   1       0.592  -2.807   0.290  0.00  0.00     0.074 A 
ATOM     18  C   UNL d   1      -0.718  -2.653   0.753  0.00  0.00     0.026 A 
ATOM     19  C   UNL d   1      -1.050  -3.102   2.035  0.00  0.00     0.025 A 
ATOM     20  C   UNL d   1      -0.077  -3.702   2.837  0.00  0.00     0.034 A 
ATOM     21  C   UNL d   1       1.231  -3.847   2.377  0.00  0.00     0.025 A 
ATOM     22 CL   UNL d   1      -0.499  -4.281   4.402  0.00  0.00    -0.084 Cl
ATOM     23  C   UNL d   1       1.571  -3.398   1.098  0.00  0.00     0.026 A 
ENDBRANCH  14  17
ENDBRANCH   1  14
TORSDOF 5
