REMARK  8 active torsions:
REMARK  status: ('A' for Active; 'I' for Inactive)
REMARK    1  A    between atoms: C_4  and  S_1 
REMARK    2  A    between atoms: C_10  and  S_1 
REMARK       I    between atoms: C_2  and  N_5 
REMARK       I    between atoms: N_6  and  C_2 
REMARK    3  A    between atoms: C_3  and  C_17 
REMARK       I    between atoms: N_7  and  C_3 
REMARK    4  A    between atoms: C_22  and  C_4 
REMARK    5  A    between atoms: N_5  and  N_7 
REMARK    6  A    between atoms: C_13  and  N_6 
REMARK    7  A    between atoms: S_15  and  C_22 
REMARK    8  A    between atoms: C_17  and  S_15 
ROOT
ATOM      1  C   UNL d   1       0.153  -0.765  -6.824  0.00  0.00     0.245 C 
ATOM      2  N   UNL d   1      -1.220  -0.698  -6.913  0.00  0.00    -0.265 N 
ATOM      3  O   UNL d   1       0.848  -1.241  -7.723  0.00  0.00    -0.271 OA
ATOM      4  H   UNL d   1      -1.833  -0.385  -6.160  0.00  0.00     0.190 HD
ENDROOT
BRANCH   1   5
ATOM      5  C   UNL d   1       0.753  -0.155  -5.575  0.00  0.00     0.178 C 
BRANCH   5   6
ATOM      6  S   UNL d   1       0.274  -1.045  -4.064  0.00  0.00    -0.159 SA
BRANCH   6   7
ATOM      7  C   UNL d   1       1.115  -2.652  -4.338  0.00  0.00     0.089 C 
BRANCH   7   8
ATOM      8  C   UNL d   1       0.977  -3.460  -3.056  0.00  0.00     0.156 C 
BRANCH   8   9
ATOM      9  S   UNL d   1       1.621  -5.105  -3.246  0.00  0.00     0.176 S 
ATOM     10  O   UNL d   1       3.044  -5.012  -3.511  0.00  0.00    -0.223 OA
ATOM     11  O   UNL d   1       0.745  -5.840  -4.134  0.00  0.00    -0.223 OA
BRANCH   9  12
ATOM     12  C   UNL d   1       1.423  -5.791  -1.612  0.00  0.00     0.059 A 
ATOM     13  C   UNL d   1       0.224  -6.416  -1.262  0.00  0.00     0.023 A 
ATOM     14  C   UNL d   1       0.072  -6.945   0.019  0.00  0.00     0.002 A 
ATOM     15  C   UNL d   1       1.118  -6.858   0.941  0.00  0.00     0.000 A 
ATOM     16  C   UNL d   1       2.318  -6.246   0.582  0.00  0.00     0.002 A 
ATOM     17  C   UNL d   1       2.478  -5.714  -0.699  0.00  0.00     0.023 A 
ENDBRANCH   9  12
ENDBRANCH   8   9
ENDBRANCH   7   8
ENDBRANCH   6   7
ENDBRANCH   5   6
ENDBRANCH   1   5
BRANCH   2  18
ATOM     18  N   UNL d   1      -1.831  -1.116  -8.108  0.00  0.00    -0.249 N 
ATOM     19  C   UNL d   1      -3.213  -1.244  -8.118  0.00  0.00     0.339 C 
ATOM     20  N   UNL d   1      -3.670  -1.701  -9.338  0.00  0.00    -0.308 N 
ATOM     21  O   UNL d   1      -3.887  -0.938  -7.139  0.00  0.00    -0.245 OA
ATOM     22  H   UNL d   1      -2.969  -1.797 -10.058  0.00  0.00     0.170 HD
ATOM     23  H   UNL d   1      -1.259  -1.730  -8.682  0.00  0.00     0.192 HD
BRANCH  20  24
ATOM     24  C   UNL d   1      -4.994  -2.024  -9.697  0.00  0.00     0.036 A 
ATOM     25  C   UNL d   1      -6.081  -1.925  -8.825  0.00  0.00     0.031 A 
ATOM     26  C   UNL d   1      -7.356  -2.345  -9.225  0.00  0.00     0.026 A 
ATOM     27  C   UNL d   1      -7.550  -2.860 -10.503  0.00  0.00     0.034 A 
ATOM     28  C   UNL d   1      -6.486  -2.928 -11.397  0.00  0.00     0.026 A 
ATOM     29 CL   UNL d   1      -9.103  -3.429 -10.972  0.00  0.00    -0.084 Cl
ATOM     30  C   UNL d   1      -5.212  -2.506 -10.996  0.00  0.00     0.031 A 
ENDBRANCH  20  24
ENDBRANCH   2  18
TORSDOF 8
