REMARK  2 active torsions:
REMARK  status: ('A' for Active; 'I' for Inactive)
REMARK    1  A    between atoms: S_16  and  C_5 
REMARK    2  A    between atoms: C_20  and  S_16 
ROOT
ATOM      1  S   UNL d   1      -0.851  -2.158   0.513  0.00  0.00     0.267 S 
ATOM      2  C   UNL d   1      -1.633  -0.658   0.191  0.00  0.00     0.116 A 
ATOM      3  C   UNL d   1      -0.802   0.496  -0.073  0.00  0.00     0.029 A 
ATOM      4  N   UNL d   1       0.608  -2.049  -0.310  0.00  0.00    -0.275 N 
ATOM      5  C   UNL d   1      -2.985  -0.401   0.192  0.00  0.00     0.067 A 
ATOM      6  C   UNL d   1      -1.601   1.599  -0.348  0.00  0.00     0.099 A 
ATOM      7  S   UNL d   1      -3.274   1.229  -0.230  0.00  0.00    -0.070 SA
ATOM      8  C   UNL d   1       0.682   0.438  -0.061  0.00  0.00     0.005 A 
ATOM      9  C   UNL d   1       1.343  -0.818  -0.183  0.00  0.00     0.056 A 
ATOM     10  O   UNL d   1      -1.691  -3.171  -0.081  0.00  0.00    -0.200 OA
ATOM     11  O   UNL d   1      -0.618  -2.088   1.939  0.00  0.00    -0.200 OA
ATOM     12  C   UNL d   1      -1.210   2.927  -0.708  0.00  0.00     0.108 C 
ATOM     13  N   UNL d   1      -0.893   4.011  -0.980  0.00  0.00    -0.191 NA
ATOM     14  C   UNL d   1       0.995  -3.078  -1.276  0.00  0.00     0.170 C 
ATOM     15  C   UNL d   1       1.479   1.577   0.133  0.00  0.00     0.014 A 
ATOM     16  C   UNL d   1       2.743  -0.886  -0.165  0.00  0.00     0.031 A 
ATOM     17  C   UNL d   1       2.875   1.492   0.155  0.00  0.00     0.001 A 
ATOM     18  C   UNL d   1       3.507   0.265   0.002  0.00  0.00     0.002 A 
ENDROOT
BRANCH   5  19
ATOM     19  S   UNL d   1      -4.356  -1.460   0.500  0.00  0.00    -0.107 SA
BRANCH  19  20
ATOM     20  C   UNL d   1      -4.129  -1.882   2.258  0.00  0.00     0.203 C 
ATOM     21  C   UNL d   1      -4.047  -0.712   3.138  0.00  0.00     0.069 C 
ATOM     22  N   UNL d   1      -3.977   0.220   3.829  0.00  0.00    -0.197 NA
ENDBRANCH  19  20
ENDBRANCH   5  19
TORSDOF 2
