REMARK  6 active torsions:
REMARK  status: ('A' for Active; 'I' for Inactive)
REMARK    1  A    between atoms: C_14  and  C_1 
REMARK    2  A    between atoms: C_3  and  C_2 
REMARK    3  A    between atoms: C_11  and  C_20 
REMARK    4  A    between atoms: O_22  and  C_14 
REMARK    5  A    between atoms: N_15  and  N_17 
REMARK    6  A    between atoms: C_28  and  O_22 
ROOT
ATOM      1  C   UNL d   1      -1.532   2.235  -0.038  0.00  0.00     0.077 A 
ATOM      2  N   UNL d   1      -2.541   2.403   0.880  0.00  0.00    -0.333 N 
ATOM      3  HN  UNL d   1      -2.832   1.696   1.555  1.00  0.00     0.168 HD
ATOM      4  C   UNL d   1      -3.082   3.596   0.772  0.00  0.00     0.163 A 
ATOM      5  S   UNL d   1      -2.452   4.548  -0.524  0.00  0.00    -0.062 SA
ATOM      6  C   UNL d   1      -1.328   3.304  -0.884  0.00  0.00     0.085 A 
ATOM      7  N   UNL d   1      -4.033   4.108   1.601  0.00  0.00    -0.280 N 
ATOM      8  H   UNL d   1      -4.301   5.073   1.433  0.00  0.00     0.189 HD
ENDROOT
BRANCH   7   9
ATOM      9  N   UNL d   1      -4.194   3.585   2.847  0.00  0.00    -0.309 N 
ATOM     10  C   UNL d   1      -4.991   4.203   3.650  0.00  0.00     0.122 C 
ATOM     11  HN  UNL d   1      -3.703   2.738   3.134  1.00  0.00     0.186 HD
BRANCH  10  12
ATOM     12  C   UNL d   1      -5.168   3.722   5.035  0.00  0.00     0.024 A 
ATOM     13  C   UNL d   1      -4.087   3.234   5.791  0.00  0.00     0.047 A 
ATOM     14 CL   UNL d   1      -2.436   3.326   5.278  0.00  0.00    -0.083 Cl
ATOM     15  C   UNL d   1      -4.304   2.707   7.070  0.00  0.00     0.025 A 
ATOM     16  C   UNL d   1      -5.585   2.681   7.613  0.00  0.00     0.003 A 
ATOM     17  C   UNL d   1      -6.654   3.202   6.886  0.00  0.00     0.025 A 
ATOM     18  C   UNL d   1      -6.449   3.724   5.604  0.00  0.00     0.047 A 
ATOM     19 CL   UNL d   1      -7.839   4.335   4.773  0.00  0.00    -0.083 Cl
ENDBRANCH  10  12
ENDBRANCH   7   9
BRANCH   1  20
ATOM     20  C   UNL d   1      -0.744   0.975  -0.056  0.00  0.00     0.128 A 
ATOM     21  C   UNL d   1       0.341   0.673  -0.842  0.00  0.00     0.079 A 
ATOM     22  C   UNL d   1       0.711  -0.644  -0.471  0.00  0.00     0.132 A 
ATOM     23  N   UNL d   1      -0.102  -1.112   0.488  0.00  0.00    -0.255 N 
ATOM     24  O   UNL d   1      -1.003  -0.096   0.748  0.00  0.00    -0.235 OA
ATOM     25  HN  UNL d   1      -0.063  -2.028   0.934  1.00  0.00     0.195 HD
BRANCH  22  26
ATOM     26  C   UNL d   1       1.777  -1.442  -1.067  0.00  0.00     0.311 C 
ATOM     27  O   UNL d   1       2.487  -1.024  -1.972  0.00  0.00    -0.258 OA
BRANCH  26  28
ATOM     28  O   UNL d   1       1.819  -2.717  -0.578  0.00  0.00    -0.317 OA
BRANCH  28  29
ATOM     29  C   UNL d   1       2.471  -3.674  -1.419  0.00  0.00     0.175 C 
ATOM     30  C   UNL d   1       1.465  -4.161  -2.448  0.00  0.00     0.034 C 
ENDBRANCH  28  29
ENDBRANCH  26  28
ENDBRANCH  22  26
ENDBRANCH   1  20
TORSDOF 6
