REMARK  4 active torsions:
REMARK  status: ('A' for Active; 'I' for Inactive)
REMARK    1  A    between atoms: C_2  and  S_1 
REMARK    2  A    between atoms: C_8  and  S_1 
REMARK    3  A    between atoms: S_9  and  C_3 
REMARK    4  A    between atoms: S_10  and  C_3 
ROOT
ATOM      1  C   UNL d   1       0.309  -0.667   1.553  0.00  0.00     0.162 C 
ATOM      2  C   UNL d   1      -0.368   0.261   2.276  0.00  0.00     0.068 C 
ATOM      3  C   UNL d   1       0.621  -1.960   2.067  0.00  0.00     0.113 C 
ATOM      4  N   UNL d   1       0.895  -2.996   2.509  0.00  0.00    -0.191 NA
ENDROOT
BRANCH   1   5
ATOM      5  S   UNL d   1       0.930  -0.398  -0.057  0.00  0.00     0.190 S 
ATOM      6  O   UNL d   1       0.029   0.443  -0.819  0.00  0.00    -0.221 OA
ATOM      7  O   UNL d   1       1.308  -1.676  -0.641  0.00  0.00    -0.221 OA
BRANCH   5   8
ATOM      8  C   UNL d   1       2.463   0.524   0.207  0.00  0.00     0.106 C 
ATOM      9  C   UNL d   1       3.520  -0.311   0.923  0.00  0.00     0.026 C 
ATOM     10  C   UNL d   1       3.010   1.008  -1.136  0.00  0.00     0.026 C 
ENDBRANCH   5   8
ENDBRANCH   1   5
BRANCH   2  11
ATOM     11  S   UNL d   1      -0.764  -0.098   3.972  0.00  0.00    -0.125 SA
ATOM     12  C   UNL d   1      -2.385   0.650   4.240  0.00  0.00     0.096 C 
ENDBRANCH   2  11
BRANCH   2  13
ATOM     13  S   UNL d   1      -0.665   1.907   1.746  0.00  0.00    -0.125 SA
ATOM     14  C   UNL d   1      -2.261   1.722   0.902  0.00  0.00     0.096 C 
ENDBRANCH   2  13
TORSDOF 4
