REMARK  3 active torsions:
REMARK  status: ('A' for Active; 'I' for Inactive)
REMARK    1  A    between atoms: O_8  and  C_1 
REMARK    2  A    between atoms: N_7  and  C_2 
REMARK    3  A    between atoms: C_9  and  O_8 
ROOT
ATOM      1  C   UNL d   1       0.552  -1.327  -0.013  0.00  0.00     0.200 C 
ATOM      2  C   UNL d   1      -0.815  -1.240   0.225  0.00  0.00     0.179 C 
ATOM      3  N   UNL d   1       0.976  -0.020  -0.000  0.00  0.00    -0.273 N 
ATOM      4  N   UNL d   1      -0.023   0.883   0.032  0.00  0.00    -0.299 N 
ATOM      5  HN  UNL d   1       0.048   1.900  -0.013  1.00  0.00     0.187 HD
ATOM      6  C   UNL d   1      -1.132   0.137   0.138  0.00  0.00     0.059 C 
ATOM      7  C   UNL d   1       2.339   0.459  -0.079  0.00  0.00     0.180 C 
ATOM      8  C   UNL d   1      -2.453   0.816   0.143  0.00  0.00     0.072 C 
ENDROOT
BRANCH   1   9
ATOM      9  O   UNL d   1       1.438  -2.300  -0.238  0.00  0.00    -0.287 OA
BRANCH   9  10
ATOM     10  C   UNL d   1       1.084  -3.538  -0.729  0.00  0.00     0.121 A 
ATOM     11  C   UNL d   1       0.261  -3.739  -1.848  0.00  0.00     0.069 A 
ATOM     12 CL   UNL d   1      -0.293  -2.447  -2.857  0.00  0.00    -0.081 Cl
ATOM     13  C   UNL d   1      -0.096  -5.035  -2.239  0.00  0.00     0.027 A 
ATOM     14  C   UNL d   1       0.431  -6.140  -1.573  0.00  0.00     0.003 A 
ATOM     15  C   UNL d   1       1.332  -5.953  -0.528  0.00  0.00     0.027 A 
ATOM     16  C   UNL d   1       1.655  -4.658  -0.107  0.00  0.00     0.069 A 
ATOM     17 CL   UNL d   1       2.802  -4.485   1.176  0.00  0.00    -0.081 Cl
ENDBRANCH   9  10
ENDBRANCH   1   9
BRANCH   2  18
ATOM     18  N   UNL d   1      -1.713  -2.327   0.431  0.00  0.00    -0.109 N 
ATOM     19  O   UNL d   1      -1.365  -3.194   1.239  0.00  0.00    -0.532 OA
ATOM     20  O   UNL d   1      -2.772  -2.315  -0.209  0.00  0.00    -0.532 OA
ENDBRANCH   2  18
TORSDOF 3
