REMARK  1 active torsions:
REMARK  status: ('A' for Active; 'I' for Inactive)
REMARK       I    between atoms: C_2  and  N_1 
REMARK       I    between atoms: N_7  and  C_2 
REMARK    1  A    between atoms: O_9  and  N_4 
ROOT
ATOM      1  N   UNL d   1       0.845   1.077   0.465  0.00  0.00    -0.288 N 
ATOM      2  C   UNL d   1       1.941   0.299   0.131  0.00  0.00     0.321 C 
ATOM      3  C   UNL d   1      -0.224   1.270  -0.397  0.00  0.00     0.107 C 
ATOM      4  N   UNL d   1      -0.048   1.866  -1.533  0.00  0.00    -0.257 N 
ATOM      5  HN  UNL d   1       0.854   2.194  -1.877  1.00  0.00     0.195 HD
ATOM      6  O   UNL d   1       2.963   0.199   0.799  0.00  0.00    -0.247 OA
ATOM      7  N   UNL d   1       1.805  -0.458  -0.994  0.00  0.00    -0.352 N 
ATOM      8  C   UNL d   1       0.939   1.952   1.625  0.00  0.00     0.135 C 
ATOM      9  C   UNL d   1      -1.522   0.709   0.136  0.00  0.00     0.078 C 
ATOM     10  C   UNL d   1      -0.276   1.901   2.555  0.00  0.00     0.020 C 
ATOM     11  C   UNL d   1      -2.316   1.692   0.979  0.00  0.00     0.008 C 
ATOM     12  C   UNL d   1      -1.517   2.559   1.952  0.00  0.00     0.002 C 
ATOM     13  H   UNL d   1       1.322  -0.021  -1.771  0.00  0.00     0.160 HD
ATOM     14  H   UNL d   1       2.645  -0.963  -1.244  0.00  0.00     0.160 HD
ENDROOT
BRANCH   4  15
ATOM     15  O   UNL d   1      -1.255   2.003  -2.228  0.00  0.00    -0.288 OA
ATOM     16  H   UNL d   1      -1.010   2.587  -2.970  0.00  0.00     0.244 HD
ENDBRANCH   4  15
TORSDOF 1
