REMARK  10 active torsions:
REMARK  status: ('A' for Active; 'I' for Inactive)
REMARK    1  A    between atoms: C_13  and  C_1 
REMARK    2  A    between atoms: C_14  and  C_2 
REMARK    3  A    between atoms: N_3  and  C_16 
REMARK    4  A    between atoms: C_15  and  N_4 
REMARK    5  A    between atoms: O_24  and  C_13 
REMARK    6  A    between atoms: O_23  and  C_14 
REMARK    7  A    between atoms: C_35  and  O_23 
REMARK    8  A    between atoms: C_34  and  O_24 
REMARK    9  A    between atoms: C_29  and  C_27 
REMARK   10  A    between atoms: C_28  and  C_29 
ROOT
ATOM      1  C   UNL d   1       5.692  -3.768  -0.225  0.00  0.00     0.077 C 
ENDROOT
BRANCH   1   2
ATOM      2  C   UNL d   1       5.837  -4.680  -1.419  0.00  0.00    -0.054 A 
ATOM      3  C   UNL d   1       6.412  -4.223  -2.612  0.00  0.00     0.010 A 
ATOM      4  C   UNL d   1       6.636  -5.101  -3.677  0.00  0.00     0.032 A 
ATOM      5  C   UNL d   1       6.251  -6.446  -3.581  0.00  0.00     0.056 A 
ATOM      6  C   UNL d   1       5.662  -6.899  -2.396  0.00  0.00     0.032 A 
ATOM      7  C   UNL d   1       5.450  -6.021  -1.329  0.00  0.00     0.010 A 
BRANCH   5   8
ATOM      8  N   UNL d   1       6.521  -7.329  -4.668  0.00  0.00    -0.260 N 
ATOM      9  C   UNL d   1       5.925  -8.542  -5.000  0.00  0.00     0.048 C 
ATOM     10  C   UNL d   1       6.712  -9.105  -5.998  0.00  0.00     0.080 C 
ATOM     11  C   UNL d   1       4.660  -9.055  -4.406  0.00  0.00     0.071 C 
ATOM     12  C   UNL d   1       7.672  -8.119  -6.281  0.00  0.00     0.127 C 
ATOM     13  N   UNL d   1       7.517  -7.021  -5.543  0.00  0.00    -0.304 N 
ATOM     14  HN  UNL d   1       8.031  -6.143  -5.617  1.00  0.00     0.186 HD
BRANCH  10  15
ATOM     15  C   UNL d   1       6.566 -10.419  -6.595  0.00  0.00     0.296 C 
ATOM     16  O   UNL d   1       5.715 -11.228  -6.253  0.00  0.00    -0.259 OA
BRANCH  15  17
ATOM     17  O   UNL d   1       7.538 -10.676  -7.520  0.00  0.00    -0.318 OA
BRANCH  17  18
ATOM     18  C   UNL d   1       7.670 -12.059  -7.878  0.00  0.00     0.174 C 
ATOM     19  C   UNL d   1       8.582 -12.729  -6.865  0.00  0.00     0.034 C 
ENDBRANCH  17  18
ENDBRANCH  15  17
ENDBRANCH  10  15
ENDBRANCH   5   8
ENDBRANCH   1   2
BRANCH   1  20
ATOM     20  C   UNL d   1       4.373  -3.043  -0.123  0.00  0.00    -0.054 A 
ATOM     21  C   UNL d   1       3.292  -3.608   0.567  0.00  0.00     0.010 A 
ATOM     22  C   UNL d   1       2.096  -2.900   0.720  0.00  0.00     0.032 A 
ATOM     23  C   UNL d   1       1.951  -1.626   0.153  0.00  0.00     0.056 A 
ATOM     24  C   UNL d   1       3.032  -1.055  -0.528  0.00  0.00     0.032 A 
ATOM     25  C   UNL d   1       4.227  -1.764  -0.675  0.00  0.00     0.010 A 
BRANCH  23  26
ATOM     26  N   UNL d   1       0.722  -0.926   0.321  0.00  0.00    -0.260 N 
ATOM     27  C   UNL d   1       0.169   0.096  -0.441  0.00  0.00     0.048 C 
ATOM     28  C   UNL d   1      -0.909   0.587   0.285  0.00  0.00     0.080 C 
ATOM     29  C   UNL d   1       0.626   0.521  -1.793  0.00  0.00     0.071 C 
ATOM     30  C   UNL d   1      -1.003  -0.273   1.389  0.00  0.00     0.127 C 
ATOM     31  N   UNL d   1      -0.079  -1.231   1.380  0.00  0.00    -0.304 N 
ATOM     32  HN  UNL d   1       0.010  -2.018   2.023  1.00  0.00     0.186 HD
BRANCH  28  33
ATOM     33  C   UNL d   1      -1.724   1.741  -0.049  0.00  0.00     0.296 C 
ATOM     34  O   UNL d   1      -1.521   2.442  -1.031  0.00  0.00    -0.259 OA
BRANCH  33  35
ATOM     35  O   UNL d   1      -2.671   1.991   0.895  0.00  0.00    -0.318 OA
BRANCH  35  36
ATOM     36  C   UNL d   1      -3.252   3.305   0.821  0.00  0.00     0.174 C 
ATOM     37  C   UNL d   1      -2.368   4.259   1.603  0.00  0.00     0.034 C 
ENDBRANCH  35  36
ENDBRANCH  33  35
ENDBRANCH  28  33
ENDBRANCH  23  26
ENDBRANCH   1  20
TORSDOF 10
