REMARK  5 active torsions:
REMARK  status: ('A' for Active; 'I' for Inactive)
REMARK    1  A    between atoms: C_6  and  C_1 
REMARK    2  A    between atoms: S_18  and  C_3 
REMARK       I    between atoms: N_11  and  C_6 
REMARK    3  A    between atoms: C_7  and  C_9 
REMARK    4  A    between atoms: C_8  and  C_10 
REMARK    5  A    between atoms: C_12  and  N_11 
ROOT
ATOM      1  C   UNL d   1      -2.636  -1.977   0.061  0.00  0.00     0.263 C 
ATOM      2  N   UNL d   1      -2.028  -3.216   0.199  0.00  0.00    -0.322 N 
ATOM      3  O   UNL d   1      -3.856  -1.835  -0.022  0.00  0.00    -0.267 OA
ATOM      4  H   UNL d   1      -1.041  -3.195   0.430  0.00  0.00     0.169 HD
ENDROOT
BRANCH   2   5
ATOM      5  C   UNL d   1      -2.590  -4.481  -0.081  0.00  0.00     0.036 A 
ATOM      6  C   UNL d   1      -3.842  -4.653  -0.677  0.00  0.00     0.045 A 
ATOM      7  C   UNL d   1      -4.292  -5.924  -1.075  0.00  0.00     0.050 A 
ATOM      8  C   UNL d   1      -3.486  -7.042  -0.825  0.00  0.00     0.032 A 
ATOM      9  C   UNL d   1      -2.229  -6.897  -0.219  0.00  0.00     0.050 A 
ATOM     10  C   UNL d   1      -1.796  -5.611   0.155  0.00  0.00     0.045 A 
BRANCH   7  11
ATOM     11  C   UNL d   1      -5.602  -6.051  -1.818  0.00  0.00     0.417 C 
ATOM     12  F   UNL d   1      -5.837  -7.312  -2.279  0.00  0.00    -0.166 F 
ATOM     13  F   UNL d   1      -6.678  -5.726  -1.053  0.00  0.00    -0.166 F 
ATOM     14  F   UNL d   1      -5.656  -5.244  -2.913  0.00  0.00    -0.166 F 
ENDBRANCH   7  11
BRANCH   9  15
ATOM     15  C   UNL d   1      -1.330  -8.092  -0.004  0.00  0.00     0.417 C 
ATOM     16  F   UNL d   1      -1.759  -9.214  -0.647  0.00  0.00    -0.166 F 
ATOM     17  F   UNL d   1      -0.062  -7.872  -0.449  0.00  0.00    -0.166 F 
ATOM     18  F   UNL d   1      -1.215  -8.430   1.308  0.00  0.00    -0.166 F 
ENDBRANCH   9  15
ENDBRANCH   2   5
BRANCH   1  19
ATOM     19  C   UNL d   1      -1.724  -0.829  -0.011  0.00  0.00     0.081 A 
ATOM     20  S   UNL d   1      -0.019  -1.028   0.042  0.00  0.00    -0.076 SA
ATOM     21  C   UNL d   1       0.281   0.621  -0.315  0.00  0.00     0.052 A 
ATOM     22  C   UNL d   1      -0.900   1.320  -0.441  0.00  0.00    -0.005 A 
ATOM     23  C   UNL d   1      -2.059   0.505  -0.198  0.00  0.00    -0.023 A 
ATOM     24  C   UNL d   1      -1.052   2.698  -0.798  0.00  0.00     0.010 C 
ATOM     25  C   UNL d   1      -3.448   1.085  -0.287  0.00  0.00     0.045 C 
ATOM     26  C   UNL d   1      -3.472   2.623  -0.175  0.00  0.00     0.032 C 
ATOM     27  C   UNL d   1      -2.239   3.320  -0.692  0.00  0.00    -0.025 C 
BRANCH  21  28
ATOM     28  S   UNL d   1       1.935   1.193  -0.511  0.00  0.00    -0.126 SA
ATOM     29  C   UNL d   1       2.066   2.333   0.886  0.00  0.00     0.096 C 
ENDBRANCH  21  28
ENDBRANCH   1  19
TORSDOF 5
