REMARK  5 active torsions:
REMARK  status: ('A' for Active; 'I' for Inactive)
REMARK    1  A    between atoms: C_3  and  C_1 
REMARK    2  A    between atoms: C_10  and  CA_2 
REMARK       I    between atoms: N_7  and  C_3 
REMARK    3  A    between atoms: N_5  and  C_4 
REMARK    4  A    between atoms: C_8  and  N_7 
REMARK    5  A    between atoms: OXT_25  and  C_10 
ROOT
ATOM      1  C   UNL d   1      -1.528  -2.538   0.740  0.00  0.00     0.275 C 
ATOM      2  N   UNL d   1      -0.882  -3.654   0.228  0.00  0.00    -0.320 N 
ATOM      3  O   UNL d   1      -1.073  -1.720   1.528  0.00  0.00    -0.266 OA
ATOM      4  H   UNL d   1      -1.396  -4.213  -0.449  0.00  0.00     0.169 HD
ENDROOT
BRANCH   2   5
ATOM      5  C   UNL d   1       0.500  -3.939   0.366  0.00  0.00     0.058 A 
ATOM      6  C   UNL d   1       1.294  -3.333   1.343  0.00  0.00     0.057 A 
ATOM      7  C   UNL d   1       2.691  -3.478   1.358  0.00  0.00     0.063 A 
ATOM      8 CL   UNL d   1       3.502  -2.507   2.539  0.00  0.00    -0.082 Cl
ATOM      9  C   UNL d   1       3.318  -4.259   0.375  0.00  0.00     0.061 A 
ATOM     10  C   UNL d   1       2.512  -4.954  -0.550  0.00  0.00     0.058 A 
ATOM     11  C   UNL d   1       1.119  -4.810  -0.539  0.00  0.00     0.063 A 
ATOM     12 CL   UNL d   1       0.197  -5.676  -1.720  0.00  0.00    -0.082 Cl
BRANCH   9  13
ATOM     13  N   UNL d   1       4.735  -4.324   0.210  0.00  0.00    -0.331 N 
ATOM     14  C   UNL d   1       5.386  -4.464  -1.006  0.00  0.00     0.096 A 
ATOM     15  C   UNL d   1       6.745  -4.355  -0.810  0.00  0.00     0.019 A 
ATOM     16  C   UNL d   1       6.954  -4.214   0.575  0.00  0.00     0.019 A 
ATOM     17  C   UNL d   1       5.715  -4.239   1.177  0.00  0.00     0.096 A 
ENDBRANCH   9  13
ENDBRANCH   2   5
BRANCH   1  18
ATOM     18  C   UNL d   1      -2.936  -2.371   0.309  0.00  0.00     0.134 A 
ATOM     19  CA  UNL d   1      -3.502  -1.118   0.116  0.00  0.00     0.139 A 
ATOM     20  N   UNL d   1      -4.863  -0.931   0.021  0.00  0.00    -0.357 N 
ATOM     21  C   UNL d   1      -5.604  -2.064   0.086  0.00  0.00     0.105 A 
ATOM     22  HN  UNL d   1      -5.283  -0.008  -0.089  1.00  0.00     0.165 HD
ATOM     23  C   UNL d   1      -5.029  -3.322   0.203  0.00  0.00     0.105 A 
ATOM     24  N   UNL d   1      -3.692  -3.512   0.314  0.00  0.00    -0.358 N 
ATOM     25  HN  UNL d   1      -3.278  -4.440   0.396  1.00  0.00     0.165 HD
BRANCH  19  26
ATOM     26  C   UNL d   1      -2.703   0.107  -0.163  0.00  0.00     0.196 C 
ATOM     27  O   UNL d   1      -1.542   0.131  -0.527  0.00  0.00    -0.645 OA
BRANCH  26  28
ATOM     28  OXT UNL d   1      -3.493   1.209  -0.088  0.00  0.00    -0.772 OA
ATOM     29  HXT UNL d   1      -4.425   0.941   0.082  0.00  0.00     0.167 HD
ENDBRANCH  26  28
ENDBRANCH  19  26
ENDBRANCH   1  18
TORSDOF 5
