REMARK  6 active torsions:
REMARK  status: ('A' for Active; 'I' for Inactive)
REMARK    1  A    between atoms: N_13  and  C_3 
REMARK    2  A    between atoms: C_7  and  C_4 
REMARK    3  A    between atoms: O_22  and  C_7 
REMARK    4  A    between atoms: C_10  and  C_16 
REMARK    5  A    between atoms: N_11  and  N_13 
REMARK    6  A    between atoms: C_25  and  O_22 
ROOT
ATOM      1  C   UNL d   1       0.208  -0.779   0.108  0.00  0.00     0.053 A 
ATOM      2  C   UNL d   1       0.509   0.632   0.054  0.00  0.00    -0.017 A 
ATOM      3  C   UNL d   1       1.333  -1.580   0.073  0.00  0.00     0.104 A 
ATOM      4  C   UNL d   1       1.877   0.857  -0.020  0.00  0.00     0.089 A 
ATOM      5  S   UNL d   1       2.746  -0.620   0.027  0.00  0.00    -0.064 SA
ATOM      6  C   UNL d   1      -1.161  -1.278   0.116  0.00  0.00     0.163 C 
ATOM      7  C   UNL d   1      -0.586   1.676   0.006  0.00  0.00     0.050 C 
ATOM      8  C   UNL d   1      -1.987   1.110   0.388  0.00  0.00    -0.037 C 
ATOM      9  C   UNL d   1      -2.218  -0.263  -0.286  0.00  0.00     0.093 C 
ATOM     10  O   UNL d   1      -1.439  -2.451   0.355  0.00  0.00    -0.292 OA
ATOM     11  C   UNL d   1      -3.085   2.080  -0.092  0.00  0.00     0.015 C 
ATOM     12  C   UNL d   1      -2.114   0.978   1.920  0.00  0.00     0.015 C 
ENDROOT
BRANCH   3  13
ATOM     13  N   UNL d   1       1.375  -2.947   0.043  0.00  0.00    -0.293 N 
ATOM     14  H   UNL d   1       0.469  -3.421   0.146  0.00  0.00     0.187 HD
BRANCH  13  15
ATOM     15  N   UNL d   1       2.347  -3.578  -0.683  0.00  0.00    -0.310 N 
ATOM     16  C   UNL d   1       2.299  -4.875  -0.721  0.00  0.00     0.126 C 
ATOM     17  HN  UNL d   1       3.075  -3.055  -1.171  1.00  0.00     0.186 HD
BRANCH  16  18
ATOM     18  C   UNL d   1       3.255  -5.595  -1.524  0.00  0.00     0.021 A 
ATOM     19  S   UNL d   1       3.236  -7.303  -1.537  0.00  0.00    -0.101 SA
ATOM     20  C   UNL d   1       4.544  -7.373  -2.642  0.00  0.00     0.050 A 
ATOM     21  C   UNL d   1       4.985  -6.118  -3.000  0.00  0.00     0.008 A 
ATOM     22  C   UNL d   1       4.242  -5.090  -2.354  0.00  0.00     0.021 A 
ENDBRANCH  16  18
ENDBRANCH  13  15
ENDBRANCH   3  13
BRANCH   4  23
ATOM     23  C   UNL d   1       2.580   2.122  -0.193  0.00  0.00     0.300 C 
ATOM     24  O   UNL d   1       2.037   3.212  -0.338  0.00  0.00    -0.259 OA
BRANCH  23  25
ATOM     25  O   UNL d   1       3.928   1.925  -0.262  0.00  0.00    -0.317 OA
BRANCH  25  26
ATOM     26  C   UNL d   1       4.702   2.972  -0.856  0.00  0.00     0.174 C 
ATOM     27  C   UNL d   1       4.720   2.756  -2.359  0.00  0.00     0.034 C 
ENDBRANCH  25  26
ENDBRANCH  23  25
ENDBRANCH   4  23
TORSDOF 6
