REMARK  3 active torsions:
REMARK  status: ('A' for Active; 'I' for Inactive)
REMARK    1  A    between atoms: C_2  and  C_1 
REMARK    2  A    between atoms: C_11  and  C_6 
REMARK    3  A    between atoms: C_17  and  N_15 
ROOT
ATOM      1  C   UNL d   1      -1.509   2.249  -0.088  0.00  0.00     0.077 A 
ATOM      2  N   UNL d   1      -2.378   2.488   0.952  0.00  0.00    -0.334 N 
ATOM      3  HN  UNL d   1      -2.500   1.871   1.755  1.00  0.00     0.168 HD
ATOM      4  C   UNL d   1      -3.030   3.615   0.776  0.00  0.00     0.149 A 
ATOM      5  S   UNL d   1      -2.663   4.421  -0.704  0.00  0.00    -0.063 SA
ATOM      6  C   UNL d   1      -1.485   3.225  -1.060  0.00  0.00     0.085 A 
ATOM      7  N   UNL d   1      -3.931   4.135   1.636  0.00  0.00    -0.335 N 
ATOM      8  H   UNL d   1      -4.603   4.817   1.304  0.00  0.00     0.168 HD
ENDROOT
BRANCH   1   9
ATOM      9  C   UNL d   1      -0.664   1.026  -0.087  0.00  0.00     0.128 A 
ATOM     10  C   UNL d   1       0.318   0.682  -0.984  0.00  0.00     0.074 A 
ATOM     11  C   UNL d   1       0.891  -0.512  -0.473  0.00  0.00     0.069 A 
ATOM     12  N   UNL d   1       0.213  -0.925   0.608  0.00  0.00    -0.260 N 
ATOM     13  O   UNL d   1      -0.740   0.045   0.858  0.00  0.00    -0.235 OA
ATOM     14  HN  UNL d   1       0.369  -1.782   1.139  1.00  0.00     0.195 HD
BRANCH  11  15
ATOM     15  C   UNL d   1       2.037  -1.263  -0.984  0.00  0.00     0.014 A 
ATOM     16  C   UNL d   1       3.225  -0.647  -1.416  0.00  0.00     0.048 A 
ATOM     17  C   UNL d   1       4.288  -1.414  -1.907  0.00  0.00     0.048 A 
ATOM     18 CL   UNL d   1       3.494   1.063  -1.332  0.00  0.00    -0.083 Cl
ATOM     19  C   UNL d   1       4.179  -2.802  -1.953  0.00  0.00     0.035 A 
ATOM     20  C   UNL d   1       3.022  -3.432  -1.511  0.00  0.00     0.025 A 
ATOM     21 CL   UNL d   1       5.490  -3.737  -2.556  0.00  0.00    -0.084 Cl
ATOM     22  C   UNL d   1       1.956  -2.669  -1.027  0.00  0.00     0.017 A 
ENDBRANCH  11  15
ENDBRANCH   1   9
BRANCH   7  23
ATOM     23  C   UNL d   1      -3.956   3.931   3.034  0.00  0.00     0.056 A 
ATOM     24  C   UNL d   1      -5.160   4.043   3.756  0.00  0.00     0.060 A 
ATOM     25 CL   UNL d   1      -6.633   4.476   2.956  0.00  0.00    -0.082 Cl
ATOM     26  C   UNL d   1      -5.202   3.799   5.132  0.00  0.00     0.026 A 
ATOM     27  C   UNL d   1      -4.042   3.443   5.816  0.00  0.00     0.002 A 
ATOM     28  C   UNL d   1      -2.842   3.320   5.122  0.00  0.00     0.002 A 
ATOM     29  C   UNL d   1      -2.806   3.547   3.745  0.00  0.00     0.031 A 
ENDBRANCH   7  23
TORSDOF 3
