REMARK  4 active torsions:
REMARK  status: ('A' for Active; 'I' for Inactive)
REMARK    1  A    between atoms: C_3  and  C_1 
REMARK    2  A    between atoms: O_10  and  C_3 
REMARK    3  A    between atoms: C_5  and  C_11 
REMARK    4  A    between atoms: N_6  and  O_10 
ROOT
ATOM      1  C   UNL d   1       1.269  -1.859   0.172  0.00  0.00     0.322 C 
ATOM      2  O   UNL d   1       0.151  -1.364   0.303  0.00  0.00    -0.257 OA
ENDROOT
BRANCH   1   3
ATOM      3  C   UNL d   1       2.493  -1.089   0.011  0.00  0.00     0.083 A 
ATOM      4  S   UNL d   1       4.036  -1.821  -0.030  0.00  0.00    -0.083 SA
ATOM      5  C   UNL d   1       4.855  -0.311  -0.089  0.00  0.00     0.016 A 
ATOM      6  C   UNL d   1       6.247  -0.103  -0.109  0.00  0.00     0.019 A 
ATOM      7  C   UNL d   1       3.955   0.756  -0.116  0.00  0.00    -0.018 A 
ATOM      8  C   UNL d   1       6.735   1.204  -0.160  0.00  0.00     0.001 A 
ATOM      9  C   UNL d   1       5.860   2.281  -0.192  0.00  0.00     0.001 A 
ATOM     10  C   UNL d   1       4.478   2.070  -0.170  0.00  0.00     0.013 A 
ATOM     11  C   UNL d   1       2.598   0.287  -0.066  0.00  0.00     0.038 A 
ENDBRANCH   1   3
BRANCH   1  12
ATOM     12  O   UNL d   1       1.528  -3.210   0.175  0.00  0.00    -0.194 OA
BRANCH  12  13
ATOM     13  N   UNL d   1       0.829  -3.819   1.236  0.00  0.00    -0.261 N 
ATOM     14  C   UNL d   1       0.956  -5.113   1.219  0.00  0.00     0.040 C 
ATOM     15  C   UNL d   1       1.631  -5.863   0.093  0.00  0.00     0.071 C 
ATOM     16  HN  UNL d   1       0.288  -3.307   1.933  1.00  0.00     0.194 HD
BRANCH  14  17
ATOM     17  C   UNL d   1       0.431  -5.829   2.384  0.00  0.00     0.005 A 
ATOM     18  C   UNL d   1      -0.190  -5.232   3.470  0.00  0.00     0.101 A 
ATOM     19  N   UNL d   1      -0.514  -6.195   4.386  0.00  0.00    -0.374 N 
ATOM     20  C   UNL d   1      -0.112  -7.416   3.917  0.00  0.00     0.088 A 
ATOM     21  H   UNL d   1      -0.970  -6.027   5.274  0.00  0.00     0.164 HD
ATOM     22  C   UNL d   1       0.471  -7.224   2.684  0.00  0.00     0.032 A 
ENDBRANCH  14  17
ENDBRANCH  12  13
ENDBRANCH   1  12
TORSDOF 4
