REMARK  4 active torsions:
REMARK  status: ('A' for Active; 'I' for Inactive)
REMARK    1  A    between atoms: C_3  and  C_1 
REMARK    2  A    between atoms: C_8  and  C_2 
REMARK       I    between atoms: N_15  and  C_8 
REMARK       I    between atoms: C_13  and  N_16 
REMARK       I    between atoms: N_17  and  C_13 
REMARK    3  A    between atoms: N_16  and  N_15 
REMARK    4  A    between atoms: C_20  and  N_17 
ROOT
ATOM      1  C   UNL d   1      -2.650  -1.450  -0.277  0.00  0.00     0.289 C 
ATOM      2  N   UNL d   1      -3.762  -0.721  -0.653  0.00  0.00    -0.261 N 
ATOM      3  O   UNL d   1      -2.733  -2.660  -0.052  0.00  0.00    -0.264 OA
ATOM      4  H   UNL d   1      -3.662   0.213  -1.051  0.00  0.00     0.190 HD
ENDROOT
BRANCH   1   5
ATOM      5  C   UNL d   1      -1.414  -0.665  -0.077  0.00  0.00     0.139 A 
ATOM      6  C   UNL d   1      -0.985   0.603  -0.593  0.00  0.00     0.057 A 
ATOM      7  C   UNL d   1       0.210   0.855   0.042  0.00  0.00     0.087 A 
ATOM      8  O   UNL d   1       0.511  -0.195   0.847  0.00  0.00    -0.241 OA
ATOM      9  C   UNL d   1       1.200   1.949   0.020  0.00  0.00     0.080 C 
ATOM     10  N   UNL d   1      -0.481  -1.143   0.770  0.00  0.00    -0.255 N 
ATOM     11  HN  UNL d   1      -0.506  -2.037   1.261  1.00  0.00     0.195 HD
BRANCH   6  12
ATOM     12  C   UNL d   1      -1.658   1.431  -1.594  0.00  0.00     0.054 A 
ATOM     13  N   UNL d   1      -2.542   0.804  -2.446  0.00  0.00    -0.353 N 
ATOM     14  C   UNL d   1      -3.075   1.675  -3.282  0.00  0.00     0.047 A 
ATOM     15  HN  UNL d   1      -2.755  -0.193  -2.433  1.00  0.00     0.166 HD
ATOM     16  C   UNL d   1      -4.082   1.332  -4.322  0.00  0.00     0.076 C 
ATOM     17  S   UNL d   1      -2.539   3.294  -3.087  0.00  0.00    -0.087 SA
ATOM     18  C   UNL d   1      -1.527   2.789  -1.793  0.00  0.00     0.082 A 
ENDBRANCH   6  12
ENDBRANCH   1   5
BRANCH   2  19
ATOM     19  N   UNL d   1      -4.959  -1.377  -1.006  0.00  0.00    -0.248 N 
ATOM     20  C   UNL d   1      -6.010  -0.539  -1.351  0.00  0.00     0.339 C 
ATOM     21  N   UNL d   1      -7.173  -1.233  -1.592  0.00  0.00    -0.308 N 
ATOM     22  O   UNL d   1      -5.849   0.675  -1.452  0.00  0.00    -0.245 OA
ATOM     23  H   UNL d   1      -7.090  -2.239  -1.607  0.00  0.00     0.170 HD
ATOM     24  H   UNL d   1      -5.126  -2.251  -0.515  0.00  0.00     0.192 HD
BRANCH  21  25
ATOM     25  C   UNL d   1      -8.443  -0.689  -1.884  0.00  0.00     0.038 A 
ATOM     26  C   UNL d   1      -8.714   0.682  -1.915  0.00  0.00     0.053 A 
ATOM     27  C   UNL d   1     -10.012   1.137  -2.160  0.00  0.00     0.036 A 
ATOM     28 CL   UNL d   1     -10.335   2.828  -2.179  0.00  0.00    -0.084 Cl
ATOM     29  C   UNL d   1     -11.050   0.237  -2.379  0.00  0.00     0.024 A 
ATOM     30  C   UNL d   1     -10.786  -1.131  -2.368  0.00  0.00     0.004 A 
ATOM     31  C   UNL d   1      -9.488  -1.590  -2.125  0.00  0.00     0.029 A 
ENDBRANCH  21  25
ENDBRANCH   2  19
TORSDOF 4
