REMARK  2 active torsions:
REMARK  status: ('A' for Active; 'I' for Inactive)
REMARK       I    between atoms: C_8  and  N_3 
REMARK    1  A    between atoms: N_4  and  C_9 
REMARK    2  A    between atoms: C_10  and  C_5 
ROOT
ATOM      1  N   UNL d   1       0.008  -0.395   1.095  0.00  0.00    -0.291 N 
ATOM      2  HN  UNL d   1       0.004  -0.763   2.046  1.00  0.00     0.187 HD
ATOM      3  N   UNL d   1       0.335   0.865   0.700  0.00  0.00    -0.235 N 
ATOM      4  C   UNL d   1      -0.309  -1.053  -0.032  0.00  0.00     0.060 A 
ATOM      5  C   UNL d   1      -0.147  -0.217  -1.165  0.00  0.00     0.051 A 
ATOM      6  C   UNL d   1       0.258   0.995  -0.670  0.00  0.00     0.122 A 
ATOM      7  C   UNL d   1       0.697   1.871   1.613  0.00  0.00     0.238 C 
ATOM      8  O   UNL d   1       0.987   2.988   1.191  0.00  0.00    -0.272 OA
ATOM      9  C   UNL d   1       0.705   1.498   3.066  0.00  0.00     0.119 C 
ENDROOT
BRANCH   4  10
ATOM     10  C   UNL d   1      -0.764  -2.447  -0.010  0.00  0.00    -0.006 A 
ATOM     11  C   UNL d   1      -1.580  -2.944  -1.035  0.00  0.00     0.049 A 
ATOM     12  C   UNL d   1      -2.024  -4.274  -0.996  0.00  0.00     0.103 A 
ATOM     13  C   UNL d   1      -1.655  -5.123   0.054  0.00  0.00     0.036 A 
ATOM     14  C   UNL d   1      -0.840  -4.632   1.073  0.00  0.00     0.003 A 
ATOM     15  C   UNL d   1      -0.402  -3.303   1.043  0.00  0.00     0.014 A 
BRANCH  12  16
ATOM     16  N   UNL d   1      -2.893  -4.777  -2.068  0.00  0.00    -0.116 N 
ATOM     17  O   UNL d   1      -3.196  -3.993  -2.978  0.00  0.00    -0.532 OA
ATOM     18  O   UNL d   1      -3.270  -5.955  -2.000  0.00  0.00    -0.532 OA
ENDBRANCH  12  16
ENDBRANCH   4  10
TORSDOF 2
