REMARK  6 active torsions:
REMARK  status: ('A' for Active; 'I' for Inactive)
REMARK    1  A    between atoms: C_2  and  S_1 
REMARK    2  A    between atoms: N_10  and  S_1 
REMARK    3  A    between atoms: C_3  and  C_11 
REMARK    4  A    between atoms: C_20  and  C_9 
REMARK    5  A    between atoms: C_14  and  N_10 
REMARK    6  A    between atoms: C_21  and  C_22 
ROOT
ATOM      1  C   UNL d   1       2.093  -2.975  -0.177  0.00  0.00     0.044 A 
ATOM      2  C   UNL d   1       0.790  -2.727   0.294  0.00  0.00     0.057 A 
ATOM      3  C   UNL d   1       2.446  -4.308  -0.485  0.00  0.00     0.018 A 
ATOM      4  C   UNL d   1      -0.121  -3.787   0.411  0.00  0.00     0.031 A 
ATOM      5  C   UNL d   1       1.534  -5.354  -0.361  0.00  0.00     0.001 A 
ATOM      6  C   UNL d   1       0.244  -5.091   0.072  0.00  0.00     0.002 A 
ENDROOT
BRANCH   1   7
ATOM      7  C   UNL d   1       3.126  -1.968  -0.389  0.00  0.00     0.177 A 
ATOM      8  O   UNL d   1       3.020  -0.763   0.249  0.00  0.00    -0.273 OA
ATOM      9  C   UNL d   1       4.110  -0.093  -0.244  0.00  0.00     0.174 A 
ATOM     10  N   UNL d   1       4.848  -0.839  -1.043  0.00  0.00    -0.277 N 
ATOM     11  N   UNL d   1       4.218  -2.058  -1.125  0.00  0.00    -0.277 N 
ATOM     12  HN  UNL d   1       5.714  -0.566  -1.507  1.00  0.00     0.189 HD
ATOM     13  HN  UNL d   1       4.532  -2.873  -1.652  1.00  0.00     0.189 HD
BRANCH   9  14
ATOM     14  C   UNL d   1       4.306   1.283   0.178  0.00  0.00     0.017 A 
ATOM     15  C   UNL d   1       3.502   1.890   1.146  0.00  0.00     0.016 A 
ATOM     16  C   UNL d   1       3.758   3.201   1.565  0.00  0.00     0.009 A 
ATOM     17  C   UNL d   1       4.821   3.952   1.028  0.00  0.00    -0.051 A 
ATOM     18  C   UNL d   1       5.593   3.345   0.026  0.00  0.00     0.009 A 
ATOM     19  C   UNL d   1       5.343   2.033  -0.389  0.00  0.00     0.016 A 
BRANCH  17  20
ATOM     20  C   UNL d   1       5.116   5.365   1.555  0.00  0.00    -0.024 C 
ATOM     21  C   UNL d   1       6.332   6.035   0.875  0.00  0.00     0.019 C 
ATOM     22  C   UNL d   1       3.896   6.281   1.326  0.00  0.00     0.019 C 
ATOM     23  C   UNL d   1       5.423   5.295   3.067  0.00  0.00     0.019 C 
ENDBRANCH  17  20
ENDBRANCH   9  14
ENDBRANCH   1   7
BRANCH   2  24
ATOM     24  N   UNL d   1       0.348  -1.457   0.764  0.00  0.00    -0.280 N 
ATOM     25  H   UNL d   1       0.136  -1.339   1.753  0.00  0.00     0.179 HD
BRANCH  24  26
ATOM     26  S   UNL d   1      -0.275  -0.275  -0.245  0.00  0.00     0.265 S 
ATOM     27  O   UNL d   1      -0.664   0.835   0.601  0.00  0.00    -0.200 OA
ATOM     28  O   UNL d   1       0.649  -0.078  -1.339  0.00  0.00    -0.200 OA
BRANCH  26  29
ATOM     29  C   UNL d   1      -1.766  -0.954  -0.930  0.00  0.00     0.102 A 
ATOM     30  C   UNL d   1      -2.824  -1.386  -0.132  0.00  0.00     0.059 A 
ATOM     31  C   UNL d   1      -3.971  -1.911  -0.740  0.00  0.00     0.050 A 
ATOM     32 CL   UNL d   1      -2.818  -1.328   1.594  0.00  0.00    -0.083 Cl
ATOM     33  C   UNL d   1      -4.081  -1.973  -2.134  0.00  0.00     0.041 A 
ATOM     34  C   UNL d   1      -3.044  -1.505  -2.949  0.00  0.00    -0.039 A 
ATOM     35 CL   UNL d   1      -5.534  -2.643  -2.784  0.00  0.00    -0.084 Cl
ATOM     36  C   UNL d   1      -1.887  -0.997  -2.331  0.00  0.00     0.035 A 
ATOM     37  C   UNL d   1      -3.106  -1.473  -4.452  0.00  0.00     0.050 C 
ENDBRANCH  26  29
ENDBRANCH  24  26
ENDBRANCH   2  24
TORSDOF 6
