REMARK  3 active torsions:
REMARK  status: ('A' for Active; 'I' for Inactive)
REMARK    1  A    between atoms: C_4  and  C_1 
REMARK    2  A    between atoms: C_10  and  C_4 
REMARK    3  A    between atoms: O_17  and  N_11 
ROOT
ATOM      1  C   UNL d   1       0.943  -0.177   2.358  0.00  0.00     0.065 C 
ATOM      2  C   UNL d   1       1.449   0.959   3.072  0.00  0.00     0.101 C 
ATOM      3  N   UNL d   1       1.852   1.887   3.642  0.00  0.00    -0.191 NA
ENDROOT
BRANCH   1   4
ATOM      4  C   UNL d   1       0.441  -0.070   1.098  0.00  0.00    -0.013 C 
ATOM      5  C   UNL d   1       0.432   1.210   0.380  0.00  0.00     0.039 C 
ATOM      6  C   UNL d   1      -0.263   1.375  -0.755  0.00  0.00     0.063 C 
ATOM      7 CL   UNL d   1      -0.271   2.901  -1.562  0.00  0.00    -0.082 Cl
ATOM      8  C   UNL d   1      -1.057   0.249  -1.354  0.00  0.00     0.075 C 
ATOM      9  C   UNL d   1      -0.787  -1.099  -0.755  0.00  0.00     0.034 C 
ATOM     10  N   UNL d   1      -1.899   0.472  -2.321  0.00  0.00    -0.268 N 
ATOM     11  C   UNL d   1      -0.085  -1.233   0.379  0.00  0.00     0.015 C 
ATOM     12  HN  UNL d   1      -2.053   1.390  -2.738  1.00  0.00     0.194 HD
BRANCH  10  13
ATOM     13  O   UNL d   1      -2.569  -0.689  -2.727  0.00  0.00    -0.289 OA
ATOM     14  H   UNL d   1      -3.194  -0.343  -3.392  0.00  0.00     0.244 HD
ENDBRANCH  10  13
ENDBRANCH   1   4
BRANCH   1  15
ATOM     15  C   UNL d   1       0.953  -1.449   3.113  0.00  0.00    -0.015 A 
ATOM     16  C   UNL d   1       2.044  -2.325   3.016  0.00  0.00     0.014 A 
ATOM     17  C   UNL d   1       2.067  -3.506   3.762  0.00  0.00     0.024 A 
ATOM     18  C   UNL d   1       1.002  -3.813   4.608  0.00  0.00     0.034 A 
ATOM     19  C   UNL d   1      -0.092  -2.956   4.706  0.00  0.00     0.024 A 
ATOM     20 CL   UNL d   1       1.043  -5.256   5.543  0.00  0.00    -0.084 Cl
ATOM     21  C   UNL d   1      -0.119  -1.776   3.958  0.00  0.00     0.014 A 
ENDBRANCH   1  15
TORSDOF 3
