REMARK  1 active torsions:
REMARK  status: ('A' for Active; 'I' for Inactive)
REMARK    1  A    between atoms: C_8  and  N_3 
ROOT
ATOM      1  N   UNL d   1       0.511   0.501   0.122  0.00  0.00    -0.130 N 
ATOM      2  C   UNL d   1       1.881   0.618   0.131  0.00  0.00     0.363 A 
ATOM      3  N   UNL d   1       2.347  -0.710   0.060  0.00  0.00    -0.191 N 
ATOM      4  C   UNL d   1       0.232  -0.816   0.009  0.00  0.00     0.699 A 
ATOM      5  N   UNL d   1       1.276  -1.583  -0.026  0.00  0.00    -0.121 N 
ATOM      6  HN  UNL d   1       1.302  -2.600  -0.101  1.00  0.00     0.206 HD
ATOM      7  N   UNL d   1      -1.064  -1.219  -0.051  0.00  0.00    -0.224 N 
ATOM      8  O   UNL d   1       2.506   1.669   0.163  0.00  0.00    -0.244 OA
ATOM      9  C   UNL d   1      -0.469   1.554   0.013  0.00  0.00     0.154 C 
ATOM     10  C   UNL d   1      -1.866   1.040   0.354  0.00  0.00     0.041 C 
ATOM     11  C   UNL d   1      -2.128  -0.288  -0.355  0.00  0.00     0.139 C 
ATOM     12  H   UNL d   1      -1.200  -2.191  -0.306  0.00  0.00     0.177 HD
ENDROOT
BRANCH   3  13
ATOM     13  C   UNL d   1       3.662  -1.215   0.082  0.00  0.00     0.062 A 
ATOM     14  C   UNL d   1       4.772  -0.387   0.299  0.00  0.00     0.034 A 
ATOM     15  C   UNL d   1       6.061  -0.929   0.363  0.00  0.00     0.044 A 
ATOM     16  C   UNL d   1       6.246  -2.295   0.195  0.00  0.00     0.116 A 
ATOM     17  C   UNL d   1       5.167  -3.133  -0.042  0.00  0.00     0.044 A 
ATOM     18  F   UNL d   1       7.479  -2.812   0.268  0.00  0.00    -0.206 F 
ATOM     19  C   UNL d   1       3.880  -2.593  -0.097  0.00  0.00     0.034 A 
ENDBRANCH   3  13
TORSDOF 1
