REMARK  6 active torsions:
REMARK  status: ('A' for Active; 'I' for Inactive)
REMARK    1  A    between atoms: C_14  and  N_1 
REMARK    2  A    between atoms: C_7  and  C_14 
REMARK    3  A    between atoms: S_15  and  C_9 
REMARK    4  A    between atoms: C_19  and  S_15 
REMARK    5  A    between atoms: C_16  and  C_19 
REMARK    6  A    between atoms: C_17  and  C_16 
ROOT
ATOM      1  C   UNL d   1       0.982  -3.338   0.000  0.00  0.00     0.161 A 
ATOM      2  O   UNL d   1       1.733  -3.325   1.147  0.00  0.00    -0.270 OA
ATOM      3  C   UNL d   1       2.783  -4.142   0.816  0.00  0.00     0.203 A 
ATOM      4  N   UNL d   1       1.501  -4.108  -0.935  0.00  0.00    -0.279 N 
ATOM      5  HN  UNL d   1       1.117  -4.289  -1.862  1.00  0.00     0.189 HD
ATOM      6  N   UNL d   1       2.670  -4.621  -0.408  0.00  0.00    -0.272 N 
ATOM      7  HN  UNL d   1       3.321  -5.251  -0.876  1.00  0.00     0.189 HD
ENDROOT
BRANCH   3   8
ATOM      8  S   UNL d   1       4.078  -4.504   1.915  0.00  0.00    -0.077 SA
BRANCH   8   9
ATOM      9  C   UNL d   1       5.111  -5.567   0.867  0.00  0.00     0.166 C 
BRANCH   9  10
ATOM     10  C   UNL d   1       6.343  -6.087   1.597  0.00  0.00     0.169 C 
ATOM     11  O   UNL d   1       6.580  -5.867   2.784  0.00  0.00    -0.291 OA
BRANCH  10  12
ATOM     12  C   UNL d   1       7.319  -6.919   0.817  0.00  0.00     0.011 A 
ATOM     13  C   UNL d   1       7.092  -7.297  -0.513  0.00  0.00     0.017 A 
ATOM     14  C   UNL d   1       8.048  -8.051  -1.206  0.00  0.00     0.025 A 
ATOM     15  C   UNL d   1       9.230  -8.434  -0.574  0.00  0.00     0.034 A 
ATOM     16  C   UNL d   1       9.461  -8.080   0.753  0.00  0.00     0.025 A 
ATOM     17 CL   UNL d   1      10.407  -9.338  -1.439  0.00  0.00    -0.084 Cl
ATOM     18  C   UNL d   1       8.507  -7.326   1.447  0.00  0.00     0.017 A 
ENDBRANCH  10  12
ENDBRANCH   9  10
ENDBRANCH   8   9
ENDBRANCH   3   8
BRANCH   1  19
ATOM     19  C   UNL d   1      -0.294  -2.593   0.004  0.00  0.00     0.234 C 
BRANCH  19  20
ATOM     20  N   UNL d   1      -0.109  -1.245  -0.514  0.00  0.00    -0.288 N 
ATOM     21  N   UNL d   1       0.131  -0.249   0.372  0.00  0.00    -0.301 N 
ATOM     22  C   UNL d   1       0.196   0.860  -0.375  0.00  0.00     0.041 A 
ATOM     23  HN  UNL d   1       0.238  -0.327   1.383  1.00  0.00     0.187 HD
ATOM     24  C   UNL d   1       0.465   2.173   0.259  0.00  0.00     0.071 C 
ATOM     25  C   UNL d   1      -0.028   0.563  -1.731  0.00  0.00     0.058 A 
ATOM     26  C   UNL d   1      -0.236  -0.795  -1.810  0.00  0.00     0.044 A 
ATOM     27 BR   UNL d   1      -0.045   1.808  -3.130  0.00  0.00    -0.047 Br
ATOM     28  C   UNL d   1      -0.527  -1.648  -2.990  0.00  0.00     0.071 C 
ENDBRANCH  19  20
ENDBRANCH   1  19
TORSDOF 6
