REMARK  6 active torsions:
REMARK  status: ('A' for Active; 'I' for Inactive)
REMARK    1  A    between atoms: C_2  and  C_1 
REMARK    2  A    between atoms: O_4  and  C_1 
REMARK    3  A    between atoms: O_8  and  C_3 
REMARK    4  A    between atoms: C_6  and  O_4 
REMARK    5  A    between atoms: N_5  and  C_7 
REMARK    6  A    between atoms: C_13  and  O_8 
ROOT
ATOM      1  C   UNL d   1       0.451  -1.202  -1.096  0.00  0.00     0.303 C 
ATOM      2  O   UNL d   1       0.354  -2.288  -0.559  0.00  0.00    -0.259 OA
ENDROOT
BRANCH   1   3
ATOM      3  C   UNL d   1       1.425  -0.889  -2.161  0.00  0.00     0.091 C 
ATOM      4  C   UNL d   1       2.026   0.352  -2.341  0.00  0.00     0.164 C 
ATOM      5  N   UNL d   1       2.592   0.706  -3.522  0.00  0.00    -0.346 N 
ATOM      6  C   UNL d   1       2.664  -0.227  -4.495  0.00  0.00     0.090 C 
ATOM      7  HN  UNL d   1       2.952   1.649  -3.671  1.00  0.00     0.167 HD
ATOM      8  C   UNL d   1       2.271  -1.540  -4.322  0.00  0.00     0.018 C 
ATOM      9  C   UNL d   1       1.640  -1.879  -3.131  0.00  0.00     0.023 C 
BRANCH   4  10
ATOM     10  O   UNL d   1       2.083   1.362  -1.416  0.00  0.00    -0.293 OA
BRANCH  10  11
ATOM     11  C   UNL d   1       2.413   1.131  -0.101  0.00  0.00     0.077 A 
ATOM     12  C   UNL d   1       2.929  -0.049   0.435  0.00  0.00     0.037 A 
ATOM     13  C   UNL d   1       3.068  -0.184   1.819  0.00  0.00     0.003 A 
ATOM     14  C   UNL d   1       2.751   0.876   2.667  0.00  0.00     0.000 A 
ATOM     15  C   UNL d   1       2.334   2.090   2.132  0.00  0.00     0.003 A 
ATOM     16  C   UNL d   1       2.183   2.217   0.752  0.00  0.00     0.037 A 
ENDBRANCH  10  11
ENDBRANCH   4  10
ENDBRANCH   1   3
BRANCH   1  17
ATOM     17  O   UNL d   1      -0.433  -0.131  -1.064  0.00  0.00    -0.273 OA
BRANCH  17  18
ATOM     18  C   UNL d   1      -1.855  -0.224  -0.947  0.00  0.00     0.106 A 
ATOM     19  C   UNL d   1      -2.581   0.953  -1.250  0.00  0.00     0.064 A 
ATOM     20  C   UNL d   1      -3.972   0.814  -1.384  0.00  0.00     0.032 A 
ATOM     21  C   UNL d   1      -4.617  -0.408  -1.184  0.00  0.00     0.002 A 
ATOM     22  C   UNL d   1      -3.884  -1.530  -0.829  0.00  0.00     0.003 A 
ATOM     23  C   UNL d   1      -2.493  -1.447  -0.715  0.00  0.00     0.040 A 
BRANCH  19  24
ATOM     24  N   UNL d   1      -2.024   2.211  -1.369  0.00  0.00    -0.375 N 
ATOM     25  C   UNL d   1      -2.323   3.100  -2.498  0.00  0.00     0.149 C 
ATOM     26  C   UNL d   1      -2.504   4.529  -1.958  0.00  0.00     0.187 C 
ATOM     27  O   UNL d   1      -1.340   4.973  -1.235  0.00  0.00    -0.388 OA
ATOM     28  C   UNL d   1      -1.077   4.096  -0.124  0.00  0.00     0.187 C 
ATOM     29  C   UNL d   1      -0.871   2.641  -0.580  0.00  0.00     0.149 C 
ENDBRANCH  19  24
ENDBRANCH  17  18
ENDBRANCH   1  17
TORSDOF 6
