REMARK  2 active torsions:
REMARK  status: ('A' for Active; 'I' for Inactive)
REMARK    1  A    between atoms: C_13  and  N_4 
REMARK    2  A    between atoms: C_11  and  C_14 
ROOT
ATOM      1  C   UNL d   1      -0.439   0.409   0.074  0.00  0.00     0.122 A 
ATOM      2  C   UNL d   1       0.556   1.482   0.084  0.00  0.00     0.295 A 
ATOM      3  C   UNL d   1      -0.037  -0.897  -0.002  0.00  0.00     0.062 A 
ATOM      4  N   UNL d   1       1.898   1.017  -0.032  0.00  0.00    -0.219 N 
ATOM      5  N   UNL d   1       2.259  -0.340  -0.124  0.00  0.00    -0.294 N 
ATOM      6  HN  UNL d   1       3.240  -0.601  -0.224  1.00  0.00     0.187 HD
ATOM      7  N   UNL d   1      -1.818   0.587   0.115  0.00  0.00    -0.349 N 
ATOM      8  HN  UNL d   1      -2.293   1.487   0.180  1.00  0.00     0.166 HD
ATOM      9  C   UNL d   1       1.341  -1.260  -0.083  0.00  0.00     0.042 A 
ATOM     10  S   UNL d   1      -1.365  -1.949  -0.013  0.00  0.00    -0.073 SA
ATOM     11  C   UNL d   1      -2.417  -0.585   0.056  0.00  0.00     0.048 A 
ATOM     12  O   UNL d   1       0.213   2.660   0.147  0.00  0.00    -0.264 OA
ATOM     13  C   UNL d   1       1.756  -2.707  -0.110  0.00  0.00     0.071 C 
ATOM     14  C   UNL d   1      -3.891  -0.787   0.037  0.00  0.00     0.076 C 
ENDROOT
BRANCH   4  15
ATOM     15  C   UNL d   1       3.031   1.898  -0.023  0.00  0.00     0.061 A 
ATOM     16  C   UNL d   1       3.002   3.147   0.613  0.00  0.00     0.047 A 
ATOM     17  C   UNL d   1       4.132   3.986   0.642  0.00  0.00     0.050 A 
ATOM     18  C   UNL d   1       5.302   3.577  -0.012  0.00  0.00     0.016 A 
ATOM     19  C   UNL d   1       5.351   2.343  -0.652  0.00  0.00     0.003 A 
ATOM     20  C   UNL d   1       4.232   1.505  -0.640  0.00  0.00     0.031 A 
BRANCH  17  21
ATOM     21  C   UNL d   1       4.108   5.297   1.389  0.00  0.00     0.417 C 
ATOM     22  F   UNL d   1       2.926   5.555   2.015  0.00  0.00    -0.166 F 
ATOM     23  F   UNL d   1       5.059   5.350   2.365  0.00  0.00    -0.166 F 
ATOM     24  F   UNL d   1       4.346   6.366   0.580  0.00  0.00    -0.166 F 
ENDBRANCH  17  21
ENDBRANCH   4  15
TORSDOF 2
