REMARK  7 active torsions:
REMARK  status: ('A' for Active; 'I' for Inactive)
REMARK    1  A    between atoms: N_2  and  S_1 
REMARK    2  A    between atoms: C_7  and  S_1 
REMARK    3  A    between atoms: C_3  and  N_2 
REMARK    4  A    between atoms: C_9  and  C_6 
REMARK    5  A    between atoms: C_14  and  C_9 
REMARK    6  A    between atoms: O_21  and  C_14 
REMARK    7  A    between atoms: C_24  and  O_21 
ROOT
ATOM      1  N   UNL d   1       0.413  -1.530   0.560  0.00  0.00    -0.160 NA
ATOM      2  H   UNL d   1      -0.595  -1.499   0.420  0.00  0.00     0.148 HD
ENDROOT
BRANCH   1   3
ATOM      3  S   UNL d   1       1.049  -0.051   0.026  0.00  0.00     0.247 S 
ATOM      4  O   UNL d   1       2.497  -0.098   0.013  0.00  0.00    -0.205 OA
ATOM      5  O   UNL d   1       0.350   0.984   0.768  0.00  0.00    -0.205 OA
BRANCH   3   6
ATOM      6  C   UNL d   1       0.475   0.059  -1.663  0.00  0.00     0.075 A 
ATOM      7  C   UNL d   1      -0.774   0.641  -1.927  0.00  0.00     0.034 A 
ATOM      8  C   UNL d   1      -1.184   0.714  -3.249  0.00  0.00    -0.021 A 
ATOM      9  C   UNL d   1      -2.396   1.331  -3.832  0.00  0.00     0.068 C 
ATOM     10  C   UNL d   1      -0.374   0.246  -4.272  0.00  0.00     0.075 A 
ATOM     11  C   UNL d   1      -2.284   0.795  -5.260  0.00  0.00     0.180 C 
ATOM     12  O   UNL d   1      -0.914   0.409  -5.521  0.00  0.00    -0.350 OA
ATOM     13  C   UNL d   1       0.871  -0.301  -4.031  0.00  0.00     0.039 A 
ATOM     14  C   UNL d   1       1.303  -0.395  -2.707  0.00  0.00     0.027 A 
ENDBRANCH   3   6
ENDBRANCH   1   3
BRANCH   1  15
ATOM     15  C   UNL d   1       0.928  -2.620  -0.174  0.00  0.00     0.137 C 
ATOM     16  N   UNL d   1       0.171  -3.145  -1.102  0.00  0.00    -0.343 N 
ATOM     17  C   UNL d   1       0.894  -4.112  -1.788  0.00  0.00     0.026 C 
ATOM     18  HN  UNL d   1      -0.797  -2.885  -1.292  1.00  0.00     0.167 HD
ATOM     19  C   UNL d   1       2.125  -4.413  -1.223  0.00  0.00     0.078 C 
ATOM     20  S   UNL d   1       2.433  -3.369   0.103  0.00  0.00    -0.069 SA
BRANCH  17  21
ATOM     21  C   UNL d   1       0.310  -4.701  -3.029  0.00  0.00     0.168 C 
BRANCH  21  22
ATOM     22  C   UNL d   1       1.114  -4.333  -4.258  0.00  0.00     0.264 C 
ATOM     23  O   UNL d   1       2.165  -3.708  -4.274  0.00  0.00    -0.265 OA
BRANCH  22  24
ATOM     24  O   UNL d   1       0.466  -4.793  -5.371  0.00  0.00    -0.322 OA
BRANCH  24  25
ATOM     25  C   UNL d   1       0.959  -4.287  -6.621  0.00  0.00     0.174 C 
ATOM     26  C   UNL d   1       0.210  -3.009  -6.946  0.00  0.00     0.034 C 
ENDBRANCH  24  25
ENDBRANCH  22  24
ENDBRANCH  21  22
ENDBRANCH  17  21
ENDBRANCH   1  15
TORSDOF 7
