REMARK  7 active torsions:
REMARK  status: ('A' for Active; 'I' for Inactive)
REMARK    1  A    between atoms: C_3  and  S_1 
REMARK    2  A    between atoms: N_23  and  S_1 
REMARK    3  A    between atoms: C_2  and  C_6 
REMARK    4  A    between atoms: C_10  and  S_24 
REMARK    5  A    between atoms: C_28  and  N_23 
REMARK    6  A    between atoms: S_24  and  C_32 
REMARK    7  A    between atoms: C_32  and  C_28 
ROOT
ATOM      1  C   UNL d   1      10.005   2.918  -0.531  0.00  0.00     0.015 A 
ATOM      2  C   UNL d   1       7.906   2.494  -1.710  0.00  0.00     0.079 A 
ATOM      3  N   UNL d   1       7.867   3.348   0.532  0.00  0.00    -0.352 N 
ATOM      4  HN  UNL d   1       7.337   3.659   1.347  1.00  0.00     0.166 HD
ATOM      5  C   UNL d   1       7.221   2.928  -0.582  0.00  0.00     0.091 A 
ATOM      6  C   UNL d   1       9.305   2.483  -1.670  0.00  0.00     0.041 A 
ATOM      7  C   UNL d   1       9.235   3.353   0.556  0.00  0.00     0.018 A 
ATOM      8  C   UNL d   1       7.243   2.066  -2.904  0.00  0.00     0.102 C 
ATOM      9  N   UNL d   1       6.742   1.718  -3.893  0.00  0.00    -0.191 NA
ATOM     10  C   UNL d   1       9.799   3.908   1.834  0.00  0.00     0.069 C 
ENDROOT
BRANCH   5  11
ATOM     11  S   UNL d   1       5.444   3.085  -0.563  0.00  0.00    -0.109 SA
BRANCH  11  12
ATOM     12  C   UNL d   1       5.077   2.684   1.186  0.00  0.00     0.101 C 
BRANCH  12  13
ATOM     13  C   UNL d   1       3.570   2.813   1.433  0.00  0.00     0.142 C 
BRANCH  13  14
ATOM     14  N   UNL d   1       2.812   1.899   0.556  0.00  0.00    -0.315 N 
ATOM     15  H   UNL d   1       3.134   1.852  -0.416  0.00  0.00     0.172 HD
BRANCH  14  16
ATOM     16  S   UNL d   1       1.132   1.926   0.652  0.00  0.00     0.260 S 
ATOM     17  O   UNL d   1       0.611   0.927  -0.249  0.00  0.00    -0.200 OA
ATOM     18  O   UNL d   1       0.789   1.922   2.058  0.00  0.00    -0.200 OA
BRANCH  16  19
ATOM     19  C   UNL d   1       0.692   3.519  -0.003  0.00  0.00     0.101 A 
ATOM     20  C   UNL d   1       0.960   3.867  -1.331  0.00  0.00     0.059 A 
ATOM     21  C   UNL d   1       0.515   5.099  -1.825  0.00  0.00     0.049 A 
ATOM     22 CL   UNL d   1       1.850   2.870  -2.423  0.00  0.00    -0.083 Cl
ATOM     23  C   UNL d   1      -0.189   5.973  -0.998  0.00  0.00     0.035 A 
ATOM     24  C   UNL d   1      -0.440   5.640   0.330  0.00  0.00     0.025 A 
ATOM     25 CL   UNL d   1      -0.759   7.471  -1.623  0.00  0.00    -0.084 Cl
ATOM     26  C   UNL d   1       0.000   4.413   0.831  0.00  0.00     0.029 A 
ENDBRANCH  16  19
ENDBRANCH  14  16
ENDBRANCH  13  14
ENDBRANCH  12  13
ENDBRANCH  11  12
ENDBRANCH   5  11
BRANCH   1  27
ATOM     27  C   UNL d   1      11.466   2.892  -0.538  0.00  0.00     0.051 A 
ATOM     28  N   UNL d   1      12.195   2.586   0.597  0.00  0.00    -0.353 N 
ATOM     29  C   UNL d   1      13.486   2.640   0.343  0.00  0.00     0.047 A 
ATOM     30  HN  UNL d   1      11.791   2.351   1.503  1.00  0.00     0.166 HD
ATOM     31  C   UNL d   1      14.555   2.415   1.352  0.00  0.00     0.076 C 
ATOM     32  S   UNL d   1      13.902   3.003  -1.282  0.00  0.00    -0.087 SA
ATOM     33  C   UNL d   1      12.236   3.135  -1.662  0.00  0.00     0.081 A 
ENDBRANCH   1  27
TORSDOF 7
