REMARK  1 active torsions:
REMARK  status: ('A' for Active; 'I' for Inactive)
REMARK    1  A    between atoms: C_9  and  C_4 
ROOT
ATOM      1  C   UNL d   1       0.011  -0.714   0.030  0.00  0.00     0.057 A 
ATOM      2  S   UNL d   1       1.539  -1.360   0.005  0.00  0.00    -0.078 SA
ATOM      3  C   UNL d   1       1.266   1.233  -0.068  0.00  0.00    -0.029 A 
ATOM      4  C   UNL d   1       2.245   0.219  -0.072  0.00  0.00     0.058 A 
ATOM      5  C   UNL d   1      -0.020   0.629   0.012  0.00  0.00     0.002 A 
ATOM      6  S   UNL d   1      -1.492  -1.438   0.078  0.00  0.00    -0.093 SA
ATOM      7  C   UNL d   1      -1.331   1.173   0.076  0.00  0.00    -0.043 A 
ATOM      8  C   UNL d   1      -2.243   0.115   0.090  0.00  0.00     0.058 A 
ATOM      9  C   UNL d   1       1.595   2.689  -0.146  0.00  0.00     0.050 C 
ATOM     10  C   UNL d   1      -1.778   2.594   0.121  0.00  0.00     0.049 C 
ENDROOT
BRANCH   4  11
ATOM     11  C   UNL d   1       3.703   0.386  -0.110  0.00  0.00     0.163 C 
ATOM     12  O   UNL d   1       4.248   1.467   0.124  0.00  0.00    -0.292 OA
ATOM     13  C   UNL d   1       4.590  -0.799  -0.422  0.00  0.00     0.097 C 
ENDBRANCH   4  11
TORSDOF 1
