REMARK  5 active torsions:
REMARK  status: ('A' for Active; 'I' for Inactive)
REMARK    1  A    between atoms: C_5  and  S_1 
REMARK    2  A    between atoms: C_6  and  S_1 
REMARK       I    between atoms: N_2  and  C_4 
REMARK       I    between atoms: C_3  and  N_2 
REMARK       I    between atoms: N_8  and  C_3 
REMARK    3  A    between atoms: C_4  and  C_7 
REMARK    4  A    between atoms: C_15  and  C_6 
REMARK    5  A    between atoms: C_14  and  N_8 
ROOT
ATOM      1  C   UNL d   1       2.260  -0.838  -4.643  0.00  0.00     0.033 A 
ATOM      2  C   UNL d   1       1.966  -1.441  -3.394  0.00  0.00     0.025 A 
ATOM      3  C   UNL d   1       1.289  -0.730  -2.377  0.00  0.00    -0.043 A 
ATOM      4  C   UNL d   1       1.794   0.462  -4.892  0.00  0.00     0.017 A 
ATOM      5  C   UNL d   1       1.117   1.172  -3.905  0.00  0.00     0.002 A 
ATOM      6  C   UNL d   1       0.881   0.589  -2.662  0.00  0.00     0.008 A 
ENDROOT
BRANCH   1   7
ATOM      7  C   UNL d   1       3.061  -1.490  -5.757  0.00  0.00     0.259 C 
ATOM      8  N   UNL d   1       3.920  -2.507  -5.377  0.00  0.00    -0.275 N 
ATOM      9  C   UNL d   1       5.208  -2.630  -5.808  0.00  0.00     0.327 C 
ATOM     10  H   UNL d   1       3.941  -2.711  -4.388  0.00  0.00     0.173 HD
ATOM     11  N   UNL d   1       5.467  -2.399  -7.136  0.00  0.00    -0.309 N 
ATOM     12  O   UNL d   1       6.048  -2.934  -4.958  0.00  0.00    -0.247 OA
ATOM     13  H   UNL d   1       4.658  -2.368  -7.746  0.00  0.00     0.170 HD
ATOM     14  O   UNL d   1       2.915  -1.137  -6.922  0.00  0.00    -0.267 OA
BRANCH  11  15
ATOM     15  C   UNL d   1       6.754  -2.335  -7.731  0.00  0.00     0.037 A 
ATOM     16  C   UNL d   1       7.918  -2.078  -6.996  0.00  0.00     0.053 A 
ATOM     17  C   UNL d   1       9.156  -1.958  -7.633  0.00  0.00     0.036 A 
ATOM     18 CL   UNL d   1      10.558  -1.575  -6.707  0.00  0.00    -0.084 Cl
ATOM     19  C   UNL d   1       9.265  -2.121  -9.010  0.00  0.00     0.024 A 
ATOM     20  C   UNL d   1       8.122  -2.403  -9.755  0.00  0.00     0.004 A 
ATOM     21  C   UNL d   1       6.872  -2.494  -9.123  0.00  0.00     0.029 A 
ENDBRANCH  11  15
ENDBRANCH   1   7
BRANCH   3  22
ATOM     22  C   UNL d   1       0.777  -1.293  -1.064  0.00  0.00     0.184 C 
BRANCH  22  23
ATOM     23  S   UNL d   1       1.734  -2.534  -0.243  0.00  0.00     0.179 S 
ATOM     24  O   UNL d   1       1.119  -2.761   1.054  0.00  0.00    -0.222 OA
ATOM     25  O   UNL d   1       1.931  -3.652  -1.149  0.00  0.00    -0.222 OA
BRANCH  23  26
ATOM     26  C   UNL d   1       3.327  -1.824   0.100  0.00  0.00     0.059 A 
ATOM     27  C   UNL d   1       3.452  -0.835   1.083  0.00  0.00     0.025 A 
ATOM     28  C   UNL d   1       4.721  -0.346   1.407  0.00  0.00     0.025 A 
ATOM     29  C   UNL d   1       5.849  -0.859   0.763  0.00  0.00     0.034 A 
ATOM     30  C   UNL d   1       5.723  -1.862  -0.197  0.00  0.00     0.025 A 
ATOM     31 CL   UNL d   1       7.411  -0.264   1.172  0.00  0.00    -0.084 Cl
ATOM     32  C   UNL d   1       4.459  -2.353  -0.526  0.00  0.00     0.025 A 
ENDBRANCH  23  26
ENDBRANCH  22  23
ENDBRANCH   3  22
TORSDOF 5
