REMARK  7 active torsions:
REMARK  status: ('A' for Active; 'I' for Inactive)
REMARK    1  A    between atoms: C_6  and  C_1 
REMARK    2  A    between atoms: N_4  and  C_2 
REMARK       I    between atoms: C_3  and  N_4 
REMARK    3  A    between atoms: C_5  and  C_3 
REMARK       I    between atoms: N_14  and  C_6 
REMARK    4  A    between atoms: C_21  and  N_14 
REMARK    5  A    between atoms: N_15  and  C_22 
REMARK    6  A    between atoms: C_18  and  C_21 
REMARK    7  A    between atoms: C_22  and  C_18 
ROOT
ATOM      1  C   UNL d   1       0.361  -1.015  -0.347  0.00  0.00     0.097 A 
ATOM      2  C   UNL d   1      -1.029  -1.192  -0.181  0.00  0.00     0.053 A 
ATOM      3  C   UNL d   1       0.885   0.284  -0.208  0.00  0.00     0.134 A 
ATOM      4  F   UNL d   1       2.199   0.521  -0.362  0.00  0.00    -0.205 F 
ATOM      5  C   UNL d   1      -1.837  -0.054   0.045  0.00  0.00     0.031 A 
ATOM      6  C   UNL d   1      -1.297   1.223   0.157  0.00  0.00     0.005 A 
ATOM      7  C   UNL d   1       0.074   1.389   0.046  0.00  0.00     0.043 A 
ENDROOT
BRANCH   1   8
ATOM      8  C   UNL d   1       1.275  -2.049  -0.916  0.00  0.00     0.257 C 
ATOM      9  O   UNL d   1       0.875  -2.782  -1.813  0.00  0.00    -0.267 OA
ATOM     10  N   UNL d   1       2.583  -2.045  -0.459  0.00  0.00    -0.357 N 
ATOM     11  H   UNL d   1       2.858  -1.360   0.232  0.00  0.00     0.162 HD
BRANCH  10  12
ATOM     12  C   UNL d   1       3.603  -2.937  -0.981  0.00  0.00     0.124 C 
BRANCH  12  13
ATOM     13  C   UNL d   1       4.260  -2.452  -2.280  0.00  0.00     0.050 C 
BRANCH  13  14
ATOM     14  C   UNL d   1       5.103  -1.179  -2.096  0.00  0.00     0.273 C 
BRANCH  14  15
ATOM     15  N   UNL d   1       5.876  -0.791  -3.296  0.00  0.00     0.080 N 
ATOM     16  C   UNL d   1       5.016  -0.478  -4.440  0.00  0.00     0.309 C 
ATOM     17  C   UNL d   1       6.722   0.371  -2.999  0.00  0.00     0.309 C 
ENDBRANCH  14  15
ENDBRANCH  13  14
ENDBRANCH  12  13
ENDBRANCH  10  12
ENDBRANCH   1   8
BRANCH   2  18
ATOM     18  N   UNL d   1      -1.772  -2.389  -0.231  0.00  0.00    -0.321 N 
ATOM     19  C   UNL d   1      -1.393  -3.684   0.074  0.00  0.00     0.263 C 
ATOM     20  O   UNL d   1      -0.312  -3.987   0.565  0.00  0.00    -0.267 OA
ATOM     21  H   UNL d   1      -2.772  -2.289  -0.348  0.00  0.00     0.169 HD
BRANCH  19  22
ATOM     22  C   UNL d   1      -2.475  -4.665  -0.130  0.00  0.00     0.072 A 
ATOM     23  S   UNL d   1      -4.039  -4.190  -0.682  0.00  0.00    -0.097 SA
ATOM     24  C   UNL d   1      -4.618  -5.795  -0.683  0.00  0.00     0.050 A 
ATOM     25  C   UNL d   1      -3.660  -6.682  -0.249  0.00  0.00     0.009 A 
ATOM     26  C   UNL d   1      -2.434  -6.032   0.084  0.00  0.00     0.025 A 
ENDBRANCH  19  22
ENDBRANCH   2  18
TORSDOF 7
