REMARK  4 active torsions:
REMARK  status: ('A' for Active; 'I' for Inactive)
REMARK    1  A    between atoms: C_4  and  N_1 
REMARK    2  A    between atoms: C_2  and  N_3 
REMARK    3  A    between atoms: N_5  and  C_6 
REMARK    4  A    between atoms: C_18  and  N_9 
ROOT
ATOM      1  N   UNL d   1      -4.998   4.263   4.086  0.00  0.00    -0.356 N 
ATOM      2  N   UNL d   1      -2.399   3.587   2.827  0.00  0.00    -0.366 N 
ATOM      3  C   UNL d   1      -3.978   3.406   4.711  0.00  0.00     0.145 C 
ATOM      4  C   UNL d   1      -2.528   3.667   4.287  0.00  0.00     0.144 C 
ATOM      5  C   UNL d   1      -4.293   4.617   1.655  0.00  0.00     0.040 C 
ATOM      6  C   UNL d   1      -5.286   4.021   2.665  0.00  0.00     0.127 C 
ATOM      7  C   UNL d   1      -2.845   4.779   2.108  0.00  0.00     0.126 C 
ENDROOT
BRANCH   1   8
ATOM      8  C   UNL d   1      -5.483   5.374   4.728  0.00  0.00     0.174 C 
ATOM      9  N   UNL d   1      -6.828   5.546   4.859  0.00  0.00    -0.333 N 
ATOM     10  H   UNL d   1      -7.061   6.480   5.182  0.00  0.00     0.168 HD
ATOM     11  S   UNL d   1      -4.506   6.587   5.357  0.00  0.00    -0.041 SA
BRANCH   9  12
ATOM     12  C   UNL d   1      -7.909   4.639   4.835  0.00  0.00     0.034 A 
ATOM     13  C   UNL d   1      -7.782   3.252   4.740  0.00  0.00     0.029 A 
ATOM     14  C   UNL d   1      -8.915   2.433   4.694  0.00  0.00     0.002 A 
ATOM     15  C   UNL d   1     -10.187   2.992   4.771  0.00  0.00     0.000 A 
ATOM     16  C   UNL d   1     -10.327   4.368   4.926  0.00  0.00     0.002 A 
ATOM     17  C   UNL d   1      -9.193   5.184   4.966  0.00  0.00     0.029 A 
ENDBRANCH   9  12
ENDBRANCH   1   8
BRANCH   2  18
ATOM     18  C   UNL d   1      -1.465   2.744   2.256  0.00  0.00     0.103 A 
ATOM     19  C   UNL d   1      -1.271   1.453   2.758  0.00  0.00     0.051 A 
ATOM     20  C   UNL d   1      -0.335   0.594   2.181  0.00  0.00     0.041 A 
ATOM     21  C   UNL d   1       0.400   1.053   1.095  0.00  0.00     0.118 A 
ATOM     22  C   UNL d   1       0.160   2.330   0.626  0.00  0.00     0.125 A 
ATOM     23  N   UNL d   1      -0.763   3.161   1.179  0.00  0.00    -0.350 N 
ATOM     24  HN  UNL d   1      -0.923   4.089   0.785  1.00  0.00     0.166 HD
BRANCH  21  25
ATOM     25  N   UNL d   1       1.397   0.207   0.453  0.00  0.00    -0.114 N 
ATOM     26  O   UNL d   1       2.038   0.691  -0.492  0.00  0.00    -0.532 OA
ATOM     27  O   UNL d   1       1.548  -0.941   0.888  0.00  0.00    -0.532 OA
ENDBRANCH  21  25
ENDBRANCH   2  18
TORSDOF 4
