REMARK  3 active torsions:
REMARK  status: ('A' for Active; 'I' for Inactive)
REMARK    1  A    between atoms: S_13  and  C_2 
REMARK    2  A    between atoms: C_7  and  C_4 
REMARK       I    between atoms: N_8  and  C_7 
REMARK    3  A    between atoms: N_11  and  N_8 
REMARK       I    between atoms: C_12  and  N_11 
ROOT
ATOM      1  C   UNL d   1       0.216   0.925   0.112  0.00  0.00     0.002 C 
ATOM      2  C   UNL d   1       1.559   1.189  -0.142  0.00  0.00     0.051 C 
ATOM      3  C   UNL d   1      -0.054  -0.493  -0.086  0.00  0.00    -0.025 C 
ATOM      4  C   UNL d   1       1.101  -1.249  -0.224  0.00  0.00     0.082 C 
ATOM      5  S   UNL d   1       2.456  -0.240  -0.443  0.00  0.00    -0.076 SA
ATOM      6  C   UNL d   1      -0.893   1.872   0.588  0.00  0.00     0.085 C 
ATOM      7  S   UNL d   1      -1.029   3.397  -0.419  0.00  0.00    -0.142 SA
ATOM      8  S   UNL d   1      -0.535   2.345   2.348  0.00  0.00    -0.142 SA
ATOM      9  C   UNL d   1      -1.447  -1.047  -0.029  0.00  0.00     0.041 C 
ATOM     10  C   UNL d   1      -2.309   1.211   0.609  0.00  0.00     0.037 C 
ATOM     11  C   UNL d   1      -2.464   0.042  -0.366  0.00  0.00     0.007 C 
ATOM     12  C   UNL d   1      -1.381   4.511   0.965  0.00  0.00     0.086 C 
ATOM     13  C   UNL d   1      -0.471   4.134   2.114  0.00  0.00     0.086 C 
ENDROOT
BRANCH   4  14
ATOM     14  C   UNL d   1       1.216  -2.705  -0.182  0.00  0.00     0.277 C 
ATOM     15  N   UNL d   1       2.483  -3.243  -0.326  0.00  0.00    -0.263 N 
ATOM     16  H   UNL d   1       3.327  -2.675  -0.389  0.00  0.00     0.190 HD
ATOM     17  O   UNL d   1       0.256  -3.458   0.012  0.00  0.00    -0.265 OA
BRANCH  15  18
ATOM     18  N   UNL d   1       2.645  -4.623  -0.133  0.00  0.00    -0.268 N 
ATOM     19  C   UNL d   1       3.907  -5.148  -0.085  0.00  0.00     0.232 C 
ATOM     20  O   UNL d   1       4.924  -4.482  -0.276  0.00  0.00    -0.272 OA
ATOM     21  C   UNL d   1       3.959  -6.624   0.197  0.00  0.00     0.119 C 
ATOM     22  H   UNL d   1       1.807  -5.138   0.134  0.00  0.00     0.190 HD
ENDBRANCH  15  18
ENDBRANCH   4  14
BRANCH   2  23
ATOM     23  S   UNL d   1       2.417   2.731  -0.089  0.00  0.00    -0.126 SA
ATOM     24  C   UNL d   1       2.421   3.182  -1.843  0.00  0.00     0.096 C 
ENDBRANCH   2  23
TORSDOF 3
