REMARK  4 active torsions:
REMARK  status: ('A' for Active; 'I' for Inactive)
REMARK    1  A    between atoms: S_4  and  C_2 
REMARK    2  A    between atoms: N_18  and  C_3 
REMARK    3  A    between atoms: C_14  and  S_4 
REMARK    4  A    between atoms: C_13  and  C_8 
ROOT
ATOM      1  N   UNL d   1      -0.210  -0.675   0.104  0.00  0.00    -0.227 N 
ATOM      2  C   UNL d   1       2.150  -0.850   0.061  0.00  0.00     0.119 A 
ATOM      3  C   UNL d   1       0.961  -1.487   0.077  0.00  0.00     0.125 A 
ATOM      4  C   UNL d   1      -0.127   0.719   0.085  0.00  0.00     0.130 A 
ATOM      5  N   UNL d   1      -1.508  -1.100   0.099  0.00  0.00    -0.290 N 
ATOM      6  HN  UNL d   1      -1.849  -2.061   0.135  1.00  0.00     0.188 HD
ATOM      7  C   UNL d   1      -2.235   0.025   0.036  0.00  0.00     0.069 A 
ATOM      8  C   UNL d   1      -1.420   1.175   0.011  0.00  0.00     0.082 A 
ATOM      9  N   UNL d   1       1.063   1.383   0.110  0.00  0.00    -0.349 N 
ATOM     10  HN  UNL d   1       1.117   2.401   0.138  1.00  0.00     0.167 HD
ATOM     11  C   UNL d   1       2.124   0.633   0.096  0.00  0.00     0.117 A 
ENDROOT
BRANCH   2  12
ATOM     12  S   UNL d   1       3.660  -1.661  -0.020  0.00  0.00     0.211 S 
ATOM     13  O   UNL d   1       3.511  -2.958  -0.667  0.00  0.00    -0.217 OA
ATOM     14  O   UNL d   1       4.675  -0.741  -0.512  0.00  0.00    -0.217 OA
BRANCH  12  15
ATOM     15  C   UNL d   1       4.056  -1.972   1.693  0.00  0.00     0.064 A 
ATOM     16  C   UNL d   1       3.626  -3.156   2.299  0.00  0.00     0.025 A 
ATOM     17  C   UNL d   1       3.961  -3.409   3.633  0.00  0.00     0.025 A 
ATOM     18  C   UNL d   1       4.730  -2.487   4.344  0.00  0.00     0.034 A 
ATOM     19  C   UNL d   1       5.184  -1.320   3.730  0.00  0.00     0.025 A 
ATOM     20 CL   UNL d   1       5.126  -2.793   5.990  0.00  0.00    -0.084 Cl
ATOM     21  C   UNL d   1       4.854  -1.061   2.396  0.00  0.00     0.025 A 
ENDBRANCH  12  15
ENDBRANCH   2  12
BRANCH   3  22
ATOM     22  N   UNL d   1       0.756  -2.868   0.038  0.00  0.00    -0.286 NA
ATOM     23  H   UNL d   1       1.431  -3.366  -0.552  0.00  0.00     0.125 HD
ATOM     24  H   UNL d   1      -0.212  -3.088  -0.225  0.00  0.00     0.125 HD
ENDBRANCH   3  22
BRANCH   7  25
ATOM     25  C   UNL d   1      -3.737   0.017  -0.005  0.00  0.00     0.033 A 
ATOM     26  S   UNL d   1      -4.694   1.420  -0.230  0.00  0.00    -0.100 SA
ATOM     27  C   UNL d   1      -6.148   0.524  -0.156  0.00  0.00     0.050 A 
ATOM     28  C   UNL d   1      -5.915  -0.817   0.055  0.00  0.00     0.008 A 
ATOM     29  C   UNL d   1      -4.520  -1.111   0.134  0.00  0.00     0.021 A 
ENDBRANCH   7  25
TORSDOF 4
