REMARK  7 active torsions:
REMARK  status: ('A' for Active; 'I' for Inactive)
REMARK    1  A    between atoms: C_16  and  N_3 
REMARK    2  A    between atoms: C_8  and  C_4 
REMARK    3  A    between atoms: O_14  and  C_8 
REMARK    4  A    between atoms: C_9  and  C_15 
REMARK    5  A    between atoms: C_10  and  C_17 
REMARK    6  A    between atoms: C_22  and  C_11 
REMARK    7  A    between atoms: C_27  and  O_14 
ROOT
ATOM      1  C   UNL d   1      -1.142   6.181  -0.307  0.00  0.00     0.055 C 
ATOM      2  C   UNL d   1      -1.470   5.113   0.456  0.00  0.00     0.034 C 
ATOM      3  C   UNL d   1      -2.120   7.204  -0.575  0.00  0.00     0.100 C 
ATOM      4  N   UNL d   1      -2.886   8.043  -0.792  0.00  0.00    -0.191 NA
ENDROOT
BRANCH   1   5
ATOM      5  C   UNL d   1       0.191   6.279  -0.990  0.00  0.00    -0.015 A 
ATOM      6  C   UNL d   1       0.833   5.138  -1.512  0.00  0.00     0.016 A 
ATOM      7  C   UNL d   1       1.928   5.242  -2.393  0.00  0.00     0.038 A 
ATOM      8  C   UNL d   1       2.401   6.497  -2.759  0.00  0.00     0.079 A 
ATOM      9  C   UNL d   1       1.844   7.640  -2.182  0.00  0.00     0.038 A 
ATOM     10  C   UNL d   1       0.755   7.530  -1.300  0.00  0.00     0.016 A 
BRANCH   8  11
ATOM     11  O   UNL d   1       3.321   6.725  -3.825  0.00  0.00    -0.274 OA
BRANCH  11  12
ATOM     12  C   UNL d   1       4.252   5.797  -4.334  0.00  0.00     0.318 C 
ATOM     13  O   UNL d   1       4.534   4.742  -3.775  0.00  0.00    -0.257 OA
BRANCH  12  14
ATOM     14  C   UNL d   1       4.863   6.211  -5.612  0.00  0.00     0.149 A 
ATOM     15  N   UNL d   1       4.490   7.297  -6.334  0.00  0.00    -0.272 N 
ATOM     16  N   UNL d   1       5.316   7.237  -7.421  0.00  0.00    -0.196 N 
ATOM     17  HN  UNL d   1       3.771   7.987  -6.119  1.00  0.00     0.189 HD
ATOM     18  N   UNL d   1       6.162   6.186  -7.458  0.00  0.00    -0.281 N 
ATOM     19  C   UNL d   1       5.919   5.557  -6.309  0.00  0.00     0.058 A 
ATOM     20  HN  UNL d   1       6.826   5.934  -8.189  1.00  0.00     0.189 HD
ATOM     21  C   UNL d   1       6.764   4.390  -5.972  0.00  0.00     0.072 C 
BRANCH  16  22
ATOM     22  C   UNL d   1       5.381   8.221  -8.447  0.00  0.00     0.074 A 
ATOM     23  C   UNL d   1       4.610   9.386  -8.401  0.00  0.00     0.033 A 
ATOM     24  C   UNL d   1       4.775  10.361  -9.395  0.00  0.00     0.002 A 
ATOM     25  C   UNL d   1       5.692  10.173 -10.432  0.00  0.00     0.000 A 
ATOM     26  C   UNL d   1       6.441   9.002 -10.498  0.00  0.00     0.002 A 
ATOM     27  C   UNL d   1       6.284   8.029  -9.513  0.00  0.00     0.033 A 
ENDBRANCH  16  22
ENDBRANCH  12  14
ENDBRANCH  11  12
ENDBRANCH   8  11
ENDBRANCH   1   5
BRANCH   2  28
ATOM     28  C   UNL d   1      -2.828   4.805   0.941  0.00  0.00    -0.035 A 
ATOM     29  C   UNL d   1      -3.660   4.008   0.144  0.00  0.00     0.012 A 
ATOM     30  C   UNL d   1      -4.949   3.669   0.570  0.00  0.00     0.017 A 
ATOM     31  C   UNL d   1      -5.433   4.122   1.805  0.00  0.00     0.048 A 
ATOM     32  C   UNL d   1      -4.599   4.930   2.596  0.00  0.00     0.017 A 
ATOM     33  C   UNL d   1      -3.307   5.269   2.167  0.00  0.00     0.012 A 
BRANCH  31  34
ATOM     34  C   UNL d   1      -6.816   3.746   2.286  0.00  0.00     0.417 C 
ATOM     35  F   UNL d   1      -7.513   2.980   1.400  0.00  0.00    -0.166 F 
ATOM     36  F   UNL d   1      -6.785   3.033   3.446  0.00  0.00    -0.166 F 
ATOM     37  F   UNL d   1      -7.599   4.831   2.536  0.00  0.00    -0.166 F 
ENDBRANCH  31  34
ENDBRANCH   2  28
TORSDOF 7
