REMARK  5 active torsions:
REMARK  status: ('A' for Active; 'I' for Inactive)
REMARK    1  A    between atoms: N_7  and  C_1 
REMARK    2  A    between atoms: C_3  and  N_7 
REMARK    3  A    between atoms: N_4  and  C_3 
REMARK       I    between atoms: C_9  and  N_4 
REMARK    4  A    between atoms: C_14  and  C_8 
REMARK    5  A    between atoms: C_13  and  C_9 
ROOT
ATOM      1  N   UNL d   1       2.169  -1.154  -0.330  0.00  0.00    -0.318 N 
ATOM      2  H   UNL d   1       2.126  -2.150  -0.575  0.00  0.00     0.170 HD
ENDROOT
BRANCH   1   3
ATOM      3  C   UNL d   1       3.463  -0.560  -0.305  0.00  0.00     0.180 C 
ATOM      4  S   UNL d   1       3.884   0.942   0.277  0.00  0.00    -0.040 SA
BRANCH   3   5
ATOM      5  N   UNL d   1       4.428  -1.384  -0.838  0.00  0.00    -0.299 N 
ATOM      6  C   UNL d   1       4.199  -2.577  -1.501  0.00  0.00     0.257 C 
ATOM      7  O   UNL d   1       3.081  -3.079  -1.579  0.00  0.00    -0.267 OA
ATOM      8  H   UNL d   1       5.349  -0.973  -0.862  0.00  0.00     0.171 HD
BRANCH   6   9
ATOM      9  C   UNL d   1       5.364  -3.274  -2.117  0.00  0.00     0.032 A 
ATOM     10  C   UNL d   1       6.685  -3.062  -1.702  0.00  0.00     0.017 A 
ATOM     11  C   UNL d   1       7.720  -3.806  -2.275  0.00  0.00     0.001 A 
ATOM     12  C   UNL d   1       7.444  -4.760  -3.254  0.00  0.00     0.000 A 
ATOM     13  C   UNL d   1       6.134  -4.967  -3.679  0.00  0.00     0.001 A 
ATOM     14  C   UNL d   1       5.097  -4.226  -3.114  0.00  0.00     0.017 A 
ENDBRANCH   6   9
ENDBRANCH   3   5
ENDBRANCH   1   3
BRANCH   1  15
ATOM     15  C   UNL d   1       0.953  -0.502  -0.280  0.00  0.00     0.124 A 
ATOM     16  C   UNL d   1      -0.252  -1.155  -0.323  0.00  0.00     0.081 A 
ATOM     17  C   UNL d   1      -1.234  -0.138  -0.474  0.00  0.00     0.062 A 
ATOM     18  N   UNL d   1      -0.660   1.077  -0.428  0.00  0.00    -0.298 N 
ATOM     19  N   UNL d   1       0.652   0.829  -0.289  0.00  0.00    -0.285 N 
ATOM     20  HN  UNL d   1      -1.119   1.986  -0.487  1.00  0.00     0.187 HD
ATOM     21  H   UNL d   1       1.292   1.616  -0.267  0.00  0.00     0.188 HD
BRANCH  17  22
ATOM     22  C   UNL d   1      -2.677  -0.315  -0.679  0.00  0.00    -0.008 A 
ATOM     23  C   UNL d   1      -3.559   0.760  -0.504  0.00  0.00     0.014 A 
ATOM     24  C   UNL d   1      -4.934   0.593  -0.693  0.00  0.00     0.001 A 
ATOM     25  C   UNL d   1      -5.442  -0.651  -1.067  0.00  0.00     0.000 A 
ATOM     26  C   UNL d   1      -4.575  -1.723  -1.262  0.00  0.00     0.001 A 
ATOM     27  C   UNL d   1      -3.201  -1.555  -1.071  0.00  0.00     0.014 A 
ENDBRANCH  17  22
ENDBRANCH   1  15
TORSDOF 5
