REMARK  3 active torsions:
REMARK  status: ('A' for Active; 'I' for Inactive)
REMARK    1  A    between atoms: N_8  and  C_7 
REMARK    2  A    between atoms: C_11  and  N_8 
REMARK    3  A    between atoms: O_13  and  C_12 
ROOT
ATOM      1  C   UNL d   1      -0.976   0.152  -0.599  0.00  0.00     0.125 C 
ATOM      2  C   UNL d   1      -0.409  -1.181  -0.371  0.00  0.00     0.303 C 
ATOM      3  C   UNL d   1      -0.227   1.371  -0.272  0.00  0.00     0.303 C 
ATOM      4  O   UNL d   1       0.902  -1.194  -0.049  0.00  0.00    -0.280 OA
ATOM      5  O   UNL d   1       1.063   1.185   0.050  0.00  0.00    -0.280 OA
ATOM      6  C   UNL d   1       1.685  -0.036  -0.339  0.00  0.00     0.175 C 
ATOM      7  C   UNL d   1      -2.240   0.242  -1.046  0.00  0.00     0.086 C 
ATOM      8  O   UNL d   1      -0.730   2.491  -0.279  0.00  0.00    -0.259 OA
ATOM      9  O   UNL d   1      -1.064  -2.211  -0.428  0.00  0.00    -0.259 OA
ATOM     10  C   UNL d   1       2.040   0.000  -1.828  0.00  0.00     0.080 C 
ATOM     11  C   UNL d   1       2.962  -0.145   0.491  0.00  0.00     0.080 C 
ENDROOT
BRANCH   7  12
ATOM     12  N   UNL d   1      -3.004   1.377  -1.261  0.00  0.00    -0.266 NA
ATOM     13  H   UNL d   1      -2.472   2.237  -1.054  0.00  0.00     0.133 HD
BRANCH  12  14
ATOM     14  C   UNL d   1      -4.297   1.560  -0.688  0.00  0.00     0.045 A 
ATOM     15  C   UNL d   1      -5.077   2.696  -0.988  0.00  0.00     0.089 A 
ATOM     16  C   UNL d   1      -6.266   2.923  -0.279  0.00  0.00     0.038 A 
ATOM     17  C   UNL d   1      -6.708   2.034   0.700  0.00  0.00     0.003 A 
ATOM     18  C   UNL d   1      -5.968   0.893   0.974  0.00  0.00     0.002 A 
ATOM     19  C   UNL d   1      -4.782   0.655   0.280  0.00  0.00     0.026 A 
BRANCH  15  20
ATOM     20  O   UNL d   1      -4.794   3.703  -1.875  0.00  0.00    -0.354 OA
ATOM     21  C   UNL d   1      -3.964   3.414  -2.991  0.00  0.00     0.210 C 
ENDBRANCH  15  20
ENDBRANCH  12  14
ENDBRANCH   7  12
TORSDOF 3
