REMARK  5 active torsions:
REMARK  status: ('A' for Active; 'I' for Inactive)
REMARK    1  A    between atoms: C_11  and  C_2 
REMARK    2  A    between atoms: S_15  and  C_3 
REMARK    3  A    between atoms: C_12  and  C_11 
REMARK    4  A    between atoms: C_18  and  S_15 
REMARK    5  A    between atoms: C_20  and  C_18 
ROOT
ATOM      1  N   UNL d   1       0.363   0.534  -0.398  0.00  0.00    -0.319 N 
ATOM      2  C   UNL d   1      -0.521   1.593  -0.355  0.00  0.00     0.101 A 
ATOM      3  C   UNL d   1      -0.397  -0.560  -0.728  0.00  0.00     0.162 A 
ATOM      4  N   UNL d   1      -1.726   1.147  -0.655  0.00  0.00    -0.287 N 
ATOM      5  HN  UNL d   1      -2.575   1.711  -0.705  1.00  0.00     0.188 HD
ATOM      6  N   UNL d   1      -1.646  -0.200  -0.887  0.00  0.00    -0.278 N 
ATOM      7  HN  UNL d   1      -2.421  -0.814  -1.139  1.00  0.00     0.189 HD
ATOM      8  C   UNL d   1       1.786   0.559  -0.185  0.00  0.00     0.159 C 
ENDROOT
BRANCH   2   9
ATOM      9  C   UNL d   1      -0.208   3.030  -0.086  0.00  0.00     0.103 C 
BRANCH   9  10
ATOM     10  C   UNL d   1      -0.277   3.421   1.394  0.00  0.00     0.151 C 
ATOM     11  C   UNL d   1      -1.587   3.039   2.066  0.00  0.00     0.236 C 
ATOM     12  N   UNL d   1      -2.686   3.835   1.925  0.00  0.00    -0.325 N 
ATOM     13  O   UNL d   1      -1.691   1.973   2.683  0.00  0.00    -0.272 OA
ATOM     14  C   UNL d   1      -2.702   5.170   1.503  0.00  0.00     0.051 A 
ATOM     15  H   UNL d   1      -3.546   3.419   2.262  0.00  0.00     0.169 HD
ATOM     16  C   UNL d   1      -1.527   5.898   1.282  0.00  0.00     0.028 A 
ATOM     17  C   UNL d   1      -3.949   5.799   1.376  0.00  0.00     0.031 A 
ATOM     18  S   UNL d   1       0.092   5.207   1.575  0.00  0.00    -0.113 SA
ATOM     19  C   UNL d   1      -1.617   7.247   0.912  0.00  0.00     0.021 A 
ATOM     20  C   UNL d   1      -2.864   7.866   0.770  0.00  0.00     0.002 A 
ATOM     21  C   UNL d   1      -4.028   7.143   1.006  0.00  0.00     0.002 A 
ENDBRANCH   9  10
ENDBRANCH   2   9
BRANCH   3  22
ATOM     22  S   UNL d   1       0.235  -2.160  -0.917  0.00  0.00    -0.088 SA
BRANCH  22  23
ATOM     23  C   UNL d   1      -1.154  -3.000  -1.737  0.00  0.00     0.121 C 
BRANCH  23  24
ATOM     24  C   UNL d   1      -2.251  -3.598  -0.876  0.00  0.00    -0.048 A 
ATOM     25  C   UNL d   1      -2.355  -3.429   0.512  0.00  0.00     0.009 A 
ATOM     26  C   UNL d   1      -3.397  -4.022   1.233  0.00  0.00     0.024 A 
ATOM     27  C   UNL d   1      -4.356  -4.786   0.574  0.00  0.00     0.034 A 
ATOM     28  C   UNL d   1      -4.285  -4.956  -0.804  0.00  0.00     0.024 A 
ATOM     29 CL   UNL d   1      -5.630  -5.521   1.466  0.00  0.00    -0.084 Cl
ATOM     30  C   UNL d   1      -3.241  -4.365  -1.523  0.00  0.00     0.009 A 
ENDBRANCH  23  24
ENDBRANCH  22  23
ENDBRANCH   3  22
TORSDOF 5
