REMARK  6 active torsions:
REMARK  status: ('A' for Active; 'I' for Inactive)
REMARK    1  A    between atoms: C_2  and  C_1 
REMARK    2  A    between atoms: S_5  and  C_3 
REMARK    3  A    between atoms: C_4  and  C_10 
REMARK    4  A    between atoms: N_14  and  C_4 
REMARK    5  A    between atoms: C_10  and  S_5 
REMARK    6  A    between atoms: O_15  and  N_6 
ROOT
ATOM      1  C   UNL d   1      -0.313   7.054   0.424  0.00  0.00     0.081 A 
ATOM      2  C   UNL d   1      -1.223   6.828   1.450  0.00  0.00     0.085 A 
ATOM      3  N   UNL d   1      -1.877   7.839   2.076  0.00  0.00    -0.360 N 
ATOM      4  HN  UNL d   1      -2.537   7.644   2.829  1.00  0.00     0.166 HD
ATOM      5  C   UNL d   1      -0.076   8.394   0.052  0.00  0.00     0.020 A 
ATOM      6  C   UNL d   1      -1.636   9.107   1.682  0.00  0.00     0.089 A 
ATOM      7  C   UNL d   1      -0.741   9.434   0.688  0.00  0.00     0.018 A 
ENDROOT
BRANCH   2   8
ATOM      8  S   UNL d   1      -1.565   5.226   2.150  0.00  0.00    -0.104 SA
BRANCH   8   9
ATOM      9  C   UNL d   1      -3.382   5.210   2.006  0.00  0.00     0.152 C 
BRANCH   9  10
ATOM     10  C   UNL d   1      -3.797   5.032   0.549  0.00  0.00     0.084 C 
ATOM     11  N   UNL d   1      -4.618   5.898   0.033  0.00  0.00    -0.262 N 
ATOM     12  HN  UNL d   1      -5.008   6.696   0.534  1.00  0.00     0.195 HD
BRANCH  11  13
ATOM     13  O   UNL d   1      -4.894   5.585  -1.307  0.00  0.00    -0.289 OA
ATOM     14  H   UNL d   1      -5.594   6.228  -1.526  0.00  0.00     0.244 HD
ENDBRANCH  11  13
BRANCH  10  15
ATOM     15  N   UNL d   1      -3.303   3.954  -0.151  0.00  0.00    -0.290 NA
ATOM     16  H   UNL d   1      -2.365   3.654   0.100  0.00  0.00     0.125 HD
ATOM     17  H   UNL d   1      -3.450   4.065  -1.150  0.00  0.00     0.125 HD
ENDBRANCH  10  15
ENDBRANCH   9  10
ENDBRANCH   8   9
ENDBRANCH   2   8
BRANCH   1  18
ATOM     18  C   UNL d   1       0.433   5.987  -0.319  0.00  0.00     0.420 C 
ATOM     19  F   UNL d   1       0.129   4.696  -0.017  0.00  0.00    -0.166 F 
ATOM     20  F   UNL d   1       1.783   6.097  -0.155  0.00  0.00    -0.166 F 
ATOM     21  F   UNL d   1       0.230   6.083  -1.668  0.00  0.00    -0.166 F 
ENDBRANCH   1  18
TORSDOF 6
