REMARK  8 active torsions:
REMARK  status: ('A' for Active; 'I' for Inactive)
REMARK    1  A    between atoms: C_5  and  N_1 
REMARK    2  A    between atoms: S_2  and  C_7 
REMARK    3  A    between atoms: N_16  and  S_2 
REMARK       I    between atoms: C_11  and  N_22 
REMARK    4  A    between atoms: O_18  and  C_11 
REMARK    5  A    between atoms: C_24  and  N_16 
REMARK    6  A    between atoms: C_21  and  O_18 
REMARK    7  A    between atoms: N_22  and  C_27 
REMARK    8  A    between atoms: C_27  and  C_24 
ROOT
ATOM      1  C   UNL d   1       2.839  -1.613   0.120  0.00  0.00     0.067 A 
ATOM      2  C   UNL d   1       4.991  -3.409   0.215  0.00  0.00     0.076 A 
ATOM      3  C   UNL d   1       3.001  -2.593  -0.880  0.00  0.00     0.062 A 
ATOM      4  C   UNL d   1       4.077  -3.482  -0.837  0.00  0.00     0.051 A 
ATOM      5  C   UNL d   1       3.791  -1.526   1.149  0.00  0.00     0.033 A 
ATOM      6  C   UNL d   1       4.860  -2.429   1.204  0.00  0.00     0.027 A 
ATOM      7 CL   UNL d   1       1.991  -2.647  -2.287  0.00  0.00    -0.082 Cl
ENDROOT
BRANCH   2   8
ATOM      8  S   UNL d   1       6.397  -4.492   0.182  0.00  0.00     0.241 S 
ATOM      9  O   UNL d   1       6.982  -4.381  -1.127  0.00  0.00    -0.206 OA
ATOM     10  O   UNL d   1       7.160  -4.280   1.385  0.00  0.00    -0.206 OA
BRANCH   8  11
ATOM     11  N   UNL d   1       5.710  -6.035   0.269  0.00  0.00    -0.214 NA
ATOM     12  H   UNL d   1       6.144  -6.656  -0.419  0.00  0.00     0.140 HD
BRANCH  11  13
ATOM     13  C   UNL d   1       5.517  -6.620   1.611  0.00  0.00     0.124 C 
BRANCH  13  14
ATOM     14  C   UNL d   1       4.846  -7.999   1.506  0.00  0.00     0.140 C 
BRANCH  14  15
ATOM     15  N   UNL d   1       5.519  -8.959   0.646  0.00  0.00    -0.336 N 
ATOM     16  C   UNL d   1       6.668  -9.690   0.785  0.00  0.00     0.361 C 
ATOM     17  O   UNL d   1       6.956 -10.487  -0.082  0.00  0.00    -0.238 OA
ATOM     18  H   UNL d   1       4.996  -9.289  -0.156  0.00  0.00     0.164 HD
BRANCH  16  19
ATOM     19  O   UNL d   1       7.413  -9.450   1.897  0.00  0.00    -0.294 OA
BRANCH  19  20
ATOM     20  C   UNL d   1       8.715 -10.120   2.042  0.00  0.00     0.061 C 
ATOM     21  C   UNL d   1       9.668  -9.759   0.881  0.00  0.00     0.046 C 
ATOM     22  C   UNL d   1       9.265  -9.648   3.406  0.00  0.00     0.046 C 
ATOM     23  C   UNL d   1       8.613 -11.655   2.120  0.00  0.00     0.046 C 
ENDBRANCH  19  20
ENDBRANCH  16  19
ENDBRANCH  14  15
ENDBRANCH  13  14
ENDBRANCH  11  13
ENDBRANCH   8  11
ENDBRANCH   2   8
BRANCH   1  24
ATOM     24  N   UNL d   1       1.733  -0.734   0.107  0.00  0.00    -0.250 N 
ATOM     25  C   UNL d   1       1.836   0.631   0.065  0.00  0.00     0.232 C 
ATOM     26  C   UNL d   1       0.457   1.212  -0.111  0.00  0.00     0.123 C 
ATOM     27  O   UNL d   1       2.854   1.307   0.097  0.00  0.00    -0.273 OA
ATOM     28  C   UNL d   1      -0.484   0.024   0.087  0.00  0.00     0.050 C 
ATOM     29  C   UNL d   1       0.434  -1.176   0.142  0.00  0.00     0.240 C 
ATOM     30  C   UNL d   1      -1.542  -0.127  -1.006  0.00  0.00     0.020 C 
ATOM     31  C   UNL d   1      -1.324   0.137   1.363  0.00  0.00     0.020 C 
ATOM     32  O   UNL d   1       0.052  -2.329   0.294  0.00  0.00    -0.272 OA
ATOM     33  C   UNL d   1      -2.707   0.748  -0.560  0.00  0.00     0.001 C 
ATOM     34  C   UNL d   1      -2.574   0.908   0.952  0.00  0.00     0.001 C 
ENDBRANCH   1  24
TORSDOF 8
