REMARK  3 active torsions:
REMARK  status: ('A' for Active; 'I' for Inactive)
REMARK    1  A    between atoms: C_3  and  C_1 
REMARK       I    between atoms: N_18  and  C_1 
REMARK    2  A    between atoms: C_2  and  C_4 
REMARK       I    between atoms: N_17  and  C_2 
REMARK    3  A    between atoms: C_6  and  C_5 
ROOT
ATOM      1  C   UNL d   1       0.232   0.897  -0.763  0.00  0.00     0.031 A 
ATOM      2  C   UNL d   1      -1.268   2.802  -2.241  0.00  0.00    -0.026 A 
ATOM      3  C   UNL d   1       0.269   0.898  -2.159  0.00  0.00     0.018 A 
ATOM      4  C   UNL d   1      -0.527   1.862  -0.099  0.00  0.00     0.018 A 
ATOM      5  C   UNL d   1      -0.473   1.839  -2.887  0.00  0.00     0.013 A 
ATOM      6  C   UNL d   1      -1.272   2.793  -0.832  0.00  0.00     0.013 A 
ENDROOT
BRANCH   2   7
ATOM      7  C   UNL d   1      -2.080   3.784  -2.998  0.00  0.00    -0.026 A 
ATOM      8  C   UNL d   1      -2.253   5.100  -2.534  0.00  0.00     0.013 A 
ATOM      9  C   UNL d   1      -3.073   6.013  -3.206  0.00  0.00     0.018 A 
ATOM     10  C   UNL d   1      -3.724   5.640  -4.383  0.00  0.00     0.031 A 
ATOM     11  C   UNL d   1      -3.554   4.344  -4.878  0.00  0.00     0.018 A 
ATOM     12  C   UNL d   1      -2.742   3.430  -4.189  0.00  0.00     0.013 A 
BRANCH  10  13
ATOM     13  C   UNL d   1      -4.610   6.635  -5.042  0.00  0.00     0.249 C 
ATOM     14  O   UNL d   1      -5.109   7.562  -4.419  0.00  0.00    -0.268 OA
ATOM     15  N   UNL d   1      -4.822   6.497  -6.386  0.00  0.00    -0.366 N 
ATOM     16  H   UNL d   1      -4.242   5.914  -6.970  0.00  0.00     0.159 HD
ATOM     17  H   UNL d   1      -5.339   7.245  -6.832  0.00  0.00     0.159 HD
ENDBRANCH  10  13
ENDBRANCH   2   7
BRANCH   1  18
ATOM     18  C   UNL d   1       1.022  -0.126  -0.028  0.00  0.00     0.249 C 
ATOM     19  O   UNL d   1       1.982  -0.688  -0.540  0.00  0.00    -0.268 OA
ATOM     20  N   UNL d   1       0.606  -0.452   1.234  0.00  0.00    -0.366 N 
ATOM     21  H   UNL d   1      -0.306  -0.205   1.587  0.00  0.00     0.159 HD
ATOM     22  H   UNL d   1       1.085  -1.226   1.675  0.00  0.00     0.159 HD
ENDBRANCH   1  18
TORSDOF 3
