REMARK  6 active torsions:
REMARK  status: ('A' for Active; 'I' for Inactive)
REMARK    1  A    between atoms: N_5  and  C_1 
REMARK    2  A    between atoms: C_7  and  O_13 
REMARK    3  A    between atoms: C_9  and  C_16 
REMARK       I    between atoms: N_12  and  C_9 
REMARK    4  A    between atoms: C_16  and  N_10 
REMARK    5  A    between atoms: C_25  and  N_12 
REMARK    6  A    between atoms: O_13  and  C_26 
ROOT
ATOM      1  N   UNL d   1       4.257  -1.088   0.088  0.00  0.00    -0.358 N 
ATOM      2  N   UNL d   1       5.394  -3.830   0.402  0.00  0.00     0.100 N 
ATOM      3  C   UNL d   1       4.511  -1.929  -1.091  0.00  0.00     0.155 C 
ATOM      4  C   UNL d   1       5.097  -1.405   1.249  0.00  0.00     0.155 C 
ATOM      5  C   UNL d   1       4.501  -3.428  -0.721  0.00  0.00     0.293 C 
ATOM      6  C   UNL d   1       5.074  -2.931   1.556  0.00  0.00     0.293 C 
ENDROOT
BRANCH   2   7
ATOM      7  C   UNL d   1       6.839  -3.686   0.096  0.00  0.00     0.375 C 
BRANCH   7   8
ATOM      8  C   UNL d   1       7.354  -4.522  -1.071  0.00  0.00     0.250 C 
ATOM      9  N   UNL d   1       6.780  -5.772  -1.216  0.00  0.00    -0.326 N 
ATOM     10  H   UNL d   1       5.895  -5.899  -0.734  0.00  0.00     0.169 HD
ATOM     11  O   UNL d   1       8.252  -4.062  -1.780  0.00  0.00    -0.271 OA
BRANCH   9  12
ATOM     12  C   UNL d   1       7.146  -6.694  -2.222  0.00  0.00     0.034 A 
ATOM     13  C   UNL d   1       8.421  -6.705  -2.797  0.00  0.00     0.032 A 
ATOM     14  C   UNL d   1       8.719  -7.531  -3.884  0.00  0.00     0.039 A 
ATOM     15  C   UNL d   1       7.725  -8.338  -4.425  0.00  0.00     0.078 A 
ATOM     16  C   UNL d   1       6.488  -8.424  -3.782  0.00  0.00     0.039 A 
ATOM     17  C   UNL d   1       6.199  -7.612  -2.677  0.00  0.00     0.032 A 
BRANCH  15  18
ATOM     18  O   UNL d   1       7.870  -9.089  -5.552  0.00  0.00    -0.255 OA
BRANCH  18  19
ATOM     19  C   UNL d   1       8.596  -8.488  -6.621  0.00  0.00     0.530 C 
ATOM     20  F   UNL d   1       8.681  -7.142  -6.531  0.00  0.00    -0.144 F 
ATOM     21  F   UNL d   1       9.843  -9.003  -6.672  0.00  0.00    -0.144 F 
ATOM     22  F   UNL d   1       7.970  -8.780  -7.783  0.00  0.00    -0.144 F 
ENDBRANCH  18  19
ENDBRANCH  15  18
ENDBRANCH   9  12
ENDBRANCH   7   8
ENDBRANCH   2   7
BRANCH   1  23
ATOM     23  C   UNL d   1       3.008  -0.558   0.251  0.00  0.00     0.148 A 
ATOM     24  N   UNL d   1       1.967  -0.900  -0.477  0.00  0.00    -0.335 N 
ATOM     25  C   UNL d   1       0.856  -0.133  -0.163  0.00  0.00     0.053 A 
ATOM     26  HN  UNL d   1       1.976  -1.635  -1.184  1.00  0.00     0.168 HD
ATOM     27  C   UNL d   1      -0.418  -0.238  -0.758  0.00  0.00     0.054 A 
ATOM     28  C   UNL d   1       1.058   0.823   0.830  0.00  0.00     0.035 A 
ATOM     29  C   UNL d   1      -1.435   0.627  -0.353  0.00  0.00     0.036 A 
ATOM     30 CL   UNL d   1      -2.991   0.505  -1.081  0.00  0.00    -0.084 Cl
ATOM     31  C   UNL d   1      -1.213   1.585   0.633  0.00  0.00     0.025 A 
ATOM     32  C   UNL d   1       0.041   1.696   1.242  0.00  0.00     0.023 A 
ATOM     33  S   UNL d   1       2.679   0.713   1.382  0.00  0.00    -0.052 SA
ENDBRANCH   1  23
TORSDOF 6
