REMARK  4 active torsions:
REMARK  status: ('A' for Active; 'I' for Inactive)
REMARK    1  A    between atoms: O_5  and  C_2 
REMARK    2  A    between atoms: C_3  and  C_6 
REMARK    3  A    between atoms: C_4  and  O_5 
REMARK    4  A    between atoms: C_8  and  C_4 
ROOT
ATOM      1  C   UNL d   1       0.146  -3.785  -0.057  0.00  0.00     0.298 C 
ATOM      2  O   UNL d   1      -0.337  -4.874  -0.334  0.00  0.00    -0.259 OA
ENDROOT
BRANCH   1   3
ATOM      3  O   UNL d   1      -0.496  -2.585  -0.033  0.00  0.00    -0.277 OA
BRANCH   3   4
ATOM      4  C   UNL d   1      -1.884  -2.348  -0.313  0.00  0.00     0.082 C 
ATOM      5  C   UNL d   1      -2.304  -1.075  -0.395  0.00  0.00     0.109 C 
ATOM      6  C   UNL d   1      -3.729  -0.744  -0.677  0.00  0.00     0.173 C 
ATOM      7 CL   UNL d   1      -1.214   0.257  -0.208  0.00  0.00    -0.078 Cl
ATOM      8  O   UNL d   1      -4.120   0.422  -0.714  0.00  0.00    -0.291 OA
ATOM      9  C   UNL d   1      -4.680  -1.874  -1.000  0.00  0.00     0.085 C 
ATOM     10  C   UNL d   1      -4.287  -3.195  -0.364  0.00  0.00     0.014 C 
ATOM     11  C   UNL d   1      -2.800  -3.530  -0.467  0.00  0.00     0.067 C 
ENDBRANCH   3   4
ENDBRANCH   1   3
BRANCH   1  12
ATOM     12  C   UNL d   1       1.567  -3.599   0.344  0.00  0.00     0.040 A 
ATOM     13  C   UNL d   1       2.336  -4.740   0.630  0.00  0.00     0.033 A 
ATOM     14  C   UNL d   1       3.681  -4.622   1.025  0.00  0.00     0.048 A 
ATOM     15  C   UNL d   1       4.250  -3.342   1.117  0.00  0.00     0.016 A 
ATOM     16  C   UNL d   1       3.497  -2.206   0.827  0.00  0.00     0.002 A 
ATOM     17  C   UNL d   1       2.160  -2.332   0.443  0.00  0.00     0.017 A 
BRANCH  14  18
ATOM     18  C   UNL d   1       4.510  -5.838   1.363  0.00  0.00     0.417 C 
ATOM     19  F   UNL d   1       3.849  -7.015   1.192  0.00  0.00    -0.166 F 
ATOM     20  F   UNL d   1       5.637  -5.926   0.605  0.00  0.00    -0.166 F 
ATOM     21  F   UNL d   1       4.930  -5.830   2.658  0.00  0.00    -0.166 F 
ENDBRANCH  14  18
ENDBRANCH   1  12
TORSDOF 4
