REMARK  6 active torsions:
REMARK  status: ('A' for Active; 'I' for Inactive)
REMARK    1  A    between atoms: C_2  and  S_1 
REMARK    2  A    between atoms: N_9  and  S_1 
REMARK    3  A    between atoms: C_10  and  C_6 
REMARK    4  A    between atoms: C_7  and  N_17 
REMARK    5  A    between atoms: C_20  and  C_8 
REMARK    6  A    between atoms: O_35  and  C_20 
ROOT
ATOM      1  N   UNL d   1       0.585  -0.654  -1.536  0.00  0.00    -0.205 NA
ATOM      2  N   UNL d   1       0.775  -1.232  -4.511  0.00  0.00    -0.216 N 
ATOM      3  C   UNL d   1       0.854   0.372  -2.614  0.00  0.00     0.128 C 
ATOM      4  C   UNL d   1       0.215  -0.002  -3.958  0.00  0.00     0.157 C 
ATOM      5  C   UNL d   1       0.487  -2.899  -2.679  0.00  0.00     0.036 C 
ATOM      6  C   UNL d   1       1.311  -1.940  -1.827  0.00  0.00     0.109 C 
ATOM      7  C   UNL d   1       0.160  -2.485  -4.112  0.00  0.00     0.142 C 
ENDROOT
BRANCH   2   8
ATOM      8  C   UNL d   1       1.817  -1.192  -5.398  0.00  0.00     0.680 A 
ATOM      9  N   UNL d   1       2.291  -2.334  -5.911  0.00  0.00    -0.185 N 
ATOM     10  C   UNL d   1       3.286  -2.313  -6.860  0.00  0.00     0.150 A 
ATOM     11  HN  UNL d   1       1.911  -3.226  -5.596  1.00  0.00     0.184 HD
ATOM     12  C   UNL d   1       3.834  -1.120  -7.292  0.00  0.00     0.087 A 
ATOM     13  C   UNL d   1       3.305   0.003  -6.687  0.00  0.00     0.126 A 
ATOM     14  N   UNL d   1       2.327  -0.008  -5.755  0.00  0.00    -0.201 N 
ATOM     15  HN  UNL d   1       1.989   0.859  -5.337  1.00  0.00     0.183 HD
BRANCH  10  16
ATOM     16  C   UNL d   1       3.707  -3.659  -7.411  0.00  0.00     0.434 C 
ATOM     17  F   UNL d   1       3.024  -4.707  -6.852  0.00  0.00    -0.165 F 
ATOM     18  F   UNL d   1       3.489  -3.782  -8.752  0.00  0.00    -0.165 F 
ATOM     19  F   UNL d   1       5.021  -3.951  -7.194  0.00  0.00    -0.165 F 
ENDBRANCH  10  16
BRANCH  12  20
ATOM     20  C   UNL d   1       4.886  -0.891  -8.306  0.00  0.00     0.296 C 
ATOM     21  O   UNL d   1       5.246   0.231  -8.628  0.00  0.00    -0.259 OA
BRANCH  20  22
ATOM     22  O   UNL d   1       5.385  -2.039  -8.802  0.00  0.00    -0.322 OA
ATOM     23  C   UNL d   1       6.429  -1.863  -9.769  0.00  0.00     0.213 C 
ENDBRANCH  20  22
ENDBRANCH  12  20
ENDBRANCH   2   8
BRANCH   1  24
ATOM     24  S   UNL d   1       0.964  -0.076   0.049  0.00  0.00     0.246 S 
ATOM     25  O   UNL d   1       0.661  -1.107   1.017  0.00  0.00    -0.206 OA
ATOM     26  O   UNL d   1       2.300   0.483  -0.029  0.00  0.00    -0.206 OA
BRANCH  24  27
ATOM     27  C   UNL d   1      -0.141   1.250   0.343  0.00  0.00     0.105 A 
ATOM     28  C   UNL d   1      -1.529   1.081   0.468  0.00  0.00     0.108 A 
ATOM     29  C   UNL d   1      -2.404   2.210   0.777  0.00  0.00     0.086 A 
ATOM     30  N   UNL d   1      -2.301  -0.007   0.347  0.00  0.00    -0.238 N 
ATOM     31  N   UNL d   1      -3.664   1.767   0.840  0.00  0.00    -0.239 N 
ATOM     32  C   UNL d   1      -1.919   3.520   0.964  0.00  0.00     0.034 A 
ATOM     33  O   UNL d   1      -3.597   0.408   0.592  0.00  0.00    -0.156 OA
ATOM     34  HN  UNL d   1      -4.501   2.317   1.032  1.00  0.00     0.197 HD
ATOM     35  C   UNL d   1      -0.526   3.659   0.840  0.00  0.00     0.004 A 
ATOM     36  C   UNL d   1       0.333   2.568   0.547  0.00  0.00     0.027 A 
ATOM     37  HN  UNL d   1      -1.994  -0.953   0.120  1.00  0.00     0.197 HD
ENDBRANCH  24  27
ENDBRANCH   1  24
TORSDOF 6
