REMARK  4 active torsions:
REMARK  status: ('A' for Active; 'I' for Inactive)
REMARK    1  A    between atoms: C_10  and  C_1 
REMARK    2  A    between atoms: S_2  and  C_8 
REMARK    3  A    between atoms: N_16  and  S_2 
REMARK    4  A    between atoms: C_11  and  C_7 
ROOT
ATOM      1  C   UNL d   1       0.163  -1.180   0.006  0.00  0.00     0.136 A 
ATOM      2  N   UNL d   1      -0.631  -0.069   0.089  0.00  0.00    -0.292 N 
ATOM      3  C   UNL d   1       1.456  -0.696  -0.099  0.00  0.00     0.068 A 
ATOM      4  N   UNL d   1       0.078   1.079   0.161  0.00  0.00    -0.297 N 
ATOM      5  HN  UNL d   1      -0.279   2.023   0.308  1.00  0.00     0.187 HD
ATOM      6  C   UNL d   1       1.351   0.705  -0.003  0.00  0.00     0.067 A 
ATOM      7  C   UNL d   1      -2.068   0.066   0.015  0.00  0.00     0.178 C 
ENDROOT
BRANCH   6   8
ATOM      8  C   UNL d   1       2.471   1.697  -0.096  0.00  0.00     0.034 A 
ATOM      9  S   UNL d   1       4.095   1.288  -0.435  0.00  0.00    -0.075 SA
ATOM     10  C   UNL d   1       4.571   2.930  -0.488  0.00  0.00     0.115 A 
ATOM     11  C   UNL d   1       3.526   3.771  -0.156  0.00  0.00     0.034 A 
ATOM     12  C   UNL d   1       2.309   3.059   0.058  0.00  0.00     0.023 A 
BRANCH  10  13
ATOM     13  S   UNL d   1       6.262   3.243  -0.931  0.00  0.00     0.245 S 
ATOM     14  O   UNL d   1       6.473   2.582  -2.198  0.00  0.00    -0.206 OA
ATOM     15  O   UNL d   1       6.435   4.666  -0.741  0.00  0.00    -0.206 OA
BRANCH  13  16
ATOM     16  N   UNL d   1       7.219   2.479   0.212  0.00  0.00    -0.225 NA
ATOM     17  H   UNL d   1       7.131   1.466   0.181  0.00  0.00     0.136 HD
ATOM     18  H   UNL d   1       7.141   2.904   1.134  0.00  0.00     0.136 HD
ENDBRANCH  13  16
ENDBRANCH  10  13
ENDBRANCH   6   8
BRANCH   1  19
ATOM     19  C   UNL d   1      -0.296  -2.583  -0.003  0.00  0.00     0.434 C 
ATOM     20  F   UNL d   1      -1.630  -2.740   0.157  0.00  0.00    -0.165 F 
ATOM     21  F   UNL d   1       0.032  -3.198  -1.167  0.00  0.00    -0.165 F 
ATOM     22  F   UNL d   1       0.295  -3.293   0.992  0.00  0.00    -0.165 F 
ENDBRANCH   1  19
TORSDOF 4
