REMARK  4 active torsions:
REMARK  status: ('A' for Active; 'I' for Inactive)
REMARK    1  A    between atoms: C_8  and  C_1 
REMARK    2  A    between atoms: N_7  and  C_2 
REMARK    3  A    between atoms: S_9  and  C_8 
REMARK    4  A    between atoms: C_10  and  S_9 
ROOT
ATOM      1  C   UNL d   1      -1.706  -0.338  -0.068  0.00  0.00     0.141 C 
ATOM      2  C   UNL d   1      -0.601  -1.123  -0.473  0.00  0.00     0.159 C 
ATOM      3  N   UNL d   1      -1.288   0.887   0.317  0.00  0.00    -0.292 N 
ATOM      4  HN  UNL d   1      -1.860   1.673   0.627  1.00  0.00     0.187 HD
ATOM      5  C   UNL d   1       0.534  -0.388  -0.174  0.00  0.00     0.059 C 
ATOM      6  N   UNL d   1       0.053   0.841   0.200  0.00  0.00    -0.298 N 
ATOM      7  C   UNL d   1       1.982  -0.711  -0.252  0.00  0.00     0.072 C 
ATOM      8  C   UNL d   1       0.820   2.050   0.408  0.00  0.00     0.177 C 
ENDROOT
BRANCH   1   9
ATOM      9  C   UNL d   1      -3.099  -0.790  -0.003  0.00  0.00     0.244 C 
ATOM     10  O   UNL d   1      -3.418  -1.959   0.177  0.00  0.00    -0.278 OA
BRANCH   9  11
ATOM     11  S   UNL d   1      -4.307   0.443  -0.304  0.00  0.00    -0.043 SA
BRANCH  11  12
ATOM     12  C   UNL d   1      -4.796   1.018   1.312  0.00  0.00     0.047 A 
ATOM     13  C   UNL d   1      -4.205   0.666   2.534  0.00  0.00     0.136 A 
ATOM     14  C   UNL d   1      -4.634   1.229   3.738  0.00  0.00     0.086 A 
ATOM     15  F   UNL d   1      -3.201  -0.219   2.592  0.00  0.00    -0.205 F 
ATOM     16  C   UNL d   1      -5.671   2.147   3.725  0.00  0.00     0.119 A 
ATOM     17  C   UNL d   1      -6.295   2.503   2.537  0.00  0.00     0.044 A 
ATOM     18  F   UNL d   1      -6.078   2.704   4.874  0.00  0.00    -0.206 F 
ATOM     19  C   UNL d   1      -5.859   1.939   1.336  0.00  0.00     0.025 A 
ENDBRANCH  11  12
ENDBRANCH   9  11
ENDBRANCH   1   9
BRANCH   2  20
ATOM     20  N   UNL d   1      -0.670  -2.397  -1.115  0.00  0.00    -0.111 N 
ATOM     21  O   UNL d   1      -1.462  -2.489  -2.059  0.00  0.00    -0.532 OA
ATOM     22  O   UNL d   1       0.115  -3.271  -0.727  0.00  0.00    -0.532 OA
ENDBRANCH   2  20
TORSDOF 4
