REMARK  8 active torsions:
REMARK  status: ('A' for Active; 'I' for Inactive)
REMARK    1  A    between atoms: C_8  and  C_1 
REMARK    2  A    between atoms: C_24  and  C_4 
REMARK    3  A    between atoms: C_7  and  C_13 
REMARK    4  A    between atoms: O_12  and  C_8 
REMARK    5  A    between atoms: N_9  and  O_12 
REMARK    6  A    between atoms: C_14  and  C_11 
REMARK    7  A    between atoms: N_23  and  C_11 
REMARK    8  A    between atoms: C_26  and  C_24 
ROOT
ATOM      1  N   UNL d   1       4.488   0.753   0.033  0.00  0.00    -0.246 N 
ATOM      2  HN  UNL d   1       4.602  -0.194  -0.329  1.00  0.00     0.196 HD
ATOM      3  C   UNL d   1       5.422   1.672   0.077  0.00  0.00     0.109 C 
ENDROOT
BRANCH   1   4
ATOM      4  O   UNL d   1       3.303   1.293   0.566  0.00  0.00    -0.193 OA
BRANCH   4   5
ATOM      5  C   UNL d   1       2.099   0.708   0.225  0.00  0.00     0.318 C 
ATOM      6  O   UNL d   1       1.126   1.458   0.129  0.00  0.00    -0.257 OA
BRANCH   5   7
ATOM      7  C   UNL d   1       1.892  -0.748   0.175  0.00  0.00     0.082 A 
ATOM      8  C   UNL d   1       2.684  -1.934   0.249  0.00  0.00     0.043 A 
ATOM      9  N   UNL d   1       1.935  -3.052   0.184  0.00  0.00    -0.302 N 
ATOM     10  N   UNL d   1       0.679  -2.612   0.098  0.00  0.00    -0.307 N 
ATOM     11  HN  UNL d   1       2.257  -4.020   0.198  1.00  0.00     0.186 HD
ATOM     12  C   UNL d   1       0.596  -1.260   0.088  0.00  0.00     0.129 A 
ATOM     13  C   UNL d   1      -0.404  -3.564   0.066  0.00  0.00     0.177 C 
BRANCH   8  14
ATOM     14  C   UNL d   1       4.150  -2.154   0.412  0.00  0.00     0.059 C 
BRANCH  14  15
ATOM     15  C   UNL d   1       4.655  -1.838   1.820  0.00  0.00     0.002 C 
ATOM     16  C   UNL d   1       4.114  -2.757   2.901  0.00  0.00     0.005 C 
ENDBRANCH  14  15
ENDBRANCH   8  14
ENDBRANCH   5   7
ENDBRANCH   4   5
ENDBRANCH   1   4
BRANCH   3  17
ATOM     17  C   UNL d   1       6.852   1.328  -0.218  0.00  0.00     0.004 A 
ATOM     18  C   UNL d   1       7.705   2.272  -0.810  0.00  0.00     0.015 A 
ATOM     19  C   UNL d   1       9.080   2.019  -0.910  0.00  0.00     0.017 A 
ATOM     20  C   UNL d   1       9.629   0.828  -0.412  0.00  0.00     0.048 A 
ATOM     21  C   UNL d   1       8.768  -0.119   0.161  0.00  0.00     0.017 A 
ATOM     22  C   UNL d   1       7.394   0.132   0.247  0.00  0.00     0.015 A 
BRANCH  20  23
ATOM     23  C   UNL d   1      11.116   0.563  -0.444  0.00  0.00     0.417 C 
ATOM     24  F   UNL d   1      11.825   1.513  -1.116  0.00  0.00    -0.166 F 
ATOM     25  F   UNL d   1      11.657   0.510   0.806  0.00  0.00    -0.166 F 
ATOM     26  F   UNL d   1      11.425  -0.624  -1.034  0.00  0.00    -0.166 F 
ENDBRANCH  20  23
ENDBRANCH   3  17
BRANCH   3  27
ATOM     27  N   UNL d   1       5.168   2.978   0.443  0.00  0.00    -0.286 NA
ATOM     28  H   UNL d   1       4.252   3.104   0.861  0.00  0.00     0.125 HD
ATOM     29  H   UNL d   1       5.902   3.448   0.960  0.00  0.00     0.125 HD
ENDBRANCH   3  27
TORSDOF 8
