REMARK  1 active torsions:
REMARK  status: ('A' for Active; 'I' for Inactive)
REMARK    1  A    between atoms: C_10  and  N_2 
ROOT
ATOM      1  C   UNL d   1      -0.310   0.591  -0.012  0.00  0.00     0.139 A 
ATOM      2  N   UNL d   1       2.024   1.035   0.028  0.00  0.00    -0.215 N 
ATOM      3  C   UNL d   1       0.726   1.605  -0.007  0.00  0.00     0.296 A 
ATOM      4  C   UNL d   1      -0.007  -0.780  -0.001  0.00  0.00     0.053 A 
ATOM      5  N   UNL d   1       2.309  -0.340   0.076  0.00  0.00    -0.294 N 
ATOM      6  HN  UNL d   1       3.278  -0.651   0.152  1.00  0.00     0.187 HD
ATOM      7  N   UNL d   1      -1.631   0.805  -0.001  0.00  0.00    -0.255 N 
ATOM      8  HN  UNL d   1      -2.113   1.704   0.003  1.00  0.00     0.195 HD
ATOM      9  C   UNL d   1       1.355  -1.223   0.025  0.00  0.00     0.037 A 
ATOM     10  O   UNL d   1      -2.205  -0.457   0.005  0.00  0.00    -0.241 OA
ATOM     11  C   UNL d   1      -1.226  -1.411   0.001  0.00  0.00     0.087 A 
ATOM     12  O   UNL d   1       0.480   2.810   0.035  0.00  0.00    -0.264 OA
ATOM     13  C   UNL d   1       1.717  -2.681  -0.005  0.00  0.00     0.070 C 
ATOM     14  C   UNL d   1      -1.714  -2.802   0.008  0.00  0.00     0.080 C 
ENDROOT
BRANCH   2  15
ATOM     15  C   UNL d   1       3.188   1.848   0.018  0.00  0.00     0.099 A 
ATOM     16  C   UNL d   1       3.328   2.921  -0.874  0.00  0.00     0.148 A 
ATOM     17  C   UNL d   1       4.473   3.711  -0.878  0.00  0.00     0.087 A 
ATOM     18  F   UNL d   1       2.402   3.146  -1.819  0.00  0.00    -0.203 F 
ATOM     19  C   UNL d   1       5.482   3.439   0.036  0.00  0.00     0.119 A 
ATOM     20  C   UNL d   1       5.375   2.379   0.930  0.00  0.00     0.045 A 
ATOM     21  F   UNL d   1       6.583   4.201   0.050  0.00  0.00    -0.206 F 
ATOM     22  C   UNL d   1       4.238   1.568   0.907  0.00  0.00     0.038 A 
ENDBRANCH   2  15
TORSDOF 1
