REMARK  6 active torsions:
REMARK  status: ('A' for Active; 'I' for Inactive)
REMARK    1  A    between atoms: N_5  and  C_1 
REMARK       I    between atoms: C_9  and  N_8 
REMARK    2  A    between atoms: C_24  and  C_9 
REMARK    3  A    between atoms: C_11  and  C_26 
REMARK    4  A    between atoms: O_22  and  C_11 
REMARK    5  A    between atoms: S_18  and  C_24 
REMARK    6  A    between atoms: C_26  and  S_18 
ROOT
ATOM      1  N   UNL d   1      -4.641   0.258   0.117  0.00  0.00    -0.360 N 
ATOM      2  N   UNL d   1      -7.009   1.948   0.607  0.00  0.00    -0.350 N 
ATOM      3  C   UNL d   1      -8.343   1.622   0.360  0.00  0.00     0.229 C 
ATOM      4  C   UNL d   1      -5.392   0.865  -0.993  0.00  0.00     0.145 C 
ATOM      5  C   UNL d   1      -6.113   2.148  -0.547  0.00  0.00     0.145 C 
ATOM      6  O   UNL d   1      -8.776   1.562  -0.792  0.00  0.00    -0.273 OA
ATOM      7  C   UNL d   1      -5.831   0.464   2.281  0.00  0.00     0.040 C 
ATOM      8  C   UNL d   1      -5.436  -0.443   1.117  0.00  0.00     0.126 C 
ATOM      9  C   UNL d   1      -6.347   1.856   1.909  0.00  0.00     0.127 C 
ENDROOT
BRANCH   1  10
ATOM     10  C   UNL d   1      -3.276   0.299   0.116  0.00  0.00     0.147 A 
ATOM     11  N   UNL d   1      -2.573   0.883  -0.833  0.00  0.00    -0.336 N 
ATOM     12  C   UNL d   1      -1.214   0.719  -0.637  0.00  0.00     0.051 A 
ATOM     13  HN  UNL d   1      -2.982   1.393  -1.616  1.00  0.00     0.168 HD
ATOM     14  C   UNL d   1      -0.191   1.176  -1.494  0.00  0.00     0.032 A 
ATOM     15  C   UNL d   1      -0.860   0.033   0.521  0.00  0.00     0.036 A 
ATOM     16  C   UNL d   1       1.149   0.929  -1.174  0.00  0.00     0.026 A 
ATOM     17  C   UNL d   1       1.473   0.239  -0.009  0.00  0.00     0.035 A 
ATOM     18  C   UNL d   1       0.481  -0.219   0.861  0.00  0.00     0.045 A 
ATOM     19 CL   UNL d   1       3.127  -0.059   0.367  0.00  0.00    -0.084 Cl
ATOM     20  S   UNL d   1      -2.292  -0.403   1.360  0.00  0.00    -0.052 SA
ENDBRANCH   1  10
BRANCH   3  21
ATOM     21  C   UNL d   1      -9.221   1.347   1.581  0.00  0.00     0.177 C 
BRANCH  21  22
ATOM     22  S   UNL d   1     -10.992   1.066   1.191  0.00  0.00    -0.149 SA
BRANCH  22  23
ATOM     23  C   UNL d   1     -10.868  -0.471   0.213  0.00  0.00     0.184 C 
BRANCH  23  24
ATOM     24  C   UNL d   1     -10.295  -1.589   1.054  0.00  0.00     0.149 C 
ATOM     25  O   UNL d   1      -9.262  -2.186   0.794  0.00  0.00    -0.649 OA
BRANCH  24  26
ATOM     26  O   UNL d   1     -11.028  -1.858   2.162  0.00  0.00    -0.776 OA
ATOM     27  H   UNL d   1     -11.778  -1.237   2.264  0.00  0.00     0.167 HD
ENDBRANCH  24  26
ENDBRANCH  23  24
ENDBRANCH  22  23
ENDBRANCH  21  22
ENDBRANCH   3  21
TORSDOF 6
