REMARK  2 active torsions:
REMARK  status: ('A' for Active; 'I' for Inactive)
REMARK    1  A    between atoms: N_11  and  C_5 
REMARK    2  A    between atoms: N_17  and  C_10 
ROOT
ATOM      1  C   UNL d   1      -0.002   0.692  -0.011  0.00  0.00     0.133 A 
ATOM      2  C   UNL d   1       0.026  -0.669  -0.030  0.00  0.00     0.100 A 
ATOM      3  N   UNL d   1      -1.252   1.343  -0.078  0.00  0.00    -0.288 N 
ATOM      4  N   UNL d   1       1.243   1.377   0.094  0.00  0.00    -0.301 N 
ATOM      5  C   UNL d   1       2.434  -0.743  -0.024  0.00  0.00     0.192 A 
ATOM      6  N   UNL d   1      -2.433  -0.703  -0.008  0.00  0.00    -0.270 N 
ATOM      7  C   UNL d   1      -2.477   0.670  -0.002  0.00  0.00     0.332 C 
ATOM      8  C   UNL d   1      -1.269  -1.420   0.037  0.00  0.00     0.267 C 
ATOM      9  C   UNL d   1       2.489   0.711   0.079  0.00  0.00     0.283 A 
ATOM     10  C   UNL d   1       1.292  -1.446  -0.081  0.00  0.00     0.064 A 
ATOM     11  O   UNL d   1      -3.553   1.272   0.059  0.00  0.00    -0.246 OA
ATOM     12  O   UNL d   1      -1.280  -2.646   0.180  0.00  0.00    -0.267 OA
ATOM     13  O   UNL d   1       3.566   1.296   0.170  0.00  0.00    -0.265 OA
ATOM     14  C   UNL d   1      -1.429   2.774  -0.283  0.00  0.00     0.163 C 
ATOM     15  C   UNL d   1       1.387   2.810   0.311  0.00  0.00     0.161 C 
ATOM     16  C   UNL d   1      -3.678  -1.453   0.023  0.00  0.00     0.164 C 
ENDROOT
BRANCH   5  17
ATOM     17  N   UNL d   1       3.681  -1.452  -0.058  0.00  0.00    -0.108 N 
ATOM     18  O   UNL d   1       3.907  -2.240   0.873  0.00  0.00    -0.532 OA
ATOM     19  O   UNL d   1       4.417  -1.266  -1.033  0.00  0.00    -0.532 OA
ENDBRANCH   5  17
BRANCH  10  20
ATOM     20  N   UNL d   1       1.230  -2.831  -0.235  0.00  0.00    -0.300 NA
ATOM     21  H   UNL d   1       0.320  -3.242   0.019  0.00  0.00     0.124 HD
ATOM     22  H   UNL d   1       1.999  -3.356   0.190  0.00  0.00     0.124 HD
ENDBRANCH  10  20
TORSDOF 2
