REMARK  11 active torsions:
REMARK  status: ('A' for Active; 'I' for Inactive)
REMARK    1  A    between atoms: C_5  and  C_1 
REMARK    2  A    between atoms: C_7  and  C_1 
REMARK    3  A    between atoms: C_8  and  C_1 
REMARK    4  A    between atoms: O_17  and  C_1 
REMARK    5  A    between atoms: C_19  and  N_2 
REMARK    6  A    between atoms: C_3  and  C_4 
REMARK    7  A    between atoms: C_6  and  C_18 
REMARK    8  A    between atoms: C_18  and  C_25 
REMARK    9  A    between atoms: O_20  and  C_18 
REMARK   10  A    between atoms: C_21  and  C_19 
REMARK   11  A    between atoms: C_25  and  C_21 
ROOT
ATOM      1  N   UNL d   1       0.596   3.811   1.535  0.00  0.00     0.088 N 
ATOM      2  C   UNL d   1       0.111   1.447  -0.292  0.00  0.00     0.033 C 
ATOM      3  C   UNL d   1       1.042   2.634  -0.654  0.00  0.00     0.038 C 
ATOM      4  C   UNL d   1      -0.847   1.933   0.813  0.00  0.00     0.038 C 
ATOM      5  C   UNL d   1       1.610   3.432   0.538  0.00  0.00     0.273 C 
ATOM      6  C   UNL d   1      -0.141   2.610   1.976  0.00  0.00     0.273 C 
ENDROOT
BRANCH   1   7
ATOM      7  C   UNL d   1       1.223   4.398   2.744  0.00  0.00     0.272 C 
BRANCH   7   8
ATOM      8  C   UNL d   1       1.950   5.740   2.565  0.00  0.00     0.033 C 
BRANCH   8   9
ATOM      9  C   UNL d   1       2.512   6.320   3.888  0.00  0.00     0.038 C 
BRANCH   9  10
ATOM     10  C   UNL d   1       3.614   5.462   4.542  0.00  0.00     0.151 C 
BRANCH  10  11
ATOM     11  C   UNL d   1       4.305   6.016   5.773  0.00  0.00    -0.030 A 
ATOM     12  C   UNL d   1       3.981   7.225   6.388  0.00  0.00     0.010 A 
ATOM     13  C   UNL d   1       4.624   7.617   7.572  0.00  0.00     0.008 A 
ATOM     14  C   UNL d   1       5.606   6.817   8.188  0.00  0.00    -0.051 A 
ATOM     15  C   UNL d   1       5.931   5.611   7.556  0.00  0.00     0.008 A 
ATOM     16  C   UNL d   1       5.298   5.223   6.372  0.00  0.00     0.010 A 
BRANCH  14  17
ATOM     17  C   UNL d   1       6.284   7.271   9.492  0.00  0.00    -0.024 C 
ATOM     18  C   UNL d   1       7.308   6.254  10.047  0.00  0.00     0.019 C 
ATOM     19  C   UNL d   1       7.040   8.592   9.241  0.00  0.00     0.019 C 
ATOM     20  C   UNL d   1       5.224   7.492  10.592  0.00  0.00     0.019 C 
ENDBRANCH  14  17
ENDBRANCH  10  11
BRANCH  10  21
ATOM     21  O   UNL d   1       3.048   4.214   4.943  0.00  0.00    -0.391 OA
ATOM     22  H   UNL d   1       2.716   4.323   5.853  0.00  0.00     0.210 HD
ENDBRANCH  10  21
ENDBRANCH   9  10
ENDBRANCH   8   9
ENDBRANCH   7   8
ENDBRANCH   1   7
BRANCH   2  23
ATOM     23  C   UNL d   1       0.868   0.087   0.011  0.00  0.00     0.116 C 
BRANCH  23  24
ATOM     24  C   UNL d   1       1.608  -0.522  -1.212  0.00  0.00    -0.019 A 
ATOM     25  C   UNL d   1       2.612  -1.493  -1.003  0.00  0.00     0.010 A 
ATOM     26  C   UNL d   1       3.233  -2.145  -2.072  0.00  0.00     0.001 A 
ATOM     27  C   UNL d   1       2.858  -1.850  -3.378  0.00  0.00     0.000 A 
ATOM     28  C   UNL d   1       1.869  -0.900  -3.613  0.00  0.00     0.001 A 
ATOM     29  C   UNL d   1       1.250  -0.245  -2.544  0.00  0.00     0.010 A 
ENDBRANCH  23  24
BRANCH  23  30
ATOM     30  C   UNL d   1      -0.072  -1.011   0.568  0.00  0.00    -0.019 A 
ATOM     31  C   UNL d   1      -1.192  -1.447  -0.170  0.00  0.00     0.010 A 
ATOM     32  C   UNL d   1      -1.987  -2.510   0.277  0.00  0.00     0.001 A 
ATOM     33  C   UNL d   1      -1.681  -3.160   1.467  0.00  0.00     0.000 A 
ATOM     34  C   UNL d   1      -0.585  -2.744   2.218  0.00  0.00     0.001 A 
ATOM     35  C   UNL d   1       0.208  -1.680   1.775  0.00  0.00     0.010 A 
ENDBRANCH  23  30
BRANCH  23  36
ATOM     36  O   UNL d   1       1.861   0.387   1.006  0.00  0.00    -0.380 OA
ATOM     37  H   UNL d   1       2.684   0.598   0.535  0.00  0.00     0.211 HD
ENDBRANCH  23  36
ENDBRANCH   2  23
TORSDOF 11
