REMARK  6 active torsions:
REMARK  status: ('A' for Active; 'I' for Inactive)
REMARK    1  A    between atoms: N_4  and  S_1 
REMARK    2  A    between atoms: C_8  and  S_1 
REMARK    3  A    between atoms: C_5  and  C_2 
REMARK    4  A    between atoms: C_3  and  N_4 
REMARK    5  A    between atoms: O_19  and  C_5 
REMARK       I    between atoms: C_12  and  N_13 
REMARK    6  A    between atoms: N_13  and  C_18 
ROOT
ATOM      1  S   UNL d   1       0.773  -0.145   0.070  0.00  0.00     0.245 S 
ATOM      2  O   UNL d   1      -0.314  -0.572   0.922  0.00  0.00    -0.206 OA
ATOM      3  O   UNL d   1       2.146  -0.489   0.365  0.00  0.00    -0.206 OA
ENDROOT
BRANCH   1   4
ATOM      4  N   UNL d   1       0.616   1.562  -0.060  0.00  0.00    -0.180 NA
ATOM      5  H   UNL d   1      -0.373   1.726   0.152  0.00  0.00     0.146 HD
BRANCH   4   6
ATOM      6  C   UNL d   1       1.458   2.313   0.804  0.00  0.00     0.046 A 
ATOM      7  C   UNL d   1       2.724   2.809   0.527  0.00  0.00     0.102 A 
ATOM      8  S   UNL d   1       3.391   3.602   1.907  0.00  0.00    -0.094 SA
ATOM      9  C   UNL d   1       1.995   3.326   2.841  0.00  0.00     0.052 A 
ATOM     10  C   UNL d   1       1.031   2.651   2.130  0.00  0.00     0.033 A 
BRANCH   7  11
ATOM     11  C   UNL d   1       3.534   2.783  -0.678  0.00  0.00     0.301 C 
ATOM     12  O   UNL d   1       4.647   3.282  -0.808  0.00  0.00    -0.259 OA
BRANCH  11  13
ATOM     13  O   UNL d   1       2.873   2.158  -1.698  0.00  0.00    -0.322 OA
ATOM     14  C   UNL d   1       3.574   2.141  -2.943  0.00  0.00     0.213 C 
ENDBRANCH  11  13
ENDBRANCH   7  11
ENDBRANCH   4   6
ENDBRANCH   1   4
BRANCH   1  15
ATOM     15  C   UNL d   1       0.425  -0.697  -1.583  0.00  0.00     0.075 A 
ATOM     16  C   UNL d   1       1.466  -0.860  -2.496  0.00  0.00     0.027 A 
ATOM     17  C   UNL d   1       1.205  -1.389  -3.766  0.00  0.00     0.031 A 
ATOM     18  C   UNL d   1      -0.091  -1.786  -4.124  0.00  0.00     0.034 A 
ATOM     19  C   UNL d   1      -1.120  -1.635  -3.188  0.00  0.00     0.031 A 
ATOM     20  C   UNL d   1      -0.868  -1.094  -1.922  0.00  0.00     0.027 A 
BRANCH  18  21
ATOM     21  N   UNL d   1      -0.275  -2.339  -5.412  0.00  0.00    -0.328 N 
ATOM     22  C   UNL d   1      -1.460  -2.800  -5.959  0.00  0.00     0.218 C 
ATOM     23  O   UNL d   1      -2.563  -2.798  -5.423  0.00  0.00    -0.274 OA
ATOM     24  C   UNL d   1      -1.310  -3.347  -7.357  0.00  0.00     0.117 C 
ATOM     25  H   UNL d   1       0.555  -2.410  -5.986  0.00  0.00     0.169 HD
ENDBRANCH  18  21
ENDBRANCH   1  15
TORSDOF 6
