REMARK  6 active torsions:
REMARK  status: ('A' for Active; 'I' for Inactive)
REMARK    1  A    between atoms: C_11  and  C_1 
REMARK    2  A    between atoms: C_10  and  C_2 
REMARK    3  A    between atoms: C_3  and  O_7 
REMARK    4  A    between atoms: O_7  and  C_4 
REMARK    5  A    between atoms: C_12  and  C_8 
REMARK    6  A    between atoms: C_13  and  C_9 
ROOT
ATOM      1  O   UNL d   1       0.867  -2.504  -0.230  0.00  0.00    -0.310 OA
ENDROOT
BRANCH   1   2
ATOM      2  C   UNL d   1       2.103  -3.060   0.106  0.00  0.00     0.083 C 
ATOM      3  C   UNL d   1       2.228  -3.985   1.157  0.00  0.00    -0.016 C 
ATOM      4  C   UNL d   1       3.532  -4.131   1.706  0.00  0.00     0.018 C 
ATOM      5  C   UNL d   1       4.665  -3.445   1.228  0.00  0.00    -0.050 C 
ATOM      6  C   UNL d   1       4.524  -2.749   0.028  0.00  0.00     0.011 C 
ATOM      7  C   UNL d   1       3.260  -2.584  -0.542  0.00  0.00     0.038 C 
BRANCH   3   8
ATOM      8  C   UNL d   1       1.105  -4.893   1.702  0.00  0.00    -0.021 C 
ATOM      9  C   UNL d   1      -0.329  -4.466   1.340  0.00  0.00     0.019 C 
ATOM     10  C   UNL d   1       1.327  -6.302   1.096  0.00  0.00     0.019 C 
ATOM     11  C   UNL d   1       1.150  -5.020   3.245  0.00  0.00     0.019 C 
ENDBRANCH   3   8
BRANCH   5  12
ATOM     12  C   UNL d   1       5.959  -3.398   2.070  0.00  0.00    -0.024 C 
ATOM     13  C   UNL d   1       5.676  -2.499   3.298  0.00  0.00     0.019 C 
ATOM     14  C   UNL d   1       6.385  -4.795   2.566  0.00  0.00     0.019 C 
ATOM     15  C   UNL d   1       7.167  -2.789   1.325  0.00  0.00     0.019 C 
ENDBRANCH   5  12
ENDBRANCH   1   2
BRANCH   1  16
ATOM     16  C   UNL d   1       0.815  -1.112  -0.348  0.00  0.00     0.083 C 
ATOM     17  C   UNL d   1      -0.034  -0.483  -1.275  0.00  0.00    -0.016 C 
ATOM     18  C   UNL d   1       0.253   0.880  -1.562  0.00  0.00     0.018 C 
ATOM     19  C   UNL d   1       1.306   1.610  -0.981  0.00  0.00    -0.050 C 
ATOM     20  C   UNL d   1       1.956   1.013   0.093  0.00  0.00     0.011 C 
ATOM     21  C   UNL d   1       1.683  -0.314   0.428  0.00  0.00     0.038 C 
BRANCH  17  22
ATOM     22  C   UNL d   1      -1.253  -1.093  -2.000  0.00  0.00    -0.021 C 
ATOM     23  C   UNL d   1      -1.479  -2.599  -1.792  0.00  0.00     0.019 C 
ATOM     24  C   UNL d   1      -2.535  -0.380  -1.488  0.00  0.00     0.019 C 
ATOM     25  C   UNL d   1      -1.143  -0.872  -3.531  0.00  0.00     0.019 C 
ENDBRANCH  17  22
BRANCH  19  26
ATOM     26  C   UNL d   1       1.704   2.976  -1.559  0.00  0.00    -0.024 C 
ATOM     27  C   UNL d   1       0.607   4.013  -1.262  0.00  0.00     0.019 C 
ATOM     28  C   UNL d   1       3.041   3.513  -0.999  0.00  0.00     0.019 C 
ATOM     29  C   UNL d   1       1.889   2.855  -3.093  0.00  0.00     0.019 C 
ENDBRANCH  19  26
ENDBRANCH   1  16
TORSDOF 6
