REMARK  3 active torsions:
REMARK  status: ('A' for Active; 'I' for Inactive)
REMARK    1  A    between atoms: C_2  and  S_1 
REMARK    2  A    between atoms: N_3  and  S_1 
REMARK    3  A    between atoms: C_13  and  N_3 
ROOT
ATOM      1  S   UNL d   1       1.070   0.051  -0.054  0.00  0.00     0.263 S 
ATOM      2  O   UNL d   1       1.278   0.818  -1.265  0.00  0.00    -0.200 OA
ATOM      3  O   UNL d   1       0.171  -1.079  -0.020  0.00  0.00    -0.200 OA
ENDROOT
BRANCH   1   4
ATOM      4  C   UNL d   1       0.570   1.192   1.223  0.00  0.00     0.081 A 
ATOM      5  C   UNL d   1       0.852   2.557   1.085  0.00  0.00     0.035 A 
ATOM      6  C   UNL d   1       0.482   3.447   2.100  0.00  0.00    -0.021 A 
ATOM      7  C   UNL d   1       0.781   4.912   1.998  0.00  0.00     0.051 C 
ATOM      8  C   UNL d   1      -0.162   2.947   3.240  0.00  0.00     0.128 A 
ATOM      9  C   UNL d   1      -0.458   1.586   3.381  0.00  0.00    -0.021 A 
ATOM     10  F   UNL d   1      -0.493   3.798   4.222  0.00  0.00    -0.205 F 
ATOM     11  C   UNL d   1      -0.110   0.708   2.348  0.00  0.00     0.035 A 
ATOM     12  C   UNL d   1      -1.115   1.059   4.620  0.00  0.00     0.051 C 
ENDBRANCH   1   4
BRANCH   1  13
ATOM     13  N   UNL d   1       2.586  -0.432   0.454  0.00  0.00    -0.281 N 
ATOM     14  H   UNL d   1       3.380  -0.068  -0.063  0.00  0.00     0.179 HD
BRANCH  13  15
ATOM     15  C   UNL d   1       2.783  -1.192   1.633  0.00  0.00     0.044 A 
ATOM     16  C   UNL d   1       3.144  -0.546   2.816  0.00  0.00     0.057 A 
ATOM     17  C   UNL d   1       3.434  -1.304   3.952  0.00  0.00     0.074 A 
ATOM     18 CL   UNL d   1       3.873  -0.501   5.410  0.00  0.00    -0.081 Cl
ATOM     19  C   UNL d   1       3.381  -2.696   3.893  0.00  0.00     0.138 A 
ATOM     20  C   UNL d   1       3.019  -3.341   2.713  0.00  0.00     0.046 A 
ATOM     21  F   UNL d   1       3.691  -3.439   4.966  0.00  0.00    -0.204 F 
ATOM     22  C   UNL d   1       2.712  -2.584   1.579  0.00  0.00     0.033 A 
ENDBRANCH  13  15
ENDBRANCH   1  13
TORSDOF 3
