REMARK  4 active torsions:
REMARK  status: ('A' for Active; 'I' for Inactive)
REMARK    1  A    between atoms: C_5  and  C_1 
REMARK    2  A    between atoms: N_8  and  C_2 
REMARK       I    between atoms: C_9  and  N_8 
REMARK    3  A    between atoms: O_15  and  C_9 
REMARK    4  A    between atoms: N_10  and  O_15 
ROOT
ATOM      1  C   UNL d   1      -1.512  -0.982   0.286  0.00  0.00     0.098 A 
ATOM      2  C   UNL d   1      -0.119  -1.250   0.064  0.00  0.00     0.098 A 
ATOM      3  N   UNL d   1      -1.673   0.271   0.742  0.00  0.00    -0.258 N 
ATOM      4  HN  UNL d   1      -2.557   0.742   0.932  1.00  0.00     0.195 HD
ATOM      5  C   UNL d   1       0.519  -0.136   0.568  0.00  0.00     0.101 A 
ATOM      6  O   UNL d   1      -0.412   0.794   0.902  0.00  0.00    -0.240 OA
ATOM      7  C   UNL d   1       1.898   0.189   0.973  0.00  0.00     0.081 C 
ENDROOT
BRANCH   2   8
ATOM      8  N   UNL d   1       0.461  -2.435  -0.357  0.00  0.00    -0.297 N 
ATOM      9  C   UNL d   1       1.360  -2.583  -1.391  0.00  0.00     0.387 C 
ATOM     10  O   UNL d   1       1.658  -3.712  -1.768  0.00  0.00    -0.236 OA
ATOM     11  H   UNL d   1      -0.076  -3.283  -0.242  0.00  0.00     0.171 HD
BRANCH   9  12
ATOM     12  O   UNL d   1       1.768  -1.421  -2.001  0.00  0.00    -0.181 OA
BRANCH  12  13
ATOM     13  N   UNL d   1       1.748  -1.641  -3.398  0.00  0.00    -0.264 N 
ATOM     14  C   UNL d   1       2.562  -0.870  -4.045  0.00  0.00     0.020 C 
ATOM     15  C   UNL d   1       2.614  -0.960  -5.548  0.00  0.00     0.065 C 
ATOM     16  C   UNL d   1       3.558   0.088  -3.460  0.00  0.00     0.128 C 
ATOM     17  C   UNL d   1       2.834   0.460  -6.031  0.00  0.00     0.080 C 
ATOM     18  S   UNL d   1       3.857   1.300  -4.782  0.00  0.00    -0.163 SA
ATOM     19  HN  UNL d   1       1.152  -2.335  -3.849  1.00  0.00     0.194 HD
ENDBRANCH  12  13
ENDBRANCH   9  12
ENDBRANCH   2   8
BRANCH   1  20
ATOM     20  C   UNL d   1      -2.681  -1.855   0.119  0.00  0.00     0.038 A 
ATOM     21  C   UNL d   1      -2.756  -3.107   0.764  0.00  0.00     0.048 A 
ATOM     22 CL   UNL d   1      -1.479  -3.755   1.742  0.00  0.00    -0.083 Cl
ATOM     23  C   UNL d   1      -3.911  -3.897   0.683  0.00  0.00     0.025 A 
ATOM     24  C   UNL d   1      -5.027  -3.445  -0.011  0.00  0.00     0.003 A 
ATOM     25  C   UNL d   1      -4.976  -2.216  -0.659  0.00  0.00     0.025 A 
ATOM     26  C   UNL d   1      -3.811  -1.436  -0.615  0.00  0.00     0.048 A 
ATOM     27 CL   UNL d   1      -3.853   0.039  -1.529  0.00  0.00    -0.083 Cl
ENDBRANCH   1  20
TORSDOF 4
