REMARK  4 active torsions:
REMARK  status: ('A' for Active; 'I' for Inactive)
REMARK    1  A    between atoms: S_16  and  C_3 
REMARK    2  A    between atoms: C_7  and  C_10 
REMARK    3  A    between atoms: O_12  and  N_8 
REMARK    4  A    between atoms: C_10  and  O_12 
ROOT
ATOM      1  C   UNL d   1       0.084  -0.846  -0.025  0.00  0.00     0.020 A 
ATOM      2  C   UNL d   1       0.334   0.587  -0.019  0.00  0.00    -0.019 A 
ATOM      3  C   UNL d   1       1.256  -1.565  -0.195  0.00  0.00     0.054 A 
ATOM      4  S   UNL d   1       2.636  -0.543  -0.156  0.00  0.00    -0.074 SA
ATOM      5  C   UNL d   1       1.684   0.850  -0.064  0.00  0.00     0.060 A 
ATOM      6  C   UNL d   1      -1.288  -1.352   0.102  0.00  0.00     0.046 C 
ATOM      7  N   UNL d   1      -1.480  -2.531   0.606  0.00  0.00    -0.261 N 
ATOM      8  HN  UNL d   1      -0.724  -3.172   0.845  1.00  0.00     0.194 HD
ATOM      9  C   UNL d   1      -0.783   1.600  -0.006  0.00  0.00     0.050 C 
ATOM     10  C   UNL d   1      -2.156   1.003   0.403  0.00  0.00    -0.038 C 
ATOM     11  C   UNL d   1      -2.381  -0.365  -0.286  0.00  0.00     0.069 C 
ATOM     12 BR   UNL d   1       2.438   2.570  -0.064  0.00  0.00    -0.042 Br
ATOM     13  C   UNL d   1      -3.268   1.971  -0.042  0.00  0.00     0.015 C 
ATOM     14  C   UNL d   1      -2.235   0.852   1.936  0.00  0.00     0.015 C 
ENDROOT
BRANCH   7  15
ATOM     15  O   UNL d   1      -2.847  -2.834   0.791  0.00  0.00    -0.195 OA
BRANCH  15  16
ATOM     16  C   UNL d   1      -2.982  -4.061   1.371  0.00  0.00     0.316 C 
ATOM     17  O   UNL d   1      -2.079  -4.830   1.673  0.00  0.00    -0.257 OA
BRANCH  16  18
ATOM     18  C   UNL d   1      -4.386  -4.355   1.752  0.00  0.00     0.063 A 
ATOM     19  C   UNL d   1      -5.517  -4.003   1.009  0.00  0.00     0.050 A 
ATOM     20 CL   UNL d   1      -5.443  -3.211  -0.524  0.00  0.00    -0.083 Cl
ATOM     21  C   UNL d   1      -6.797  -4.351   1.474  0.00  0.00     0.025 A 
ATOM     22  C   UNL d   1      -6.958  -5.056   2.668  0.00  0.00     0.002 A 
ATOM     23  C   UNL d   1      -5.838  -5.429   3.403  0.00  0.00     0.001 A 
ATOM     24  C   UNL d   1      -4.564  -5.082   2.950  0.00  0.00     0.019 A 
ENDBRANCH  16  18
ENDBRANCH  15  16
ENDBRANCH   7  15
BRANCH   3  25
ATOM     25  S   UNL d   1       1.451  -3.277  -0.557  0.00  0.00    -0.126 SA
ATOM     26  C   UNL d   1       1.897  -3.925   1.067  0.00  0.00     0.096 C 
ENDBRANCH   3  25
TORSDOF 4
