REMARK  2 active torsions:
REMARK  status: ('A' for Active; 'I' for Inactive)
REMARK    1  A    between atoms: C_10  and  C_2 
REMARK    2  A    between atoms: C_13  and  C_9 
ROOT
ATOM      1  N   UNL d   1      -0.283  -0.641   0.024  0.00  0.00    -0.235 N 
ATOM      2  C   UNL d   1       0.898  -1.376   0.025  0.00  0.00     0.143 A 
ATOM      3  C   UNL d   1      -0.239   0.758   0.008  0.00  0.00     0.130 A 
ATOM      4  N   UNL d   1      -1.562  -1.079   0.034  0.00  0.00    -0.291 N 
ATOM      5  HN  UNL d   1      -1.875  -2.050   0.059  1.00  0.00     0.187 HD
ATOM      6  C   UNL d   1      -1.544   1.183  -0.009  0.00  0.00     0.082 A 
ATOM      7  N   UNL d   1       0.929   1.463   0.004  0.00  0.00    -0.345 N 
ATOM      8  HN  UNL d   1       0.940   2.483  -0.001  1.00  0.00     0.167 HD
ATOM      9  C   UNL d   1      -2.339   0.014   0.003  0.00  0.00     0.062 A 
ATOM     10  C   UNL d   1       2.080  -0.726   0.012  0.00  0.00     0.061 A 
ATOM     11  C   UNL d   1       2.026   0.767   0.008  0.00  0.00     0.009 A 
ATOM     12  C   UNL d   1       3.344   1.496   0.011  0.00  0.00     0.068 C 
ENDROOT
BRANCH   9  13
ATOM     13  C   UNL d   1      -3.805  -0.083  -0.017  0.00  0.00    -0.008 A 
ATOM     14  C   UNL d   1      -4.440  -1.334   0.016  0.00  0.00     0.014 A 
ATOM     15  C   UNL d   1      -5.835  -1.432  -0.010  0.00  0.00     0.001 A 
ATOM     16  C   UNL d   1      -6.614  -0.279  -0.070  0.00  0.00     0.000 A 
ATOM     17  C   UNL d   1      -6.001   0.970  -0.102  0.00  0.00     0.001 A 
ATOM     18  C   UNL d   1      -4.607   1.068  -0.075  0.00  0.00     0.014 A 
ENDBRANCH   9  13
BRANCH   2  19
ATOM     19  C   UNL d   1       0.834  -2.857   0.032  0.00  0.00     0.434 C 
ATOM     20  F   UNL d   1      -0.395  -3.419  -0.006  0.00  0.00    -0.165 F 
ATOM     21  F   UNL d   1       1.520  -3.368  -1.029  0.00  0.00    -0.165 F 
ATOM     22  F   UNL d   1       1.451  -3.355   1.140  0.00  0.00    -0.165 F 
ENDBRANCH   2  19
TORSDOF 2
