REMARK  5 active torsions:
REMARK  status: ('A' for Active; 'I' for Inactive)
REMARK    1  A    between atoms: N_4  and  C_9 
REMARK    2  A    between atoms: N_7  and  C_5 
REMARK    3  A    between atoms: C_16  and  N_7 
REMARK    4  A    between atoms: C_9  and  C_10 
REMARK    5  A    between atoms: C_10  and  C_16 
ROOT
ATOM      1  C   UNL d   1       2.059   0.610   0.504  0.00  0.00     0.087 A 
ATOM      2  C   UNL d   1       3.283   1.142   1.032  0.00  0.00     0.103 C 
ATOM      3  N   UNL d   1       4.255   1.604   1.474  0.00  0.00    -0.191 NA
ATOM      4  C   UNL d   1       1.064   1.480  -0.004  0.00  0.00     0.030 A 
ATOM      5  C   UNL d   1       1.835  -0.782   0.522  0.00  0.00     0.056 A 
ATOM      6 CL   UNL d   1       2.996  -1.897   1.161  0.00  0.00    -0.083 Cl
ATOM      7  C   UNL d   1      -0.317  -0.487  -0.516  0.00  0.00     0.003 A 
ATOM      8  C   UNL d   1      -0.101   0.891  -0.538  0.00  0.00     0.025 A 
ATOM      9  C   UNL d   1       0.651  -1.324   0.017  0.00  0.00     0.025 A 
ENDROOT
BRANCH   4  10
ATOM     10  N   UNL d   1       1.272   2.881  -0.103  0.00  0.00    -0.292 NA
ATOM     11  H   UNL d   1       1.992   3.216   0.539  0.00  0.00     0.127 HD
BRANCH  10  12
ATOM     12  C   UNL d   1       0.063   3.713  -0.033  0.00  0.00     0.094 C 
BRANCH  12  13
ATOM     13  C   UNL d   1       0.406   5.202  -0.034  0.00  0.00     0.045 C 
BRANCH  13  14
ATOM     14  C   UNL d   1      -0.872   6.051   0.104  0.00  0.00     0.273 C 
BRANCH  14  15
ATOM     15  N   UNL d   1      -1.655   5.710   1.301  0.00  0.00     0.088 N 
ATOM     16  C   UNL d   1      -0.939   6.010   2.550  0.00  0.00     0.272 C 
ATOM     17  C   UNL d   1      -1.706   5.441   3.740  0.00  0.00     0.030 C 
ATOM     18  C   UNL d   1      -3.119   6.002   3.805  0.00  0.00     0.003 C 
ATOM     19  C   UNL d   1      -3.827   5.843   2.462  0.00  0.00     0.030 C 
ATOM     20  C   UNL d   1      -2.974   6.363   1.300  0.00  0.00     0.272 C 
ENDBRANCH  14  15
ENDBRANCH  13  14
ENDBRANCH  12  13
ENDBRANCH  10  12
ENDBRANCH   4  10
TORSDOF 5
