REMARK  6 active torsions:
REMARK  status: ('A' for Active; 'I' for Inactive)
REMARK    1  A    between atoms: C_2  and  N_1 
REMARK    2  A    between atoms: C_5  and  O_8 
REMARK    3  A    between atoms: O_20  and  C_6 
REMARK    4  A    between atoms: O_8  and  C_7 
REMARK    5  A    between atoms: C_15  and  C_21 
REMARK    6  A    between atoms: C_21  and  C_18 
ROOT
ATOM      1  C   UNL d   1      -1.967   4.716   2.996  0.00  0.00     0.111 A 
ATOM      2  C   UNL d   1      -1.875   5.415   1.785  0.00  0.00     0.102 A 
ATOM      3  C   UNL d   1      -1.703   6.808   1.819  0.00  0.00     0.047 A 
ATOM      4  C   UNL d   1      -2.018   5.435   4.204  0.00  0.00     0.041 A 
ATOM      5  C   UNL d   1      -1.637   7.515   3.028  0.00  0.00    -0.052 A 
ATOM      6  C   UNL d   1      -1.834   6.818   4.222  0.00  0.00     0.010 A 
ENDROOT
BRANCH   1   7
ATOM      7  O   UNL d   1      -2.070   3.344   2.998  0.00  0.00    -0.291 OA
BRANCH   7   8
ATOM      8  C   UNL d   1      -1.367   2.605   3.924  0.00  0.00     0.148 A 
ATOM      9  C   UNL d   1      -0.128   2.979   4.442  0.00  0.00     0.059 A 
ATOM     10  C   UNL d   1       0.497   2.150   5.377  0.00  0.00     0.041 A 
ATOM     11  C   UNL d   1      -0.121   0.949   5.728  0.00  0.00     0.118 A 
ATOM     12  C   UNL d   1      -1.334   0.626   5.140  0.00  0.00     0.126 A 
ATOM     13  N   UNL d   1      -1.963   1.430   4.249  0.00  0.00    -0.344 N 
ATOM     14  HN  UNL d   1      -2.856   1.161   3.835  1.00  0.00     0.167 HD
BRANCH  11  15
ATOM     15  N   UNL d   1       0.488   0.040   6.687  0.00  0.00    -0.114 N 
ATOM     16  O   UNL d   1      -0.078  -1.040   6.898  0.00  0.00    -0.532 OA
ATOM     17  O   UNL d   1       1.538   0.405   7.236  0.00  0.00    -0.532 OA
ENDBRANCH  11  15
ENDBRANCH   7   8
ENDBRANCH   1   7
BRANCH   2  18
ATOM     18  O   UNL d   1      -1.915   4.935   0.504  0.00  0.00    -0.353 OA
ATOM     19  C   UNL d   1      -2.161   3.557   0.277  0.00  0.00     0.210 C 
ENDBRANCH   2  18
BRANCH   5  20
ATOM     20  C   UNL d   1      -1.365   8.999   3.038  0.00  0.00     0.065 C 
BRANCH  20  21
ATOM     21  C   UNL d   1      -2.610   9.823   3.186  0.00  0.00    -0.032 C 
ATOM     22  C   UNL d   1      -2.839  10.664   4.203  0.00  0.00     0.007 C 
ENDBRANCH  20  21
ENDBRANCH   5  20
TORSDOF 6
