REMARK  13 active torsions:
REMARK  status: ('A' for Active; 'I' for Inactive)
REMARK    1  A    between atoms: C_13  and  C_1 
REMARK    2  A    between atoms: C_2  and  C_14 
REMARK    3  A    between atoms: C_3  and  O_8 
REMARK       I    between atoms: N_10  and  C_3 
REMARK    4  A    between atoms: O_8  and  C_15 
REMARK    5  A    between atoms: C_28  and  N_10 
REMARK    6  A    between atoms: S_11  and  C_13 
REMARK    7  A    between atoms: C_21  and  S_11 
REMARK    8  A    between atoms: S_12  and  C_20 
REMARK    9  A    between atoms: C_14  and  S_12 
REMARK   10  A    between atoms: C_15  and  C_21 
REMARK   11  A    between atoms: C_20  and  C_15 
REMARK   12  A    between atoms: C_29  and  C_28 
REMARK   13  A    between atoms: C_30  and  C_29 
ROOT
ATOM      1  C   UNL d   1      -2.446   5.562   0.166  0.00  0.00     0.151 C 
ENDROOT
BRANCH   1   2
ATOM      2  O   UNL d   1      -3.110   5.255   1.424  0.00  0.00    -0.301 OA
BRANCH   2   3
ATOM      3  C   UNL d   1      -3.910   4.154   1.419  0.00  0.00     0.338 C 
ATOM      4  O   UNL d   1      -4.240   3.497   0.453  0.00  0.00    -0.245 OA
ATOM      5  N   UNL d   1      -4.298   3.801   2.686  0.00  0.00    -0.238 NA
ATOM      6  H   UNL d   1      -4.547   2.821   2.682  0.00  0.00     0.132 HD
BRANCH   5   7
ATOM      7  C   UNL d   1      -5.333   4.618   3.272  0.00  0.00     0.097 C 
BRANCH   7   8
ATOM      8  C   UNL d   1      -5.323   4.565   4.790  0.00  0.00     0.014 C 
BRANCH   8   9
ATOM      9  C   UNL d   1      -4.000   5.078   5.359  0.00  0.00    -0.003 C 
ATOM     10  C   UNL d   1      -4.013   5.080   6.876  0.00  0.00     0.005 C 
ENDBRANCH   8   9
ENDBRANCH   7   8
ENDBRANCH   5   7
ENDBRANCH   2   3
ENDBRANCH   1   2
BRANCH   1  11
ATOM     11  C   UNL d   1      -1.086   4.831   0.077  0.00  0.00     0.107 C 
BRANCH  11  12
ATOM     12  S   UNL d   1      -1.254   3.012   0.009  0.00  0.00    -0.162 SA
BRANCH  12  13
ATOM     13  C   UNL d   1       0.479   2.533  -0.182  0.00  0.00     0.117 C 
BRANCH  13  14
ATOM     14  C   UNL d   1       0.616   1.034  -0.184  0.00  0.00     0.011 A 
ATOM     15  C   UNL d   1       0.615   0.349  -1.406  0.00  0.00     0.125 A 
ATOM     16  F   UNL d   1       0.482   1.031  -2.553  0.00  0.00    -0.205 F 
ATOM     17  C   UNL d   1       0.757  -1.035  -1.476  0.00  0.00     0.043 A 
ATOM     18  C   UNL d   1       0.891  -1.775  -0.307  0.00  0.00     0.005 A 
ATOM     19  C   UNL d   1       0.855  -1.124   0.926  0.00  0.00     0.024 A 
ATOM     20  C   UNL d   1       0.711   0.268   0.988  0.00  0.00     0.044 A 
ATOM     21 CL   UNL d   1       0.657   0.988   2.559  0.00  0.00    -0.084 Cl
ENDBRANCH  13  14
ENDBRANCH  12  13
ENDBRANCH  11  12
ENDBRANCH   1  11
BRANCH   1  22
ATOM     22  C   UNL d   1      -2.251   7.095   0.137  0.00  0.00     0.107 C 
BRANCH  22  23
ATOM     23  S   UNL d   1      -1.421   7.785  -1.354  0.00  0.00    -0.162 SA
BRANCH  23  24
ATOM     24  C   UNL d   1      -2.560   7.215  -2.652  0.00  0.00     0.117 C 
BRANCH  24  25
ATOM     25  C   UNL d   1      -1.999   7.400  -4.037  0.00  0.00     0.011 A 
ATOM     26  C   UNL d   1      -2.220   8.537  -4.824  0.00  0.00     0.044 A 
ATOM     27 CL   UNL d   1      -3.138   9.882  -4.244  0.00  0.00    -0.084 Cl
ATOM     28  C   UNL d   1      -1.713   8.617  -6.128  0.00  0.00     0.024 A 
ATOM     29  C   UNL d   1      -0.967   7.565  -6.666  0.00  0.00     0.005 A 
ATOM     30  C   UNL d   1      -0.721   6.439  -5.889  0.00  0.00     0.043 A 
ATOM     31  C   UNL d   1      -1.230   6.366  -4.596  0.00  0.00     0.125 A 
ATOM     32  F   UNL d   1      -0.986   5.260  -3.880  0.00  0.00    -0.205 F 
ENDBRANCH  24  25
ENDBRANCH  23  24
ENDBRANCH  22  23
ENDBRANCH   1  22
TORSDOF 13
