REMARK  5 active torsions:
REMARK  status: ('A' for Active; 'I' for Inactive)
REMARK    1  A    between atoms: C_7  and  N_1 
REMARK    2  A    between atoms: S_2  and  C_9 
REMARK    3  A    between atoms: N_6  and  S_2 
REMARK       I    between atoms: C_5  and  N_10 
REMARK    4  A    between atoms: O_14  and  C_5 
REMARK    5  A    between atoms: C_24  and  O_14 
ROOT
ATOM      1  C   UNL d   1       2.851  -1.562   0.142  0.00  0.00     0.067 A 
ATOM      2  C   UNL d   1       5.084  -3.244   0.343  0.00  0.00     0.076 A 
ATOM      3  C   UNL d   1       3.442  -2.107  -1.015  0.00  0.00     0.062 A 
ATOM      4  C   UNL d   1       4.567  -2.928  -0.916  0.00  0.00     0.051 A 
ATOM      5  C   UNL d   1       3.426  -1.842   1.395  0.00  0.00     0.033 A 
ATOM      6  C   UNL d   1       4.533  -2.687   1.499  0.00  0.00     0.027 A 
ATOM      7 CL   UNL d   1       2.913  -1.686  -2.609  0.00  0.00    -0.082 Cl
ENDROOT
BRANCH   2   8
ATOM      8  S   UNL d   1       6.503  -4.320   0.458  0.00  0.00     0.243 S 
ATOM      9  O   UNL d   1       7.229  -4.210  -0.785  0.00  0.00    -0.206 OA
ATOM     10  O   UNL d   1       7.146  -4.056   1.729  0.00  0.00    -0.206 OA
BRANCH   8  11
ATOM     11  N   UNL d   1       5.784  -5.878   0.527  0.00  0.00    -0.205 NA
ATOM     12  C   UNL d   1       5.060  -6.178   1.801  0.00  0.00     0.127 C 
ATOM     13  C   UNL d   1       4.942  -7.685   2.045  0.00  0.00     0.143 C 
ATOM     14  N   UNL d   1       4.108  -8.372   1.061  0.00  0.00    -0.327 N 
ATOM     15  C   UNL d   1       2.737  -8.424   1.298  0.00  0.00     0.363 C 
ATOM     16  C   UNL d   1       4.771  -8.844  -0.146  0.00  0.00     0.129 C 
ATOM     17  O   UNL d   1       2.228  -7.832   2.244  0.00  0.00    -0.238 OA
ATOM     18  C   UNL d   1       5.345  -7.747  -1.056  0.00  0.00     0.035 C 
ATOM     19  C   UNL d   1       5.035  -6.301  -0.691  0.00  0.00     0.109 C 
BRANCH  15  20
ATOM     20  O   UNL d   1       2.033  -9.174   0.405  0.00  0.00    -0.294 OA
BRANCH  20  21
ATOM     21  C   UNL d   1       0.581  -9.277   0.542  0.00  0.00     0.061 C 
ATOM     22  C   UNL d   1      -0.085  -7.896   0.445  0.00  0.00     0.046 C 
ATOM     23  C   UNL d   1       0.106 -10.147  -0.638  0.00  0.00     0.046 C 
ATOM     24  C   UNL d   1       0.164  -9.992   1.838  0.00  0.00     0.046 C 
ENDBRANCH  20  21
ENDBRANCH  15  20
ENDBRANCH   8  11
ENDBRANCH   2   8
BRANCH   1  25
ATOM     25  N   UNL d   1       1.715  -0.728   0.077  0.00  0.00    -0.250 N 
ATOM     26  C   UNL d   1       1.649   0.510   0.655  0.00  0.00     0.232 C 
ATOM     27  C   UNL d   1       0.339   1.146   0.290  0.00  0.00     0.123 C 
ATOM     28  O   UNL d   1       2.511   1.079   1.317  0.00  0.00    -0.273 OA
ATOM     29  C   UNL d   1      -0.478  -0.001  -0.303  0.00  0.00     0.050 C 
ATOM     30  C   UNL d   1       0.519  -1.128  -0.473  0.00  0.00     0.240 C 
ATOM     31  C   UNL d   1      -1.172   0.345  -1.619  0.00  0.00     0.020 C 
ATOM     32  C   UNL d   1      -1.649  -0.407   0.598  0.00  0.00     0.020 C 
ATOM     33  O   UNL d   1       0.242  -2.228  -0.923  0.00  0.00    -0.272 OA
ATOM     34  C   UNL d   1      -2.482   1.011  -1.213  0.00  0.00     0.001 C 
ATOM     35  C   UNL d   1      -2.793   0.522   0.200  0.00  0.00     0.001 C 
ENDBRANCH   1  25
TORSDOF 5
