REMARK  2 active torsions:
REMARK  status: ('A' for Active; 'I' for Inactive)
REMARK    1  A    between atoms: C_5  and  C_1 
REMARK    2  A    between atoms: C_6  and  C_4 
ROOT
ATOM      1  C   UNL d   1       0.541  -0.985   0.017  0.00  0.00     0.192 A 
ATOM      2  N   UNL d   1       1.220   0.142   0.021  0.00  0.00    -0.317 N 
ATOM      3  HN  UNL d   1       2.231   0.271   0.045  1.00  0.00     0.169 HD
ATOM      4  C   UNL d   1       0.240   1.101  -0.013  0.00  0.00     0.157 A 
ATOM      5  N   UNL d   1      -1.010   0.617  -0.041  0.00  0.00    -0.241 N 
ATOM      6  HN  UNL d   1      -1.889   1.133  -0.068  1.00  0.00     0.196 HD
ATOM      7  O   UNL d   1      -0.815  -0.765  -0.024  0.00  0.00    -0.216 OA
ENDROOT
BRANCH   1   8
ATOM      8  C   UNL d   1       1.140  -2.279   0.056  0.00  0.00     0.096 A 
ATOM      9  C   UNL d   1       2.473  -2.664   0.133  0.00  0.00     0.041 A 
ATOM     10  N   UNL d   1       2.671  -4.045   0.153  0.00  0.00    -0.296 N 
ATOM     11  C   UNL d   1       3.692  -1.817   0.200  0.00  0.00     0.071 C 
ATOM     12  N   UNL d   1       1.535  -4.714   0.094  0.00  0.00    -0.061 NA
ATOM     13  HN  UNL d   1       3.589  -4.487   0.206  1.00  0.00     0.183 HD
ATOM     14  S   UNL d   1       0.201  -3.716   0.013  0.00  0.00     0.006 SA
ENDBRANCH   1   8
BRANCH   4  15
ATOM     15  C   UNL d   1       0.579   2.527  -0.006  0.00  0.00     0.103 A 
ATOM     16  N   UNL d   1       1.834   2.996  -0.020  0.00  0.00    -0.257 N 
ATOM     17  O   UNL d   1       1.716   4.376   0.000  0.00  0.00    -0.242 OA
ATOM     18  HN  UNL d   1       2.696   2.451  -0.041  1.00  0.00     0.195 HD
ATOM     19  C   UNL d   1       0.399   4.717   0.028  0.00  0.00     0.074 A 
ATOM     20  C   UNL d   1      -0.366   3.577   0.022  0.00  0.00     0.070 A 
ATOM     21  C   UNL d   1       0.099   6.159   0.058  0.00  0.00     0.079 C 
ENDBRANCH   4  15
TORSDOF 2
