REMARK  4 active torsions:
REMARK  status: ('A' for Active; 'I' for Inactive)
REMARK    1  A    between atoms: C_2  and  C_1 
REMARK    2  A    between atoms: S_3  and  C_11 
REMARK    3  A    between atoms: C_9  and  S_3 
REMARK    4  A    between atoms: C_11  and  C_12 
ROOT
ATOM      1  C   UNL d   1       0.352   0.764  -1.194  0.00  0.00     0.047 A 
ATOM      2  C   UNL d   1      -0.873   1.447  -1.174  0.00  0.00     0.017 A 
ATOM      3  C   UNL d   1       1.210   0.952  -2.288  0.00  0.00     0.017 A 
ATOM      4  C   UNL d   1      -0.375   2.478  -3.322  0.00  0.00    -0.049 A 
ATOM      5  C   UNL d   1      -1.233   2.292  -2.228  0.00  0.00     0.009 A 
ATOM      6  C   UNL d   1       0.850   1.797  -3.342  0.00  0.00     0.009 A 
ENDROOT
BRANCH   4   7
ATOM      7  C   UNL d   1      -0.786   3.363  -4.476  0.00  0.00     0.117 C 
BRANCH   7   8
ATOM      8  S   UNL d   1      -1.737   2.417  -5.715  0.00  0.00    -0.125 SA
BRANCH   8   9
ATOM      9  C   UNL d   1      -1.978   3.603  -7.029  0.00  0.00     0.001 A 
ATOM     10  C   UNL d   1      -2.051   3.107  -8.339  0.00  0.00     0.020 A 
ATOM     11  C   UNL d   1      -2.292   3.963  -9.419  0.00  0.00     0.025 A 
ATOM     12  C   UNL d   1      -2.468   5.324  -9.193  0.00  0.00     0.034 A 
ATOM     13  C   UNL d   1      -2.405   5.833  -7.899  0.00  0.00     0.025 A 
ATOM     14 CL   UNL d   1      -2.782   6.379 -10.514  0.00  0.00    -0.084 Cl
ATOM     15  C   UNL d   1      -2.164   4.975  -6.819  0.00  0.00     0.020 A 
ENDBRANCH   8   9
ENDBRANCH   7   8
ENDBRANCH   4   7
BRANCH   1  16
ATOM     16  C   UNL d   1       0.747  -0.169  -0.076  0.00  0.00     0.417 C 
ATOM     17  F   UNL d   1      -0.184  -0.261   0.915  0.00  0.00    -0.166 F 
ATOM     18  F   UNL d   1       1.903   0.212   0.536  0.00  0.00    -0.166 F 
ATOM     19  F   UNL d   1       0.957  -1.443  -0.508  0.00  0.00    -0.166 F 
ENDBRANCH   1  16
TORSDOF 4
