REMARK  3 active torsions:
REMARK  status: ('A' for Active; 'I' for Inactive)
REMARK    1  A    between atoms: C_1  and  C_2 
REMARK    2  A    between atoms: C_2  and  C_6 
REMARK    3  A    between atoms: C_6  and  C_9 
ROOT
ATOM      1  C   UNL d   1      -3.778  -0.074  -0.008  0.00  0.00     0.234 C 
ATOM      2  C   UNL d   1      -4.261  -1.464  -0.053  0.00  0.00     0.080 C 
ATOM      3  N   UNL d   1      -4.684  -2.542  -0.109  0.00  0.00    -0.196 NA
ENDROOT
BRANCH   1   4
ATOM      4  C   UNL d   1      -4.419   0.740  -1.135  0.00  0.00     0.186 C 
ATOM      5  O   UNL d   1      -3.751   1.236  -2.050  0.00  0.00    -0.290 OA
BRANCH   4   6
ATOM      6  C   UNL d   1      -5.910   0.892  -1.240  0.00  0.00     0.033 A 
ATOM      7  C   UNL d   1      -6.823   0.913  -0.177  0.00  0.00     0.048 A 
ATOM      8  C   UNL d   1      -8.201   0.979  -0.434  0.00  0.00     0.025 A 
ATOM      9 CL   UNL d   1      -6.387   0.977   1.490  0.00  0.00    -0.083 Cl
ATOM     10  C   UNL d   1      -8.681   1.087  -1.737  0.00  0.00     0.002 A 
ATOM     11  C   UNL d   1      -7.786   1.144  -2.796  0.00  0.00     0.001 A 
ATOM     12  C   UNL d   1      -6.415   1.039  -2.551  0.00  0.00     0.017 A 
ENDBRANCH   4   6
ENDBRANCH   1   4
BRANCH   1  13
ATOM     13  C   UNL d   1      -2.272  -0.063  -0.070  0.00  0.00     0.108 A 
ATOM     14  N   UNL d   1      -1.544   0.063  -1.233  0.00  0.00    -0.343 N 
ATOM     15  C   UNL d   1      -0.212   0.028  -0.922  0.00  0.00     0.060 A 
ATOM     16  H   UNL d   1      -1.940   0.233  -2.150  0.00  0.00     0.167 HD
ATOM     17  C   UNL d   1       0.936   0.108  -1.710  0.00  0.00     0.032 A 
ATOM     18  C   UNL d   1      -0.186  -0.108   0.460  0.00  0.00     0.060 A 
ATOM     19  C   UNL d   1       2.161   0.029  -1.038  0.00  0.00     0.002 A 
ATOM     20  C   UNL d   1       2.221  -0.111   0.351  0.00  0.00     0.002 A 
ATOM     21  C   UNL d   1       1.050  -0.176   1.118  0.00  0.00     0.032 A 
ATOM     22  N   UNL d   1      -1.461  -0.154   0.970  0.00  0.00    -0.343 N 
ATOM     23  HN  UNL d   1      -1.727  -0.241   1.951  1.00  0.00     0.167 HD
ENDBRANCH   1  13
TORSDOF 3
