REMARK  3 active torsions:
REMARK  status: ('A' for Active; 'I' for Inactive)
REMARK    1  A    between atoms: N_7  and  C_1 
REMARK    2  A    between atoms: C_14  and  C_5 
REMARK       I    between atoms: C_6  and  N_7 
REMARK    3  A    between atoms: C_9  and  C_6 
ROOT
ATOM      1  C   UNL d   1       1.004  -0.561   0.071  0.00  0.00     0.124 A 
ATOM      2  C   UNL d   1       0.823   0.801   0.040  0.00  0.00     0.081 A 
ATOM      3  N   UNL d   1      -1.233  -0.156  -0.067  0.00  0.00    -0.298 N 
ATOM      4  HN  UNL d   1      -2.237  -0.311  -0.151  1.00  0.00     0.187 HD
ATOM      5  C   UNL d   1      -0.580   1.014  -0.066  0.00  0.00     0.062 A 
ATOM      6  N   UNL d   1      -0.266  -1.078   0.067  0.00  0.00    -0.285 N 
ATOM      7  H   UNL d   1      -0.553  -2.048   0.127  0.00  0.00     0.188 HD
ENDROOT
BRANCH   1   8
ATOM      8  N   UNL d   1       2.189  -1.297   0.078  0.00  0.00    -0.312 N 
ATOM      9  C   UNL d   1       3.500  -0.688   0.071  0.00  0.00     0.228 C 
ATOM     10  O   UNL d   1       3.617   0.527   0.130  0.00  0.00    -0.273 OA
ATOM     11  H   UNL d   1       2.112  -2.304   0.038  0.00  0.00     0.170 HD
BRANCH   9  12
ATOM     12  C   UNL d   1       4.674  -1.620  -0.126  0.00  0.00     0.087 C 
ATOM     13  C   UNL d   1       4.567  -2.942   0.651  0.00  0.00     0.053 C 
ATOM     14  C   UNL d   1       5.995  -3.237   0.974  0.00  0.00    -0.051 A 
ATOM     15  C   UNL d   1       6.536  -4.426   1.435  0.00  0.00     0.007 A 
ATOM     16  C   UNL d   1       6.795  -2.106   0.799  0.00  0.00    -0.051 A 
ATOM     17  C   UNL d   1       7.903  -4.468   1.718  0.00  0.00     0.001 A 
ATOM     18  C   UNL d   1       8.703  -3.327   1.555  0.00  0.00     0.001 A 
ATOM     19  C   UNL d   1       8.147  -2.131   1.097  0.00  0.00     0.007 A 
ATOM     20  C   UNL d   1       5.988  -0.942   0.323  0.00  0.00     0.053 C 
ENDBRANCH   9  12
ENDBRANCH   1   8
BRANCH   5  21
ATOM     21  C   UNL d   1      -1.262   2.304  -0.188  0.00  0.00    -0.008 A 
ATOM     22  C   UNL d   1      -2.407   2.441  -0.983  0.00  0.00     0.014 A 
ATOM     23  C   UNL d   1      -3.030   3.687  -1.124  0.00  0.00     0.007 A 
ATOM     24  C   UNL d   1      -2.525   4.814  -0.464  0.00  0.00    -0.062 A 
ATOM     25  C   UNL d   1      -1.385   4.677   0.334  0.00  0.00     0.007 A 
ATOM     26  C   UNL d   1      -3.208   6.143  -0.607  0.00  0.00     0.048 C 
ATOM     27  C   UNL d   1      -0.759   3.435   0.469  0.00  0.00     0.014 A 
ENDBRANCH   5  21
TORSDOF 3
