REMARK  4 active torsions:
REMARK  status: ('A' for Active; 'I' for Inactive)
REMARK    1  A    between atoms: C_2  and  C_1 
REMARK    2  A    between atoms: S_3  and  C_4 
REMARK    3  A    between atoms: C_5  and  S_3 
REMARK    4  A    between atoms: C_11  and  C_5 
ROOT
ATOM      1  C   UNL d   1       0.641   0.817  -1.098  0.00  0.00     0.065 A 
ATOM      2  C   UNL d   1      -0.226   1.812  -3.533  0.00  0.00     0.099 A 
ATOM      3  N   UNL d   1       1.009   1.240  -3.454  0.00  0.00    -0.358 N 
ATOM      4  HN  UNL d   1       1.613   1.177  -4.273  1.00  0.00     0.166 HD
ATOM      5  C   UNL d   1      -1.085   1.867  -2.433  0.00  0.00     0.068 A 
ATOM      6  C   UNL d   1      -0.636   1.375  -1.204  0.00  0.00     0.044 A 
ATOM      7  C   UNL d   1       1.407   0.757  -2.252  0.00  0.00     0.105 A 
ATOM      8 CL   UNL d   1      -2.698   2.478  -2.517  0.00  0.00    -0.081 Cl
ENDROOT
BRANCH   2   9
ATOM      9  S   UNL d   1      -0.669   2.398  -5.154  0.00  0.00    -0.028 SA
BRANCH   9  10
ATOM     10  C   UNL d   1      -0.015   4.032  -5.087  0.00  0.00     0.225 C 
ATOM     11  O   UNL d   1      -0.004   4.673  -4.045  0.00  0.00    -0.279 OA
BRANCH  10  12
ATOM     12  C   UNL d   1       0.520   4.635  -6.358  0.00  0.00     0.021 A 
ATOM     13  C   UNL d   1       1.102   5.912  -6.286  0.00  0.00     0.018 A 
ATOM     14  C   UNL d   1       1.686   6.501  -7.415  0.00  0.00     0.025 A 
ATOM     15  C   UNL d   1       1.686   5.819  -8.629  0.00  0.00     0.034 A 
ATOM     16  C   UNL d   1       1.079   4.570  -8.729  0.00  0.00     0.025 A 
ATOM     17 CL   UNL d   1       2.454   6.509 -10.005  0.00  0.00    -0.084 Cl
ATOM     18  C   UNL d   1       0.493   3.982  -7.600  0.00  0.00     0.018 A 
ENDBRANCH  10  12
ENDBRANCH   9  10
ENDBRANCH   2   9
BRANCH   1  19
ATOM     19  C   UNL d   1       1.190   0.286   0.191  0.00  0.00     0.418 C 
ATOM     20  F   UNL d   1       0.378   0.518   1.260  0.00  0.00    -0.166 F 
ATOM     21  F   UNL d   1       2.393   0.834   0.511  0.00  0.00    -0.166 F 
ATOM     22  F   UNL d   1       1.387  -1.060   0.157  0.00  0.00    -0.166 F 
ENDBRANCH   1  19
TORSDOF 4
