REMARK  7 active torsions:
REMARK  status: ('A' for Active; 'I' for Inactive)
REMARK    1  A    between atoms: C_8  and  S_1 
REMARK    2  A    between atoms: C_3  and  C_2 
REMARK       I    between atoms: N_5  and  C_3 
REMARK    3  A    between atoms: C_4  and  S_17 
REMARK    4  A    between atoms: C_18  and  N_5 
REMARK    5  A    between atoms: C_7  and  C_18 
REMARK    6  A    between atoms: C_19  and  C_8 
REMARK    7  A    between atoms: S_17  and  C_19 
ROOT
ATOM      1  C   UNL d   1       0.608   6.796  -0.429  0.00  0.00     0.065 A 
ATOM      2  C   UNL d   1       1.294   5.683   0.055  0.00  0.00     0.085 A 
ATOM      3  N   UNL d   1       1.898   5.679   1.277  0.00  0.00    -0.360 N 
ATOM      4  HN  UNL d   1       2.350   4.838   1.635  1.00  0.00     0.166 HD
ATOM      5  C   UNL d   1       0.608   7.960   0.357  0.00  0.00     0.021 A 
ATOM      6  C   UNL d   1       1.880   6.820   2.001  0.00  0.00     0.089 A 
ATOM      7  C   UNL d   1       1.262   7.980   1.583  0.00  0.00     0.018 A 
ENDROOT
BRANCH   1   8
ATOM      8  C   UNL d   1      -0.097   6.903  -1.728  0.00  0.00     0.254 C 
ATOM      9  N   UNL d   1      -0.953   5.888  -2.087  0.00  0.00    -0.352 N 
ATOM     10  H   UNL d   1      -1.052   5.037  -1.534  0.00  0.00     0.163 HD
ATOM     11  O   UNL d   1       0.036   7.934  -2.381  0.00  0.00    -0.268 OA
BRANCH   9  12
ATOM     12  C   UNL d   1      -1.798   5.988  -3.258  0.00  0.00     0.169 C 
BRANCH  12  13
ATOM     13  C   UNL d   1      -3.156   6.485  -2.854  0.00  0.00     0.000 A 
ATOM     14  S   UNL d   1      -4.478   5.399  -2.729  0.00  0.00    -0.105 SA
ATOM     15  C   UNL d   1      -5.563   6.659  -2.328  0.00  0.00     0.050 A 
ATOM     16  C   UNL d   1      -4.936   7.884  -2.274  0.00  0.00     0.008 A 
ATOM     17  C   UNL d   1      -3.547   7.783  -2.578  0.00  0.00     0.017 A 
ENDBRANCH  12  13
ENDBRANCH   9  12
ENDBRANCH   1   8
BRANCH   2  18
ATOM     18  S   UNL d   1       1.609   4.216  -0.910  0.00  0.00    -0.110 SA
BRANCH  18  19
ATOM     19  C   UNL d   1       1.554   2.920   0.385  0.00  0.00     0.096 C 
BRANCH  19  20
ATOM     20  C   UNL d   1       0.188   2.708   1.025  0.00  0.00     0.150 C 
BRANCH  20  21
ATOM     21  S   UNL d   1      -1.041   2.155  -0.141  0.00  0.00     0.141 S 
ATOM     22  O   UNL d   1      -0.596   0.898  -0.710  0.00  0.00    -0.228 OA
ATOM     23  O   UNL d   1      -1.411   3.278  -0.984  0.00  0.00    -0.228 OA
ATOM     24  C   UNL d   1      -2.448   1.809   0.880  0.00  0.00     0.161 C 
ENDBRANCH  20  21
ENDBRANCH  19  20
ENDBRANCH  18  19
ENDBRANCH   2  18
TORSDOF 7
