REMARK  5 active torsions:
REMARK  status: ('A' for Active; 'I' for Inactive)
REMARK    1  A    between atoms: C_2  and  C_1 
REMARK    2  A    between atoms: C_13  and  C_5 
REMARK    3  A    between atoms: C_14  and  C_11 
REMARK    4  A    between atoms: O_15  and  C_14 
REMARK    5  A    between atoms: C_16  and  O_15 
ROOT
ATOM      1  C   UNL d   1       0.305  -2.730  -0.043  0.00  0.00     0.054 A 
ATOM      2  N   UNL d   1       1.073  -3.236   0.987  0.00  0.00    -0.351 N 
ATOM      3  HN  UNL d   1       1.408  -2.693   1.783  1.00  0.00     0.166 HD
ATOM      4  C   UNL d   1      -0.061  -3.655  -0.998  0.00  0.00     0.082 A 
ATOM      5  C   UNL d   1       1.314  -4.517   0.798  0.00  0.00     0.075 A 
ATOM      6  S   UNL d   1       0.597  -5.191  -0.614  0.00  0.00    -0.084 SA
ENDROOT
BRANCH   1   7
ATOM      7  C   UNL d   1      -0.029  -1.308  -0.032  0.00  0.00     0.052 A 
ATOM      8  C   UNL d   1       0.771  -0.227   0.460  0.00  0.00     0.080 A 
ATOM      9  N   UNL d   1       0.093   0.930   0.333  0.00  0.00    -0.259 N 
ATOM     10  O   UNL d   1      -1.109   0.623  -0.261  0.00  0.00    -0.241 OA
ATOM     11  HN  UNL d   1       0.410   1.855   0.622  1.00  0.00     0.195 HD
ATOM     12  C   UNL d   1      -1.181  -0.712  -0.493  0.00  0.00     0.087 A 
ATOM     13  C   UNL d   1      -2.419  -1.191  -1.135  0.00  0.00     0.080 C 
BRANCH   8  14
ATOM     14  C   UNL d   1       2.135  -0.218   1.006  0.00  0.00    -0.007 A 
ATOM     15  C   UNL d   1       2.493   0.696   2.010  0.00  0.00     0.014 A 
ATOM     16  C   UNL d   1       3.787   0.701   2.542  0.00  0.00     0.001 A 
ATOM     17  C   UNL d   1       4.737  -0.208   2.082  0.00  0.00     0.000 A 
ATOM     18  C   UNL d   1       4.404  -1.104   1.072  0.00  0.00     0.001 A 
ATOM     19  C   UNL d   1       3.118  -1.094   0.525  0.00  0.00     0.014 A 
ENDBRANCH   8  14
ENDBRANCH   1   7
BRANCH   5  20
ATOM     20  C   UNL d   1       2.167  -5.364   1.695  0.00  0.00     0.240 C 
BRANCH  20  21
ATOM     21  O   UNL d   1       1.302  -5.897   2.697  0.00  0.00    -0.345 OA
BRANCH  21  22
ATOM     22  C   UNL d   1       1.876  -6.667   3.668  0.00  0.00     0.069 A 
ATOM     23  C   UNL d   1       3.208  -7.078   3.720  0.00  0.00     0.038 A 
ATOM     24  C   UNL d   1       3.653  -7.884   4.774  0.00  0.00     0.026 A 
ATOM     25  C   UNL d   1       2.765  -8.276   5.776  0.00  0.00     0.034 A 
ATOM     26  C   UNL d   1       1.436  -7.868   5.733  0.00  0.00     0.026 A 
ATOM     27 CL   UNL d   1       3.316  -9.267   7.068  0.00  0.00    -0.084 Cl
ATOM     28  C   UNL d   1       0.996  -7.066   4.679  0.00  0.00     0.038 A 
ENDBRANCH  21  22
ENDBRANCH  20  21
ENDBRANCH   5  20
TORSDOF 5
