REMARK  7 active torsions:
REMARK  status: ('A' for Active; 'I' for Inactive)
REMARK    1  A    between atoms: S_3  and  C_1 
REMARK    2  A    between atoms: N_9  and  C_2 
REMARK    3  A    between atoms: C_19  and  S_3 
REMARK    4  A    between atoms: C_8  and  C_4 
REMARK    5  A    between atoms: S_5  and  N_10 
REMARK    6  A    between atoms: C_12  and  S_5 
REMARK       I    between atoms: N_11  and  C_8 
REMARK    7  A    between atoms: N_10  and  N_11 
ROOT
ATOM      1  C   UNL d   1       1.469  -0.601  -0.010  0.00  0.00     0.094 A 
ATOM      2  C   UNL d   1       1.446   0.858  -0.030  0.00  0.00     0.083 A 
ATOM      3  C   UNL d   1       0.128   1.348   0.011  0.00  0.00     0.102 A 
ATOM      4  S   UNL d   1      -1.017   0.071   0.074  0.00  0.00    -0.092 SA
ATOM      5  C   UNL d   1       0.187  -1.117   0.027  0.00  0.00     0.076 A 
ENDROOT
BRANCH   3   6
ATOM      6  C   UNL d   1      -0.359   2.710  -0.219  0.00  0.00     0.279 C 
ATOM      7  N   UNL d   1      -1.492   3.223   0.385  0.00  0.00    -0.256 N 
ATOM      8  H   UNL d   1      -1.760   4.142   0.041  0.00  0.00     0.191 HD
ATOM      9  O   UNL d   1       0.213   3.480  -0.997  0.00  0.00    -0.265 OA
BRANCH   7  10
ATOM     10  N   UNL d   1      -2.397   2.574   1.297  0.00  0.00    -0.220 N 
ATOM     11  H   UNL d   1      -2.254   1.619   1.638  0.00  0.00     0.200 HD
BRANCH  10  12
ATOM     12  S   UNL d   1      -4.023   3.091   1.311  0.00  0.00     0.276 S 
ATOM     13  O   UNL d   1      -4.440   3.201  -0.067  0.00  0.00    -0.199 OA
ATOM     14  O   UNL d   1      -4.724   2.280   2.273  0.00  0.00    -0.199 OA
BRANCH  12  15
ATOM     15  C   UNL d   1      -3.896   4.736   1.975  0.00  0.00     0.081 A 
ATOM     16  C   UNL d   1      -4.330   5.827   1.211  0.00  0.00     0.027 A 
ATOM     17  C   UNL d   1      -4.209   7.120   1.725  0.00  0.00     0.025 A 
ATOM     18  C   UNL d   1      -3.659   7.313   2.992  0.00  0.00     0.034 A 
ATOM     19  C   UNL d   1      -3.232   6.223   3.754  0.00  0.00     0.025 A 
ATOM     20 CL   UNL d   1      -3.506   8.906   3.622  0.00  0.00    -0.084 Cl
ATOM     21  C   UNL d   1      -3.352   4.927   3.249  0.00  0.00     0.027 A 
ENDBRANCH  12  15
ENDBRANCH  10  12
ENDBRANCH   7  10
ENDBRANCH   3   6
BRANCH   2  22
ATOM     22  N   UNL d   1       2.592   1.738  -0.085  0.00  0.00    -0.330 N 
ATOM     23  C   UNL d   1       2.676   2.999   0.484  0.00  0.00     0.097 A 
ATOM     24  C   UNL d   1       3.941   3.513   0.302  0.00  0.00     0.019 A 
ATOM     25  C   UNL d   1       4.675   2.549  -0.408  0.00  0.00     0.019 A 
ATOM     26  C   UNL d   1       3.816   1.506  -0.675  0.00  0.00     0.097 A 
ENDBRANCH   2  22
BRANCH   1  27
ATOM     27  S   UNL d   1       2.820  -1.729   0.011  0.00  0.00     0.181 S 
ATOM     28  O   UNL d   1       2.200  -3.018   0.259  0.00  0.00    -0.222 OA
ATOM     29  O   UNL d   1       3.515  -1.487  -1.232  0.00  0.00    -0.222 OA
BRANCH  27  30
ATOM     30  C   UNL d   1       3.858  -1.340   1.425  0.00  0.00     0.105 C 
ATOM     31  C   UNL d   1       3.109  -1.547   2.739  0.00  0.00     0.026 C 
ATOM     32  C   UNL d   1       5.109  -2.225   1.410  0.00  0.00     0.026 C 
ENDBRANCH  27  30
ENDBRANCH   1  27
TORSDOF 7
