REMARK  4 active torsions:
REMARK  status: ('A' for Active; 'I' for Inactive)
REMARK    1  A    between atoms: N_6  and  C_1 
REMARK    2  A    between atoms: C_4  and  N_12 
REMARK    3  A    between atoms: C_5  and  C_11 
REMARK    4  A    between atoms: N_12  and  N_6 
ROOT
ATOM      1  N   UNL d   1       2.191  -3.364   1.207  0.00  0.00    -0.300 N 
ATOM      2  C   UNL d   1       2.297  -4.480   2.153  0.00  0.00     0.173 C 
ENDROOT
BRANCH   1   3
ATOM      3  C   UNL d   1       3.058  -3.423   0.085  0.00  0.00     0.118 A 
ATOM      4  N   UNL d   1       4.158  -4.212   0.136  0.00  0.00    -0.345 N 
ATOM      5  C   UNL d   1       4.980  -4.311  -0.935  0.00  0.00     0.007 A 
ATOM      6  HN  UNL d   1       4.368  -4.734   0.987  1.00  0.00     0.167 HD
ATOM      7  C   UNL d   1       6.224  -5.133  -0.772  0.00  0.00     0.068 C 
ATOM      8  C   UNL d   1       4.714  -3.676  -2.137  0.00  0.00     0.041 A 
ATOM      9  C   UNL d   1       3.598  -2.846  -2.213  0.00  0.00     0.053 A 
ATOM     10  C   UNL d   1       2.804  -2.684  -1.069  0.00  0.00     0.066 A 
BRANCH   9  11
ATOM     11  C   UNL d   1       3.215  -2.180  -3.504  0.00  0.00     0.417 C 
ATOM     12  F   UNL d   1       2.117  -1.380  -3.399  0.00  0.00    -0.166 F 
ATOM     13  F   UNL d   1       4.203  -1.401  -4.019  0.00  0.00    -0.166 F 
ATOM     14  F   UNL d   1       2.912  -3.090  -4.473  0.00  0.00    -0.166 F 
ENDBRANCH   9  11
ENDBRANCH   1   3
BRANCH   1  15
ATOM     15  N   UNL d   1       0.956  -2.631   1.212  0.00  0.00    -0.203 NA
ATOM     16  H   UNL d   1       0.576  -2.535   0.272  0.00  0.00     0.150 HD
BRANCH  15  17
ATOM     17  C   UNL d   1       1.111  -1.294   1.799  0.00  0.00     0.257 A 
ATOM     18  O   UNL d   1       2.062  -0.487   1.083  0.00  0.00    -0.290 OA
ATOM     19  C   UNL d   1       3.116  -0.131   1.883  0.00  0.00     0.295 A 
ATOM     20  O   UNL d   1       4.085   0.510   1.544  0.00  0.00    -0.259 OA
ATOM     21  C   UNL d   1       2.817  -0.616   3.224  0.00  0.00     0.049 A 
ATOM     22  C   UNL d   1       1.613  -1.285   3.196  0.00  0.00     0.003 A 
ATOM     23  C   UNL d   1       3.555  -0.461   4.383  0.00  0.00     0.018 A 
ATOM     24  C   UNL d   1       1.082  -1.829   4.356  0.00  0.00     0.012 A 
ATOM     25  C   UNL d   1       1.806  -1.688   5.544  0.00  0.00     0.001 A 
ATOM     26  C   UNL d   1       3.037  -1.009   5.557  0.00  0.00     0.001 A 
ENDBRANCH  15  17
ENDBRANCH   1  15
TORSDOF 4
