REMARK  5 active torsions:
REMARK  status: ('A' for Active; 'I' for Inactive)
REMARK    1  A    between atoms: C_7  and  N_1 
REMARK    2  A    between atoms: C_6  and  O_13 
REMARK       I    between atoms: N_10  and  C_6 
REMARK    3  A    between atoms: C_12  and  C_7 
REMARK    4  A    between atoms: O_13  and  N_8 
REMARK    5  A    between atoms: C_15  and  N_10 
ROOT
ATOM      1  N   UNL d   1       4.314  -1.308  -0.465  0.00  0.00    -0.263 N 
ATOM      2  HN  UNL d   1       5.305  -1.345  -0.701  1.00  0.00     0.194 HD
ATOM      3  C   UNL d   1       3.585  -2.345  -0.148  0.00  0.00     0.025 C 
ATOM      4  C   UNL d   1       2.075  -2.343   0.002  0.00  0.00     0.067 C 
ENDROOT
BRANCH   1   5
ATOM      5  O   UNL d   1       3.537  -0.132  -0.435  0.00  0.00    -0.181 OA
BRANCH   5   6
ATOM      6  C   UNL d   1       3.962   0.851  -1.307  0.00  0.00     0.387 C 
ATOM      7  N   UNL d   1       4.985   0.474  -2.147  0.00  0.00    -0.301 N 
ATOM      8  H   UNL d   1       5.373  -0.429  -1.901  0.00  0.00     0.171 HD
ATOM      9  O   UNL d   1       3.373   1.932  -1.321  0.00  0.00    -0.236 OA
BRANCH   7  10
ATOM     10  C   UNL d   1       5.237   0.998  -3.433  0.00  0.00     0.038 A 
ATOM     11  C   UNL d   1       4.575   2.116  -3.949  0.00  0.00     0.053 A 
ATOM     12  C   UNL d   1       4.643   2.404  -5.312  0.00  0.00     0.036 A 
ATOM     13 CL   UNL d   1       3.720   3.708  -5.956  0.00  0.00    -0.084 Cl
ATOM     14  C   UNL d   1       5.407   1.615  -6.165  0.00  0.00     0.024 A 
ATOM     15  C   UNL d   1       6.162   0.569  -5.638  0.00  0.00     0.004 A 
ATOM     16  C   UNL d   1       6.088   0.269  -4.274  0.00  0.00     0.029 A 
ENDBRANCH   7  10
ENDBRANCH   5   6
ENDBRANCH   1   5
BRANCH   3  17
ATOM     17  C   UNL d   1       4.275  -3.686   0.070  0.00  0.00     0.188 C 
BRANCH  17  18
ATOM     18  N   UNL d   1       4.758  -4.451  -1.044  0.00  0.00    -0.285 N 
ATOM     19  C   UNL d   1       5.488  -5.613  -0.847  0.00  0.00     0.373 A 
ATOM     20  O   UNL d   1       6.046  -6.074  -2.042  0.00  0.00    -0.259 OA
ATOM     21  O   UNL d   1       5.649  -6.178   0.227  0.00  0.00    -0.237 OA
ATOM     22  C   UNL d   1       5.605  -5.131  -2.953  0.00  0.00     0.107 A 
ATOM     23  C   UNL d   1       4.803  -4.155  -2.387  0.00  0.00     0.073 A 
ATOM     24  C   UNL d   1       5.923  -5.138  -4.295  0.00  0.00     0.040 A 
ATOM     25  C   UNL d   1       4.235  -3.167  -3.161  0.00  0.00     0.033 A 
ATOM     26  C   UNL d   1       4.519  -3.167  -4.530  0.00  0.00     0.002 A 
ATOM     27  C   UNL d   1       5.369  -4.137  -5.093  0.00  0.00     0.003 A 
ENDBRANCH  17  18
ENDBRANCH   3  17
TORSDOF 5
