REMARK  5 active torsions:
REMARK  status: ('A' for Active; 'I' for Inactive)
REMARK    1  A    between atoms: N_5  and  C_1 
REMARK    2  A    between atoms: C_3  and  C_2 
REMARK       I    between atoms: N_6  and  C_3 
REMARK    3  A    between atoms: O_22  and  C_4 
REMARK       I    between atoms: C_8  and  N_6 
REMARK       I    between atoms: N_12  and  C_8 
REMARK    4  A    between atoms: O_24  and  C_9 
REMARK    5  A    between atoms: C_11  and  N_12 
ROOT
ATOM      1  C   UNL d   1       3.848  -2.979  -0.252  0.00  0.00     0.244 C 
ATOM      2  N   UNL d   1       5.114  -2.596   0.150  0.00  0.00    -0.175 NA
ATOM      3  C   UNL d   1       5.883  -3.451   0.887  0.00  0.00     0.305 C 
ATOM      4  N   UNL d   1       6.551  -4.389   0.144  0.00  0.00    -0.313 N 
ATOM      5  O   UNL d   1       3.671  -4.056  -0.811  0.00  0.00    -0.273 OA
ATOM      6  O   UNL d   1       6.025  -3.220   2.086  0.00  0.00    -0.253 OA
ATOM      7  H   UNL d   1       5.085  -1.732   0.676  0.00  0.00     0.141 HD
ATOM      8  H   UNL d   1       6.091  -4.667  -0.718  0.00  0.00     0.170 HD
ENDROOT
BRANCH   1   9
ATOM      9  C   UNL d   1       2.749  -1.925  -0.139  0.00  0.00     0.097 C 
ATOM     10  C   UNL d   1       3.010  -0.628   0.364  0.00  0.00     0.119 C 
ATOM     11  C   UNL d   1       2.094   0.412   0.144  0.00  0.00     0.138 C 
ATOM     12  C   UNL d   1       0.834   0.163  -0.396  0.00  0.00     0.061 C 
ATOM     13  C   UNL d   1       0.499  -1.145  -0.736  0.00  0.00     0.048 C 
ATOM     14  C   UNL d   1       1.440  -2.190  -0.611  0.00  0.00     0.103 C 
ATOM     15 BR   UNL d   1      -1.257  -1.457  -1.389  0.00  0.00    -0.048 Br
BRANCH  10  16
ATOM     16  O   UNL d   1       4.168  -0.412   1.075  0.00  0.00    -0.352 OA
ATOM     17  C   UNL d   1       3.912  -0.140   2.465  0.00  0.00     0.210 C 
ENDBRANCH  10  16
BRANCH  11  18
ATOM     18  N   UNL d   1       2.461   1.798   0.412  0.00  0.00    -0.113 N 
ATOM     19  O   UNL d   1       3.599   2.164   0.096  0.00  0.00    -0.532 OA
ATOM     20  O   UNL d   1       1.595   2.518   0.926  0.00  0.00    -0.532 OA
ENDBRANCH  11  18
BRANCH  14  21
ATOM     21  O   UNL d   1       1.042  -3.444  -1.000  0.00  0.00    -0.353 OA
ATOM     22  C   UNL d   1       0.774  -4.281   0.130  0.00  0.00     0.210 C 
ENDBRANCH  14  21
ENDBRANCH   1   9
BRANCH   4  23
ATOM     23  C   UNL d   1       7.761  -5.021   0.510  0.00  0.00     0.039 A 
ATOM     24  C   UNL d   1       8.532  -4.594   1.600  0.00  0.00     0.053 A 
ATOM     25  C   UNL d   1       9.744  -5.217   1.902  0.00  0.00     0.037 A 
ATOM     26 CL   UNL d   1      10.675  -4.663   3.241  0.00  0.00    -0.084 Cl
ATOM     27  C   UNL d   1      10.212  -6.269   1.125  0.00  0.00     0.048 A 
ATOM     28  C   UNL d   1       9.458  -6.684   0.032  0.00  0.00     0.037 A 
ATOM     29  C   UNL d   1       8.243  -6.065  -0.285  0.00  0.00     0.053 A 
ATOM     30 CL   UNL d   1      10.037  -7.978  -0.947  0.00  0.00    -0.084 Cl
ENDBRANCH   4  23
TORSDOF 5
