REMARK  4 active torsions:
REMARK  status: ('A' for Active; 'I' for Inactive)
REMARK    1  A    between atoms: S_15  and  C_2 
REMARK    2  A    between atoms: C_6  and  C_3 
REMARK       I    between atoms: N_9  and  C_6 
REMARK    3  A    between atoms: C_7  and  C_11 
REMARK    4  A    between atoms: C_12  and  N_9 
ROOT
ATOM      1  C   UNL d   1       5.788  -1.091  -0.005  0.00  0.00     0.069 A 
ATOM      2  C   UNL d   1       6.140  -2.419   0.134  0.00  0.00     0.062 A 
ATOM      3  C   UNL d   1       3.685  -2.119  -0.039  0.00  0.00     0.075 A 
ATOM      4  S   UNL d   1       4.752  -3.435   0.157  0.00  0.00    -0.076 SA
ATOM      5  C   UNL d   1       4.378  -0.924  -0.109  0.00  0.00     0.049 A 
ATOM      6  C   UNL d   1       6.708   0.003  -0.045  0.00  0.00     0.101 C 
ATOM      7  N   UNL d   1       7.443   0.900  -0.109  0.00  0.00    -0.191 NA
ENDROOT
BRANCH   2   8
ATOM      8  S   UNL d   1       7.749  -3.107   0.332  0.00  0.00    -0.126 SA
ATOM      9  C   UNL d   1       8.511  -2.696  -1.257  0.00  0.00     0.096 C 
ENDBRANCH   2   8
BRANCH   3  10
ATOM     10  C   UNL d   1       2.233  -2.248  -0.122  0.00  0.00     0.263 C 
ATOM     11  N   UNL d   1       1.717  -3.527   0.029  0.00  0.00    -0.322 N 
ATOM     12  H   UNL d   1       2.375  -4.249   0.297  0.00  0.00     0.169 HD
ATOM     13  O   UNL d   1       1.544  -1.246  -0.287  0.00  0.00    -0.267 OA
BRANCH  11  14
ATOM     14  C   UNL d   1       0.351  -3.885  -0.017  0.00  0.00     0.035 A 
ATOM     15  C   UNL d   1      -0.648  -3.031  -0.499  0.00  0.00     0.045 A 
ATOM     16  C   UNL d   1      -2.003  -3.398  -0.464  0.00  0.00     0.050 A 
ATOM     17  C   UNL d   1      -2.352  -4.654   0.046  0.00  0.00     0.016 A 
ATOM     18  C   UNL d   1      -1.361  -5.530   0.490  0.00  0.00     0.003 A 
ATOM     19  C   UNL d   1      -0.016  -5.150   0.450  0.00  0.00     0.029 A 
BRANCH  16  20
ATOM     20  C   UNL d   1      -3.069  -2.441  -0.941  0.00  0.00     0.417 C 
ATOM     21  F   UNL d   1      -2.577  -1.307  -1.512  0.00  0.00    -0.166 F 
ATOM     22  F   UNL d   1      -3.890  -2.998  -1.873  0.00  0.00    -0.166 F 
ATOM     23  F   UNL d   1      -3.881  -2.026   0.071  0.00  0.00    -0.166 F 
ENDBRANCH  16  20
ENDBRANCH  11  14
ENDBRANCH   3  10
TORSDOF 4
