REMARK  7 active torsions:
REMARK  status: ('A' for Active; 'I' for Inactive)
REMARK    1  A    between atoms: C_2  and  S_1 
REMARK    2  A    between atoms: N_3  and  S_1 
REMARK    3  A    between atoms: C_5  and  N_3 
REMARK    4  A    between atoms: C_9  and  C_4 
REMARK    5  A    between atoms: S_6  and  C_7 
REMARK    6  A    between atoms: C_8  and  S_6 
REMARK    7  A    between atoms: O_22  and  C_9 
ROOT
ATOM      1  C   UNL d   1       0.132   1.095  -0.986  0.00  0.00     0.096 A 
ATOM      2  C   UNL d   1      -0.911   1.871  -0.449  0.00  0.00     0.029 A 
ATOM      3  C   UNL d   1       0.299   0.986  -2.381  0.00  0.00     0.027 A 
ATOM      4  C   UNL d   1      -1.853   2.396  -1.357  0.00  0.00     0.020 A 
ATOM      5  C   UNL d   1      -0.626   1.543  -3.255  0.00  0.00     0.002 A 
ATOM      6  C   UNL d   1      -1.723   2.218  -2.737  0.00  0.00     0.001 A 
ENDROOT
BRANCH   1   7
ATOM      7  S   UNL d   1       1.231   0.090  -0.028  0.00  0.00     0.260 S 
ATOM      8  O   UNL d   1       0.743  -0.075   1.314  0.00  0.00    -0.200 OA
ATOM      9  O   UNL d   1       2.578   0.579  -0.283  0.00  0.00    -0.200 OA
BRANCH   7  10
ATOM     10  N   UNL d   1       1.149  -1.414  -0.795  0.00  0.00    -0.305 N 
ATOM     11  H   UNL d   1       2.079  -1.736  -1.060  0.00  0.00     0.173 HD
BRANCH  10  12
ATOM     12  C   UNL d   1       0.141  -2.458  -0.490  0.00  0.00     0.041 C 
ATOM     13  C   UNL d   1      -1.312  -1.953  -0.601  0.00  0.00     0.036 C 
ATOM     14  C   UNL d   1      -2.301  -3.103  -0.317  0.00  0.00    -0.012 C 
ATOM     15  C   UNL d   1      -2.099  -4.231  -1.342  0.00  0.00     0.009 C 
ATOM     16  C   UNL d   1      -2.036  -3.661   1.092  0.00  0.00     0.009 C 
ATOM     17  C   UNL d   1      -0.656  -4.753  -1.266  0.00  0.00    -0.012 C 
ATOM     18  C   UNL d   1       0.316  -3.591  -1.543  0.00  0.00     0.036 C 
ATOM     19  C   UNL d   1      -0.393  -5.310   0.142  0.00  0.00     0.009 C 
ATOM     20  C   UNL d   1      -0.599  -4.205   1.187  0.00  0.00    -0.012 C 
ATOM     21  C   UNL d   1       0.390  -3.065   0.907  0.00  0.00     0.036 C 
ENDBRANCH  10  12
ENDBRANCH   7  10
ENDBRANCH   1   7
BRANCH   2  22
ATOM     22  S   UNL d   1      -1.262   2.248   1.274  0.00  0.00    -0.088 SA
BRANCH  22  23
ATOM     23  C   UNL d   1       0.147   3.242   1.764  0.00  0.00     0.022 C 
ATOM     24  C   UNL d   1       0.452   4.522   1.270  0.00  0.00     0.054 C 
ATOM     25  C   UNL d   1       1.685   5.120   1.585  0.00  0.00     0.020 C 
ATOM     26  C   UNL d   1       2.573   4.493   2.458  0.00  0.00     0.001 C 
ATOM     27  C   UNL d   1       2.212   3.293   3.059  0.00  0.00     0.001 C 
ATOM     28  C   UNL d   1       1.005   2.679   2.720  0.00  0.00     0.020 C 
BRANCH  24  29
ATOM     29  C   UNL d   1      -0.478   5.341   0.457  0.00  0.00     0.177 C 
ATOM     30  O   UNL d   1      -0.105   6.057  -0.462  0.00  0.00    -0.646 OA
BRANCH  29  31
ATOM     31  O   UNL d   1      -1.747   5.341   0.916  0.00  0.00    -0.773 OA
ATOM     32  H   UNL d   1      -1.897   4.761   1.690  0.00  0.00     0.167 HD
ENDBRANCH  29  31
ENDBRANCH  24  29
ENDBRANCH  22  23
ENDBRANCH   2  22
TORSDOF 7
