REMARK  2 active torsions:
REMARK  status: ('A' for Active; 'I' for Inactive)
REMARK       I    between atoms: C_4  and  N_1 
REMARK    1  A    between atoms: C_8  and  C_4 
REMARK    2  A    between atoms: C_9  and  C_5 
ROOT
ATOM      1  N   UNL d   1       0.827  -0.670   0.036  0.00  0.00    -0.230 N 
ATOM      2  N   UNL d   1       0.871   0.691   0.090  0.00  0.00    -0.291 N 
ATOM      3  HN  UNL d   1       1.700   1.279   0.168  1.00  0.00     0.187 HD
ATOM      4  C   UNL d   1       1.999  -1.473   0.115  0.00  0.00     0.283 C 
ATOM      5  C   UNL d   1      -0.407   1.095   0.020  0.00  0.00     0.060 A 
ATOM      6  C   UNL d   1      -1.283  -0.013  -0.085  0.00  0.00     0.051 A 
ATOM      7  C   UNL d   1      -0.471  -1.118  -0.111  0.00  0.00     0.122 A 
ATOM      8  O   UNL d   1       1.829  -2.656  -0.189  0.00  0.00    -0.265 OA
ENDROOT
BRANCH   5   9
ATOM      9  C   UNL d   1      -0.767   2.514   0.044  0.00  0.00    -0.007 A 
ATOM     10  C   UNL d   1       0.070   3.466  -0.566  0.00  0.00     0.023 A 
ATOM     11  C   UNL d   1      -0.315   4.797  -0.552  0.00  0.00    -0.022 A 
ATOM     12  C   UNL d   1       0.319   5.974  -1.184  0.00  0.00     0.068 C 
ATOM     13  C   UNL d   1      -1.502   5.188   0.048  0.00  0.00     0.075 A 
ATOM     14  C   UNL d   1      -0.489   7.078  -0.500  0.00  0.00     0.180 C 
ATOM     15  O   UNL d   1      -1.748   6.531  -0.045  0.00  0.00    -0.350 OA
ATOM     16  C   UNL d   1      -2.348   4.282   0.651  0.00  0.00     0.038 A 
ATOM     17  C   UNL d   1      -1.973   2.934   0.648  0.00  0.00     0.016 A 
ENDBRANCH   5   9
BRANCH   4  18
ATOM     18  C   UNL d   1       3.293  -0.956   0.570  0.00  0.00     0.074 A 
ATOM     19  S   UNL d   1       4.681  -1.966   0.414  0.00  0.00    -0.097 SA
ATOM     20  C   UNL d   1       5.689  -0.836   1.200  0.00  0.00     0.050 A 
ATOM     21  C   UNL d   1       5.005   0.301   1.560  0.00  0.00     0.009 A 
ATOM     22  C   UNL d   1       3.629   0.235   1.190  0.00  0.00     0.025 A 
ENDBRANCH   4  18
TORSDOF 2
