REMARK  10 active torsions:
REMARK  status: ('A' for Active; 'I' for Inactive)
REMARK    1  A    between atoms: C_5  and  C_1 
REMARK    2  A    between atoms: O_8  and  C_2 
REMARK    3  A    between atoms: C_11  and  C_5 
REMARK    4  A    between atoms: O_10  and  C_7 
REMARK    5  A    between atoms: C_12  and  O_10 
REMARK    6  A    between atoms: C_13  and  C_11 
REMARK    7  A    between atoms: C_16  and  C_13 
REMARK    8  A    between atoms: C_14  and  C_15 
REMARK    9  A    between atoms: C_15  and  C_17 
REMARK   10  A    between atoms: C_17  and  C_16 
ROOT
ATOM      1  C   UNL d   1       0.261   3.108  -1.191  0.00  0.00     0.043 A 
ATOM      2  C   UNL d   1      -1.023   3.661  -1.098  0.00  0.00     0.082 A 
ATOM      3  C   UNL d   1      -1.609   4.281  -2.201  0.00  0.00     0.074 A 
ATOM      4  C   UNL d   1       0.931   3.150  -2.417  0.00  0.00     0.021 A 
ATOM      5  C   UNL d   1      -0.930   4.339  -3.421  0.00  0.00     0.071 A 
ATOM      6  C   UNL d   1       0.337   3.764  -3.526  0.00  0.00     0.038 A 
ENDROOT
BRANCH   1   7
ATOM      7  C   UNL d   1       0.901   2.521   0.018  0.00  0.00     0.162 C 
ATOM      8  O   UNL d   1       0.179   2.125   0.932  0.00  0.00    -0.292 OA
BRANCH   7   9
ATOM      9  C   UNL d   1       2.416   2.500   0.135  0.00  0.00     0.084 C 
BRANCH   9  10
ATOM     10  C   UNL d   1       3.015   3.906   0.207  0.00  0.00     0.008 C 
BRANCH  10  11
ATOM     11  C   UNL d   1       2.550   4.663   1.453  0.00  0.00     0.000 C 
BRANCH  11  12
ATOM     12  C   UNL d   1       3.109   6.085   1.498  0.00  0.00     0.000 C 
BRANCH  12  13
ATOM     13  C   UNL d   1       2.616   6.812   2.750  0.00  0.00    -0.000 C 
BRANCH  13  14
ATOM     14  C   UNL d   1       3.150   8.241   2.822  0.00  0.00    -0.005 C 
ATOM     15  C   UNL d   1       2.659   8.947   4.076  0.00  0.00     0.005 C 
ENDBRANCH  13  14
ENDBRANCH  12  13
ENDBRANCH  11  12
ENDBRANCH  10  11
ENDBRANCH   9  10
ENDBRANCH   7   9
ENDBRANCH   1   7
BRANCH   2  16
ATOM     16  O   UNL d   1      -1.759   3.644   0.058  0.00  0.00    -0.360 OA
ATOM     17  H   UNL d   1      -1.300   3.057   0.700  0.00  0.00     0.217 HD
ENDBRANCH   2  16
BRANCH   5  18
ATOM     18  O   UNL d   1      -1.600   4.977  -4.430  0.00  0.00    -0.351 OA
BRANCH  18  19
ATOM     19  C   UNL d   1      -0.940   5.047  -5.693  0.00  0.00     0.171 C 
ATOM     20  C   UNL d   1      -1.848   5.767  -6.671  0.00  0.00     0.034 C 
ENDBRANCH  18  19
ENDBRANCH   5  18
TORSDOF 10
