REMARK  6 active torsions:
REMARK  status: ('A' for Active; 'I' for Inactive)
REMARK       I    between atoms: N_4  and  C_1 
REMARK       I    between atoms: N_12  and  C_1 
REMARK    1  A    between atoms: C_2  and  N_4 
REMARK    2  A    between atoms: C_13  and  N_3 
REMARK    3  A    between atoms: N_5  and  C_22 
REMARK    4  A    between atoms: C_21  and  N_12 
REMARK    5  A    between atoms: C_20  and  C_13 
REMARK    6  A    between atoms: C_22  and  C_21 
ROOT
ATOM      1  C   UNL d   1       5.306  -0.381   0.779  0.00  0.00     0.154 C 
ENDROOT
BRANCH   1   2
ATOM      2  N   UNL d   1       4.422   0.012   1.875  0.00  0.00    -0.341 N 
ATOM      3  C   UNL d   1       3.254  -0.674   2.138  0.00  0.00     0.320 C 
ATOM      4  N   UNL d   1       2.672  -0.284   3.325  0.00  0.00    -0.309 N 
ATOM      5  O   UNL d   1       2.835  -1.533   1.377  0.00  0.00    -0.247 OA
ATOM      6  H   UNL d   1       3.230   0.323   3.906  0.00  0.00     0.170 HD
ATOM      7  H   UNL d   1       4.639   0.850   2.389  0.00  0.00     0.164 HD
BRANCH   4   8
ATOM      8  C   UNL d   1       1.461  -0.764   3.882  0.00  0.00     0.039 A 
ATOM      9  C   UNL d   1       0.592  -1.639   3.222  0.00  0.00     0.053 A 
ATOM     10  C   UNL d   1      -0.599  -2.051   3.831  0.00  0.00     0.037 A 
ATOM     11 CL   UNL d   1      -1.652  -3.134   3.003  0.00  0.00    -0.084 Cl
ATOM     12  C   UNL d   1      -0.948  -1.596   5.097  0.00  0.00     0.048 A 
ATOM     13  C   UNL d   1      -0.085  -0.731   5.759  0.00  0.00     0.037 A 
ATOM     14  C   UNL d   1       1.114  -0.319   5.165  0.00  0.00     0.053 A 
ATOM     15 CL   UNL d   1      -0.502  -0.155   7.327  0.00  0.00    -0.084 Cl
ENDBRANCH   4   8
ENDBRANCH   1   2
BRANCH   1  16
ATOM     16  C   UNL d   1       4.765  -0.065  -0.638  0.00  0.00     0.292 C 
BRANCH  16  17
ATOM     17  N   UNL d   1       5.707  -0.398  -1.737  0.00  0.00     0.093 N 
ATOM     18  C   UNL d   1       5.929  -1.853  -1.895  0.00  0.00     0.302 C 
ATOM     19  C   UNL d   1       4.733  -2.651  -2.475  0.00  0.00     0.303 C 
ATOM     20  N   UNL d   1       4.156  -2.121  -3.726  0.00  0.00     0.096 N 
ATOM     21  C   UNL d   1       4.006  -0.655  -3.633  0.00  0.00     0.303 C 
ATOM     22  C   UNL d   1       5.212   0.113  -3.037  0.00  0.00     0.302 C 
BRANCH  20  23
ATOM     23  C   UNL d   1       4.896  -2.572  -4.916  0.00  0.00     0.311 C 
BRANCH  23  24
ATOM     24  C   UNL d   1       4.210  -2.195  -6.218  0.00  0.00    -0.030 A 
ATOM     25  C   UNL d   1       4.867  -1.396  -7.165  0.00  0.00     0.009 A 
ATOM     26  C   UNL d   1       4.198  -0.956  -8.309  0.00  0.00     0.001 A 
ATOM     27  C   UNL d   1       2.872  -1.325  -8.531  0.00  0.00     0.000 A 
ATOM     28  C   UNL d   1       2.223  -2.159  -7.623  0.00  0.00     0.001 A 
ATOM     29  C   UNL d   1       2.889  -2.597  -6.476  0.00  0.00     0.009 A 
ENDBRANCH  23  24
ENDBRANCH  20  23
ENDBRANCH  16  17
ENDBRANCH   1  16
TORSDOF 6
