REMARK  4 active torsions:
REMARK  status: ('A' for Active; 'I' for Inactive)
REMARK    1  A    between atoms: S_3  and  C_1 
REMARK    2  A    between atoms: C_15  and  C_1 
REMARK    3  A    between atoms: C_2  and  S_3 
REMARK    4  A    between atoms: C_10  and  C_5 
ROOT
ATOM      1  C   UNL d   1      -1.620  -2.423  -0.762  0.00  0.00     0.124 C 
ATOM      2  N   UNL d   1      -0.157  -4.557  -0.814  0.00  0.00    -0.191 NA
ATOM      3  N   UNL d   1      -4.147  -2.669  -1.252  0.00  0.00    -0.191 NA
ATOM      4  C   UNL d   1      -0.821  -3.603  -0.797  0.00  0.00     0.110 C 
ATOM      5  C   UNL d   1      -3.013  -2.565  -1.030  0.00  0.00     0.110 C 
ATOM      6  C   UNL d   1      -1.114  -1.200  -0.487  0.00  0.00     0.035 C 
ENDROOT
BRANCH   6   7
ATOM      7  C   UNL d   1       0.287  -0.907  -0.235  0.00  0.00     0.022 C 
ATOM      8  C   UNL d   1       0.845   0.259   0.146  0.00  0.00     0.018 C 
BRANCH   8   9
ATOM      9  S   UNL d   1       2.546   0.243   0.553  0.00  0.00    -0.053 SA
BRANCH   9  10
ATOM     10  C   UNL d   1       3.325   1.414  -0.534  0.00  0.00     0.148 A 
ATOM     11  N   UNL d   1       2.608   2.219  -1.335  0.00  0.00    -0.346 N 
ATOM     12  C   UNL d   1       3.292   3.164  -2.014  0.00  0.00     0.091 A 
ATOM     13  HN  UNL d   1       1.597   2.120  -1.427  1.00  0.00     0.167 HD
ATOM     14  C   UNL d   1       4.655   3.313  -1.950  0.00  0.00     0.034 A 
ATOM     15  C   UNL d   1       5.304   2.410  -1.147  0.00  0.00     0.091 A 
ATOM     16  N   UNL d   1       4.669   1.463  -0.434  0.00  0.00    -0.346 N 
ATOM     17  HN  UNL d   1       5.182   0.809   0.157  1.00  0.00     0.167 HD
ENDBRANCH   9  10
ENDBRANCH   8   9
BRANCH   8  18
ATOM     18  C   UNL d   1       0.113   1.491   0.506  0.00  0.00    -0.019 A 
ATOM     19  C   UNL d   1      -0.162   1.772   1.854  0.00  0.00     0.014 A 
ATOM     20  C   UNL d   1      -0.655   3.025   2.233  0.00  0.00     0.024 A 
ATOM     21  C   UNL d   1      -0.885   3.998   1.265  0.00  0.00     0.034 A 
ATOM     22  C   UNL d   1      -0.695   3.708  -0.084  0.00  0.00     0.024 A 
ATOM     23 CL   UNL d   1      -1.368   5.580   1.740  0.00  0.00    -0.084 Cl
ATOM     24  C   UNL d   1      -0.220   2.447  -0.463  0.00  0.00     0.014 A 
ENDBRANCH   8  18
ENDBRANCH   6   7
TORSDOF 4
