REMARK  3 active torsions:
REMARK  status: ('A' for Active; 'I' for Inactive)
REMARK    1  A    between atoms: C_2  and  S_1 
REMARK    2  A    between atoms: C_13  and  S_1 
REMARK    3  A    between atoms: C_11  and  C_13 
ROOT
ATOM      1  C   UNL d   1       0.762   4.609  -1.214  0.00  0.00     0.085 A 
ATOM      2  C   UNL d   1       2.020   4.818  -1.914  0.00  0.00     0.085 A 
ATOM      3  O   UNL d   1       1.214   6.732  -1.280  0.00  0.00    -0.156 OA
ATOM      4  N   UNL d   1       0.289   5.801  -0.833  0.00  0.00    -0.240 N 
ATOM      5  HN  UNL d   1      -0.573   5.987  -0.320  1.00  0.00     0.197 HD
ATOM      6  N   UNL d   1       2.272   6.131  -1.941  0.00  0.00    -0.240 N 
ATOM      7  HN  UNL d   1       3.078   6.595  -2.362  1.00  0.00     0.197 HD
ATOM      8  C   UNL d   1       0.206   3.329  -1.025  0.00  0.00     0.042 A 
ATOM      9  C   UNL d   1       0.959   2.256  -1.562  0.00  0.00    -0.042 A 
ATOM     10  C   UNL d   1       2.769   3.753  -2.442  0.00  0.00     0.034 A 
ATOM     11  C   UNL d   1       2.199   2.478  -2.242  0.00  0.00     0.010 A 
ENDROOT
BRANCH   9  12
ATOM     12  C   UNL d   1       0.418   0.844  -1.455  0.00  0.00     0.184 C 
BRANCH  12  13
ATOM     13  S   UNL d   1       1.131  -0.047  -0.083  0.00  0.00     0.186 S 
ATOM     14  O   UNL d   1       0.490  -1.344   0.013  0.00  0.00    -0.222 OA
ATOM     15  O   UNL d   1       2.578   0.066  -0.121  0.00  0.00    -0.222 OA
BRANCH  13  16
ATOM     16  C   UNL d   1       0.639   0.833   1.384  0.00  0.00     0.100 A 
ATOM     17  S   UNL d   1      -1.041   0.904   1.713  0.00  0.00    -0.090 SA
ATOM     18  C   UNL d   1      -0.791   1.822   3.134  0.00  0.00     0.051 A 
ATOM     19  C   UNL d   1       0.546   2.054   3.370  0.00  0.00     0.009 A 
ATOM     20  C   UNL d   1       1.372   1.479   2.362  0.00  0.00     0.031 A 
ENDBRANCH  13  16
ENDBRANCH  12  13
ENDBRANCH   9  12
TORSDOF 3
