REMARK  5 active torsions:
REMARK  status: ('A' for Active; 'I' for Inactive)
REMARK    1  A    between atoms: S_3  and  C_1 
REMARK    2  A    between atoms: C_4  and  C_2 
REMARK    3  A    between atoms: C_6  and  S_3 
REMARK    4  A    between atoms: O_13  and  C_4 
REMARK    5  A    between atoms: C_5  and  C_6 
ROOT
ATOM      1  C   UNL d   1      -0.421   1.369   0.627  0.00  0.00     0.087 A 
ATOM      2  C   UNL d   1      -0.559  -0.011   0.445  0.00  0.00     0.071 A 
ATOM      3  N   UNL d   1       0.685   1.914   1.198  0.00  0.00    -0.360 N 
ATOM      4  HN  UNL d   1       0.755   2.922   1.343  1.00  0.00     0.166 HD
ATOM      5  C   UNL d   1       0.499  -0.835   0.863  0.00  0.00     0.022 A 
ATOM      6  C   UNL d   1       1.688   1.090   1.569  0.00  0.00     0.089 A 
ATOM      7  C   UNL d   1       1.639  -0.282   1.433  0.00  0.00     0.018 A 
ENDROOT
BRANCH   1   8
ATOM      8  S   UNL d   1      -1.713   2.544   0.226  0.00  0.00    -0.102 SA
BRANCH   8   9
ATOM      9  C   UNL d   1      -0.742   4.080  -0.151  0.00  0.00     0.083 C 
ATOM     10  C   UNL d   1      -1.750   5.232  -0.223  0.00  0.00     0.027 C 
BRANCH   9  11
ATOM     11  C   UNL d   1       0.145   4.019  -1.401  0.00  0.00    -0.038 A 
ATOM     12  C   UNL d   1       1.243   4.898  -1.578  0.00  0.00    -0.054 A 
ATOM     13  C   UNL d   1       2.068   4.762  -2.712  0.00  0.00     0.008 A 
ATOM     14  C   UNL d   1       1.567   6.035  -0.643  0.00  0.00     0.049 C 
ATOM     15  C   UNL d   1       1.861   3.746  -3.641  0.00  0.00     0.007 A 
ATOM     16  C   UNL d   1       0.790   2.873  -3.486  0.00  0.00    -0.061 A 
ATOM     17  C   UNL d   1      -0.086   3.055  -2.408  0.00  0.00     0.015 A 
ATOM     18  C   UNL d   1       0.593   1.738  -4.447  0.00  0.00     0.048 C 
ENDBRANCH   9  11
ENDBRANCH   8   9
ENDBRANCH   1   8
BRANCH   2  19
ATOM     19  C   UNL d   1      -1.709  -0.716  -0.186  0.00  0.00     0.179 C 
ATOM     20  O   UNL d   1      -1.579  -1.812  -0.701  0.00  0.00    -0.646 OA
BRANCH  19  21
ATOM     21  O   UNL d   1      -2.914  -0.120  -0.084  0.00  0.00    -0.773 OA
ATOM     22  H   UNL d   1      -2.908   0.781   0.295  0.00  0.00     0.167 HD
ENDBRANCH  19  21
ENDBRANCH   2  19
TORSDOF 5
