REMARK  6 active torsions:
REMARK  status: ('A' for Active; 'I' for Inactive)
REMARK    1  A    between atoms: C_10  and  C_3 
REMARK    2  A    between atoms: C_17  and  N_4 
REMARK    3  A    between atoms: C_6  and  N_12 
REMARK       I    between atoms: N_15  and  C_10 
REMARK    4  A    between atoms: C_11  and  C_13 
REMARK       I    between atoms: C_14  and  N_16 
REMARK    5  A    between atoms: C_20  and  C_14 
REMARK    6  A    between atoms: N_16  and  N_15 
ROOT
ATOM      1  C   UNL d   1       2.639  -4.217   0.285  0.00  0.00     0.240 C 
ATOM      2  N   UNL d   1       1.494  -3.458   0.259  0.00  0.00    -0.267 N 
ATOM      3  O   UNL d   1       3.729  -3.727   0.613  0.00  0.00    -0.271 OA
ATOM      4  H   UNL d   1       0.562  -3.826   0.081  0.00  0.00     0.190 HD
ENDROOT
BRANCH   1   5
ATOM      5  C   UNL d   1       2.557  -5.673  -0.165  0.00  0.00     0.082 C 
ATOM      6  C   UNL d   1       1.590  -6.567   0.620  0.00  0.00     0.034 C 
ATOM      7  C   UNL d   1       1.745  -8.031   0.166  0.00  0.00     0.142 C 
ATOM      8  N   UNL d   1       1.568  -8.097  -1.282  0.00  0.00    -0.218 N 
ATOM      9  C   UNL d   1       2.447  -7.268  -2.097  0.00  0.00     0.142 C 
ATOM     10  C   UNL d   1       2.269  -5.807  -1.665  0.00  0.00     0.034 C 
BRANCH   8  11
ATOM     11  C   UNL d   1       0.945  -9.185  -1.854  0.00  0.00     0.680 A 
ATOM     12  N   UNL d   1       0.222 -10.005  -1.075  0.00  0.00    -0.186 N 
ATOM     13  C   UNL d   1      -0.518 -10.986  -1.659  0.00  0.00     0.133 A 
ATOM     14  HN  UNL d   1       0.227  -9.894  -0.061  1.00  0.00     0.184 HD
ATOM     15  C   UNL d   1      -0.530 -11.174  -3.026  0.00  0.00     0.052 A 
ATOM     16  C   UNL d   1       0.259 -10.319  -3.747  0.00  0.00     0.108 A 
ATOM     17  N   UNL d   1       0.991  -9.339  -3.187  0.00  0.00    -0.202 N 
ATOM     18  HN  UNL d   1       1.568  -8.725  -3.762  1.00  0.00     0.183 HD
BRANCH  13  19
ATOM     19  C   UNL d   1      -1.390 -11.876  -0.793  0.00  0.00     0.433 C 
ATOM     20  F   UNL d   1      -1.283 -11.645   0.546  0.00  0.00    -0.165 F 
ATOM     21  F   UNL d   1      -2.717 -11.745  -1.088  0.00  0.00    -0.165 F 
ATOM     22  F   UNL d   1      -1.113 -13.203  -0.964  0.00  0.00    -0.165 F 
ENDBRANCH  13  19
ENDBRANCH   8  11
ENDBRANCH   1   5
BRANCH   2  23
ATOM     23  N   UNL d   1       1.579  -2.082   0.618  0.00  0.00    -0.262 N 
ATOM     24  C   UNL d   1       0.420  -1.330   0.671  0.00  0.00     0.288 C 
ATOM     25  O   UNL d   1      -0.682  -1.848   0.455  0.00  0.00    -0.264 OA
ATOM     26  H   UNL d   1       2.498  -1.664   0.766  0.00  0.00     0.190 HD
BRANCH  24  27
ATOM     27  C   UNL d   1       0.562   0.110   0.987  0.00  0.00     0.119 A 
ATOM     28  N   UNL d   1       1.723   0.749   1.246  0.00  0.00    -0.292 N 
ATOM     29  N   UNL d   1       1.371   2.053   1.489  0.00  0.00    -0.287 N 
ATOM     30  HN  UNL d   1       2.660   0.348   1.258  1.00  0.00     0.187 HD
ATOM     31  C   UNL d   1       0.006   2.250   1.377  0.00  0.00     0.028 A 
ATOM     32  C   UNL d   1      -0.760   3.510   1.563  0.00  0.00     0.070 C 
ATOM     33  C   UNL d   1      -0.516   1.016   1.057  0.00  0.00     0.063 A 
BRANCH  29  34
ATOM     34  C   UNL d   1       2.420   3.050   1.833  0.00  0.00     0.043 C 
ATOM     35  C   UNL d   1       3.835   2.418   1.847  0.00  0.00     0.039 C 
ATOM     36  C   UNL d   1       2.465   4.192   0.793  0.00  0.00     0.039 C 
ATOM     37  C   UNL d   1       2.190   3.627   3.248  0.00  0.00     0.039 C 
ENDBRANCH  29  34
ENDBRANCH  24  27
ENDBRANCH   2  23
TORSDOF 6
