REMARK  5 active torsions:
REMARK  status: ('A' for Active; 'I' for Inactive)
REMARK    1  A    between atoms: C_3  and  S_1 
REMARK    2  A    between atoms: N_7  and  S_1 
REMARK    3  A    between atoms: S_2  and  C_4 
REMARK    4  A    between atoms: C_8  and  S_2 
REMARK    5  A    between atoms: C_6  and  C_9 
ROOT
ATOM      1  C   UNL d   1       0.465  -0.704   1.482  0.00  0.00     0.116 A 
ATOM      2  C   UNL d   1      -0.383  -0.880   3.799  0.00  0.00     0.107 A 
ATOM      3  S   UNL d   1      -0.252   0.357   2.619  0.00  0.00    -0.065 SA
ATOM      4  C   UNL d   1       0.517  -1.998   1.964  0.00  0.00     0.034 A 
ATOM      5  C   UNL d   1       0.039  -2.099   3.299  0.00  0.00     0.033 A 
ENDROOT
BRANCH   2   6
ATOM      6  S   UNL d   1      -1.030  -0.443   5.405  0.00  0.00     0.228 S 
ATOM      7  O   UNL d   1      -0.503  -1.450   6.309  0.00  0.00    -0.215 OA
ATOM      8  O   UNL d   1      -0.751   0.969   5.601  0.00  0.00    -0.215 OA
BRANCH   6   9
ATOM      9  C   UNL d   1      -2.793  -0.658   5.325  0.00  0.00     0.134 A 
ATOM     10  N   UNL d   1      -3.212  -1.612   4.451  0.00  0.00    -0.356 N 
ATOM     11  C   UNL d   1      -4.547  -1.798   4.369  0.00  0.00     0.105 A 
ATOM     12  HN  UNL d   1      -2.556  -2.155   3.890  1.00  0.00     0.166 HD
ATOM     13  C   UNL d   1      -5.479  -1.073   5.102  0.00  0.00     0.063 A 
ATOM     14  C   UNL d   1      -5.000  -0.092   5.983  0.00  0.00     0.020 A 
ATOM     15  C   UNL d   1      -3.630   0.126   6.102  0.00  0.00     0.043 A 
BRANCH  13  16
ATOM     16  C   UNL d   1      -6.947  -1.341   4.946  0.00  0.00     0.418 C 
ATOM     17  F   UNL d   1      -7.226  -2.323   4.046  0.00  0.00    -0.166 F 
ATOM     18  F   UNL d   1      -7.532  -1.724   6.112  0.00  0.00    -0.166 F 
ATOM     19  F   UNL d   1      -7.631  -0.243   4.524  0.00  0.00    -0.166 F 
ENDBRANCH  13  16
ENDBRANCH   6   9
ENDBRANCH   2   6
BRANCH   1  20
ATOM     20  S   UNL d   1       1.070   0.005  -0.036  0.00  0.00     0.250 S 
ATOM     21  O   UNL d   1       1.562  -1.129  -0.792  0.00  0.00    -0.205 OA
ATOM     22  O   UNL d   1       1.964   1.069   0.375  0.00  0.00    -0.205 OA
BRANCH  20  23
ATOM     23  N   UNL d   1      -0.218   0.698  -0.941  0.00  0.00    -0.206 NA
ATOM     24  C   UNL d   1      -1.212  -0.299  -1.434  0.00  0.00     0.107 C 
ATOM     25  C   UNL d   1      -2.379   0.414  -2.118  0.00  0.00     0.015 C 
ATOM     26  C   UNL d   1      -1.899   1.317  -3.251  0.00  0.00     0.002 C 
ATOM     27  C   UNL d   1      -0.836   2.283  -2.745  0.00  0.00     0.015 C 
ATOM     28  C   UNL d   1       0.306   1.536  -2.066  0.00  0.00     0.107 C 
ENDBRANCH  20  23
ENDBRANCH   1  20
TORSDOF 5
