REMARK  5 active torsions:
REMARK  status: ('A' for Active; 'I' for Inactive)
REMARK    1  A    between atoms: C_2  and  S_1 
REMARK    2  A    between atoms: N_6  and  S_1 
REMARK    3  A    between atoms: C_13  and  C_4 
REMARK    4  A    between atoms: C_5  and  N_6 
REMARK    5  A    between atoms: O_23  and  C_13 
ROOT
ATOM      1  S   UNL d   1       0.764   0.178  -0.022  0.00  0.00     0.248 S 
ATOM      2  O   UNL d   1       0.107   1.413   0.347  0.00  0.00    -0.205 OA
ATOM      3  O   UNL d   1       2.204   0.110  -0.180  0.00  0.00    -0.205 OA
ENDROOT
BRANCH   1   4
ATOM      4  C   UNL d   1       0.052  -0.320  -1.554  0.00  0.00     0.104 A 
ATOM      5  C   UNL d   1      -1.304  -0.701  -1.677  0.00  0.00     0.090 A 
ATOM      6  N   UNL d   1      -2.217  -0.810  -0.694  0.00  0.00    -0.309 N 
ATOM      7  C   UNL d   1      -1.866  -1.064  -3.034  0.00  0.00     0.068 A 
ATOM      8  S   UNL d   1      -3.646  -1.262  -1.418  0.00  0.00     0.068 SA
ATOM      9  HN  UNL d   1      -2.063  -0.648   0.301  1.00  0.00     0.176 HD
ATOM     10  N   UNL d   1      -3.163  -1.404  -2.997  0.00  0.00    -0.310 N 
ATOM     11  HN  UNL d   1      -3.739  -1.694  -3.787  1.00  0.00     0.176 HD
ATOM     12  C   UNL d   1      -1.057  -1.034  -4.195  0.00  0.00     0.032 A 
ATOM     13  C   UNL d   1       0.283  -0.652  -4.006  0.00  0.00     0.004 A 
ATOM     14  C   UNL d   1       0.817  -0.310  -2.741  0.00  0.00     0.027 A 
ENDBRANCH   1   4
BRANCH   1  15
ATOM     15  N   UNL d   1       0.273  -1.019   1.088  0.00  0.00    -0.180 NA
ATOM     16  H   UNL d   1      -0.748  -0.959   1.162  0.00  0.00     0.146 HD
BRANCH  15  17
ATOM     17  C   UNL d   1       0.813  -2.320   1.011  0.00  0.00     0.046 A 
ATOM     18  C   UNL d   1       2.022  -2.782   1.518  0.00  0.00     0.102 A 
ATOM     19  S   UNL d   1       2.236  -4.460   1.156  0.00  0.00    -0.094 SA
ATOM     20  C   UNL d   1       0.705  -4.583   0.429  0.00  0.00     0.052 A 
ATOM     21  C   UNL d   1       0.043  -3.380   0.434  0.00  0.00     0.033 A 
BRANCH  18  22
ATOM     22  C   UNL d   1       3.074  -2.150   2.304  0.00  0.00     0.301 C 
ATOM     23  O   UNL d   1       4.099  -2.703   2.693  0.00  0.00    -0.259 OA
BRANCH  22  24
ATOM     24  O   UNL d   1       2.748  -0.866   2.619  0.00  0.00    -0.322 OA
ATOM     25  C   UNL d   1       3.716  -0.162   3.403  0.00  0.00     0.213 C 
ENDBRANCH  22  24
ENDBRANCH  18  22
ENDBRANCH  15  17
ENDBRANCH   1  15
TORSDOF 5
