REMARK  2 active torsions:
REMARK  status: ('A' for Active; 'I' for Inactive)
REMARK    1  A    between atoms: C_7  and  C_1 
REMARK    2  A    between atoms: O_8  and  C_7 
ROOT
ATOM      1  C   UNL d   1       2.460  -0.617  -0.056  0.00  0.00    -0.029 A 
ATOM      2  C   UNL d   1       1.248  -1.335  -0.046  0.00  0.00     0.022 A 
ATOM      3  C   UNL d   1      -0.000  -0.685  -0.024  0.00  0.00    -0.025 A 
ATOM      4  C   UNL d   1       2.396   0.781  -0.037  0.00  0.00     0.011 A 
ATOM      5  C   UNL d   1      -0.040   0.726  -0.010  0.00  0.00    -0.026 A 
ATOM      6  C   UNL d   1       1.164   1.442  -0.015  0.00  0.00     0.013 A 
ATOM      7  C   UNL d   1      -1.208  -1.402  -0.018  0.00  0.00     0.012 A 
ATOM      8  C   UNL d   1      -1.282   1.382   0.007  0.00  0.00     0.012 A 
ATOM      9  C   UNL d   1      -2.435  -0.736  -0.001  0.00  0.00     0.001 A 
ATOM     10  C   UNL d   1      -2.472   0.655   0.011  0.00  0.00     0.001 A 
ENDROOT
BRANCH   1  11
ATOM     11  C   UNL d   1       3.763  -1.393  -0.083  0.00  0.00     0.147 C 
ATOM     12  C   UNL d   1       5.045  -0.567  -0.058  0.00  0.00     0.044 C 
BRANCH  11  13
ATOM     13  O   UNL d   1       3.803  -2.194  -1.265  0.00  0.00    -0.391 OA
ATOM     14  H   UNL d   1       3.425  -1.659  -1.984  0.00  0.00     0.210 HD
ENDBRANCH  11  13
ENDBRANCH   1  11
TORSDOF 2
