REMARK  4 active torsions:
REMARK  status: ('A' for Active; 'I' for Inactive)
REMARK    1  A    between atoms: C_5  and  C_1 
REMARK    2  A    between atoms: C_7  and  C_2 
REMARK       I    between atoms: N_8  and  C_5 
REMARK    3  A    between atoms: C_16  and  C_6 
REMARK    4  A    between atoms: C_13  and  N_8 
ROOT
ATOM      1  C   UNL d   1       1.117   0.706   0.140  0.00  0.00     0.073 A 
ATOM      2  C   UNL d   1      -0.179   1.166  -0.045  0.00  0.00     0.175 A 
ATOM      3  O   UNL d   1      -1.055   0.108  -0.028  0.00  0.00    -0.304 OA
ATOM      4  C   UNL d   1       0.983  -0.703   0.359  0.00  0.00     0.058 A 
ATOM      5  C   UNL d   1      -0.344  -1.030   0.204  0.00  0.00     0.087 A 
ENDROOT
BRANCH   1   6
ATOM      6  C   UNL d   1       2.406   1.397   0.152  0.00  0.00     0.259 C 
ATOM      7  N   UNL d   1       2.487   2.573  -0.574  0.00  0.00    -0.323 N 
ATOM      8  H   UNL d   1       1.631   3.009  -0.884  0.00  0.00     0.169 HD
ATOM      9  O   UNL d   1       3.343   0.878   0.742  0.00  0.00    -0.267 OA
BRANCH   7  10
ATOM     10  C   UNL d   1       3.677   3.244  -0.947  0.00  0.00     0.037 A 
ATOM     11  C   UNL d   1       4.957   2.709  -0.755  0.00  0.00     0.069 A 
ATOM     12  C   UNL d   1       6.040   3.417  -1.234  0.00  0.00     0.107 A 
ATOM     13  O   UNL d   1       7.338   3.018  -1.160  0.00  0.00    -0.323 OA
ATOM     14  C   UNL d   1       5.899   4.625  -1.870  0.00  0.00     0.105 A 
ATOM     15  C   UNL d   1       7.992   4.090  -1.866  0.00  0.00     0.352 A 
ATOM     16  O   UNL d   1       7.089   5.140  -2.276  0.00  0.00    -0.323 OA
ATOM     17  C   UNL d   1       4.660   5.195  -2.061  0.00  0.00     0.042 A 
ATOM     18  C   UNL d   1       3.540   4.491  -1.599  0.00  0.00     0.032 A 
ENDBRANCH   7  10
ENDBRANCH   1   6
BRANCH   2  19
ATOM     19  C   UNL d   1      -0.802   2.498  -0.225  0.00  0.00     0.440 C 
ATOM     20  F   UNL d   1       0.111   3.501  -0.130  0.00  0.00    -0.164 F 
ATOM     21  F   UNL d   1      -1.373   2.632  -1.449  0.00  0.00    -0.164 F 
ATOM     22  F   UNL d   1      -1.760   2.756   0.698  0.00  0.00    -0.164 F 
ENDBRANCH   2  19
BRANCH   5  23
ATOM     23  C   UNL d   1      -1.083  -2.288   0.233  0.00  0.00    -0.002 A 
ATOM     24  C   UNL d   1      -2.473  -2.318   0.410  0.00  0.00     0.014 A 
ATOM     25  C   UNL d   1      -3.160  -3.534   0.467  0.00  0.00     0.001 A 
ATOM     26  C   UNL d   1      -2.467  -4.737   0.340  0.00  0.00     0.000 A 
ATOM     27  C   UNL d   1      -1.089  -4.725   0.147  0.00  0.00     0.001 A 
ATOM     28  C   UNL d   1      -0.402  -3.509   0.095  0.00  0.00     0.014 A 
ENDBRANCH   5  23
TORSDOF 4
