REMARK  10 active torsions:
REMARK  status: ('A' for Active; 'I' for Inactive)
REMARK    1  A    between atoms: N_2  and  C_1 
REMARK    2  A    between atoms: C_3  and  C_1 
REMARK    3  A    between atoms: C_6  and  C_1 
REMARK    4  A    between atoms: N_7  and  C_1 
REMARK       I    between atoms: C_4  and  N_2 
REMARK    5  A    between atoms: C_5  and  C_4 
REMARK    6  A    between atoms: O_20  and  C_6 
REMARK    7  A    between atoms: C_17  and  N_7 
REMARK    8  A    between atoms: O_24  and  C_9 
REMARK    9  A    between atoms: C_10  and  C_11 
REMARK   10  A    between atoms: C_27  and  O_20 
ROOT
ATOM      1  C   UNL d   1       0.846   0.100  -0.367  0.00  0.00     0.280 C 
ENDROOT
BRANCH   1   2
ATOM      2  N   UNL d   1       0.534   1.112   0.651  0.00  0.00    -0.319 N 
ATOM      3  C   UNL d   1      -0.594   1.886   0.715  0.00  0.00     0.256 C 
ATOM      4  O   UNL d   1      -1.344   2.019  -0.234  0.00  0.00    -0.267 OA
ATOM      5  H   UNL d   1       1.131   1.032   1.456  0.00  0.00     0.165 HD
BRANCH   3   6
ATOM      6  C   UNL d   1      -0.858   2.602   2.003  0.00  0.00     0.065 A 
ATOM      7  C   UNL d   1      -2.167   2.947   2.386  0.00  0.00     0.084 A 
ATOM      8  C   UNL d   1      -2.388   3.780   3.490  0.00  0.00     0.038 A 
ATOM      9  C   UNL d   1      -1.319   4.207   4.274  0.00  0.00     0.003 A 
ATOM     10  C   UNL d   1      -0.025   3.809   3.952  0.00  0.00     0.001 A 
ATOM     11  C   UNL d   1       0.209   3.025   2.816  0.00  0.00     0.020 A 
BRANCH   7  12
ATOM     12  O   UNL d   1      -3.305   2.552   1.730  0.00  0.00    -0.355 OA
ATOM     13  C   UNL d   1      -3.512   1.141   1.819  0.00  0.00     0.210 C 
ENDBRANCH   7  12
ENDBRANCH   3   6
ENDBRANCH   1   2
BRANCH   1  14
ATOM     14  C   UNL d   1       0.145  -0.060  -1.784  0.00  0.00     0.436 C 
ATOM     15  F   UNL d   1      -1.144   0.322  -1.847  0.00  0.00    -0.166 F 
ATOM     16  F   UNL d   1       0.797   0.592  -2.779  0.00  0.00    -0.166 F 
ATOM     17  F   UNL d   1       0.142  -1.371  -2.175  0.00  0.00    -0.166 F 
ENDBRANCH   1  14
BRANCH   1  18
ATOM     18  C   UNL d   1       0.492  -1.274   0.280  0.00  0.00     0.312 C 
ATOM     19  O   UNL d   1       1.273  -2.216   0.329  0.00  0.00    -0.260 OA
BRANCH  18  20
ATOM     20  O   UNL d   1      -0.779  -1.293   0.779  0.00  0.00    -0.319 OA
BRANCH  20  21
ATOM     21  C   UNL d   1      -1.190  -2.519   1.405  0.00  0.00     0.174 C 
ATOM     22  C   UNL d   1      -0.855  -2.463   2.882  0.00  0.00     0.034 C 
ENDBRANCH  20  21
ENDBRANCH  18  20
ENDBRANCH   1  18
BRANCH   1  23
ATOM     23  N   UNL d   1       2.346   0.185  -0.398  0.00  0.00    -0.250 NA
ATOM     24  H   UNL d   1       2.740  -0.750  -0.542  0.00  0.00     0.131 HD
BRANCH  23  25
ATOM     25  C   UNL d   1       3.001   1.141  -1.187  0.00  0.00     0.011 A 
ATOM     26  C   UNL d   1       2.477   2.406  -1.486  0.00  0.00     0.024 A 
ATOM     27  C   UNL d   1       3.182   3.323  -2.281  0.00  0.00     0.017 A 
ATOM     28  C   UNL d   1       4.454   3.003  -2.759  0.00  0.00     0.009 A 
ATOM     29  C   UNL d   1       5.015   1.771  -2.421  0.00  0.00     0.017 A 
ATOM     30  C   UNL d   1       4.301   0.866  -1.627  0.00  0.00     0.024 A 
BRANCH  28  31
ATOM     31  C   UNL d   1       5.232   3.928  -3.631  0.00  0.00     0.155 C 
ATOM     32  O   UNL d   1       6.144   3.485  -4.326  0.00  0.00    -0.293 OA
ATOM     33  C   UNL d   1       4.874   5.391  -3.648  0.00  0.00     0.096 C 
ENDBRANCH  28  31
ENDBRANCH  23  25
ENDBRANCH   1  23
TORSDOF 10
