REMARK  3 active torsions:
REMARK  status: ('A' for Active; 'I' for Inactive)
REMARK    1  A    between atoms: C_2  and  N_1 
REMARK    2  A    between atoms: C_3  and  S_7 
REMARK    3  A    between atoms: S_7  and  C_6 
ROOT
ATOM      1  C   UNL d   1      -1.274   1.370  -0.897  0.00  0.00     0.121 A 
ATOM      2  C   UNL d   1      -1.849   1.047   0.340  0.00  0.00     0.039 A 
ATOM      3  N   UNL d   1      -4.748   0.907  -4.245  0.00  0.00    -0.191 NA
ATOM      4  C   UNL d   1      -4.115   0.909  -3.270  0.00  0.00     0.099 C 
ATOM      5  C   UNL d   1      -2.004   1.327  -2.098  0.00  0.00     0.060 A 
ATOM      6  C   UNL d   1      -3.185   0.617   0.336  0.00  0.00     0.023 A 
ATOM      7  C   UNL d   1      -3.338   0.921  -2.068  0.00  0.00     0.047 A 
ATOM      8  C   UNL d   1      -3.919   0.540  -0.854  0.00  0.00     0.024 A 
ENDROOT
BRANCH   1   9
ATOM      9  N   UNL d   1       0.120   1.750  -0.996  0.00  0.00    -0.114 N 
ATOM     10  O   UNL d   1       0.959   0.909  -0.644  0.00  0.00    -0.532 OA
ATOM     11  O   UNL d   1       0.368   2.858  -1.488  0.00  0.00    -0.532 OA
ENDBRANCH   1   9
BRANCH   2  12
ATOM     12  S   UNL d   1      -1.092   1.366   1.929  0.00  0.00    -0.081 SA
BRANCH  12  13
ATOM     13  C   UNL d   1      -0.282  -0.153   2.265  0.00  0.00     0.046 C 
ATOM     14  C   UNL d   1       1.020  -0.084   2.550  0.00  0.00     0.076 C 
ATOM     15  C   UNL d   1       1.884  -1.204   2.929  0.00  0.00     0.152 C 
ATOM     16  O   UNL d   1       3.045  -0.944   3.255  0.00  0.00    -0.293 OA
ATOM     17  C   UNL d   1       1.416  -2.630   2.901  0.00  0.00     0.103 C 
ATOM     18  C   UNL d   1      -0.052  -2.958   2.599  0.00  0.00     0.013 C 
ATOM     19  S   UNL d   1      -1.229  -1.582   2.408  0.00  0.00    -0.113 SA
ATOM     20  C   UNL d   1      -0.139  -3.792   1.306  0.00  0.00     0.027 C 
ATOM     21  C   UNL d   1      -0.615  -3.808   3.759  0.00  0.00     0.027 C 
ENDBRANCH  12  13
ENDBRANCH   2  12
TORSDOF 3
