REMARK  8 active torsions:
REMARK  status: ('A' for Active; 'I' for Inactive)
REMARK    1  A    between atoms: C_2  and  C_1 
REMARK    2  A    between atoms: N_8  and  C_1 
REMARK    3  A    between atoms: C_5  and  C_2 
REMARK    4  A    between atoms: C_9  and  C_2 
REMARK    5  A    between atoms: O_13  and  N_3 
REMARK    6  A    between atoms: C_17  and  N_8 
REMARK    7  A    between atoms: C_21  and  C_17 
REMARK    8  A    between atoms: C_18  and  C_21 
ROOT
ATOM      1  C   UNL d   1       0.922   0.004   0.187  0.00  0.00     0.110 C 
ATOM      2  N   UNL d   1       0.404  -0.247  -0.985  0.00  0.00    -0.256 N 
ATOM      3  HN  UNL d   1       0.966  -0.391  -1.824  1.00  0.00     0.195 HD
ENDROOT
BRANCH   1   4
ATOM      4  C   UNL d   1       2.485   0.140   0.152  0.00  0.00     0.120 C 
BRANCH   4   5
ATOM      5  C   UNL d   1       2.973   1.211  -0.831  0.00  0.00    -0.042 A 
ATOM      6  C   UNL d   1       2.577   2.551  -0.715  0.00  0.00     0.011 A 
ATOM      7  C   UNL d   1       3.087   3.519  -1.584  0.00  0.00     0.043 A 
ATOM      8  C   UNL d   1       3.972   3.144  -2.585  0.00  0.00     0.116 A 
ATOM      9  C   UNL d   1       4.355   1.820  -2.742  0.00  0.00     0.043 A 
ATOM     10  F   UNL d   1       4.465   4.078  -3.412  0.00  0.00    -0.206 F 
ATOM     11  C   UNL d   1       3.859   0.853  -1.866  0.00  0.00     0.011 A 
ENDBRANCH   4   5
BRANCH   4  12
ATOM     12  C   UNL d   1       3.206   0.209   1.502  0.00  0.00    -0.042 A 
ATOM     13  C   UNL d   1       4.142  -0.786   1.834  0.00  0.00     0.008 A 
ATOM     14  C   UNL d   1       4.806  -0.765   3.062  0.00  0.00     0.001 A 
ATOM     15  C   UNL d   1       4.546   0.248   3.979  0.00  0.00     0.000 A 
ATOM     16  C   UNL d   1       3.649   1.262   3.654  0.00  0.00     0.001 A 
ATOM     17  C   UNL d   1       3.003   1.255   2.418  0.00  0.00     0.008 A 
ENDBRANCH   4  12
ENDBRANCH   1   4
BRANCH   1  18
ATOM     18  N   UNL d   1       0.261   0.102   1.407  0.00  0.00    -0.377 N 
ATOM     19  H   UNL d   1       0.638   0.727   2.105  0.00  0.00     0.160 HD
BRANCH  18  20
ATOM     20  C   UNL d   1      -1.079  -0.394   1.658  0.00  0.00     0.125 C 
BRANCH  20  21
ATOM     21  C   UNL d   1      -1.377  -0.563   3.156  0.00  0.00     0.058 C 
BRANCH  21  22
ATOM     22  C   UNL d   1      -2.732  -1.209   3.314  0.00  0.00    -0.054 A 
ATOM     23  C   UNL d   1      -2.852  -2.600   3.373  0.00  0.00     0.024 A 
ATOM     24  C   UNL d   1      -4.122  -3.157   3.378  0.00  0.00     0.088 A 
ATOM     25  N   UNL d   1      -5.261  -2.434   3.336  0.00  0.00    -0.375 N 
ATOM     26  C   UNL d   1      -5.123  -1.092   3.290  0.00  0.00     0.088 A 
ATOM     27  HN  UNL d   1      -6.179  -2.879   3.338  1.00  0.00     0.164 HD
ATOM     28  C   UNL d   1      -3.898  -0.440   3.282  0.00  0.00     0.024 A 
ENDBRANCH  21  22
ENDBRANCH  20  21
ENDBRANCH  18  20
ENDBRANCH   1  18
BRANCH   2  29
ATOM     29  O   UNL d   1      -0.994  -0.298  -0.981  0.00  0.00    -0.288 OA
ATOM     30  H   UNL d   1      -1.193  -0.475  -1.919  0.00  0.00     0.244 HD
ENDBRANCH   2  29
TORSDOF 8
