REMARK  7 active torsions:
REMARK  status: ('A' for Active; 'I' for Inactive)
REMARK    1  A    between atoms: N_13  and  C_3 
REMARK    2  A    between atoms: C_6  and  C_4 
REMARK    3  A    between atoms: C_9  and  C_5 
REMARK    4  A    between atoms: O_19  and  C_9 
REMARK    5  A    between atoms: N_11  and  N_13 
REMARK    6  A    between atoms: C_20  and  C_18 
REMARK    7  A    between atoms: C_27  and  O_19 
ROOT
ATOM      1  N   UNL d   1       1.435   0.283  -0.060  0.00  0.00    -0.323 N 
ATOM      2  HN  UNL d   1       2.373   0.678   0.009  1.00  0.00     0.169 HD
ATOM      3  C   UNL d   1       1.252  -1.062  -0.088  0.00  0.00     0.139 A 
ATOM      4  C   UNL d   1       0.345   1.094  -0.126  0.00  0.00     0.192 A 
ATOM      5  C   UNL d   1      -0.016  -1.606  -0.156  0.00  0.00     0.100 A 
ATOM      6  N   UNL d   1      -0.919   0.623  -0.233  0.00  0.00    -0.347 N 
ATOM      7  HN  UNL d   1      -1.720   1.250  -0.300  1.00  0.00     0.166 HD
ATOM      8  C   UNL d   1      -1.065  -0.717  -0.248  0.00  0.00     0.111 A 
ENDROOT
BRANCH   3   9
ATOM      9  N   UNL d   1       2.440  -1.806  -0.018  0.00  0.00    -0.285 N 
ATOM     10  H   UNL d   1       3.228  -1.160  -0.072  0.00  0.00     0.188 HD
BRANCH   9  11
ATOM     11  N   UNL d   1       2.512  -3.002  -0.662  0.00  0.00    -0.309 N 
ATOM     12  C   UNL d   1       3.700  -3.522  -0.683  0.00  0.00     0.118 C 
ATOM     13  HN  UNL d   1       1.702  -3.451  -1.092  1.00  0.00     0.186 HD
BRANCH  12  14
ATOM     14  C   UNL d   1       3.983  -4.801  -1.365  0.00  0.00    -0.019 A 
ATOM     15  C   UNL d   1       2.942  -5.602  -1.843  0.00  0.00     0.014 A 
ATOM     16  C   UNL d   1       3.233  -6.770  -2.551  0.00  0.00     0.024 A 
ATOM     17  C   UNL d   1       4.561  -7.129  -2.781  0.00  0.00     0.034 A 
ATOM     18  C   UNL d   1       5.603  -6.346  -2.281  0.00  0.00     0.024 A 
ATOM     19 CL   UNL d   1       4.919  -8.537  -3.703  0.00  0.00    -0.084 Cl
ATOM     20  C   UNL d   1       5.315  -5.181  -1.564  0.00  0.00     0.014 A 
ENDBRANCH  12  14
ENDBRANCH   9  11
ENDBRANCH   3   9
BRANCH   5  21
ATOM     21  C   UNL d   1      -0.366  -3.021  -0.045  0.00  0.00     0.298 C 
ATOM     22  O   UNL d   1      -1.167  -3.570  -0.788  0.00  0.00    -0.259 OA
BRANCH  21  23
ATOM     23  O   UNL d   1       0.105  -3.486   1.135  0.00  0.00    -0.318 OA
BRANCH  23  24
ATOM     24  C   UNL d   1      -0.513  -4.681   1.631  0.00  0.00     0.174 C 
ATOM     25  C   UNL d   1       0.135  -5.931   1.070  0.00  0.00     0.034 C 
ENDBRANCH  23  24
ENDBRANCH  21  23
ENDBRANCH   5  21
BRANCH   4  26
ATOM     26  C   UNL d   1       0.542   2.614  -0.028  0.00  0.00     0.449 C 
ATOM     27  F   UNL d   1       1.854   3.002  -0.028  0.00  0.00    -0.163 F 
ATOM     28  F   UNL d   1      -0.037   3.301  -1.058  0.00  0.00    -0.163 F 
ATOM     29  F   UNL d   1       0.010   3.146   1.115  0.00  0.00    -0.163 F 
ENDBRANCH   4  26
TORSDOF 7
