REMARK  6 active torsions:
REMARK  status: ('A' for Active; 'I' for Inactive)
REMARK    1  A    between atoms: C_7  and  C_1 
REMARK    2  A    between atoms: O_4  and  C_2 
REMARK    3  A    between atoms: C_6  and  O_4 
REMARK    4  A    between atoms: C_9  and  C_6 
REMARK    5  A    between atoms: O_19  and  C_7 
REMARK    6  A    between atoms: C_10  and  C_11 
ROOT
ATOM      1  C   UNL d   1      -1.165  -2.680  -0.071  0.00  0.00     0.298 C 
ATOM      2  O   UNL d   1      -0.147  -2.853  -0.719  0.00  0.00    -0.259 OA
ENDROOT
BRANCH   1   3
ATOM      3  O   UNL d   1      -1.700  -3.526   0.847  0.00  0.00    -0.272 OA
BRANCH   3   4
ATOM      4  C   UNL d   1      -1.662  -4.869   0.633  0.00  0.00     0.120 A 
ATOM      5  C   UNL d   1      -1.466  -5.748   1.690  0.00  0.00     0.115 A 
ATOM      6  S   UNL d   1      -1.856  -7.363   1.226  0.00  0.00    -0.092 SA
ATOM      7  C   UNL d   1      -2.160  -6.909  -0.385  0.00  0.00     0.072 A 
ATOM      8  C   UNL d   1      -1.985  -5.560  -0.575  0.00  0.00     0.053 A 
ATOM      9 BR   UNL d   1      -2.275  -4.774  -2.275  0.00  0.00    -0.048 Br
BRANCH   5  10
ATOM     10  C   UNL d   1      -1.018  -5.543   3.059  0.00  0.00     0.302 C 
ATOM     11  O   UNL d   1      -0.972  -6.394   3.936  0.00  0.00    -0.259 OA
BRANCH  10  12
ATOM     12  O   UNL d   1      -0.587  -4.259   3.238  0.00  0.00    -0.322 OA
ATOM     13  C   UNL d   1       0.004  -4.020   4.517  0.00  0.00     0.213 C 
ENDBRANCH  10  12
ENDBRANCH   5  10
ENDBRANCH   3   4
ENDBRANCH   1   3
BRANCH   1  14
ATOM     14  C   UNL d   1      -2.044  -1.474  -0.191  0.00  0.00     0.040 A 
ATOM     15  C   UNL d   1      -1.738  -0.499  -1.144  0.00  0.00     0.018 A 
ATOM     16  C   UNL d   1      -2.522   0.660  -1.252  0.00  0.00     0.009 A 
ATOM     17  C   UNL d   1      -3.627   0.882  -0.407  0.00  0.00    -0.051 A 
ATOM     18  C   UNL d   1      -3.965  -0.146   0.487  0.00  0.00     0.009 A 
ATOM     19  C   UNL d   1      -3.186  -1.304   0.599  0.00  0.00     0.018 A 
BRANCH  17  20
ATOM     20  C   UNL d   1      -4.369   2.234  -0.417  0.00  0.00    -0.024 C 
ATOM     21  C   UNL d   1      -5.503   2.318   0.631  0.00  0.00     0.019 C 
ATOM     22  C   UNL d   1      -3.362   3.358  -0.081  0.00  0.00     0.019 C 
ATOM     23  C   UNL d   1      -4.995   2.522  -1.796  0.00  0.00     0.019 C 
ENDBRANCH  17  20
ENDBRANCH   1  14
TORSDOF 6
