REMARK  5 active torsions:
REMARK  status: ('A' for Active; 'I' for Inactive)
REMARK    1  A    between atoms: N_7  and  S_1 
REMARK    2  A    between atoms: C_14  and  S_1 
REMARK    3  A    between atoms: C_2  and  C_6 
REMARK    4  A    between atoms: C_5  and  C_8 
REMARK       I    between atoms: C_6  and  N_10 
REMARK    5  A    between atoms: N_10  and  N_7 
ROOT
ATOM      1  C   UNL d   1       0.561   2.597   2.900  0.00  0.00     0.277 C 
ATOM      2  N   UNL d   1       0.790   1.538   2.038  0.00  0.00    -0.256 N 
ATOM      3  O   UNL d   1       1.128   2.655   3.991  0.00  0.00    -0.265 OA
ATOM      4  H   UNL d   1       0.368   1.490   1.113  0.00  0.00     0.191 HD
ENDROOT
BRANCH   1   5
ATOM      5  C   UNL d   1      -0.336   3.633   2.411  0.00  0.00     0.077 A 
ATOM      6  S   UNL d   1      -0.990   3.611   0.827  0.00  0.00    -0.083 SA
ATOM      7  C   UNL d   1      -1.831   5.090   1.061  0.00  0.00     0.033 A 
ATOM      8  C   UNL d   1      -2.655   5.787   0.163  0.00  0.00     0.038 A 
ATOM      9  C   UNL d   1      -1.612   5.594   2.341  0.00  0.00     0.050 A 
ATOM     10  C   UNL d   1      -3.236   6.978   0.608  0.00  0.00     0.064 A 
ATOM     11  C   UNL d   1      -2.958   7.400   1.900  0.00  0.00     0.104 A 
ATOM     12  N   UNL d   1      -2.166   6.755   2.781  0.00  0.00    -0.364 N 
ATOM     13  HN  UNL d   1      -1.993   7.116   3.719  1.00  0.00     0.165 HD
ATOM     14  C   UNL d   1      -0.752   4.755   3.103  0.00  0.00     0.055 A 
BRANCH  10  15
ATOM     15  C   UNL d   1      -4.146   7.800  -0.252  0.00  0.00     0.418 C 
ATOM     16  F   UNL d   1      -4.335   7.277  -1.496  0.00  0.00    -0.166 F 
ATOM     17  F   UNL d   1      -5.388   7.938   0.287  0.00  0.00    -0.166 F 
ATOM     18  F   UNL d   1      -3.679   9.064  -0.446  0.00  0.00    -0.166 F 
ENDBRANCH  10  15
ENDBRANCH   1   5
BRANCH   2  19
ATOM     19  N   UNL d   1       1.781   0.544   2.389  0.00  0.00    -0.220 N 
ATOM     20  H   UNL d   1       2.239   0.588   3.306  0.00  0.00     0.200 HD
BRANCH  19  21
ATOM     21  S   UNL d   1       2.547  -0.330   1.169  0.00  0.00     0.276 S 
ATOM     22  O   UNL d   1       1.523  -0.750   0.238  0.00  0.00    -0.199 OA
ATOM     23  O   UNL d   1       3.478  -1.250   1.784  0.00  0.00    -0.199 OA
BRANCH  21  24
ATOM     24  C   UNL d   1       3.500   0.950   0.383  0.00  0.00     0.082 A 
ATOM     25  C   UNL d   1       3.270   1.268  -0.959  0.00  0.00     0.049 A 
ATOM     26  C   UNL d   1       4.006   2.297  -1.542  0.00  0.00     0.035 A 
ATOM     27 CL   UNL d   1       3.737   2.708  -3.191  0.00  0.00    -0.084 Cl
ATOM     28  C   UNL d   1       4.956   3.002  -0.801  0.00  0.00     0.024 A 
ATOM     29  C   UNL d   1       5.182   2.675   0.537  0.00  0.00     0.003 A 
ATOM     30  C   UNL d   1       4.457   1.644   1.133  0.00  0.00     0.025 A 
ENDBRANCH  21  24
ENDBRANCH  19  21
ENDBRANCH   2  19
TORSDOF 5
