REMARK  5 active torsions:
REMARK  status: ('A' for Active; 'I' for Inactive)
REMARK    1  A    between atoms: C_2  and  S_1 
REMARK    2  A    between atoms: N_3  and  S_1 
REMARK       I    between atoms: C_8  and  N_12 
REMARK    3  A    between atoms: C_18  and  C_8 
REMARK    4  A    between atoms: N_12  and  C_19 
REMARK    5  A    between atoms: C_23  and  C_18 
ROOT
ATOM      1  N   UNL d   1       0.516   1.530   0.499  0.00  0.00    -0.206 NA
ATOM      2  C   UNL d   1       1.387   2.673   0.093  0.00  0.00     0.109 C 
ATOM      3  C   UNL d   1      -0.923   1.769   0.167  0.00  0.00     0.109 C 
ATOM      4  C   UNL d   1       0.899   3.964   0.736  0.00  0.00     0.041 C 
ATOM      5  C   UNL d   1      -1.423   3.097   0.731  0.00  0.00     0.041 C 
ATOM      6  C   UNL d   1      -0.540   4.274   0.309  0.00  0.00     0.086 C 
ENDROOT
BRANCH   1   7
ATOM      7  S   UNL d   1       1.056   0.009  -0.105  0.00  0.00     0.245 S 
ATOM      8  O   UNL d   1       0.108  -1.016   0.265  0.00  0.00    -0.206 OA
ATOM      9  O   UNL d   1       1.397   0.215  -1.499  0.00  0.00    -0.206 OA
BRANCH   7  10
ATOM     10  C   UNL d   1       2.561  -0.313   0.779  0.00  0.00     0.098 A 
ATOM     11  C   UNL d   1       3.756  -0.407   0.046  0.00  0.00     0.052 A 
ATOM     12  C   UNL d   1       4.947  -0.767   0.685  0.00  0.00     0.057 A 
ATOM     13 CL   UNL d   1       6.377  -0.873  -0.277  0.00  0.00    -0.083 Cl
ATOM     14  C   UNL d   1       4.945  -1.038   2.056  0.00  0.00     0.057 A 
ATOM     15  C   UNL d   1       3.756  -0.933   2.784  0.00  0.00     0.051 A 
ATOM     16 CL   UNL d   1       6.369  -1.516   2.909  0.00  0.00    -0.082 Cl
ATOM     17  C   UNL d   1       2.560  -0.567   2.152  0.00  0.00     0.058 A 
ATOM     18 CL   UNL d   1       1.163  -0.445   3.157  0.00  0.00    -0.083 Cl
ENDBRANCH   7  10
ENDBRANCH   1   7
BRANCH   6  19
ATOM     19  N   UNL d   1      -0.661   4.545  -1.125  0.00  0.00    -0.356 N 
ATOM     20  C   UNL d   1      -0.013   5.608  -1.725  0.00  0.00     0.222 C 
ATOM     21  O   UNL d   1       0.723   6.381  -1.117  0.00  0.00    -0.273 OA
ATOM     22  H   UNL d   1      -1.469   4.182  -1.617  0.00  0.00     0.162 HD
BRANCH  20  23
ATOM     23  C   UNL d   1      -0.258   5.731  -3.218  0.00  0.00     0.141 C 
BRANCH  23  24
ATOM     24  C   UNL d   1      -1.352   6.706  -3.571  0.00  0.00    -0.050 A 
ATOM     25  C   UNL d   1      -1.289   8.037  -3.135  0.00  0.00     0.007 A 
ATOM     26  C   UNL d   1      -2.265   8.957  -3.518  0.00  0.00     0.001 A 
ATOM     27  C   UNL d   1      -3.311   8.558  -4.347  0.00  0.00     0.000 A 
ATOM     28  C   UNL d   1      -3.387   7.237  -4.784  0.00  0.00     0.001 A 
ATOM     29  C   UNL d   1      -2.413   6.314  -4.400  0.00  0.00     0.007 A 
ENDBRANCH  23  24
ENDBRANCH  20  23
ENDBRANCH   6  19
TORSDOF 5
