REMARK  3 active torsions:
REMARK  status: ('A' for Active; 'I' for Inactive)
REMARK    1  A    between atoms: C_2  and  C_1 
REMARK       I    between atoms: N_3  and  C_2 
REMARK    2  A    between atoms: C_7  and  N_3 
REMARK    3  A    between atoms: N_11  and  C_4 
ROOT
ATOM      1  C   UNL d   1       0.955   0.153   0.003  0.00  0.00     0.127 C 
ATOM      2  C   UNL d   1       0.202  -0.963   0.015  0.00  0.00     0.113 C 
ATOM      3  C   UNL d   1       0.392   1.439   0.222  0.00  0.00     0.106 C 
ATOM      4  N   UNL d   1      -0.066   2.488   0.407  0.00  0.00    -0.191 NA
ENDROOT
BRANCH   1   5
ATOM      5  C   UNL d   1       2.432  -0.021  -0.217  0.00  0.00     0.269 C 
ATOM      6  N   UNL d   1       3.223   1.074   0.055  0.00  0.00    -0.308 N 
ATOM      7  H   UNL d   1       2.865   1.861   0.582  0.00  0.00     0.170 HD
ATOM      8  O   UNL d   1       2.869  -1.113  -0.579  0.00  0.00    -0.266 OA
BRANCH   6   9
ATOM      9  C   UNL d   1       4.622   1.086  -0.022  0.00  0.00     0.107 A 
ATOM     10  N   UNL d   1       5.213   1.968   0.810  0.00  0.00    -0.352 N 
ATOM     11  C   UNL d   1       6.565   1.942   0.878  0.00  0.00     0.089 A 
ATOM     12  HN  UNL d   1       4.665   2.626   1.365  1.00  0.00     0.166 HD
ATOM     13  C   UNL d   1       7.364   1.113   0.109  0.00  0.00     0.017 A 
ATOM     14  C   UNL d   1       6.740   0.269  -0.798  0.00  0.00     0.005 A 
ATOM     15  C   UNL d   1       5.349   0.252  -0.864  0.00  0.00     0.048 A 
ENDBRANCH   6   9
ENDBRANCH   1   5
BRANCH   2  16
ATOM     16  N   UNL d   1      -1.178  -1.139   0.136  0.00  0.00    -0.397 N 
ATOM     17  C   UNL d   1      -2.148  -0.309  -0.585  0.00  0.00     0.148 C 
ATOM     18  C   UNL d   1      -1.741  -2.401   0.625  0.00  0.00     0.148 C 
ENDBRANCH   2  16
TORSDOF 3
