REMARK  2 active torsions:
REMARK  status: ('A' for Active; 'I' for Inactive)
REMARK    1  A    between atoms: C_2  and  C_1 
REMARK       I    between atoms: C_3  and  N_4 
REMARK    2  A    between atoms: N_4  and  C_11 
ROOT
ATOM      1  C   UNL d   1       0.483   0.468  -1.257  0.00  0.00     0.048 A 
ATOM      2  C   UNL d   1      -0.180  -0.359  -2.174  0.00  0.00     0.018 A 
ATOM      3  C   UNL d   1       0.682   1.814  -1.590  0.00  0.00     0.018 A 
ATOM      4  C   UNL d   1      -0.414   1.498  -3.734  0.00  0.00     0.034 A 
ATOM      5  C   UNL d   1       0.237   2.321  -2.817  0.00  0.00     0.030 A 
ATOM      6  C   UNL d   1      -0.624   0.153  -3.399  0.00  0.00     0.030 A 
ENDROOT
BRANCH   4   7
ATOM      7  N   UNL d   1      -0.874   1.934  -4.995  0.00  0.00    -0.328 N 
ATOM      8  C   UNL d   1      -0.752   3.201  -5.537  0.00  0.00     0.218 C 
ATOM      9  O   UNL d   1      -0.233   4.179  -5.009  0.00  0.00    -0.274 OA
ATOM     10  C   UNL d   1      -1.337   3.318  -6.923  0.00  0.00     0.117 C 
ATOM     11  H   UNL d   1      -1.330   1.233  -5.565  0.00  0.00     0.169 HD
ENDBRANCH   4   7
BRANCH   1  12
ATOM     12  C   UNL d   1       0.985  -0.058   0.065  0.00  0.00     0.417 C 
ATOM     13  F   UNL d   1       0.732  -1.384   0.256  0.00  0.00    -0.166 F 
ATOM     14  F   UNL d   1       0.427   0.583   1.129  0.00  0.00    -0.166 F 
ATOM     15  F   UNL d   1       2.332   0.087   0.206  0.00  0.00    -0.166 F 
ENDBRANCH   1  12
TORSDOF 2
