REMARK  3 active torsions:
REMARK  status: ('A' for Active; 'I' for Inactive)
REMARK    1  A    between atoms: C_4  and  C_1 
REMARK    2  A    between atoms: C_3  and  C_2 
REMARK       I    between atoms: N_13  and  C_4 
REMARK    3  A    between atoms: O_14  and  C_8 
ROOT
ATOM      1  C   UNL d   1       0.805  -0.385   0.418  0.00  0.00     0.112 C 
ATOM      2  C   UNL d   1       0.283   0.701   1.026  0.00  0.00     0.043 C 
ATOM      3  C   UNL d   1       2.053  -0.954   0.806  0.00  0.00     0.105 C 
ATOM      4  N   UNL d   1       3.065  -1.445   1.085  0.00  0.00    -0.191 NA
ENDROOT
BRANCH   1   5
ATOM      5  C   UNL d   1       0.017  -0.996  -0.697  0.00  0.00     0.260 C 
ATOM      6  O   UNL d   1      -1.047  -0.530  -1.091  0.00  0.00    -0.267 OA
ATOM      7  N   UNL d   1       0.530  -2.116  -1.279  0.00  0.00    -0.365 N 
ATOM      8  H   UNL d   1       1.395  -2.570  -1.010  0.00  0.00     0.159 HD
ATOM      9  H   UNL d   1       0.004  -2.535  -2.037  0.00  0.00     0.159 HD
ENDBRANCH   1   5
BRANCH   2  10
ATOM     10  C   UNL d   1       0.935   1.368   2.173  0.00  0.00     0.010 A 
ATOM     11  C   UNL d   1       0.595   1.001   3.508  0.00  0.00    -0.013 A 
ATOM     12  C   UNL d   1       1.346   1.550   4.579  0.00  0.00    -0.025 A 
ATOM     13  C   UNL d   1      -0.453   0.107   3.836  0.00  0.00     0.013 A 
ATOM     14  C   UNL d   1       1.041   1.204   5.905  0.00  0.00     0.012 A 
ATOM     15  C   UNL d   1       2.400   2.436   4.314  0.00  0.00     0.015 A 
ATOM     16  C   UNL d   1      -0.004   0.329   6.195  0.00  0.00     0.001 A 
ATOM     17  C   UNL d   1      -0.750  -0.220   5.161  0.00  0.00     0.001 A 
ATOM     18  C   UNL d   1       2.704   2.813   3.009  0.00  0.00     0.038 A 
ATOM     19  C   UNL d   1       1.968   2.295   1.952  0.00  0.00     0.076 A 
BRANCH  19  20
ATOM     20  O   UNL d   1       2.324   2.731   0.704  0.00  0.00    -0.360 OA
ATOM     21  H   UNL d   1       1.595   2.557   0.087  0.00  0.00     0.217 HD
ENDBRANCH  19  20
ENDBRANCH   2  10
TORSDOF 3
