REMARK  7 active torsions:
REMARK  status: ('A' for Active; 'I' for Inactive)
REMARK    1  A    between atoms: N_14  and  C_3 
REMARK    2  A    between atoms: C_6  and  C_4 
REMARK    3  A    between atoms: C_10  and  C_5 
REMARK    4  A    between atoms: C_7  and  C_17 
REMARK    5  A    between atoms: O_22  and  C_10 
REMARK    6  A    between atoms: N_12  and  N_14 
REMARK    7  A    between atoms: C_28  and  O_22 
ROOT
ATOM      1  N   UNL d   1      -1.312  -3.246   0.296  0.00  0.00    -0.327 N 
ATOM      2  HN  UNL d   1      -1.399  -4.242   0.496  1.00  0.00     0.168 HD
ATOM      3  C   UNL d   1      -0.091  -2.644   0.304  0.00  0.00     0.117 A 
ATOM      4  C   UNL d   1      -2.410  -2.504   0.017  0.00  0.00     0.191 A 
ATOM      5  C   UNL d   1       0.051  -1.295   0.060  0.00  0.00     0.094 A 
ATOM      6  N   UNL d   1      -2.353  -1.171  -0.204  0.00  0.00    -0.347 N 
ATOM      7  HN  UNL d   1      -3.193  -0.620  -0.378  1.00  0.00     0.166 HD
ATOM      8  C   UNL d   1      -1.124  -0.608  -0.181  0.00  0.00     0.110 A 
ENDROOT
BRANCH   3   9
ATOM      9  N   UNL d   1       0.943  -3.526   0.653  0.00  0.00    -0.190 NA
ATOM     10  H   UNL d   1       0.474  -4.439   0.697  0.00  0.00     0.154 HD
BRANCH   9  11
ATOM     11  N   UNL d   1       2.082  -3.544  -0.083  0.00  0.00    -0.326 N 
ATOM     12  C   UNL d   1       3.116  -4.124   0.467  0.00  0.00     0.116 C 
ATOM     13  HN  UNL d   1       2.129  -3.128  -1.013  1.00  0.00     0.180 HD
BRANCH  12  14
ATOM     14  C   UNL d   1       3.267  -4.748   1.812  0.00  0.00     0.024 A 
ATOM     15  C   UNL d   1       2.337  -5.636   2.379  0.00  0.00     0.047 A 
ATOM     16 CL   UNL d   1       1.004  -6.326   1.514  0.00  0.00    -0.083 Cl
ATOM     17  C   UNL d   1       2.521  -6.129   3.680  0.00  0.00     0.025 A 
ATOM     18  C   UNL d   1       3.670  -5.818   4.401  0.00  0.00     0.003 A 
ATOM     19  C   UNL d   1       4.642  -5.013   3.819  0.00  0.00     0.025 A 
ATOM     20  C   UNL d   1       4.442  -4.473   2.540  0.00  0.00     0.047 A 
ATOM     21 CL   UNL d   1       5.723  -3.480   1.927  0.00  0.00    -0.083 Cl
ENDBRANCH  12  14
ENDBRANCH   9  11
ENDBRANCH   3   9
BRANCH   5  22
ATOM     22  C   UNL d   1       1.295  -0.524   0.000  0.00  0.00     0.298 C 
ATOM     23  O   UNL d   1       1.410   0.435  -0.758  0.00  0.00    -0.259 OA
BRANCH  22  24
ATOM     24  O   UNL d   1       2.207  -0.918   0.913  0.00  0.00    -0.318 OA
BRANCH  24  25
ATOM     25  C   UNL d   1       3.485  -0.273   0.815  0.00  0.00     0.174 C 
ATOM     26  C   UNL d   1       3.537   0.905   1.761  0.00  0.00     0.034 C 
ENDBRANCH  24  25
ENDBRANCH  22  24
ENDBRANCH   5  22
BRANCH   4  27
ATOM     27  C   UNL d   1      -3.777  -3.201  -0.042  0.00  0.00     0.449 C 
ATOM     28  F   UNL d   1      -3.706  -4.564   0.058  0.00  0.00    -0.163 F 
ATOM     29  F   UNL d   1      -4.617  -2.812   0.965  0.00  0.00    -0.163 F 
ATOM     30  F   UNL d   1      -4.457  -2.961  -1.203  0.00  0.00    -0.163 F 
ENDBRANCH   4  27
TORSDOF 7
