REMARK  5 active torsions:
REMARK  status: ('A' for Active; 'I' for Inactive)
REMARK    1  A    between atoms: N_7  and  C_1 
REMARK       I    between atoms: C_5  and  N_8 
REMARK    2  A    between atoms: C_11  and  C_5 
REMARK    3  A    between atoms: C_19  and  N_6 
REMARK       I    between atoms: C_10  and  N_7 
REMARK       I    between atoms: N_8  and  C_10 
REMARK    4  A    between atoms: C_18  and  C_9 
REMARK    5  A    between atoms: C_20  and  C_19 
ROOT
ATOM      1  N   UNL d   1       5.549  -2.522   0.260  0.00  0.00    -0.197 NA
ATOM      2  C   UNL d   1       4.615  -1.830   0.230  0.00  0.00     0.060 C 
ATOM      3  C   UNL d   1       3.426  -0.985   0.189  0.00  0.00     0.146 C 
ENDROOT
BRANCH   3   4
ATOM      4  C   UNL d   1       2.162  -1.847   0.154  0.00  0.00     0.165 C 
BRANCH   4   5
ATOM      5  N   UNL d   1       0.948  -1.059   0.256  0.00  0.00    -0.275 N 
ATOM      6  N   UNL d   1       1.005   0.254   0.019  0.00  0.00    -0.296 N 
ATOM      7  C   UNL d   1      -0.190   0.718   0.404  0.00  0.00     0.062 C 
ATOM      8  HN  UNL d   1       1.785   0.785  -0.368  1.00  0.00     0.187 HD
ATOM      9  C   UNL d   1      -1.018  -0.344   0.889  0.00  0.00     0.082 C 
ATOM     10  C   UNL d   1      -0.316  -1.488   0.564  0.00  0.00     0.127 C 
BRANCH   7  11
ATOM     11  C   UNL d   1      -0.498   2.119   0.156  0.00  0.00    -0.008 A 
ATOM     12  C   UNL d   1      -0.786   3.006   1.194  0.00  0.00     0.014 A 
ATOM     13  C   UNL d   1      -0.969   4.365   0.914  0.00  0.00     0.001 A 
ATOM     14  C   UNL d   1      -0.875   4.838  -0.398  0.00  0.00     0.000 A 
ATOM     15  C   UNL d   1      -0.596   3.957  -1.438  0.00  0.00     0.001 A 
ATOM     16  C   UNL d   1      -0.404   2.604  -1.162  0.00  0.00     0.014 A 
ENDBRANCH   7  11
BRANCH  10  17
ATOM     17  N   UNL d   1      -0.821  -2.751   0.298  0.00  0.00    -0.298 N 
ATOM     18  C   UNL d   1      -1.888  -3.392   0.968  0.00  0.00     0.306 C 
ATOM     19  N   UNL d   1      -1.800  -3.545   2.318  0.00  0.00    -0.175 NA
ATOM     20  O   UNL d   1      -2.731  -3.937   0.275  0.00  0.00    -0.253 OA
ATOM     21  C   UNL d   1      -0.659  -4.161   2.803  0.00  0.00     0.243 C 
ATOM     22  H   UNL d   1      -2.651  -4.002   2.620  0.00  0.00     0.141 HD
ATOM     23  O   UNL d   1       0.457  -3.755   2.493  0.00  0.00    -0.273 OA
ATOM     24  H   UNL d   1      -0.633  -3.105  -0.632  0.00  0.00     0.171 HD
BRANCH  21  25
ATOM     25  C   UNL d   1      -0.788  -5.296   3.785  0.00  0.00     0.087 A 
ATOM     26  C   UNL d   1       0.334  -5.586   4.582  0.00  0.00     0.133 A 
ATOM     27  F   UNL d   1       1.443  -4.834   4.521  0.00  0.00    -0.205 F 
ATOM     28  C   UNL d   1       0.354  -6.657   5.481  0.00  0.00     0.043 A 
ATOM     29  C   UNL d   1      -0.760  -7.475   5.611  0.00  0.00     0.005 A 
ATOM     30  C   UNL d   1      -1.886  -7.211   4.837  0.00  0.00     0.025 A 
ATOM     31  C   UNL d   1      -1.904  -6.138   3.929  0.00  0.00     0.052 A 
ATOM     32 CL   UNL d   1      -3.357  -5.968   3.006  0.00  0.00    -0.083 Cl
ENDBRANCH  21  25
ENDBRANCH  10  17
ENDBRANCH   4   5
ENDBRANCH   3   4
TORSDOF 5
