REMARK  4 active torsions:
REMARK  status: ('A' for Active; 'I' for Inactive)
REMARK    1  A    between atoms: S_8  and  C_2 
REMARK    2  A    between atoms: C_7  and  C_5 
REMARK    3  A    between atoms: C_17  and  S_8 
REMARK    4  A    between atoms: C_11  and  C_17 
ROOT
ATOM      1  N   UNL d   1       0.923   0.626   0.016  0.00  0.00    -0.335 N 
ATOM      2  C   UNL d   1      -0.354   1.097   0.061  0.00  0.00     0.144 A 
ATOM      3  N   UNL d   1      -1.236   0.130   0.071  0.00  0.00    -0.344 N 
ATOM      4  HN  UNL d   1      -2.252   0.211   0.106  1.00  0.00     0.167 HD
ATOM      5  C   UNL d   1       0.874  -0.750   0.000  0.00  0.00     0.060 A 
ATOM      6  C   UNL d   1      -0.485  -1.021   0.025  0.00  0.00     0.120 A 
ATOM      7  H   UNL d   1       1.748   1.206   0.027  0.00  0.00     0.168 HD
ENDROOT
BRANCH   5   8
ATOM      8  C   UNL d   1       2.047  -1.619  -0.030  0.00  0.00    -0.008 A 
ATOM      9  C   UNL d   1       1.994  -2.898   0.545  0.00  0.00     0.015 A 
ATOM     10  C   UNL d   1       3.104  -3.749   0.503  0.00  0.00     0.024 A 
ATOM     11  C   UNL d   1       4.277  -3.326  -0.116  0.00  0.00     0.034 A 
ATOM     12  C   UNL d   1       4.352  -2.058  -0.685  0.00  0.00     0.024 A 
ATOM     13 CL   UNL d   1       5.636  -4.378  -0.187  0.00  0.00    -0.084 Cl
ATOM     14  C   UNL d   1       3.241  -1.208  -0.640  0.00  0.00     0.015 A 
ENDBRANCH   5   8
BRANCH   2  15
ATOM     15  S   UNL d   1      -0.636   2.794   0.094  0.00  0.00    -0.090 SA
BRANCH  15  16
ATOM     16  C   UNL d   1      -2.269   2.840   0.886  0.00  0.00     0.108 C 
BRANCH  16  17
ATOM     17  C   UNL d   1      -2.713   4.271   1.003  0.00  0.00    -0.026 C 
ATOM     18  C   UNL d   1      -2.939   4.906   2.159  0.00  0.00     0.007 C 
ENDBRANCH  16  17
ENDBRANCH  15  16
ENDBRANCH   2  15
TORSDOF 4
