REMARK  7 active torsions:
REMARK  status: ('A' for Active; 'I' for Inactive)
REMARK    1  A    between atoms: N_2  and  C_1 
REMARK    2  A    between atoms: N_6  and  N_2 
REMARK       I    between atoms: C_3  and  N_6 
REMARK    3  A    between atoms: C_18  and  C_3 
REMARK    4  A    between atoms: C_9  and  C_19 
REMARK    5  A    between atoms: O_17  and  C_9 
REMARK    6  A    between atoms: O_16  and  C_18 
REMARK    7  A    between atoms: C_19  and  O_16 
ROOT
ATOM      1  N   UNL d   1      -0.042  -2.295   0.320  0.00  0.00    -0.200 NA
ATOM      2  H   UNL d   1       0.780  -2.358  -0.293  0.00  0.00     0.153 HD
ENDROOT
BRANCH   1   3
ATOM      3  C   UNL d   1      -0.243  -0.987   0.848  0.00  0.00     0.073 A 
ATOM      4  C   UNL d   1      -1.367  -0.590   1.598  0.00  0.00     0.073 A 
ATOM      5 CL   UNL d   1      -2.736  -1.606   1.890  0.00  0.00    -0.081 Cl
ATOM      6  C   UNL d   1      -1.390   0.682   2.168  0.00  0.00     0.113 A 
ATOM      7  N   UNL d   1      -0.390   1.587   2.059  0.00  0.00    -0.372 N 
ATOM      8  C   UNL d   1       0.693   1.193   1.355  0.00  0.00     0.113 A 
ATOM      9  HN  UNL d   1      -0.451   2.512   2.483  1.00  0.00     0.164 HD
ATOM     10  C   UNL d   1       0.812  -0.054   0.752  0.00  0.00     0.073 A 
ATOM     11 CL   UNL d   1       2.258  -0.417  -0.124  0.00  0.00    -0.081 Cl
ENDBRANCH   1   3
BRANCH   1  12
ATOM     12  N   UNL d   1      -1.154  -2.954  -0.228  0.00  0.00    -0.285 N 
ATOM     13  C   UNL d   1      -1.036  -4.338  -0.349  0.00  0.00     0.255 C 
ATOM     14  O   UNL d   1       0.026  -4.949  -0.281  0.00  0.00    -0.270 OA
ATOM     15  H   UNL d   1      -2.062  -2.558   0.006  0.00  0.00     0.184 HD
BRANCH  13  16
ATOM     16  C   UNL d   1      -2.389  -5.037  -0.575  0.00  0.00     0.272 C 
BRANCH  16  17
ATOM     17  O   UNL d   1      -2.613  -6.289   0.069  0.00  0.00    -0.372 OA
BRANCH  17  18
ATOM     18  C   UNL d   1      -2.532  -6.217   1.497  0.00  0.00     0.277 C 
BRANCH  18  19
ATOM     19  C   UNL d   1      -3.797  -5.620   2.101  0.00  0.00     0.164 C 
ATOM     20  O   UNL d   1      -3.855  -5.035   3.170  0.00  0.00    -0.648 OA
BRANCH  19  21
ATOM     21  O   UNL d   1      -4.880  -5.823   1.307  0.00  0.00    -0.775 OA
ATOM     22  H   UNL d   1      -4.611  -6.332   0.510  0.00  0.00     0.167 HD
ENDBRANCH  19  21
ENDBRANCH  18  19
ENDBRANCH  17  18
ENDBRANCH  16  17
ENDBRANCH  13  16
ENDBRANCH   1  12
TORSDOF 7
