REMARK  10 active torsions:
REMARK  status: ('A' for Active; 'I' for Inactive)
REMARK    1  A    between atoms: C_8  and  C_1 
REMARK    2  A    between atoms: N_6  and  C_2 
REMARK    3  A    between atoms: C_10  and  C_3 
REMARK    4  A    between atoms: C_11  and  C_3 
REMARK    5  A    between atoms: C_5  and  N_6 
REMARK    6  A    between atoms: O_15  and  C_8 
REMARK    7  A    between atoms: O_17  and  C_10 
REMARK    8  A    between atoms: O_16  and  C_11 
REMARK    9  A    between atoms: C_20  and  O_16 
REMARK   10  A    between atoms: C_19  and  O_17 
ROOT
ATOM      1  C   UNL d   1       3.472   3.774  -0.081  0.00  0.00     0.129 C 
ATOM      2  C   UNL d   1       2.746   2.641  -0.099  0.00  0.00     0.112 C 
ENDROOT
BRANCH   2   3
ATOM      3  N   UNL d   1       1.385   2.459  -0.046  0.00  0.00    -0.363 N 
ATOM      4  H   UNL d   1       1.057   2.347   0.921  0.00  0.00     0.165 HD
BRANCH   3   5
ATOM      5  C   UNL d   1       0.480   2.226  -1.042  0.00  0.00     0.061 A 
ATOM      6  C   UNL d   1      -0.845   1.951  -0.718  0.00  0.00     0.107 A 
ATOM      7  S   UNL d   1      -1.804   1.733  -2.118  0.00  0.00    -0.093 SA
ATOM      8  C   UNL d   1      -0.475   1.992  -3.146  0.00  0.00     0.059 A 
ATOM      9  C   UNL d   1       0.705   2.246  -2.467  0.00  0.00    -0.027 A 
ATOM     10  C   UNL d   1       1.971   2.501  -3.226  0.00  0.00     0.051 C 
BRANCH   6  11
ATOM     11  C   UNL d   1      -1.415   1.848   0.619  0.00  0.00     0.302 C 
ATOM     12  O   UNL d   1      -0.768   1.969   1.657  0.00  0.00    -0.259 OA
BRANCH  11  13
ATOM     13  O   UNL d   1      -2.756   1.596   0.593  0.00  0.00    -0.322 OA
ATOM     14  C   UNL d   1      -3.357   1.481   1.883  0.00  0.00     0.213 C 
ENDBRANCH  11  13
ENDBRANCH   6  11
ENDBRANCH   3   5
ENDBRANCH   2   3
BRANCH   1  15
ATOM     15  C   UNL d   1       2.891   5.132  -0.015  0.00  0.00     0.300 C 
ATOM     16  O   UNL d   1       3.479   6.150  -0.353  0.00  0.00    -0.259 OA
BRANCH  15  17
ATOM     17  O   UNL d   1       1.668   5.106   0.581  0.00  0.00    -0.318 OA
BRANCH  17  18
ATOM     18  C   UNL d   1       1.191   6.345   1.116  0.00  0.00     0.174 C 
ATOM     19  C   UNL d   1       1.635   6.405   2.565  0.00  0.00     0.034 C 
ENDBRANCH  17  18
ENDBRANCH  15  17
ENDBRANCH   1  15
BRANCH   1  20
ATOM     20  C   UNL d   1       4.941   3.567  -0.037  0.00  0.00     0.300 C 
ATOM     21  O   UNL d   1       5.494   2.521  -0.354  0.00  0.00    -0.259 OA
BRANCH  20  22
ATOM     22  O   UNL d   1       5.550   4.617   0.567  0.00  0.00    -0.318 OA
BRANCH  22  23
ATOM     23  C   UNL d   1       6.854   4.363   1.108  0.00  0.00     0.174 C 
ATOM     24  C   UNL d   1       6.667   3.957   2.558  0.00  0.00     0.034 C 
ENDBRANCH  22  23
ENDBRANCH  20  22
ENDBRANCH   1  20
TORSDOF 10
