REMARK  9 active torsions:
REMARK  status: ('A' for Active; 'I' for Inactive)
REMARK    1  A    between atoms: S_8  and  C_2 
REMARK    2  A    between atoms: C_17  and  C_7 
REMARK    3  A    between atoms: C_12  and  S_8 
REMARK    4  A    between atoms: C_10  and  C_12 
REMARK    5  A    between atoms: S_19  and  C_17 
REMARK    6  A    between atoms: C_23  and  S_19 
REMARK    7  A    between atoms: C_21  and  O_22 
REMARK    8  A    between atoms: O_22  and  C_24 
REMARK    9  A    between atoms: C_24  and  C_23 
ROOT
ATOM      1  N   UNL d   1       0.858   0.056   0.062  0.00  0.00    -0.319 N 
ATOM      2  C   UNL d   1      -0.011   1.111   0.055  0.00  0.00     0.162 A 
ATOM      3  N   UNL d   1      -1.245   0.666   0.029  0.00  0.00    -0.278 N 
ATOM      4  HN  UNL d   1      -2.090   1.237   0.030  1.00  0.00     0.189 HD
ATOM      5  N   UNL d   1      -1.196  -0.706   0.001  0.00  0.00    -0.286 N 
ATOM      6  HN  UNL d   1      -2.000  -1.333  -0.029  1.00  0.00     0.188 HD
ATOM      7  C   UNL d   1       0.069  -1.073   0.021  0.00  0.00     0.109 A 
ATOM      8  C   UNL d   1       2.298   0.070   0.107  0.00  0.00     0.159 C 
ENDROOT
BRANCH   7   9
ATOM      9  C   UNL d   1       0.587  -2.468  -0.021  0.00  0.00     0.151 C 
BRANCH   9  10
ATOM     10  S   UNL d   1       0.842  -3.163   1.644  0.00  0.00    -0.159 SA
BRANCH  10  11
ATOM     11  C   UNL d   1      -0.886  -3.235   2.257  0.00  0.00     0.101 C 
BRANCH  11  12
ATOM     12  C   UNL d   1      -1.785  -4.121   1.400  0.00  0.00     0.186 C 
BRANCH  12  13
ATOM     13  O   UNL d   1      -3.080  -4.209   2.000  0.00  0.00    -0.350 OA
BRANCH  13  14
ATOM     14  C   UNL d   1      -4.000  -4.969   1.325  0.00  0.00     0.068 A 
ATOM     15  C   UNL d   1      -3.775  -5.656   0.129  0.00  0.00     0.037 A 
ATOM     16  C   UNL d   1      -4.793  -6.419  -0.449  0.00  0.00     0.003 A 
ATOM     17  C   UNL d   1      -6.043  -6.496   0.162  0.00  0.00     0.000 A 
ATOM     18  C   UNL d   1      -6.277  -5.803   1.347  0.00  0.00     0.003 A 
ATOM     19  C   UNL d   1      -5.259  -5.041   1.925  0.00  0.00     0.037 A 
ENDBRANCH  13  14
ENDBRANCH  12  13
ENDBRANCH  11  12
ENDBRANCH  10  11
ENDBRANCH   9  10
ENDBRANCH   7   9
BRANCH   2  20
ATOM     20  S   UNL d   1       0.480   2.769   0.023  0.00  0.00    -0.088 SA
BRANCH  20  21
ATOM     21  C   UNL d   1      -1.003   3.578   0.693  0.00  0.00     0.122 C 
BRANCH  21  22
ATOM     22  C   UNL d   1      -0.885   5.087   0.643  0.00  0.00    -0.027 A 
ATOM     23  C   UNL d   1      -0.286   5.845   1.665  0.00  0.00     0.042 A 
ATOM     24  C   UNL d   1      -0.210   7.239   1.573  0.00  0.00     0.048 A 
ATOM     25 CL   UNL d   1       0.383   5.105   3.076  0.00  0.00    -0.084 Cl
ATOM     26  C   UNL d   1      -0.726   7.888   0.456  0.00  0.00     0.035 A 
ATOM     27  C   UNL d   1      -1.307   7.159  -0.577  0.00  0.00     0.024 A 
ATOM     28 CL   UNL d   1      -0.644   9.603   0.348  0.00  0.00    -0.084 Cl
ATOM     29  C   UNL d   1      -1.383   5.767  -0.485  0.00  0.00     0.011 A 
ENDBRANCH  21  22
ENDBRANCH  20  21
ENDBRANCH   2  20
TORSDOF 9
