REMARK  3 active torsions:
REMARK  status: ('A' for Active; 'I' for Inactive)
REMARK    1  A    between atoms: C_2  and  C_1 
REMARK    2  A    between atoms: S_6  and  C_2 
REMARK    3  A    between atoms: C_10  and  S_6 
ROOT
ATOM      1  C   UNL d   1      -1.077   2.435  -1.653  0.00  0.00     0.249 C 
ATOM      2  O   UNL d   1      -0.929   1.242  -1.406  0.00  0.00    -0.277 OA
ENDROOT
BRANCH   1   3
ATOM      3  C   UNL d   1      -1.767   2.924  -2.822  0.00  0.00     0.157 A 
ATOM      4  O   UNL d   1      -1.844   4.262  -3.086  0.00  0.00    -0.234 OA
ATOM      5  N   UNL d   1      -2.563   4.468  -4.253  0.00  0.00    -0.272 N 
ATOM      6  C   UNL d   1      -2.909   3.251  -4.676  0.00  0.00     0.117 A 
ATOM      7  HN  UNL d   1      -2.781   5.361  -4.694  1.00  0.00     0.194 HD
ATOM      8  C   UNL d   1      -2.433   2.245  -3.821  0.00  0.00     0.063 A 
ENDBRANCH   1   3
BRANCH   1   9
ATOM      9  S   UNL d   1      -0.565   3.676  -0.519  0.00  0.00    -0.045 SA
BRANCH   9  10
ATOM     10  C   UNL d   1       1.194   3.450  -0.313  0.00  0.00     0.008 A 
ATOM     11  C   UNL d   1       1.921   4.561   0.142  0.00  0.00     0.019 A 
ATOM     12  C   UNL d   1       3.294   4.477   0.388  0.00  0.00     0.001 A 
ATOM     13  C   UNL d   1       3.963   3.275   0.182  0.00  0.00     0.000 A 
ATOM     14  C   UNL d   1       3.257   2.163  -0.271  0.00  0.00     0.001 A 
ATOM     15  C   UNL d   1       1.881   2.248  -0.514  0.00  0.00     0.019 A 
ENDBRANCH   9  10
ENDBRANCH   1   9
TORSDOF 3
