REMARK  2 active torsions:
REMARK  status: ('A' for Active; 'I' for Inactive)
REMARK       I    between atoms: N_2  and  C_1 
REMARK    1  A    between atoms: C_4  and  C_1 
REMARK    2  A    between atoms: C_5  and  N_2 
ROOT
ATOM      1  C   UNL d   1       1.088   0.032  -0.437  0.00  0.00     0.256 C 
ATOM      2  N   UNL d   1       0.456  -1.155  -0.101  0.00  0.00    -0.323 N 
ATOM      3  O   UNL d   1       0.528   1.050  -0.833  0.00  0.00    -0.267 OA
ATOM      4  H   UNL d   1       1.023  -1.928   0.211  0.00  0.00     0.169 HD
ENDROOT
BRANCH   1   5
ATOM      5  C   UNL d   1       2.577   0.082  -0.290  0.00  0.00     0.032 A 
ATOM      6  C   UNL d   1       3.250   1.147  -0.917  0.00  0.00     0.017 A 
ATOM      7  C   UNL d   1       4.632   1.293  -0.800  0.00  0.00     0.001 A 
ATOM      8  C   UNL d   1       5.364   0.374  -0.054  0.00  0.00     0.000 A 
ATOM      9  C   UNL d   1       4.713  -0.686   0.577  0.00  0.00     0.001 A 
ATOM     10  C   UNL d   1       3.324  -0.832   0.467  0.00  0.00     0.017 A 
ENDBRANCH   1   5
BRANCH   2  11
ATOM     11  C   UNL d   1      -0.939  -1.394  -0.106  0.00  0.00     0.035 A 
ATOM     12  C   UNL d   1      -1.881  -0.501  -0.623  0.00  0.00     0.029 A 
ATOM     13  C   UNL d   1      -3.249  -0.782  -0.551  0.00  0.00     0.002 A 
ATOM     14  C   UNL d   1      -3.691  -1.962   0.039  0.00  0.00     0.000 A 
ATOM     15  C   UNL d   1      -2.763  -2.871   0.539  0.00  0.00     0.002 A 
ATOM     16  C   UNL d   1      -1.394  -2.593   0.458  0.00  0.00     0.029 A 
ENDBRANCH   2  11
TORSDOF 2
