REMARK  5 active torsions:
REMARK  status: ('A' for Active; 'I' for Inactive)
REMARK    1  A    between atoms: C_3  and  C_1 
REMARK    2  A    between atoms: C_12  and  C_2 
REMARK    3  A    between atoms: C_4  and  C_9 
REMARK       I    between atoms: N_21  and  C_12 
REMARK       I    between atoms: C_20  and  N_22 
REMARK    4  A    between atoms: C_23  and  C_20 
REMARK    5  A    between atoms: N_22  and  N_21 
ROOT
ATOM      1  C   UNL d   1      -0.097  -1.343  -0.001  0.00  0.00     0.057 A 
ATOM      2  C   UNL d   1      -1.439  -0.829  -0.003  0.00  0.00     0.139 A 
ATOM      3  N   UNL d   1      -1.402   0.518   0.079  0.00  0.00    -0.255 N 
ATOM      4  HN  UNL d   1      -2.205   1.146   0.124  1.00  0.00     0.195 HD
ATOM      5  O   UNL d   1      -0.078   0.881   0.089  0.00  0.00    -0.241 OA
ATOM      6  C   UNL d   1       0.706  -0.222   0.043  0.00  0.00     0.087 A 
ATOM      7  C   UNL d   1       2.164   0.020   0.042  0.00  0.00     0.080 C 
ENDROOT
BRANCH   2   8
ATOM      8  C   UNL d   1      -2.748  -1.505  -0.024  0.00  0.00     0.289 C 
ATOM      9  N   UNL d   1      -2.806  -2.697  -0.706  0.00  0.00    -0.262 N 
ATOM     10  H   UNL d   1      -1.962  -3.120  -1.102  0.00  0.00     0.190 HD
ATOM     11  O   UNL d   1      -3.761  -1.045   0.524  0.00  0.00    -0.264 OA
BRANCH   9  12
ATOM     12  N   UNL d   1      -3.967  -3.498  -0.687  0.00  0.00    -0.263 N 
ATOM     13  C   UNL d   1      -4.334  -4.124  -1.861  0.00  0.00     0.270 C 
ATOM     14  O   UNL d   1      -3.754  -3.938  -2.930  0.00  0.00    -0.266 OA
ATOM     15  H   UNL d   1      -4.687  -3.208  -0.020  0.00  0.00     0.190 HD
BRANCH  13  16
ATOM     16  C   UNL d   1      -5.460  -5.100  -1.800  0.00  0.00     0.033 A 
ATOM     17  C   UNL d   1      -5.990  -5.556  -3.017  0.00  0.00     0.019 A 
ATOM     18  C   UNL d   1      -7.060  -6.451  -3.039  0.00  0.00     0.025 A 
ATOM     19  C   UNL d   1      -7.591  -6.917  -1.840  0.00  0.00     0.034 A 
ATOM     20  C   UNL d   1      -7.038  -6.518  -0.622  0.00  0.00     0.025 A 
ATOM     21 CL   UNL d   1      -8.936  -7.988  -1.863  0.00  0.00    -0.084 Cl
ATOM     22  C   UNL d   1      -5.965  -5.616  -0.598  0.00  0.00     0.019 A 
ENDBRANCH  13  16
ENDBRANCH   9  12
ENDBRANCH   2   8
BRANCH   1  23
ATOM     23  C   UNL d   1       0.344  -2.739   0.016  0.00  0.00     0.055 A 
ATOM     24  N   UNL d   1      -0.374  -3.672  -0.702  0.00  0.00    -0.347 N 
ATOM     25  C   UNL d   1       0.125  -4.882  -0.504  0.00  0.00     0.102 A 
ATOM     26  HN  UNL d   1      -1.173  -3.461  -1.300  1.00  0.00     0.167 HD
ATOM     27  S   UNL d   1       1.515  -4.946   0.499  0.00  0.00    -0.080 SA
ATOM     28  C   UNL d   1       1.436  -3.242   0.690  0.00  0.00     0.082 A 
BRANCH  25  29
ATOM     29  C   UNL d   1      -0.517  -6.110  -1.091  0.00  0.00     0.073 A 
ATOM     30  N   UNL d   1      -0.157  -7.410  -0.769  0.00  0.00    -0.352 N 
ATOM     31  C   UNL d   1      -0.948  -8.255  -1.401  0.00  0.00     0.047 A 
ATOM     32  HN  UNL d   1       0.602  -7.672  -0.140  1.00  0.00     0.166 HD
ATOM     33  C   UNL d   1      -0.860  -9.735  -1.312  0.00  0.00     0.076 C 
ATOM     34  S   UNL d   1      -2.156  -7.550  -2.398  0.00  0.00    -0.087 SA
ATOM     35  C   UNL d   1      -1.537  -6.011  -2.009  0.00  0.00     0.083 A 
ENDBRANCH  25  29
ENDBRANCH   1  23
TORSDOF 5
