REMARK  7 active torsions:
REMARK  status: ('A' for Active; 'I' for Inactive)
REMARK    1  A    between atoms: S_3  and  C_1 
REMARK    2  A    between atoms: C_2  and  S_3 
REMARK    3  A    between atoms: C_15  and  C_7 
REMARK    4  A    between atoms: S_18  and  C_10 
REMARK    5  A    between atoms: C_17  and  C_20 
REMARK    6  A    between atoms: C_19  and  C_17 
REMARK    7  A    between atoms: C_20  and  S_18 
ROOT
ATOM      1  C   UNL d   1       2.154   2.835   0.118  0.00  0.00     0.051 A 
ATOM      2  N   UNL d   1       4.258   2.341  -0.943  0.00  0.00    -0.335 N 
ATOM      3  HN  UNL d   1       4.788   1.982  -1.737  1.00  0.00     0.168 HD
ATOM      4  C   UNL d   1       2.893   2.348  -0.960  0.00  0.00     0.063 A 
ATOM      5  C   UNL d   1       4.885   2.818   0.143  0.00  0.00     0.145 A 
ATOM      6  N   UNL d   1       4.264   3.349   1.200  0.00  0.00    -0.345 N 
ATOM      7  HN  UNL d   1       4.779   3.738   1.990  1.00  0.00     0.167 HD
ATOM      8  C   UNL d   1       2.916   3.339   1.160  0.00  0.00     0.111 A 
ENDROOT
BRANCH   5   9
ATOM      9  S   UNL d   1       6.651   2.661   0.257  0.00  0.00    -0.086 SA
BRANCH   9  10
ATOM     10  C   UNL d   1       6.980   1.729  -1.263  0.00  0.00     0.166 C 
BRANCH  10  11
ATOM     11  C   UNL d   1       8.440   1.336  -1.339  0.00  0.00     0.169 C 
ATOM     12  O   UNL d   1       9.298   2.102  -1.775  0.00  0.00    -0.291 OA
BRANCH  11  13
ATOM     13  C   UNL d   1       8.850  -0.041  -0.930  0.00  0.00     0.011 A 
ATOM     14  C   UNL d   1       9.982  -0.601  -1.544  0.00  0.00     0.017 A 
ATOM     15  C   UNL d   1      10.419  -1.880  -1.189  0.00  0.00     0.025 A 
ATOM     16  C   UNL d   1       9.734  -2.597  -0.213  0.00  0.00     0.034 A 
ATOM     17  C   UNL d   1       8.610  -2.049   0.407  0.00  0.00     0.025 A 
ATOM     18 CL   UNL d   1      10.284  -4.162   0.242  0.00  0.00    -0.084 Cl
ATOM     19  C   UNL d   1       8.165  -0.772   0.047  0.00  0.00     0.017 A 
ENDBRANCH  11  13
ENDBRANCH  10  11
ENDBRANCH   9  10
ENDBRANCH   5   9
BRANCH   4  20
ATOM     20  C   UNL d   1       2.333   1.730  -2.192  0.00  0.00    -0.008 A 
ATOM     21  C   UNL d   1       2.993   0.631  -2.785  0.00  0.00     0.015 A 
ATOM     22  C   UNL d   1       2.484  -0.017  -3.916  0.00  0.00     0.024 A 
ATOM     23  C   UNL d   1       1.293   0.421  -4.479  0.00  0.00     0.034 A 
ATOM     24  C   UNL d   1       0.637   1.527  -3.950  0.00  0.00     0.024 A 
ATOM     25 CL   UNL d   1       0.628  -0.407  -5.832  0.00  0.00    -0.084 Cl
ATOM     26  C   UNL d   1       1.168   2.188  -2.834  0.00  0.00     0.015 A 
ENDBRANCH   4  20
BRANCH   1  27
ATOM     27  S   UNL d   1       0.384   2.799   0.321  0.00  0.00    -0.050 SA
BRANCH  27  28
ATOM     28  C   UNL d   1       0.225   1.212   1.006  0.00  0.00     0.151 A 
ATOM     29  N   UNL d   1      -0.980   0.645   1.332  0.00  0.00    -0.341 N 
ATOM     30  C   UNL d   1      -0.713  -0.592   1.868  0.00  0.00     0.109 A 
ATOM     31  C   UNL d   1      -2.314   1.171   1.182  0.00  0.00     0.158 C 
ATOM     32  C   UNL d   1       0.656  -0.711   1.829  0.00  0.00     0.107 A 
ATOM     33  N   UNL d   1       1.226   0.411   1.297  0.00  0.00    -0.345 N 
ATOM     34  HN  UNL d   1       2.220   0.590   1.156  1.00  0.00     0.167 HD
ENDBRANCH  27  28
ENDBRANCH   1  27
TORSDOF 7
