REMARK  3 active torsions:
REMARK  status: ('A' for Active; 'I' for Inactive)
REMARK    1  A    between atoms: C_2  and  S_1 
REMARK    2  A    between atoms: N_5  and  S_1 
REMARK    3  A    between atoms: C_10  and  C_4 
ROOT
ATOM      1  C   UNL d   1       0.608  -1.649   0.374  0.00  0.00     0.121 A 
ATOM      2  S   UNL d   1      -1.027  -2.117   0.496  0.00  0.00    -0.074 SA
ATOM      3  C   UNL d   1      -0.637  -3.719   0.976  0.00  0.00     0.033 A 
ATOM      4  C   UNL d   1       1.451  -2.710   0.638  0.00  0.00     0.034 A 
ATOM      5  C   UNL d   1       0.738  -3.893   0.990  0.00  0.00     0.023 A 
ENDROOT
BRANCH   1   6
ATOM      6  S   UNL d   1       0.938   0.044  -0.099  0.00  0.00     0.267 S 
ATOM      7  O   UNL d   1       0.273   0.218  -1.374  0.00  0.00    -0.200 OA
ATOM      8  O   UNL d   1       2.380   0.150   0.011  0.00  0.00    -0.200 OA
BRANCH   6   9
ATOM      9  N   UNL d   1       0.254   1.119   1.034  0.00  0.00    -0.306 N 
ATOM     10  C   UNL d   1      -1.211   1.326   0.966  0.00  0.00     0.135 C 
ATOM     11  C   UNL d   1      -1.597   2.588   1.733  0.00  0.00     0.021 C 
ATOM     12  C   UNL d   1      -1.099   2.525   3.173  0.00  0.00     0.003 C 
ATOM     13  C   UNL d   1       0.406   2.284   3.199  0.00  0.00     0.021 C 
ATOM     14  C   UNL d   1       0.784   1.028   2.414  0.00  0.00     0.135 C 
ENDBRANCH   6   9
ENDBRANCH   1   6
BRANCH   3  15
ATOM     15  C   UNL d   1      -1.684  -4.688   1.336  0.00  0.00     0.049 A 
ATOM     16  N   UNL d   1      -1.259  -5.680   2.158  0.00  0.00    -0.365 N 
ATOM     17  C   UNL d   1      -2.173  -6.591   2.561  0.00  0.00     0.088 A 
ATOM     18  HN  UNL d   1      -0.287  -5.737   2.460  1.00  0.00     0.165 HD
ATOM     19  C   UNL d   1      -3.504  -6.569   2.182  0.00  0.00     0.017 A 
ATOM     20  C   UNL d   1      -3.923  -5.558   1.329  0.00  0.00     0.004 A 
ATOM     21  C   UNL d   1      -3.004  -4.604   0.896  0.00  0.00     0.031 A 
ENDBRANCH   3  15
TORSDOF 3
