REMARK  6 active torsions:
REMARK  status: ('A' for Active; 'I' for Inactive)
REMARK    1  A    between atoms: N_2  and  S_1 
REMARK    2  A    between atoms: C_9  and  S_1 
REMARK    3  A    between atoms: C_11  and  C_3 
REMARK    4  A    between atoms: O_14  and  N_7 
REMARK    5  A    between atoms: C_10  and  O_14 
REMARK    6  A    between atoms: C_15  and  C_10 
ROOT
ATOM      1  N   UNL d   1      -2.400   0.218  -5.718  0.00  0.00    -0.257 N 
ATOM      2  C   UNL d   1      -1.604  -1.711  -4.910  0.00  0.00     0.006 A 
ATOM      3  C   UNL d   1      -1.709  -0.344  -4.675  0.00  0.00     0.122 A 
ATOM      4  C   UNL d   1      -2.797  -0.748  -6.602  0.00  0.00     0.110 A 
ATOM      5  C   UNL d   1      -2.289  -1.947  -6.147  0.00  0.00     0.033 A 
ENDROOT
BRANCH   2   6
ATOM      6  C   UNL d   1      -0.929  -2.698  -4.050  0.00  0.00     0.040 C 
ATOM      7  N   UNL d   1      -0.428  -2.256  -2.936  0.00  0.00    -0.261 N 
ATOM      8  HN  UNL d   1      -0.470  -1.276  -2.657  1.00  0.00     0.194 HD
ATOM      9  C   UNL d   1      -0.882  -4.137  -4.512  0.00  0.00     0.071 C 
BRANCH   7  10
ATOM     10  O   UNL d   1       0.179  -3.261  -2.143  0.00  0.00    -0.195 OA
BRANCH  10  11
ATOM     11  C   UNL d   1       0.653  -2.697  -0.989  0.00  0.00     0.315 C 
ATOM     12  O   UNL d   1       0.604  -1.511  -0.676  0.00  0.00    -0.257 OA
BRANCH  11  13
ATOM     13  C   UNL d   1       1.265  -3.705  -0.074  0.00  0.00     0.041 A 
ATOM     14  C   UNL d   1       1.776  -3.235   1.149  0.00  0.00     0.019 A 
ATOM     15  C   UNL d   1       2.355  -4.109   2.073  0.00  0.00     0.025 A 
ATOM     16  C   UNL d   1       2.429  -5.466   1.780  0.00  0.00     0.034 A 
ATOM     17  C   UNL d   1       1.931  -5.953   0.570  0.00  0.00     0.025 A 
ATOM     18 CL   UNL d   1       3.137  -6.546   2.916  0.00  0.00    -0.084 Cl
ATOM     19  C   UNL d   1       1.349  -5.075  -0.360  0.00  0.00     0.019 A 
ENDBRANCH  11  13
ENDBRANCH  10  11
ENDBRANCH   7  10
ENDBRANCH   2   6
BRANCH   1  20
ATOM     20  S   UNL d   1      -2.807   1.866  -5.863  0.00  0.00     0.268 S 
ATOM     21  O   UNL d   1      -2.866   2.112  -7.293  0.00  0.00    -0.200 OA
ATOM     22  O   UNL d   1      -1.905   2.587  -4.988  0.00  0.00    -0.200 OA
BRANCH  20  23
ATOM     23  C   UNL d   1      -4.448   2.021  -5.201  0.00  0.00     0.080 A 
ATOM     24  C   UNL d   1      -4.696   1.684  -3.866  0.00  0.00     0.027 A 
ATOM     25  C   UNL d   1      -5.971   1.889  -3.329  0.00  0.00     0.025 A 
ATOM     26  C   UNL d   1      -6.984   2.435  -4.120  0.00  0.00     0.034 A 
ATOM     27  C   UNL d   1      -6.736   2.776  -5.450  0.00  0.00     0.025 A 
ATOM     28 CL   UNL d   1      -8.543   2.708  -3.446  0.00  0.00    -0.084 Cl
ATOM     29  C   UNL d   1      -5.464   2.571  -5.994  0.00  0.00     0.027 A 
ENDBRANCH  20  23
ENDBRANCH   1  20
TORSDOF 6
