REMARK  1 active torsions:
REMARK  status: ('A' for Active; 'I' for Inactive)
REMARK    1  A    between atoms: C_3  and  C_1 
ROOT
ATOM      1  C   UNL d   1       1.433  -1.455   0.079  0.00  0.00     0.015 A 
ATOM      2  C   UNL d   1      -0.807  -0.435   0.029  0.00  0.00     0.113 A 
ATOM      3  C   UNL d   1      -0.027  -1.530   0.076  0.00  0.00     0.044 A 
ATOM      4  N   UNL d   1       1.218   0.900  -0.021  0.00  0.00    -0.326 N 
ATOM      5  C   UNL d   1      -0.157   0.902  -0.004  0.00  0.00     0.266 A 
ATOM      6  C   UNL d   1       2.009  -0.232   0.008  0.00  0.00     0.021 A 
ATOM      7  C   UNL d   1      -2.222  -0.522   0.000  0.00  0.00     0.105 C 
ATOM      8  N   UNL d   1      -3.376  -0.650  -0.024  0.00  0.00    -0.191 NA
ATOM      9  O   UNL d   1      -0.792   1.950  -0.017  0.00  0.00    -0.267 OA
ATOM     10  C   UNL d   1       3.494  -0.002  -0.052  0.00  0.00     0.069 C 
ATOM     11  H   UNL d   1       1.644   1.819  -0.061  0.00  0.00     0.169 HD
ENDROOT
BRANCH   1  12
ATOM     12  C   UNL d   1       2.187  -2.674   0.139  0.00  0.00     0.051 A 
ATOM     13  N   UNL d   1       2.537  -3.310  -1.035  0.00  0.00    -0.353 N 
ATOM     14  C   UNL d   1       3.221  -4.402  -0.756  0.00  0.00     0.047 A 
ATOM     15  HN  UNL d   1       2.302  -2.985  -1.973  1.00  0.00     0.166 HD
ATOM     16  C   UNL d   1       3.768  -5.345  -1.771  0.00  0.00     0.076 C 
ATOM     17  S   UNL d   1       3.468  -4.714   0.919  0.00  0.00    -0.087 SA
ATOM     18  C   UNL d   1       2.598  -3.287   1.302  0.00  0.00     0.081 A 
ENDBRANCH   1  12
TORSDOF 1
