REMARK  3 active torsions:
REMARK  status: ('A' for Active; 'I' for Inactive)
REMARK    1  A    between atoms: N_2  and  C_1 
REMARK    2  A    between atoms: N_5  and  C_7 
REMARK    3  A    between atoms: N_15  and  C_10 
ROOT
ATOM      1  C   UNL d   1       0.743  -1.237   0.056  0.00  0.00     0.061 A 
ATOM      2  C   UNL d   1      -0.660  -1.321  -0.063  0.00  0.00     0.058 A 
ATOM      3  C   UNL d   1       1.326   0.038   0.114  0.00  0.00     0.063 A 
ATOM      4  C   UNL d   1      -0.890   1.107  -0.024  0.00  0.00     0.056 A 
ATOM      5  C   UNL d   1       0.507   1.179   0.085  0.00  0.00     0.057 A 
ATOM      6  C   UNL d   1      -1.464  -0.169  -0.119  0.00  0.00     0.063 A 
ATOM      7 CL   UNL d   1       3.024   0.358   0.045  0.00  0.00    -0.082 Cl
ATOM      8 CL   UNL d   1      -3.159  -0.424  -0.358  0.00  0.00    -0.082 Cl
ENDROOT
BRANCH   4   9
ATOM      9  N   UNL d   1      -1.545   2.347  -0.152  0.00  0.00    -0.351 N 
ATOM     10  C   UNL d   1      -2.633   2.603   0.494  0.00  0.00     0.178 C 
ATOM     11  HN  UNL d   1      -1.151   3.058  -0.768  1.00  0.00     0.166 HD
BRANCH  10  12
ATOM     12  N   UNL d   1      -3.313   3.798   0.460  0.00  0.00    -0.386 N 
ATOM     13  C   UNL d   1      -4.638   3.955   1.034  0.00  0.00     0.149 C 
ATOM     14  C   UNL d   1      -2.751   4.981  -0.173  0.00  0.00     0.149 C 
ENDBRANCH  10  12
ENDBRANCH   4   9
BRANCH   1  15
ATOM     15  N   UNL d   1       1.482  -2.460   0.095  0.00  0.00    -0.331 N 
ATOM     16  C   UNL d   1       2.689  -2.702   0.721  0.00  0.00     0.096 A 
ATOM     17  C   UNL d   1       3.046  -4.022   0.542  0.00  0.00     0.019 A 
ATOM     18  C   UNL d   1       2.022  -4.634  -0.203  0.00  0.00     0.019 A 
ATOM     19  C   UNL d   1       1.076  -3.665  -0.455  0.00  0.00     0.096 A 
ENDBRANCH   1  15
TORSDOF 3
