REMARK  4 active torsions:
REMARK  status: ('A' for Active; 'I' for Inactive)
REMARK    1  A    between atoms: C_2  and  C_1 
REMARK    2  A    between atoms: C_14  and  N_3 
REMARK    3  A    between atoms: C_18  and  N_6 
REMARK    4  A    between atoms: S_15  and  C_7 
ROOT
ATOM      1  C   UNL d   1      -0.115  -1.269   0.223  0.00  0.00     0.158 A 
ATOM      2  N   UNL d   1       1.183  -0.750   0.203  0.00  0.00    -0.274 N 
ATOM      3  N   UNL d   1      -0.985  -0.285   0.318  0.00  0.00    -0.281 N 
ATOM      4  HN  UNL d   1      -1.997  -0.387   0.391  1.00  0.00     0.188 HD
ATOM      5  C   UNL d   1       0.982   0.624   0.213  0.00  0.00     0.167 A 
ATOM      6  N   UNL d   1      -0.300   0.897   0.301  0.00  0.00    -0.278 N 
ATOM      7  HN  UNL d   1      -0.712   1.829   0.349  1.00  0.00     0.189 HD
ENDROOT
BRANCH   1   8
ATOM      8  C   UNL d   1      -0.513  -2.635   0.051  0.00  0.00     0.098 C 
ATOM      9  N   UNL d   1      -1.582  -3.235   0.671  0.00  0.00    -0.289 N 
ATOM     10  N   UNL d   1      -1.656  -4.566   0.430  0.00  0.00    -0.303 N 
ATOM     11  C   UNL d   1      -0.676  -4.798  -0.447  0.00  0.00     0.024 C 
ATOM     12  HN  UNL d   1      -2.312  -5.238   0.829  1.00  0.00     0.186 HD
ATOM     13  C   UNL d   1       0.031  -3.618  -0.755  0.00  0.00     0.061 C 
ATOM     14  C   UNL d   1      -0.428  -6.168  -0.953  0.00  0.00     0.070 C 
BRANCH   9  15
ATOM     15  C   UNL d   1      -2.567  -2.648   1.564  0.00  0.00     0.145 C 
ATOM     16  C   UNL d   1      -3.823  -2.222   0.823  0.00  0.00     0.028 C 
ENDBRANCH   9  15
ENDBRANCH   1   8
BRANCH   2  17
ATOM     17  C   UNL d   1       2.406  -1.488   0.186  0.00  0.00     0.043 A 
ATOM     18  C   UNL d   1       3.483  -1.078  -0.611  0.00  0.00     0.032 A 
ATOM     19  C   UNL d   1       4.643  -1.859  -0.678  0.00  0.00     0.026 A 
ATOM     20  C   UNL d   1       4.729  -3.048   0.043  0.00  0.00     0.034 A 
ATOM     21  C   UNL d   1       3.674  -3.454   0.854  0.00  0.00     0.026 A 
ATOM     22 CL   UNL d   1       6.137  -4.026  -0.082  0.00  0.00    -0.084 Cl
ATOM     23  C   UNL d   1       2.519  -2.671   0.935  0.00  0.00     0.032 A 
ENDBRANCH   2  17
BRANCH   5  24
ATOM     24  S   UNL d   1       2.232   1.828   0.298  0.00  0.00    -0.096 SA
ATOM     25  C   UNL d   1       1.257   3.346   0.174  0.00  0.00     0.099 C 
ENDBRANCH   5  24
TORSDOF 4
