REMARK  8 active torsions:
REMARK  status: ('A' for Active; 'I' for Inactive)
REMARK    1  A    between atoms: C_8  and  C_1 
REMARK    2  A    between atoms: C_9  and  C_2 
REMARK    3  A    between atoms: N_10  and  C_3 
REMARK    4  A    between atoms: O_23  and  C_8 
REMARK    5  A    between atoms: O_22  and  C_9 
REMARK    6  A    between atoms: C_21  and  N_10 
REMARK    7  A    between atoms: C_20  and  C_21 
REMARK    8  A    between atoms: C_26  and  O_23 
ROOT
ATOM      1  C   UNL d   1      -1.882  -0.058  -0.004  0.00  0.00     0.078 A 
ATOM      2  C   UNL d   1       0.179  -1.349   0.082  0.00  0.00     0.062 A 
ATOM      3  C   UNL d   1      -1.112   1.107  -0.102  0.00  0.00     0.097 A 
ATOM      4  N   UNL d   1       0.244   1.046  -0.094  0.00  0.00    -0.349 N 
ATOM      5  HN  UNL d   1       0.788   1.907  -0.148  1.00  0.00     0.167 HD
ATOM      6  C   UNL d   1      -1.216  -1.288   0.103  0.00  0.00     0.040 A 
ATOM      7  C   UNL d   1       0.884  -0.156  -0.015  0.00  0.00     0.022 A 
ATOM      8  C   UNL d   1       2.380  -0.057  -0.046  0.00  0.00     0.069 C 
ENDROOT
BRANCH   3   9
ATOM      9  N   UNL d   1      -1.690   2.353  -0.304  0.00  0.00    -0.274 NA
ATOM     10  H   UNL d   1      -2.433   2.536   0.364  0.00  0.00     0.129 HD
BRANCH   9  11
ATOM     11  C   UNL d   1      -0.822   3.494  -0.540  0.00  0.00     0.132 C 
BRANCH  11  12
ATOM     12  C   UNL d   1      -1.627   4.692  -1.016  0.00  0.00    -0.042 A 
ATOM     13  C   UNL d   1      -2.925   4.557  -1.544  0.00  0.00     0.048 A 
ATOM     14  C   UNL d   1      -3.579   5.684  -1.989  0.00  0.00     0.105 A 
ATOM     15  O   UNL d   1      -4.835   5.718  -2.507  0.00  0.00    -0.323 OA
ATOM     16  C   UNL d   1      -2.990   6.924  -1.951  0.00  0.00     0.105 A 
ATOM     17  C   UNL d   1      -4.974   7.127  -2.782  0.00  0.00     0.352 A 
ATOM     18  O   UNL d   1      -3.800   7.897  -2.446  0.00  0.00    -0.323 OA
ATOM     19  C   UNL d   1      -1.713   7.103  -1.465  0.00  0.00     0.040 A 
ATOM     20  C   UNL d   1      -1.029   5.975  -0.994  0.00  0.00     0.011 A 
ENDBRANCH  11  12
ENDBRANCH   9  11
ENDBRANCH   3   9
BRANCH   1  21
ATOM     21  C   UNL d   1      -3.365  -0.139  -0.098  0.00  0.00     0.296 C 
ATOM     22  O   UNL d   1      -3.958  -1.210  -0.084  0.00  0.00    -0.259 OA
BRANCH  21  23
ATOM     23  O   UNL d   1      -3.956   1.068  -0.260  0.00  0.00    -0.318 OA
BRANCH  23  24
ATOM     24  C   UNL d   1      -5.320   1.037  -0.710  0.00  0.00     0.174 C 
ATOM     25  C   UNL d   1      -5.341   0.988  -2.228  0.00  0.00     0.034 C 
ENDBRANCH  23  24
ENDBRANCH  21  23
ENDBRANCH   1  21
BRANCH   2  26
ATOM     26  C   UNL d   1       0.840  -2.672   0.143  0.00  0.00     0.294 C 
ATOM     27  O   UNL d   1       1.877  -2.903   0.739  0.00  0.00    -0.259 OA
BRANCH  26  28
ATOM     28  O   UNL d   1       0.110  -3.550  -0.588  0.00  0.00    -0.322 OA
ATOM     29  C   UNL d   1       0.619  -4.884  -0.612  0.00  0.00     0.213 C 
ENDBRANCH  26  28
ENDBRANCH   2  26
TORSDOF 8
