REMARK  5 active torsions:
REMARK  status: ('A' for Active; 'I' for Inactive)
REMARK       I    between atoms: N_2  and  C_1 
REMARK    1  A    between atoms: C_3  and  C_1 
REMARK    2  A    between atoms: C_7  and  N_2 
REMARK    3  A    between atoms: C_4  and  C_7 
REMARK    4  A    between atoms: O_13  and  C_4 
REMARK    5  A    between atoms: C_15  and  O_13 
ROOT
ATOM      1  C   UNL d   1       1.122  -0.021  -0.033  0.00  0.00     0.252 C 
ATOM      2  N   UNL d   1       0.376  -1.143  -0.309  0.00  0.00    -0.348 N 
ATOM      3  O   UNL d   1       2.332   0.027  -0.206  0.00  0.00    -0.268 OA
ATOM      4  H   UNL d   1      -0.638  -1.132  -0.290  0.00  0.00     0.163 HD
ENDROOT
BRANCH   1   5
ATOM      5  C   UNL d   1       0.379   1.165   0.466  0.00  0.00     0.032 A 
ATOM      6  C   UNL d   1      -0.814   1.053   1.194  0.00  0.00     0.018 A 
ATOM      7  C   UNL d   1      -1.458   2.206   1.660  0.00  0.00     0.025 A 
ATOM      8  C   UNL d   1      -0.907   3.462   1.403  0.00  0.00     0.034 A 
ATOM      9  C   UNL d   1       0.283   3.580   0.688  0.00  0.00     0.025 A 
ATOM     10 CL   UNL d   1      -1.698   4.875   1.982  0.00  0.00    -0.084 Cl
ATOM     11  C   UNL d   1       0.928   2.431   0.225  0.00  0.00     0.018 A 
ENDBRANCH   1   5
BRANCH   2  12
ATOM     12  C   UNL d   1       1.019  -2.343  -0.817  0.00  0.00     0.233 C 
BRANCH  12  13
ATOM     13  C   UNL d   1       0.018  -3.478  -0.914  0.00  0.00     0.276 C 
ATOM     14  O   UNL d   1      -1.170  -3.380  -0.631  0.00  0.00    -0.263 OA
BRANCH  13  15
ATOM     15  O   UNL d   1       0.658  -4.621  -1.287  0.00  0.00    -0.321 OA
BRANCH  15  16
ATOM     16  C   UNL d   1      -0.060  -5.837  -1.038  0.00  0.00     0.174 C 
ATOM     17  C   UNL d   1       0.270  -6.292   0.372  0.00  0.00     0.034 C 
ENDBRANCH  15  16
ENDBRANCH  13  15
ENDBRANCH  12  13
ENDBRANCH   2  12
TORSDOF 5
