REMARK  0 active torsions:
REMARK  status: ('A' for Active; 'I' for Inactive)
ROOT
ATOM      1  C   UNL d   1       0.211  -0.595  -0.003  0.00  0.00     0.180 A 
ATOM      2  C   UNL d   1       0.226   0.783  -0.001  0.00  0.00     0.047 A 
ATOM      3  N   UNL d   1       1.510  -0.998  -0.004  0.00  0.00    -0.274 N 
ATOM      4  N   UNL d   1       2.376   0.032  -0.005  0.00  0.00    -0.300 N 
ATOM      5  HN  UNL d   1       3.395  -0.012  -0.006  1.00  0.00     0.187 HD
ATOM      6  C   UNL d   1       1.601   1.133  -0.004  0.00  0.00     0.037 A 
ATOM      7  C   UNL d   1      -1.054   1.407   0.002  0.00  0.00    -0.040 A 
ATOM      8  O   UNL d   1      -0.817  -1.430  -0.004  0.00  0.00    -0.256 OA
ATOM      9  C   UNL d   1      -2.052  -0.859  -0.003  0.00  0.00     0.290 A 
ATOM     10  C   UNL d   1      -2.150   0.624   0.001  0.00  0.00     0.090 A 
ATOM     11  O   UNL d   1      -3.080  -1.530  -0.005  0.00  0.00    -0.260 OA
ATOM     12  C   UNL d   1       2.018  -2.347  -0.004  0.00  0.00     0.180 C 
ATOM     13  C   UNL d   1      -1.198   2.892   0.010  0.00  0.00     0.049 C 
ATOM     14  C   UNL d   1       2.309   2.437  -0.006  0.00  0.00     0.070 C 
ENDROOT
TORSDOF 0
