REMARK  3 active torsions:
REMARK  status: ('A' for Active; 'I' for Inactive)
REMARK    1  A    between atoms: C_9  and  C_3 
REMARK       I    between atoms: C_4  and  N_8 
REMARK       I    between atoms: N_10  and  C_4 
REMARK    2  A    between atoms: N_8  and  C_13 
REMARK    3  A    between atoms: C_14  and  N_10 
ROOT
ATOM      1  C   UNL d   1       2.691   1.568   0.681  0.00  0.00    -0.006 A 
ATOM      2  C   UNL d   1       3.525   1.333  -0.429  0.00  0.00     0.043 A 
ATOM      3  C   UNL d   1       4.363   2.331  -0.932  0.00  0.00     0.037 A 
ATOM      4  C   UNL d   1       2.783   2.794   1.349  0.00  0.00     0.014 A 
ATOM      5  C   UNL d   1       3.685   3.763   0.911  0.00  0.00     0.003 A 
ATOM      6  C   UNL d   1       4.464   3.533  -0.221  0.00  0.00     0.029 A 
ENDROOT
BRANCH   3   7
ATOM      7  N   UNL d   1       5.134   2.240  -2.107  0.00  0.00    -0.309 N 
ATOM      8  C   UNL d   1       5.068   1.492  -3.254  0.00  0.00     0.325 C 
ATOM      9  N   UNL d   1       4.012   0.650  -3.411  0.00  0.00    -0.309 N 
ATOM     10  O   UNL d   1       5.940   1.711  -4.096  0.00  0.00    -0.247 OA
ATOM     11  H   UNL d   1       3.349   0.621  -2.660  0.00  0.00     0.170 HD
ATOM     12  H   UNL d   1       5.832   2.963  -2.234  0.00  0.00     0.170 HD
BRANCH   9  13
ATOM     13  C   UNL d   1       3.580   0.001  -4.584  0.00  0.00     0.036 A 
ATOM     14  C   UNL d   1       4.196   0.132  -5.830  0.00  0.00     0.031 A 
ATOM     15  C   UNL d   1       3.584  -0.386  -6.977  0.00  0.00     0.026 A 
ATOM     16  C   UNL d   1       2.369  -1.060  -6.874  0.00  0.00     0.034 A 
ATOM     17  C   UNL d   1       1.786  -1.268  -5.629  0.00  0.00     0.026 A 
ATOM     18 CL   UNL d   1       1.569  -1.610  -8.294  0.00  0.00    -0.084 Cl
ATOM     19  C   UNL d   1       2.394  -0.743  -4.486  0.00  0.00     0.031 A 
ENDBRANCH   9  13
ENDBRANCH   3   7
BRANCH   1  20
ATOM     20  C   UNL d   1       1.711   0.553   1.091  0.00  0.00     0.059 A 
ATOM     21  N   UNL d   1       1.378  -0.469   0.283  0.00  0.00    -0.299 N 
ATOM     22  N   UNL d   1       0.430  -1.143   0.959  0.00  0.00    -0.307 N 
ATOM     23  HN  UNL d   1       1.760  -0.685  -0.638  1.00  0.00     0.187 HD
ATOM     24  C   UNL d   1       0.150  -0.611   2.179  0.00  0.00     0.112 A 
ATOM     25  C   UNL d   1      -0.193  -2.306   0.375  0.00  0.00     0.177 C 
ATOM     26  C   UNL d   1       0.962   0.490   2.301  0.00  0.00     0.050 A 
ENDBRANCH   1  20
TORSDOF 3
