REMARK  4 active torsions:
REMARK  status: ('A' for Active; 'I' for Inactive)
REMARK    1  A    between atoms: C_3  and  C_1 
REMARK    2  A    between atoms: C_8  and  C_2 
REMARK       I    between atoms: N_15  and  C_8 
REMARK       I    between atoms: C_14  and  N_16 
REMARK    3  A    between atoms: C_17  and  C_14 
REMARK    4  A    between atoms: N_16  and  N_15 
ROOT
ATOM      1  C   UNL d   1      -2.743  -1.526   0.005  0.00  0.00     0.289 C 
ATOM      2  N   UNL d   1      -3.934  -0.842  -0.137  0.00  0.00    -0.262 N 
ATOM      3  O   UNL d   1      -2.733  -2.758   0.061  0.00  0.00    -0.264 OA
ATOM      4  H   UNL d   1      -3.988   0.177  -0.044  0.00  0.00     0.190 HD
ENDROOT
BRANCH   1   5
ATOM      5  C   UNL d   1      -1.518  -0.711   0.046  0.00  0.00     0.139 A 
ATOM      6  C   UNL d   1      -1.237   0.582   0.593  0.00  0.00     0.057 A 
ATOM      7  C   UNL d   1       0.100   0.788   0.325  0.00  0.00     0.087 A 
ATOM      8  O   UNL d   1       0.597  -0.296  -0.317  0.00  0.00    -0.241 OA
ATOM      9  C   UNL d   1       1.066   1.879   0.570  0.00  0.00     0.080 C 
ATOM     10  N   UNL d   1      -0.393  -1.235  -0.479  0.00  0.00    -0.255 N 
ATOM     11  HN  UNL d   1      -0.295  -2.152  -0.913  1.00  0.00     0.195 HD
BRANCH   6  12
ATOM     12  C   UNL d   1      -2.139   1.474   1.324  0.00  0.00     0.054 A 
ATOM     13  N   UNL d   1      -3.494   1.419   1.065  0.00  0.00    -0.353 N 
ATOM     14  C   UNL d   1      -4.140   2.276   1.831  0.00  0.00     0.047 A 
ATOM     15  HN  UNL d   1      -3.933   0.803   0.380  1.00  0.00     0.166 HD
ATOM     16  C   UNL d   1      -5.617   2.463   1.858  0.00  0.00     0.076 C 
ATOM     17  S   UNL d   1      -3.155   3.218   2.875  0.00  0.00    -0.087 SA
ATOM     18  C   UNL d   1      -1.774   2.400   2.280  0.00  0.00     0.082 A 
ENDBRANCH   6  12
ENDBRANCH   1   5
BRANCH   2  19
ATOM     19  N   UNL d   1      -5.142  -1.551  -0.113  0.00  0.00    -0.263 N 
ATOM     20  C   UNL d   1      -6.309  -0.857  -0.364  0.00  0.00     0.270 C 
ATOM     21  O   UNL d   1      -6.349   0.336  -0.638  0.00  0.00    -0.266 OA
ATOM     22  H   UNL d   1      -5.093  -2.531   0.154  0.00  0.00     0.190 HD
BRANCH  20  23
ATOM     23  C   UNL d   1      -7.568  -1.624  -0.277  0.00  0.00     0.033 A 
ATOM     24  C   UNL d   1      -8.692  -1.003   0.286  0.00  0.00     0.019 A 
ATOM     25  C   UNL d   1      -9.925  -1.658   0.289  0.00  0.00     0.025 A 
ATOM     26  C   UNL d   1     -10.033  -2.926  -0.280  0.00  0.00     0.034 A 
ATOM     27  C   UNL d   1      -8.914  -3.554  -0.830  0.00  0.00     0.025 A 
ATOM     28 CL   UNL d   1     -11.562  -3.711  -0.331  0.00  0.00    -0.084 Cl
ATOM     29  C   UNL d   1      -7.675  -2.906  -0.825  0.00  0.00     0.019 A 
ENDBRANCH  20  23
ENDBRANCH   2  19
TORSDOF 4
