REMARK  2 active torsions:
REMARK  status: ('A' for Active; 'I' for Inactive)
REMARK    1  A    between atoms: C_12  and  N_3 
REMARK    2  A    between atoms: O_20  and  C_16 
ROOT
ATOM      1  C   UNL d   1      -0.413   0.764   0.032  0.00  0.00     0.096 A 
ATOM      2  C   UNL d   1       0.671   1.703   0.042  0.00  0.00     0.282 A 
ATOM      3  N   UNL d   1       1.959   1.091  -0.018  0.00  0.00    -0.220 N 
ATOM      4  C   UNL d   1      -0.160  -0.571  -0.007  0.00  0.00     0.140 A 
ATOM      5  N   UNL d   1       2.171  -0.317  -0.089  0.00  0.00    -0.292 N 
ATOM      6  HN  UNL d   1       3.116  -0.693  -0.160  1.00  0.00     0.187 HD
ATOM      7  C   UNL d   1       1.144  -1.120  -0.061  0.00  0.00     0.059 A 
ATOM      8  O   UNL d   1      -1.309  -1.276  -0.008  0.00  0.00    -0.235 OA
ATOM      9  N   UNL d   1      -2.374  -0.376   0.020  0.00  0.00    -0.264 N 
ATOM     10  HN  UNL d   1      -3.369  -0.600   0.027  1.00  0.00     0.194 HD
ATOM     11  C   UNL d   1      -1.818   0.849   0.037  0.00  0.00     0.047 A 
ATOM     12  O   UNL d   1       0.431   2.907   0.069  0.00  0.00    -0.265 OA
ATOM     13  C   UNL d   1       1.331  -2.607  -0.080  0.00  0.00     0.072 C 
ATOM     14  C   UNL d   1      -2.656   2.070   0.043  0.00  0.00     0.071 C 
ENDROOT
BRANCH   3  15
ATOM     15  C   UNL d   1       3.180   1.844   0.032  0.00  0.00     0.060 A 
ATOM     16  C   UNL d   1       3.240   3.130   0.587  0.00  0.00     0.034 A 
ATOM     17  C   UNL d   1       4.446   3.844   0.653  0.00  0.00     0.039 A 
ATOM     18  C   UNL d   1       5.618   3.289   0.149  0.00  0.00     0.068 A 
ATOM     19  C   UNL d   1       5.579   2.009  -0.399  0.00  0.00     0.039 A 
ATOM     20  C   UNL d   1       4.376   1.293  -0.453  0.00  0.00     0.034 A 
BRANCH  18  21
ATOM     21  O   UNL d   1       6.852   3.876   0.184  0.00  0.00    -0.356 OA
ATOM     22  C   UNL d   1       6.864   5.299   0.223  0.00  0.00     0.210 C 
ENDBRANCH  18  21
ENDBRANCH   3  15
TORSDOF 2
