REMARK  4 active torsions:
REMARK  status: ('A' for Active; 'I' for Inactive)
REMARK    1  A    between atoms: N_5  and  N_1 
REMARK       I    between atoms: C_3  and  N_5 
REMARK    2  A    between atoms: C_7  and  C_3 
REMARK    3  A    between atoms: C_4  and  C_6 
REMARK    4  A    between atoms: O_16  and  C_8 
ROOT
ATOM      1  N   UNL d   1       1.020   0.066  -0.006  0.00  0.00    -0.301 N 
ATOM      2  HN  UNL d   1       0.524   0.575  -0.737  1.00  0.00     0.186 HD
ATOM      3  C   UNL d   1       2.320  -0.007  -0.028  0.00  0.00     0.035 C 
ATOM      4  C   UNL d   1       3.144  -0.707   1.033  0.00  0.00     0.070 C 
ENDROOT
BRANCH   1   5
ATOM      5  N   UNL d   1       0.328  -0.541   0.996  0.00  0.00    -0.266 N 
ATOM      6  C   UNL d   1      -1.057  -0.462   1.002  0.00  0.00     0.270 C 
ATOM      7  O   UNL d   1      -1.727   0.180   0.199  0.00  0.00    -0.266 OA
ATOM      8  H   UNL d   1       0.826  -1.000   1.746  0.00  0.00     0.190 HD
BRANCH   6   9
ATOM      9  C   UNL d   1      -1.746  -1.199   2.101  0.00  0.00     0.033 A 
ATOM     10  C   UNL d   1      -2.989  -0.720   2.541  0.00  0.00     0.019 A 
ATOM     11  C   UNL d   1      -3.683  -1.382   3.557  0.00  0.00     0.025 A 
ATOM     12  C   UNL d   1      -3.141  -2.531   4.128  0.00  0.00     0.034 A 
ATOM     13  C   UNL d   1      -1.913  -3.026   3.688  0.00  0.00     0.025 A 
ATOM     14 CL   UNL d   1      -3.998  -3.354   5.372  0.00  0.00    -0.084 Cl
ATOM     15  C   UNL d   1      -1.215  -2.365   2.672  0.00  0.00     0.019 A 
ENDBRANCH   6   9
ENDBRANCH   1   5
BRANCH   3  16
ATOM     16  C   UNL d   1       3.026   0.658  -1.165  0.00  0.00     0.021 A 
ATOM     17  C   UNL d   1       2.483   1.807  -1.759  0.00  0.00     0.077 A 
ATOM     18  C   UNL d   1       3.138   2.438  -2.815  0.00  0.00     0.037 A 
ATOM     19  C   UNL d   1       4.330   1.912  -3.309  0.00  0.00     0.003 A 
ATOM     20  C   UNL d   1       4.869   0.757  -2.742  0.00  0.00     0.001 A 
ATOM     21  C   UNL d   1       4.220   0.130  -1.674  0.00  0.00     0.016 A 
BRANCH  17  22
ATOM     22  O   UNL d   1       1.304   2.373  -1.353  0.00  0.00    -0.360 OA
ATOM     23  H   UNL d   1       0.810   1.699  -0.831  0.00  0.00     0.217 HD
ENDBRANCH  17  22
ENDBRANCH   3  16
TORSDOF 4
