REMARK  4 active torsions:
REMARK  status: ('A' for Active; 'I' for Inactive)
REMARK    1  A    between atoms: S_11  and  C_2 
REMARK    2  A    between atoms: N_18  and  C_3 
REMARK    3  A    between atoms: C_8  and  C_15 
REMARK    4  A    between atoms: C_15  and  S_11 
ROOT
ATOM      1  C   UNL d   1       4.265   0.582  -0.105  0.00  0.00     0.123 C 
ENDROOT
BRANCH   1   2
ATOM      2  C   UNL d   1       5.712   0.118  -0.090  0.00  0.00    -0.011 A 
ATOM      3  C   UNL d   1       6.072  -1.240  -0.166  0.00  0.00     0.087 A 
ATOM      4  C   UNL d   1       7.422  -1.630  -0.173  0.00  0.00     0.003 A 
ATOM      5  O   UNL d   1       5.067  -2.171  -0.211  0.00  0.00    -0.325 OA
ATOM      6  C   UNL d   1       7.784  -3.082  -0.246  0.00  0.00     0.212 C 
ATOM      7  C   UNL d   1       8.426  -0.655  -0.149  0.00  0.00     0.054 A 
ATOM      8  O   UNL d   1       6.684  -3.889   0.153  0.00  0.00    -0.362 OA
ATOM      9  C   UNL d   1       5.518  -3.483  -0.550  0.00  0.00     0.345 C 
ATOM     10  C   UNL d   1       8.075   0.684  -0.072  0.00  0.00     0.117 A 
ATOM     11  C   UNL d   1       6.742   1.075  -0.025  0.00  0.00     0.053 A 
ATOM     12  F   UNL d   1       9.037   1.616  -0.052  0.00  0.00    -0.206 F 
ENDBRANCH   1   2
BRANCH   1  13
ATOM     13  S   UNL d   1       3.933   1.561  -1.606  0.00  0.00    -0.099 SA
BRANCH  13  14
ATOM     14  C   UNL d   1       2.284   2.084  -1.387  0.00  0.00     0.130 A 
ATOM     15  S   UNL d   1       1.528   3.128  -2.519  0.00  0.00    -0.027 SA
ATOM     16  C   UNL d   1       0.099   3.009  -1.576  0.00  0.00     0.159 A 
ATOM     17  N   UNL d   1       0.242   2.271  -0.496  0.00  0.00    -0.279 N 
ATOM     18  N   UNL d   1       1.514   1.730  -0.380  0.00  0.00    -0.286 N 
ATOM     19  HN  UNL d   1      -0.503   2.114   0.183  1.00  0.00     0.189 HD
ATOM     20  HN  UNL d   1       1.816   1.133   0.390  1.00  0.00     0.188 HD
BRANCH  16  21
ATOM     21  N   UNL d   1      -1.033   3.636  -1.948  0.00  0.00    -0.379 N 
ATOM     22  H   UNL d   1      -0.980   4.396  -2.615  0.00  0.00     0.158 HD
ATOM     23  H   UNL d   1      -1.772   3.715  -1.259  0.00  0.00     0.158 HD
ENDBRANCH  16  21
ENDBRANCH  13  14
ENDBRANCH   1  13
TORSDOF 4
