REMARK  2 active torsions:
REMARK  status: ('A' for Active; 'I' for Inactive)
REMARK    1  A    between atoms: C_2  and  C_1 
REMARK       I    between atoms: N_3  and  C_2 
REMARK    2  A    between atoms: C_4  and  N_3 
ROOT
ATOM      1  C   UNL d   1      -3.003   0.300   0.274  0.00  0.00     0.231 C 
ATOM      2  N   UNL d   1      -3.596   1.481  -0.129  0.00  0.00    -0.324 N 
ATOM      3  O   UNL d   1      -3.613  -0.597   0.853  0.00  0.00    -0.272 OA
ATOM      4  H   UNL d   1      -3.187   1.965  -0.920  0.00  0.00     0.169 HD
ENDROOT
BRANCH   1   5
ATOM      5  C   UNL d   1      -1.476   0.209   0.036  0.00  0.00     0.042 C 
ATOM      6  C   UNL d   1      -0.761   0.980   1.173  0.00  0.00     0.024 C 
ATOM      7  C   UNL d   1       0.767   0.848   1.047  0.00  0.00    -0.013 C 
ATOM      8  C   UNL d   1       1.162  -0.637   1.112  0.00  0.00     0.009 C 
ATOM      9  C   UNL d   1       1.214   1.427  -0.305  0.00  0.00     0.009 C 
ATOM     10  C   UNL d   1       0.492  -1.410  -0.035  0.00  0.00    -0.013 C 
ATOM     11  C   UNL d   1      -1.034  -1.279   0.101  0.00  0.00     0.024 C 
ATOM     12  C   UNL d   1       0.936  -0.818  -1.380  0.00  0.00     0.009 C 
ATOM     13  C   UNL d   1       0.536   0.663  -1.456  0.00  0.00    -0.013 C 
ATOM     14  C   UNL d   1      -0.995   0.787  -1.319  0.00  0.00     0.024 C 
ENDBRANCH   1   5
BRANCH   2  15
ATOM     15  C   UNL d   1      -4.919   1.868   0.172  0.00  0.00     0.073 A 
ATOM     16  C   UNL d   1      -5.605   2.644  -0.774  0.00  0.00     0.145 A 
ATOM     17  C   UNL d   1      -6.889   3.120  -0.541  0.00  0.00     0.086 A 
ATOM     18  F   UNL d   1      -5.018   2.913  -1.955  0.00  0.00    -0.204 F 
ATOM     19  C   UNL d   1      -7.481   2.845   0.685  0.00  0.00     0.119 A 
ATOM     20  C   UNL d   1      -6.826   2.083   1.646  0.00  0.00     0.044 A 
ATOM     21  F   UNL d   1      -8.701   3.332   0.949  0.00  0.00    -0.206 F 
ATOM     22  C   UNL d   1      -5.547   1.573   1.385  0.00  0.00     0.036 A 
ENDBRANCH   2  15
TORSDOF 2
