REMARK  5 active torsions:
REMARK  status: ('A' for Active; 'I' for Inactive)
REMARK    1  A    between atoms: C_6  and  C_1 
REMARK    2  A    between atoms: O_17  and  C_2 
REMARK    3  A    between atoms: O_14  and  C_6 
REMARK    4  A    between atoms: C_8  and  C_13 
REMARK    5  A    between atoms: N_10  and  O_14 
ROOT
ATOM      1  N   UNL d   1      -3.336   4.607  -0.269  0.00  0.00    -0.268 N 
ATOM      2  HN  UNL d   1      -4.323   4.358  -0.208  1.00  0.00     0.194 HD
ATOM      3  C   UNL d   1      -2.885   5.821  -0.334  0.00  0.00     0.127 C 
ENDROOT
BRANCH   1   4
ATOM      4  O   UNL d   1      -2.276   3.682  -0.293  0.00  0.00    -0.195 OA
BRANCH   4   5
ATOM      5  C   UNL d   1      -2.766   2.401  -0.103  0.00  0.00     0.318 C 
ATOM      6  O   UNL d   1      -3.950   2.117   0.060  0.00  0.00    -0.257 OA
BRANCH   5   7
ATOM      7  C   UNL d   1      -1.696   1.398  -0.112  0.00  0.00     0.083 A 
ATOM      8  C   UNL d   1      -1.760   0.085   0.500  0.00  0.00     0.113 A 
ATOM      9  C   UNL d   1      -0.579  -0.607   0.314  0.00  0.00     0.108 A 
ATOM     10 CL   UNL d   1      -0.066  -2.169   0.837  0.00  0.00    -0.073 Cl
ATOM     11  S   UNL d   1       0.570   0.266  -0.590  0.00  0.00    -0.086 SA
ATOM     12  C   UNL d   1      -0.475   1.603  -0.732  0.00  0.00     0.072 A 
BRANCH   8  13
ATOM     13  O   UNL d   1      -2.886  -0.281   1.174  0.00  0.00    -0.353 OA
ATOM     14  C   UNL d   1      -2.954  -1.581   1.728  0.00  0.00     0.210 C 
ENDBRANCH   8  13
ENDBRANCH   5   7
ENDBRANCH   4   5
ENDBRANCH   1   4
BRANCH   3  15
ATOM     15  C   UNL d   1      -3.822   6.968  -0.310  0.00  0.00     0.003 A 
ATOM     16  C   UNL d   1      -3.381   8.296  -0.397  0.00  0.00     0.047 A 
ATOM     17  C   UNL d   1      -4.308   9.345  -0.355  0.00  0.00     0.048 A 
ATOM     18 CL   UNL d   1      -1.714   8.720  -0.560  0.00  0.00    -0.083 Cl
ATOM     19  C   UNL d   1      -5.669   9.068  -0.230  0.00  0.00     0.035 A 
ATOM     20  C   UNL d   1      -6.118   7.753  -0.149  0.00  0.00     0.025 A 
ATOM     21 CL   UNL d   1      -6.803  10.360  -0.172  0.00  0.00    -0.084 Cl
ATOM     22  C   UNL d   1      -5.196   6.706  -0.189  0.00  0.00     0.016 A 
ENDBRANCH   3  15
TORSDOF 5
