REMARK  4 active torsions:
REMARK  status: ('A' for Active; 'I' for Inactive)
REMARK       I    between atoms: N_3  and  C_1 
REMARK    1  A    between atoms: C_4  and  C_1 
REMARK    2  A    between atoms: N_2  and  C_4 
REMARK    3  A    between atoms: C_5  and  N_3 
REMARK    4  A    between atoms: S_9  and  C_8 
ROOT
ATOM      1  C   UNL d   1       1.067   0.052  -0.006  0.00  0.00     0.250 C 
ATOM      2  N   UNL d   1       1.638  -0.600  -1.095  0.00  0.00    -0.326 N 
ATOM      3  O   UNL d   1       1.192   1.242   0.274  0.00  0.00    -0.271 OA
ATOM      4  H   UNL d   1       1.407  -1.579  -1.210  0.00  0.00     0.169 HD
ENDROOT
BRANCH   2   5
ATOM      5  C   UNL d   1       2.469  -0.038  -2.090  0.00  0.00     0.036 A 
ATOM      6  C   UNL d   1       2.882   1.299  -2.085  0.00  0.00     0.048 A 
ATOM      7  C   UNL d   1       3.690   1.821  -3.102  0.00  0.00     0.002 A 
ATOM      8  C   UNL d   1       4.094   0.974  -4.139  0.00  0.00     0.018 A 
ATOM      9  C   UNL d   1       3.700  -0.365  -4.154  0.00  0.00     0.004 A 
ATOM     10  C   UNL d   1       2.892  -0.868  -3.135  0.00  0.00     0.029 A 
BRANCH   7  11
ATOM     11  S   UNL d   1       4.244   3.525  -3.169  0.00  0.00    -0.134 SA
ATOM     12  C   UNL d   1       3.527   4.252  -1.666  0.00  0.00     0.095 C 
ENDBRANCH   7  11
ENDBRANCH   2   5
BRANCH   1  13
ATOM     13  C   UNL d   1       0.207  -0.873   0.869  0.00  0.00     0.374 C 
BRANCH  13  14
ATOM     14  N   UNL d   1      -1.243  -0.790   0.595  0.00  0.00     0.097 N 
ATOM     15  C   UNL d   1      -1.597  -1.195  -0.768  0.00  0.00     0.273 C 
ATOM     16  C   UNL d   1      -3.116  -1.257  -0.938  0.00  0.00     0.030 C 
ATOM     17  C   UNL d   1      -3.762   0.078  -0.589  0.00  0.00     0.003 C 
ATOM     18  C   UNL d   1      -3.328   0.526   0.802  0.00  0.00     0.030 C 
ATOM     19  C   UNL d   1      -1.802   0.527   0.936  0.00  0.00     0.273 C 
ENDBRANCH  13  14
ENDBRANCH   1  13
TORSDOF 4
