REMARK  3 active torsions:
REMARK  status: ('A' for Active; 'I' for Inactive)
REMARK    1  A    between atoms: C_6  and  C_1 
REMARK    2  A    between atoms: C_7  and  C_3 
REMARK    3  A    between atoms: N_8  and  C_4 
ROOT
ATOM      1  C   UNL d   1      -0.276   1.032   0.014  0.00  0.00     0.077 A 
ATOM      2  S   UNL d   1       1.319   0.375   0.002  0.00  0.00    -0.084 SA
ATOM      3  C   UNL d   1       0.764  -1.242  -0.019  0.00  0.00     0.018 A 
ATOM      4  C   UNL d   1      -1.217   0.019   0.026  0.00  0.00     0.048 A 
ATOM      5  C   UNL d   1      -0.618  -1.273   0.011  0.00  0.00     0.050 A 
ENDROOT
BRANCH   3   6
ATOM      6  C   UNL d   1       1.697  -2.382  -0.070  0.00  0.00    -0.019 A 
ATOM      7  C   UNL d   1       1.344  -3.599   0.536  0.00  0.00     0.013 A 
ATOM      8  C   UNL d   1       2.163  -4.726   0.424  0.00  0.00     0.001 A 
ATOM      9  C   UNL d   1       3.355  -4.651  -0.290  0.00  0.00     0.000 A 
ATOM     10  C   UNL d   1       3.736  -3.446  -0.875  0.00  0.00     0.001 A 
ATOM     11  C   UNL d   1       2.915  -2.320  -0.764  0.00  0.00     0.013 A 
ENDBRANCH   3   6
BRANCH   1  12
ATOM     12  C   UNL d   1      -0.383   2.486   0.009  0.00  0.00     0.164 C 
ATOM     13  O   UNL d   1       0.472   3.226  -0.493  0.00  0.00    -0.292 OA
ATOM     14  C   UNL d   1      -1.576   3.138   0.658  0.00  0.00     0.097 C 
ENDBRANCH   1  12
BRANCH   4  15
ATOM     15  N   UNL d   1      -2.559   0.146   0.020  0.00  0.00    -0.398 N 
ATOM     16  H   UNL d   1      -3.045   1.009  -0.201  0.00  0.00     0.156 HD
ATOM     17  H   UNL d   1      -3.159  -0.671  -0.098  0.00  0.00     0.156 HD
ENDBRANCH   4  15
TORSDOF 3
