REMARK  8 active torsions:
REMARK  status: ('A' for Active; 'I' for Inactive)
REMARK    1  A    between atoms: N_2  and  C_1 
REMARK    2  A    between atoms: C_3  and  C_1 
REMARK    3  A    between atoms: N_5  and  C_1 
REMARK    4  A    between atoms: C_7  and  C_1 
REMARK       I    between atoms: C_4  and  N_2 
REMARK    5  A    between atoms: C_6  and  C_4 
REMARK    6  A    between atoms: C_8  and  N_5 
REMARK    7  A    between atoms: O_18  and  C_7 
REMARK    8  A    between atoms: C_25  and  O_18 
ROOT
ATOM      1  C   UNL d   1       1.069   0.059  -0.070  0.00  0.00     0.281 C 
ENDROOT
BRANCH   1   2
ATOM      2  N   UNL d   1       0.693  -1.315  -0.438  0.00  0.00    -0.319 N 
ATOM      3  C   UNL d   1       1.131  -2.009  -1.522  0.00  0.00     0.255 C 
ATOM      4  O   UNL d   1       1.957  -1.541  -2.305  0.00  0.00    -0.268 OA
ATOM      5  H   UNL d   1      -0.230  -1.560  -0.090  0.00  0.00     0.165 HD
BRANCH   3   6
ATOM      6  C   UNL d   1       0.565  -3.385  -1.730  0.00  0.00     0.053 A 
ATOM      7  C   UNL d   1      -0.031  -4.176  -0.728  0.00  0.00     0.049 A 
ATOM      8 CL   UNL d   1      -0.310  -3.665   0.900  0.00  0.00    -0.083 Cl
ATOM      9  C   UNL d   1      -0.436  -5.489  -1.011  0.00  0.00     0.025 A 
ATOM     10  C   UNL d   1      -0.274  -6.027  -2.285  0.00  0.00     0.002 A 
ATOM     11  C   UNL d   1       0.285  -5.245  -3.292  0.00  0.00     0.001 A 
ATOM     12  C   UNL d   1       0.706  -3.941  -3.015  0.00  0.00     0.019 A 
ENDBRANCH   3   6
ENDBRANCH   1   2
BRANCH   1  13
ATOM     13  C   UNL d   1       0.615   0.385   1.412  0.00  0.00     0.436 C 
ATOM     14  F   UNL d   1      -0.159  -0.625   1.911  0.00  0.00    -0.166 F 
ATOM     15  F   UNL d   1       1.646   0.504   2.289  0.00  0.00    -0.166 F 
ATOM     16  F   UNL d   1      -0.116   1.519   1.531  0.00  0.00    -0.166 F 
ENDBRANCH   1  13
BRANCH   1  17
ATOM     17  N   UNL d   1       0.527   0.977  -1.098  0.00  0.00    -0.236 NA
ATOM     18  H   UNL d   1       1.024   0.881  -1.980  0.00  0.00     0.132 HD
BRANCH  17  19
ATOM     19  C   UNL d   1      -0.847   1.052  -1.283  0.00  0.00     0.082 A 
ATOM     20  N   UNL d   1      -1.658   0.206  -0.618  0.00  0.00    -0.351 N 
ATOM     21  C   UNL d   1      -2.997   0.318  -0.806  0.00  0.00     0.006 A 
ATOM     22  HN  UNL d   1      -1.275  -0.500   0.011  1.00  0.00     0.167 HD
ATOM     23  C   UNL d   1      -3.872  -0.673  -0.099  0.00  0.00     0.068 C 
ATOM     24  C   UNL d   1      -3.566   1.280  -1.632  0.00  0.00     0.024 A 
ATOM     25  C   UNL d   1      -2.725   2.154  -2.304  0.00  0.00     0.005 A 
ATOM     26  C   UNL d   1      -1.349   2.034  -2.132  0.00  0.00     0.042 A 
ENDBRANCH  17  19
ENDBRANCH   1  17
BRANCH   1  27
ATOM     27  C   UNL d   1       2.603   0.283   0.043  0.00  0.00     0.312 C 
ATOM     28  O   UNL d   1       3.148   1.377  -0.078  0.00  0.00    -0.260 OA
BRANCH  27  29
ATOM     29  O   UNL d   1       3.267  -0.857   0.412  0.00  0.00    -0.319 OA
BRANCH  29  30
ATOM     30  C   UNL d   1       4.667  -0.697   0.689  0.00  0.00     0.174 C 
ATOM     31  C   UNL d   1       5.477  -0.691  -0.593  0.00  0.00     0.034 C 
ENDBRANCH  29  30
ENDBRANCH  27  29
ENDBRANCH   1  27
TORSDOF 8
