REMARK  6 active torsions:
REMARK  status: ('A' for Active; 'I' for Inactive)
REMARK    1  A    between atoms: C_6  and  C_1 
REMARK    2  A    between atoms: C_15  and  C_3 
REMARK    3  A    between atoms: S_17  and  C_5 
REMARK    4  A    between atoms: S_16  and  C_9 
REMARK    5  A    between atoms: C_14  and  C_20 
REMARK       I    between atoms: N_21  and  C_14 
REMARK    6  A    between atoms: C_20  and  S_16 
ROOT
ATOM      1  C   UNL d   1       1.318  -1.238  -0.067  0.00  0.00     0.045 A 
ATOM      2  C   UNL d   1      -0.710  -0.052   0.078  0.00  0.00     0.080 A 
ATOM      3  C   UNL d   1      -0.076  -1.363   0.005  0.00  0.00     0.016 A 
ATOM      4  S   UNL d   1       1.790   0.424  -0.081  0.00  0.00    -0.079 SA
ATOM      5  C   UNL d   1       0.190   0.990   0.013  0.00  0.00     0.063 A 
ATOM      6  C   UNL d   1      -2.124   0.175   0.211  0.00  0.00     0.102 C 
ATOM      7  N   UNL d   1      -3.265   0.357   0.266  0.00  0.00    -0.191 NA
ENDROOT
BRANCH   3   8
ATOM      8  C   UNL d   1      -0.781  -2.665  -0.001  0.00  0.00    -0.023 A 
ATOM      9  C   UNL d   1      -1.958  -2.829  -0.751  0.00  0.00     0.012 A 
ATOM     10  C   UNL d   1      -2.610  -4.064  -0.815  0.00  0.00     0.001 A 
ATOM     11  C   UNL d   1      -2.066  -5.173  -0.177  0.00  0.00     0.000 A 
ATOM     12  C   UNL d   1      -0.905  -5.032   0.577  0.00  0.00     0.001 A 
ATOM     13  C   UNL d   1      -0.296  -3.778   0.704  0.00  0.00     0.012 A 
ENDBRANCH   3   8
BRANCH   5  14
ATOM     14  S   UNL d   1      -0.119   2.727   0.101  0.00  0.00    -0.126 SA
ATOM     15  C   UNL d   1      -0.976   3.040  -1.460  0.00  0.00     0.096 C 
ENDBRANCH   5  14
BRANCH   1  16
ATOM     16  C   UNL d   1       2.416  -2.231  -0.144  0.00  0.00     0.053 A 
ATOM     17  N   UNL d   1       3.501  -1.936   0.609  0.00  0.00    -0.336 N 
ATOM     18  C   UNL d   1       4.511  -2.822   0.595  0.00  0.00     0.145 A 
ATOM     19  HN  UNL d   1       3.551  -1.080   1.161  1.00  0.00     0.168 HD
ATOM     20  N   UNL d   1       4.492  -3.986  -0.068  0.00  0.00    -0.347 N 
ATOM     21  C   UNL d   1       3.392  -4.250  -0.790  0.00  0.00     0.092 A 
ATOM     22  HN  UNL d   1       5.274  -4.640  -0.025  1.00  0.00     0.167 HD
ATOM     23  C   UNL d   1       2.332  -3.385  -0.895  0.00  0.00     0.048 A 
BRANCH  18  24
ATOM     24  S   UNL d   1       6.030  -2.406   1.409  0.00  0.00    -0.085 SA
BRANCH  24  25
ATOM     25  C   UNL d   1       5.402  -1.361   2.749  0.00  0.00     0.184 C 
BRANCH  25  26
ATOM     26  C   UNL d   1       4.505  -2.151   3.684  0.00  0.00     0.225 C 
ATOM     27  O   UNL d   1       4.840  -3.177   4.264  0.00  0.00    -0.273 OA
ATOM     28  N   UNL d   1       3.258  -1.628   3.886  0.00  0.00    -0.369 N 
ATOM     29  H   UNL d   1       2.865  -0.938   3.260  0.00  0.00     0.159 HD
ATOM     30  H   UNL d   1       2.622  -2.182   4.447  0.00  0.00     0.159 HD
ENDBRANCH  25  26
ENDBRANCH  24  25
ENDBRANCH  18  24
ENDBRANCH   1  16
TORSDOF 6
