REMARK  6 active torsions:
REMARK  status: ('A' for Active; 'I' for Inactive)
REMARK    1  A    between atoms: N_5  and  C_1 
REMARK    2  A    between atoms: C_3  and  C_2 
REMARK       I    between atoms: N_7  and  C_3 
REMARK    3  A    between atoms: O_25  and  C_4 
REMARK    4  A    between atoms: N_6  and  C_11 
REMARK       I    between atoms: C_10  and  N_7 
REMARK    5  A    between atoms: C_9  and  N_16 
REMARK       I    between atoms: N_16  and  C_10 
REMARK    6  A    between atoms: O_29  and  C_12 
ROOT
ATOM      1  C   UNL d   1       2.424   2.457  -0.293  0.00  0.00     0.244 C 
ATOM      2  N   UNL d   1       3.772   2.099  -0.346  0.00  0.00    -0.175 NA
ATOM      3  C   UNL d   1       4.592   2.313  -1.423  0.00  0.00     0.305 C 
ATOM      4  N   UNL d   1       4.729   3.611  -1.840  0.00  0.00    -0.310 N 
ATOM      5  O   UNL d   1       2.028   3.551  -0.674  0.00  0.00    -0.273 OA
ATOM      6  O   UNL d   1       5.141   1.337  -1.937  0.00  0.00    -0.253 OA
ATOM      7  H   UNL d   1       3.956   1.153  -0.040  0.00  0.00     0.141 HD
ATOM      8  H   UNL d   1       3.863   4.145  -1.767  0.00  0.00     0.170 HD
ENDROOT
BRANCH   1   9
ATOM      9  C   UNL d   1       1.508   1.389   0.303  0.00  0.00     0.097 C 
ATOM     10  C   UNL d   1       2.071   0.432   1.173  0.00  0.00     0.119 C 
ATOM     11  C   UNL d   1       1.448  -0.798   1.362  0.00  0.00     0.139 C 
ATOM     12  C   UNL d   1       0.125  -0.962   0.971  0.00  0.00     0.065 C 
ATOM     13  C   UNL d   1      -0.552   0.092   0.342  0.00  0.00     0.070 C 
ATOM     14  C   UNL d   1       0.142   1.256  -0.072  0.00  0.00     0.108 C 
ATOM     15 CL   UNL d   1      -2.250  -0.197   0.167  0.00  0.00    -0.081 Cl
BRANCH  10  16
ATOM     16  O   UNL d   1       3.193   0.782   1.885  0.00  0.00    -0.352 OA
ATOM     17  C   UNL d   1       2.854   0.963   3.274  0.00  0.00     0.210 C 
ENDBRANCH  10  16
BRANCH  11  18
ATOM     18  N   UNL d   1       2.188  -1.937   1.901  0.00  0.00    -0.113 N 
ATOM     19  O   UNL d   1       3.413  -1.964   1.745  0.00  0.00    -0.532 OA
ATOM     20  O   UNL d   1       1.522  -2.828   2.452  0.00  0.00    -0.532 OA
ENDBRANCH  11  18
BRANCH  14  21
ATOM     21  O   UNL d   1      -0.355   2.308  -0.788  0.00  0.00    -0.353 OA
ATOM     22  C   UNL d   1      -1.653   2.286  -1.355  0.00  0.00     0.210 C 
ENDBRANCH  14  21
ENDBRANCH   1   9
BRANCH   4  23
ATOM     23  C   UNL d   1       5.624   3.957  -2.898  0.00  0.00     0.079 C 
ATOM     24  C   UNL d   1       5.161   4.784  -3.934  0.00  0.00     0.065 C 
ATOM     25  C   UNL d   1       5.932   5.015  -5.079  0.00  0.00     0.062 C 
ATOM     26 CL   UNL d   1       3.590   5.505  -3.863  0.00  0.00    -0.082 Cl
ATOM     27  C   UNL d   1       7.202   4.439  -5.180  0.00  0.00     0.106 C 
ATOM     28  C   UNL d   1       7.735   3.704  -4.117  0.00  0.00     0.062 C 
ATOM     29  C   UNL d   1       6.956   3.486  -2.973  0.00  0.00     0.065 C 
ATOM     30 CL   UNL d   1       7.774   2.763  -1.625  0.00  0.00    -0.082 Cl
BRANCH  27  31
ATOM     31  N   UNL d   1       7.987   4.613  -6.406  0.00  0.00    -0.116 N 
ATOM     32  O   UNL d   1       7.514   5.340  -7.294  0.00  0.00    -0.532 OA
ATOM     33  O   UNL d   1       9.070   4.018  -6.490  0.00  0.00    -0.532 OA
ENDBRANCH  27  31
ENDBRANCH   4  23
TORSDOF 6
