REMARK  5 active torsions:
REMARK  status: ('A' for Active; 'I' for Inactive)
REMARK    1  A    between atoms: C_8  and  C_3 
REMARK    2  A    between atoms: O_17  and  C_6 
REMARK       I    between atoms: N_14  and  C_8 
REMARK    3  A    between atoms: C_11  and  O_16 
REMARK    4  A    between atoms: C_19  and  N_14 
REMARK    5  A    between atoms: O_16  and  C_23 
ROOT
ATOM      1  S   UNL d   1       2.215  -1.111   0.250  0.00  0.00     0.273 S 
ATOM      2  N   UNL d   1       0.744  -1.755  -0.298  0.00  0.00    -0.269 N 
ATOM      3  C   UNL d   1       2.280   0.533  -0.223  0.00  0.00     0.181 C 
ATOM      4  C   UNL d   1      -0.347  -0.817  -0.290  0.00  0.00     0.100 A 
ATOM      5  C   UNL d   1      -0.192   0.559  -0.372  0.00  0.00     0.040 A 
ATOM      6  C   UNL d   1       1.118   1.163  -0.485  0.00  0.00     0.108 C 
ATOM      7  S   UNL d   1      -1.981  -1.282  -0.217  0.00  0.00    -0.075 SA
ATOM      8  C   UNL d   1      -1.476   1.243  -0.287  0.00  0.00    -0.033 A 
ATOM      9  C   UNL d   1      -2.518   0.330  -0.174  0.00  0.00    -0.012 A 
ATOM     10  O   UNL d   1       3.266  -1.817  -0.463  0.00  0.00    -0.200 OA
ATOM     11  O   UNL d   1       2.194  -1.183   1.699  0.00  0.00    -0.200 OA
ATOM     12  C   UNL d   1       0.515  -3.180  -0.003  0.00  0.00     0.170 C 
ATOM     13  C   UNL d   1      -1.743   2.722  -0.275  0.00  0.00     0.050 C 
ATOM     14  C   UNL d   1      -3.978   0.622  -0.024  0.00  0.00     0.057 C 
ENDROOT
BRANCH   3  15
ATOM     15  C   UNL d   1       3.572   1.266  -0.263  0.00  0.00     0.272 C 
ATOM     16  N   UNL d   1       4.729   0.521  -0.283  0.00  0.00    -0.322 N 
ATOM     17  H   UNL d   1       4.649  -0.489  -0.411  0.00  0.00     0.169 HD
ATOM     18  O   UNL d   1       3.535   2.498  -0.329  0.00  0.00    -0.266 OA
BRANCH  16  19
ATOM     19  C   UNL d   1       6.054   1.014  -0.255  0.00  0.00     0.035 A 
ATOM     20  C   UNL d   1       6.398   2.342   0.011  0.00  0.00     0.032 A 
ATOM     21  C   UNL d   1       7.741   2.754   0.018  0.00  0.00     0.039 A 
ATOM     22  C   UNL d   1       8.758   1.835  -0.225  0.00  0.00     0.078 A 
ATOM     23  C   UNL d   1       8.415   0.507  -0.489  0.00  0.00     0.039 A 
ATOM     24  C   UNL d   1       7.079   0.096  -0.495  0.00  0.00     0.032 A 
BRANCH  22  25
ATOM     25  O   UNL d   1      10.100   2.075  -0.223  0.00  0.00    -0.255 OA
BRANCH  25  26
ATOM     26  C   UNL d   1      10.555   3.373   0.115  0.00  0.00     0.530 C 
ATOM     27  F   UNL d   1      10.037   3.797   1.289  0.00  0.00    -0.144 F 
ATOM     28  F   UNL d   1      11.900   3.335   0.246  0.00  0.00    -0.144 F 
ATOM     29  F   UNL d   1      10.252   4.257  -0.858  0.00  0.00    -0.144 F 
ENDBRANCH  25  26
ENDBRANCH  22  25
ENDBRANCH  16  19
ENDBRANCH   3  15
BRANCH   6  30
ATOM     30  O   UNL d   1       1.084   2.478  -0.923  0.00  0.00    -0.358 OA
ATOM     31  H   UNL d   1       1.983   2.872  -0.846  0.00  0.00     0.217 HD
ENDBRANCH   6  30
TORSDOF 5
