REMARK  4 active torsions:
REMARK  status: ('A' for Active; 'I' for Inactive)
REMARK    1  A    between atoms: C_5  and  N_1 
REMARK       I    between atoms: C_2  and  N_4 
REMARK    2  A    between atoms: C_10  and  C_2 
REMARK    3  A    between atoms: C_3  and  C_11 
REMARK    4  A    between atoms: N_6  and  C_7 
ROOT
ATOM      1  C   UNL d   1      -2.562  -3.662  -8.106  0.00  0.00     0.253 C 
ATOM      2  N   UNL d   1      -1.944  -3.123  -6.978  0.00  0.00    -0.345 N 
ATOM      3  N   UNL d   1      -1.948  -1.822  -4.411  0.00  0.00    -0.364 N 
ATOM      4  C   UNL d   1      -1.923  -3.916  -5.742  0.00  0.00     0.146 C 
ATOM      5  C   UNL d   1      -1.342  -1.785  -6.828  0.00  0.00     0.146 C 
ATOM      6  C   UNL d   1      -1.915  -1.009  -5.631  0.00  0.00     0.144 C 
ATOM      7  C   UNL d   1      -2.545  -3.157  -4.551  0.00  0.00     0.144 C 
ATOM      8  O   UNL d   1      -3.158  -4.738  -8.074  0.00  0.00    -0.267 OA
ENDROOT
BRANCH   1   9
ATOM      9  C   UNL d   1      -2.558  -2.938  -9.407  0.00  0.00     0.033 A 
ATOM     10  C   UNL d   1      -1.429  -2.274  -9.899  0.00  0.00     0.033 A 
ATOM     11  C   UNL d   1      -1.498  -1.529 -11.089  0.00  0.00     0.048 A 
ATOM     12  C   UNL d   1      -2.681  -1.558 -11.844  0.00  0.00     0.016 A 
ATOM     13  C   UNL d   1      -3.781  -2.294 -11.405  0.00  0.00     0.002 A 
ATOM     14  C   UNL d   1      -3.723  -2.973 -10.186  0.00  0.00     0.017 A 
BRANCH  11  15
ATOM     15  C   UNL d   1      -0.334  -0.682 -11.541  0.00  0.00     0.417 C 
ATOM     16  F   UNL d   1       0.683  -0.641 -10.636  0.00  0.00    -0.166 F 
ATOM     17  F   UNL d   1       0.213  -1.115 -12.708  0.00  0.00    -0.166 F 
ATOM     18  F   UNL d   1      -0.692   0.616 -11.750  0.00  0.00    -0.166 F 
ENDBRANCH  11  15
ENDBRANCH   1   9
BRANCH   3  19
ATOM     19  C   UNL d   1      -1.197  -1.442  -3.322  0.00  0.00     0.103 A 
ATOM     20  C   UNL d   1      -1.525  -1.867  -2.031  0.00  0.00     0.051 A 
ATOM     21  C   UNL d   1      -0.802  -1.412  -0.926  0.00  0.00     0.041 A 
ATOM     22  C   UNL d   1       0.258  -0.538  -1.139  0.00  0.00     0.118 A 
ATOM     23  C   UNL d   1       0.546  -0.158  -2.435  0.00  0.00     0.125 A 
ATOM     24  N   UNL d   1      -0.163  -0.589  -3.511  0.00  0.00    -0.350 N 
ATOM     25  HN  UNL d   1       0.080  -0.273  -4.449  1.00  0.00     0.166 HD
BRANCH  22  26
ATOM     26  N   UNL d   1       1.038  -0.013  -0.030  0.00  0.00    -0.114 N 
ATOM     27  O   UNL d   1       1.983   0.743  -0.295  0.00  0.00    -0.532 OA
ATOM     28  O   UNL d   1       0.710  -0.354   1.115  0.00  0.00    -0.532 OA
ENDBRANCH  22  26
ENDBRANCH   3  19
TORSDOF 4
