REMARK  5 active torsions:
REMARK  status: ('A' for Active; 'I' for Inactive)
REMARK    1  A    between atoms: C_2  and  C_1 
REMARK       I    between atoms: N_5  and  C_1 
REMARK    2  A    between atoms: S_6  and  C_3 
REMARK    3  A    between atoms: C_4  and  C_8 
REMARK    4  A    between atoms: C_7  and  N_5 
REMARK    5  A    between atoms: C_14  and  S_6 
ROOT
ATOM      1  C   UNL d   1       0.027  -0.089   1.042  0.00  0.00     0.066 A 
ATOM      2  C   UNL d   1      -0.663  -1.276   0.795  0.00  0.00     0.090 A 
ATOM      3  N   UNL d   1      -1.143  -2.046   1.811  0.00  0.00    -0.359 N 
ATOM      4  HN  UNL d   1      -1.643  -2.914   1.619  1.00  0.00     0.166 HD
ATOM      5  C   UNL d   1       0.244   0.305   2.370  0.00  0.00     0.021 A 
ATOM      6  C   UNL d   1      -0.937  -1.629   3.081  0.00  0.00     0.089 A 
ATOM      7  C   UNL d   1      -0.241  -0.481   3.408  0.00  0.00     0.018 A 
ENDROOT
BRANCH   1   8
ATOM      8  C   UNL d   1       0.428   0.846  -0.027  0.00  0.00     0.259 C 
ATOM      9  N   UNL d   1       1.746   1.260   0.019  0.00  0.00    -0.321 N 
ATOM     10  H   UNL d   1       2.401   0.714   0.571  0.00  0.00     0.169 HD
ATOM     11  O   UNL d   1      -0.429   1.231  -0.813  0.00  0.00    -0.267 OA
BRANCH   9  12
ATOM     12  C   UNL d   1       2.303   2.371  -0.665  0.00  0.00     0.057 A 
ATOM     13  C   UNL d   1       3.697   2.564  -0.639  0.00  0.00     0.062 A 
ATOM     14  C   UNL d   1       4.284   3.674  -1.256  0.00  0.00     0.050 A 
ATOM     15 CL   UNL d   1       4.736   1.435   0.162  0.00  0.00    -0.082 Cl
ATOM     16  C   UNL d   1       3.476   4.609  -1.893  0.00  0.00     0.035 A 
ATOM     17  C   UNL d   1       2.094   4.441  -1.925  0.00  0.00     0.026 A 
ATOM     18 CL   UNL d   1       4.182   5.992  -2.634  0.00  0.00    -0.084 Cl
ATOM     19  C   UNL d   1       1.512   3.324  -1.316  0.00  0.00     0.033 A 
ENDBRANCH   9  12
ENDBRANCH   1   8
BRANCH   2  20
ATOM     20  S   UNL d   1      -0.788  -2.037  -0.811  0.00  0.00    -0.072 SA
BRANCH  20  21
ATOM     21  C   UNL d   1      -2.275  -1.343  -1.506  0.00  0.00     0.007 A 
ATOM     22  C   UNL d   1      -3.483  -1.255  -0.804  0.00  0.00     0.035 A 
ATOM     23  C   UNL d   1      -4.641  -0.752  -1.428  0.00  0.00     0.049 A 
ATOM     24  C   UNL d   1      -4.575  -0.354  -2.772  0.00  0.00     0.016 A 
ATOM     25  C   UNL d   1      -3.380  -0.450  -3.479  0.00  0.00     0.002 A 
ATOM     26  C   UNL d   1      -2.238  -0.944  -2.848  0.00  0.00     0.019 A 
BRANCH  23  27
ATOM     27  C   UNL d   1      -5.953  -0.654  -0.690  0.00  0.00     0.417 C 
ATOM     28  F   UNL d   1      -5.861  -0.937   0.639  0.00  0.00    -0.166 F 
ATOM     29  F   UNL d   1      -6.503   0.591  -0.767  0.00  0.00    -0.166 F 
ATOM     30  F   UNL d   1      -6.893  -1.504  -1.189  0.00  0.00    -0.166 F 
ENDBRANCH  23  27
ENDBRANCH  20  21
ENDBRANCH   2  20
TORSDOF 5
