REMARK  3 active torsions:
REMARK  status: ('A' for Active; 'I' for Inactive)
REMARK    1  A    between atoms: C_2  and  C_1 
REMARK       I    between atoms: N_3  and  C_1 
REMARK    2  A    between atoms: C_6  and  N_3 
REMARK    3  A    between atoms: S_10  and  C_8 
ROOT
ATOM      1  C   UNL d   1       1.024  -0.089   0.002  0.00  0.00     0.259 C 
ATOM      2  N   UNL d   1       0.259  -1.207   0.290  0.00  0.00    -0.323 N 
ATOM      3  O   UNL d   1       0.590   0.996  -0.377  0.00  0.00    -0.267 OA
ATOM      4  H   UNL d   1       0.747  -2.023   0.645  0.00  0.00     0.169 HD
ENDROOT
BRANCH   2   5
ATOM      5  C   UNL d   1      -1.142  -1.343   0.164  0.00  0.00     0.036 A 
ATOM      6  C   UNL d   1      -1.974  -0.348  -0.361  0.00  0.00     0.048 A 
ATOM      7  C   UNL d   1      -3.359  -0.528  -0.455  0.00  0.00     0.002 A 
ATOM      8  C   UNL d   1      -3.909  -1.738  -0.017  0.00  0.00     0.018 A 
ATOM      9  C   UNL d   1      -3.092  -2.745   0.498  0.00  0.00     0.004 A 
ATOM     10  C   UNL d   1      -1.712  -2.548   0.586  0.00  0.00     0.029 A 
BRANCH   7  11
ATOM     11  S   UNL d   1      -4.495   0.696  -1.106  0.00  0.00    -0.134 SA
ATOM     12  C   UNL d   1      -3.408   2.085  -1.538  0.00  0.00     0.095 C 
ENDBRANCH   7  11
ENDBRANCH   2   5
BRANCH   1  13
ATOM     13  C   UNL d   1       2.502  -0.218   0.167  0.00  0.00     0.070 A 
ATOM     14  C   UNL d   1       3.129  -1.388   0.602  0.00  0.00     0.132 A 
ATOM     15  F   UNL d   1       2.413  -2.477   0.925  0.00  0.00    -0.205 F 
ATOM     16  C   UNL d   1       4.517  -1.464   0.711  0.00  0.00     0.043 A 
ATOM     17  C   UNL d   1       5.302  -0.358   0.388  0.00  0.00     0.003 A 
ATOM     18  C   UNL d   1       4.696   0.821  -0.040  0.00  0.00     0.001 A 
ATOM     19  C   UNL d   1       3.305   0.892  -0.148  0.00  0.00     0.020 A 
ENDBRANCH   1  13
TORSDOF 3
