REMARK  3 active torsions:
REMARK  status: ('A' for Active; 'I' for Inactive)
REMARK    1  A    between atoms: C_7  and  C_1 
REMARK    2  A    between atoms: C_8  and  C_3 
REMARK       I    between atoms: N_10  and  C_7 
REMARK    3  A    between atoms: N_14  and  N_10 
ROOT
ATOM      1  C   UNL d   1      -0.163  -1.110  -0.011  0.00  0.00     0.098 A 
ATOM      2  S   UNL d   1       1.380  -0.363  -0.038  0.00  0.00    -0.064 SA
ATOM      3  C   UNL d   1       0.655   1.194  -0.033  0.00  0.00     0.086 A 
ATOM      4  N   UNL d   1      -0.663   1.173  -0.008  0.00  0.00    -0.352 N 
ATOM      5  HN  UNL d   1      -1.253   2.005   0.004  1.00  0.00     0.166 HD
ATOM      6  C   UNL d   1      -1.144  -0.131  -0.001  0.00  0.00     0.029 A 
ATOM      7  C   UNL d   1      -2.619  -0.330   0.012  0.00  0.00     0.070 C 
ENDROOT
BRANCH   1   8
ATOM      8  C   UNL d   1      -0.316  -2.555   0.010  0.00  0.00     0.274 C 
ATOM      9  O   UNL d   1      -1.401  -3.127   0.110  0.00  0.00    -0.266 OA
ATOM     10  N   UNL d   1       0.871  -3.287  -0.090  0.00  0.00    -0.289 N 
ATOM     11  H   UNL d   1       1.743  -2.795  -0.275  0.00  0.00     0.183 HD
BRANCH  10  12
ATOM     12  N   UNL d   1       0.852  -4.698  -0.143  0.00  0.00    -0.247 NA
ATOM     13  H   UNL d   1      -0.134  -4.983  -0.234  0.00  0.00     0.143 HD
ATOM     14  H   UNL d   1       1.131  -5.053   0.775  0.00  0.00     0.143 HD
ENDBRANCH  10  12
ENDBRANCH   1   8
BRANCH   3  15
ATOM     15  C   UNL d   1       1.460   2.425  -0.053  0.00  0.00     0.013 A 
ATOM     16  C   UNL d   1       0.824   3.663   0.029  0.00  0.00     0.101 A 
ATOM     17  N   UNL d   1       1.457   4.865   0.009  0.00  0.00    -0.374 N 
ATOM     18  C   UNL d   1       2.800   4.840  -0.102  0.00  0.00     0.087 A 
ATOM     19  HN  UNL d   1       0.942   5.743   0.075  1.00  0.00     0.164 HD
ATOM     20  C   UNL d   1       3.538   3.673  -0.185  0.00  0.00     0.018 A 
ATOM     21  C   UNL d   1       2.858   2.455  -0.160  0.00  0.00     0.017 A 
ENDBRANCH   3  15
TORSDOF 3
