REMARK  3 active torsions:
REMARK  status: ('A' for Active; 'I' for Inactive)
REMARK       I    between atoms: N_3  and  C_1 
REMARK       I    between atoms: N_5  and  C_1 
REMARK       I    between atoms: C_2  and  N_4 
REMARK    1  A    between atoms: O_7  and  C_2 
REMARK    2  A    between atoms: C_6  and  N_5 
REMARK    3  A    between atoms: C_14  and  O_7 
ROOT
ATOM      1  C   UNL d   1       0.620  -0.124   0.093  0.00  0.00     0.323 C 
ATOM      2  C   UNL d   1      -2.829  -0.167  -4.120  0.00  0.00     0.363 C 
ATOM      3  N   UNL d   1       0.149   0.219  -1.168  0.00  0.00    -0.332 N 
ATOM      4  N   UNL d   1      -2.220  -0.477  -2.907  0.00  0.00    -0.326 N 
ATOM      5  N   UNL d   1       0.411   0.810   1.084  0.00  0.00    -0.306 N 
ATOM      6  O   UNL d   1       1.246  -1.172   0.268  0.00  0.00    -0.247 OA
ATOM      7  O   UNL d   1      -3.125   0.975  -4.439  0.00  0.00    -0.238 OA
ATOM      8  C   UNL d   1      -0.914   1.182  -1.477  0.00  0.00     0.147 C 
ATOM      9  C   UNL d   1      -2.258   0.521  -1.825  0.00  0.00     0.148 C 
ATOM     10  C   UNL d   1      -0.177  -1.903  -2.454  0.00  0.00     0.040 C 
ATOM     11  C   UNL d   1       0.593  -0.600  -2.291  0.00  0.00     0.129 C 
ATOM     12  C   UNL d   1      -1.701  -1.799  -2.568  0.00  0.00     0.129 C 
ATOM     13  H   UNL d   1       0.400   1.769   0.757  0.00  0.00     0.171 HD
ENDROOT
BRANCH   5  14
ATOM     14  C   UNL d   1       0.936   0.651   2.394  0.00  0.00     0.075 A 
ATOM     15  C   UNL d   1       1.456   1.775   3.048  0.00  0.00     0.146 A 
ATOM     16  C   UNL d   1       2.108   1.665   4.271  0.00  0.00     0.086 A 
ATOM     17  F   UNL d   1       1.384   2.978   2.454  0.00  0.00    -0.204 F 
ATOM     18  C   UNL d   1       2.208   0.414   4.867  0.00  0.00     0.119 A 
ATOM     19  C   UNL d   1       1.644  -0.709   4.272  0.00  0.00     0.044 A 
ATOM     20  F   UNL d   1       2.863   0.286   6.028  0.00  0.00    -0.206 F 
ATOM     21  C   UNL d   1       1.003  -0.591   3.036  0.00  0.00     0.036 A 
ENDBRANCH   5  14
BRANCH   2  22
ATOM     22  O   UNL d   1      -3.099  -1.267  -4.876  0.00  0.00    -0.294 OA
BRANCH  22  23
ATOM     23  C   UNL d   1      -3.800  -1.149  -6.149  0.00  0.00     0.061 C 
ATOM     24  C   UNL d   1      -2.936  -0.398  -7.167  0.00  0.00     0.046 C 
ATOM     25  C   UNL d   1      -4.007  -2.593  -6.641  0.00  0.00     0.046 C 
ATOM     26  C   UNL d   1      -5.187  -0.505  -5.998  0.00  0.00     0.046 C 
ENDBRANCH  22  23
ENDBRANCH   2  22
TORSDOF 3
