REMARK  3 active torsions:
REMARK  status: ('A' for Active; 'I' for Inactive)
REMARK    1  A    between atoms: C_3  and  C_1 
REMARK    2  A    between atoms: O_8  and  C_2 
REMARK    3  A    between atoms: C_7  and  O_8 
ROOT
ATOM      1  C   UNL d   1      -2.266   1.408   1.127  0.00  0.00     0.100 A 
ATOM      2  C   UNL d   1      -3.497   0.778   1.065  0.00  0.00     0.163 A 
ATOM      3  N   UNL d   1      -4.464   0.930   2.006  0.00  0.00    -0.344 N 
ATOM      4  HN  UNL d   1      -5.372   0.475   1.910  1.00  0.00     0.167 HD
ATOM      5  C   UNL d   1      -2.003   2.212   2.254  0.00  0.00     0.045 A 
ATOM      6  C   UNL d   1      -4.177   1.710   3.077  0.00  0.00     0.114 A 
ATOM      7  C   UNL d   1      -2.969   2.360   3.242  0.00  0.00     0.050 A 
ATOM      8 CL   UNL d   1      -2.663   3.324   4.628  0.00  0.00    -0.083 Cl
ENDROOT
BRANCH   2   9
ATOM      9  O   UNL d   1      -3.797   0.006  -0.043  0.00  0.00    -0.292 OA
BRANCH   9  10
ATOM     10  C   UNL d   1      -4.529  -1.143   0.138  0.00  0.00     0.084 A 
ATOM     11  C   UNL d   1      -5.383  -1.526  -0.887  0.00  0.00    -0.017 A 
ATOM     12  C   UNL d   1      -6.095  -2.731  -0.823  0.00  0.00    -0.043 A 
ATOM     13  C   UNL d   1      -5.632  -0.813  -2.178  0.00  0.00     0.042 C 
ATOM     14  C   UNL d   1      -6.899  -2.949  -2.068  0.00  0.00     0.040 C 
ATOM     15  C   UNL d   1      -5.964  -3.590   0.265  0.00  0.00    -0.055 A 
ATOM     16  C   UNL d   1      -6.805  -1.595  -2.783  0.00  0.00     0.009 C 
ATOM     17  C   UNL d   1      -5.102  -3.204   1.300  0.00  0.00     0.010 A 
ATOM     18  C   UNL d   1      -6.707  -4.890   0.330  0.00  0.00     0.049 C 
ATOM     19  C   UNL d   1      -4.382  -2.000   1.232  0.00  0.00     0.038 A 
ENDBRANCH   9  10
ENDBRANCH   2   9
BRANCH   1  20
ATOM     20  C   UNL d   1      -1.215   1.262   0.072  0.00  0.00     0.421 C 
ATOM     21  F   UNL d   1      -1.565   0.547  -1.028  0.00  0.00    -0.166 F 
ATOM     22  F   UNL d   1      -0.799   2.472  -0.402  0.00  0.00    -0.166 F 
ATOM     23  F   UNL d   1      -0.095   0.659   0.562  0.00  0.00    -0.166 F 
ENDBRANCH   1  20
TORSDOF 3
