REMARK  6 active torsions:
REMARK  status: ('A' for Active; 'I' for Inactive)
REMARK    1  A    between atoms: C_10  and  C_1 
REMARK    2  A    between atoms: C_22  and  C_6 
REMARK    3  A    between atoms: S_16  and  C_9 
REMARK    4  A    between atoms: C_11  and  N_13 
REMARK    5  A    between atoms: C_12  and  C_24 
REMARK       I    between atoms: N_13  and  C_12 
REMARK    6  A    between atoms: C_24  and  S_16 
ROOT
ATOM      1  N   UNL d   1      -1.156   3.217  -0.684  0.00  0.00    -0.334 N 
ATOM      2  HN  UNL d   1      -0.411   3.104  -1.372  1.00  0.00     0.168 HD
ATOM      3  C   UNL d   1      -1.806   4.376  -0.529  0.00  0.00     0.145 A 
ATOM      4  C   UNL d   1      -1.542   2.208   0.122  0.00  0.00     0.071 A 
ATOM      5  N   UNL d   1      -2.790   4.607   0.354  0.00  0.00    -0.347 N 
ATOM      6  HN  UNL d   1      -3.255   5.512   0.418  1.00  0.00     0.167 HD
ATOM      7  C   UNL d   1      -2.517   2.350   1.087  0.00  0.00     0.049 A 
ATOM      8  C   UNL d   1      -3.126   3.578   1.150  0.00  0.00     0.092 A 
ENDROOT
BRANCH   3   9
ATOM      9  S   UNL d   1      -1.095   5.767  -1.363  0.00  0.00    -0.085 SA
BRANCH   9  10
ATOM     10  C   UNL d   1      -1.128   6.942   0.015  0.00  0.00     0.185 C 
BRANCH  10  11
ATOM     11  C   UNL d   1      -0.302   6.570   1.246  0.00  0.00     0.231 C 
ATOM     12  N   UNL d   1       0.502   5.448   1.165  0.00  0.00    -0.326 N 
ATOM     13  H   UNL d   1       0.580   5.010   0.252  0.00  0.00     0.169 HD
ATOM     14  O   UNL d   1      -0.356   7.317   2.224  0.00  0.00    -0.272 OA
BRANCH  12  15
ATOM     15  C   UNL d   1       1.347   4.944   2.181  0.00  0.00     0.037 A 
ATOM     16  C   UNL d   1       1.292   5.372   3.511  0.00  0.00     0.053 A 
ATOM     17  C   UNL d   1       2.234   4.921   4.438  0.00  0.00     0.037 A 
ATOM     18 CL   UNL d   1       2.176   5.498   6.059  0.00  0.00    -0.084 Cl
ATOM     19  C   UNL d   1       3.228   4.026   4.062  0.00  0.00     0.048 A 
ATOM     20  C   UNL d   1       3.246   3.550   2.755  0.00  0.00     0.037 A 
ATOM     21  C   UNL d   1       2.304   3.988   1.819  0.00  0.00     0.053 A 
ATOM     22 CL   UNL d   1       4.466   2.434   2.277  0.00  0.00    -0.084 Cl
ENDBRANCH  12  15
ENDBRANCH  10  11
ENDBRANCH   9  10
ENDBRANCH   3   9
BRANCH   4  23
ATOM     23  C   UNL d   1      -0.854   0.955  -0.117  0.00  0.00     0.127 A 
ATOM     24  C   UNL d   1       0.066   0.515  -1.038  0.00  0.00     0.074 A 
ATOM     25  C   UNL d   1       0.264  -0.860  -0.740  0.00  0.00     0.068 A 
ATOM     26  N   UNL d   1      -0.464  -1.203   0.337  0.00  0.00    -0.260 N 
ATOM     27  O   UNL d   1      -1.160  -0.077   0.714  0.00  0.00    -0.235 OA
ATOM     28  HN  UNL d   1      -0.495  -2.119   0.786  1.00  0.00     0.195 HD
BRANCH  25  29
ATOM     29  C   UNL d   1       1.095  -1.833  -1.445  0.00  0.00    -0.007 A 
ATOM     30  C   UNL d   1       1.563  -2.980  -0.783  0.00  0.00     0.014 A 
ATOM     31  C   UNL d   1       2.347  -3.919  -1.459  0.00  0.00     0.001 A 
ATOM     32  C   UNL d   1       2.670  -3.723  -2.797  0.00  0.00     0.000 A 
ATOM     33  C   UNL d   1       2.208  -2.593  -3.468  0.00  0.00     0.001 A 
ATOM     34  C   UNL d   1       1.425  -1.651  -2.795  0.00  0.00     0.014 A 
ENDBRANCH  25  29
ENDBRANCH   4  23
TORSDOF 6
