REMARK  2 active torsions:
REMARK  status: ('A' for Active; 'I' for Inactive)
REMARK    1  A    between atoms: C_9  and  N_1 
REMARK    2  A    between atoms: C_8  and  C_5 
ROOT
ATOM      1  N   UNL d   1       2.316  -0.662  -0.017  0.00  0.00    -0.220 N 
ATOM      2  N   UNL d   1       2.293   0.712   0.070  0.00  0.00    -0.289 N 
ATOM      3  HN  UNL d   1       3.170   1.229   0.142  1.00  0.00     0.188 HD
ATOM      4  C   UNL d   1       1.162  -1.447   0.049  0.00  0.00     0.278 C 
ATOM      5  C   UNL d   1       1.165   1.357   0.062  0.00  0.00     0.070 C 
ATOM      6  C   UNL d   1      -0.123  -0.724   0.007  0.00  0.00     0.046 A 
ATOM      7  C   UNL d   1      -0.139   0.664  -0.067  0.00  0.00     0.009 A 
ATOM      8  O   UNL d   1       1.111  -2.674   0.132  0.00  0.00    -0.265 OA
ATOM      9  C   UNL d   1      -1.325  -1.451  -0.025  0.00  0.00     0.018 A 
ATOM     10  C   UNL d   1      -1.362   1.317  -0.280  0.00  0.00     0.015 A 
ATOM     11  C   UNL d   1      -2.559   0.594  -0.313  0.00  0.00     0.001 A 
ATOM     12  C   UNL d   1      -2.542  -0.789  -0.166  0.00  0.00     0.001 A 
ENDROOT
BRANCH   5  13
ATOM     13  C   UNL d   1       1.258   2.847   0.181  0.00  0.00    -0.007 A 
ATOM     14  C   UNL d   1       2.282   3.507  -0.516  0.00  0.00     0.015 A 
ATOM     15  C   UNL d   1       2.402   4.897  -0.445  0.00  0.00     0.024 A 
ATOM     16  C   UNL d   1       1.500   5.631   0.323  0.00  0.00     0.034 A 
ATOM     17  C   UNL d   1       0.502   4.982   1.049  0.00  0.00     0.024 A 
ATOM     18 CL   UNL d   1       1.623   7.345   0.382  0.00  0.00    -0.084 Cl
ATOM     19  C   UNL d   1       0.397   3.588   0.999  0.00  0.00     0.015 A 
ENDBRANCH   5  13
BRANCH   1  20
ATOM     20  C   UNL d   1       3.637  -1.215  -0.149  0.00  0.00     0.060 A 
ATOM     21  C   UNL d   1       3.857  -2.501  -0.667  0.00  0.00     0.031 A 
ATOM     22  C   UNL d   1       5.151  -3.017  -0.809  0.00  0.00     0.002 A 
ATOM     23  C   UNL d   1       6.252  -2.258  -0.427  0.00  0.00     0.000 A 
ATOM     24  C   UNL d   1       6.061  -0.978   0.084  0.00  0.00     0.002 A 
ATOM     25  C   UNL d   1       4.767  -0.458   0.209  0.00  0.00     0.031 A 
ENDBRANCH   1  20
TORSDOF 2
