REMARK  3 active torsions:
REMARK  status: ('A' for Active; 'I' for Inactive)
REMARK    1  A    between atoms: C_12  and  C_7 
REMARK    2  A    between atoms: O_17  and  C_9 
REMARK    3  A    between atoms: O_18  and  C_13 
ROOT
ATOM      1  C   UNL d   1       3.254   1.233  -0.123  0.00  0.00     0.101 A 
ATOM      2  N   UNL d   1       2.519   3.474  -0.645  0.00  0.00    -0.299 N 
ATOM      3  N   UNL d   1       4.693   2.856  -1.175  0.00  0.00    -0.299 N 
ATOM      4  C   UNL d   1       2.181   2.262  -0.105  0.00  0.00     0.263 A 
ATOM      5  C   UNL d   1       4.593   1.589  -0.660  0.00  0.00     0.263 A 
ATOM      6  C   UNL d   1       3.720   3.805  -1.188  0.00  0.00     0.181 A 
ATOM      7  C   UNL d   1       2.925   0.016   0.352  0.00  0.00     0.034 C 
ATOM      8  S   UNL d   1       3.989   5.311  -1.836  0.00  0.00    -0.040 SA
ATOM      9  O   UNL d   1       1.057   2.067   0.348  0.00  0.00    -0.267 OA
ATOM     10  O   UNL d   1       5.568   0.847  -0.660  0.00  0.00    -0.267 OA
ATOM     11  H   UNL d   1       1.789   4.175  -0.642  0.00  0.00     0.171 HD
ATOM     12  H   UNL d   1       5.599   3.098  -1.555  0.00  0.00     0.171 HD
ENDROOT
BRANCH   7  13
ATOM     13  C   UNL d   1       3.785  -1.167   0.426  0.00  0.00    -0.032 A 
ATOM     14  C   UNL d   1       3.866  -2.043  -0.665  0.00  0.00     0.051 A 
ATOM     15  C   UNL d   1       4.630  -3.211  -0.582  0.00  0.00     0.102 A 
ATOM     16  C   UNL d   1       5.328  -3.477   0.606  0.00  0.00     0.099 A 
ATOM     17  C   UNL d   1       5.269  -2.599   1.689  0.00  0.00     0.040 A 
ATOM     18  C   UNL d   1       4.492  -1.444   1.599  0.00  0.00     0.014 A 
BRANCH  15  19
ATOM     19  O   UNL d   1       4.744  -4.146  -1.578  0.00  0.00    -0.353 OA
ATOM     20  C   UNL d   1       4.045  -3.896  -2.789  0.00  0.00     0.210 C 
ENDBRANCH  15  19
BRANCH  16  21
ATOM     21  O   UNL d   1       6.072  -4.623   0.703  0.00  0.00    -0.358 OA
ATOM     22  H   UNL d   1       6.487  -4.657   1.579  0.00  0.00     0.217 HD
ENDBRANCH  16  21
ENDBRANCH   7  13
TORSDOF 3
