REMARK  6 active torsions:
REMARK  status: ('A' for Active; 'I' for Inactive)
REMARK    1  A    between atoms: C_20  and  N_3 
REMARK    2  A    between atoms: C_4  and  O_15 
REMARK    3  A    between atoms: C_10  and  C_5 
REMARK    4  A    between atoms: C_17  and  N_6 
REMARK    5  A    between atoms: O_15  and  C_10 
REMARK    6  A    between atoms: N_14  and  C_18 
ROOT
ATOM      1  O   UNL d   1      -3.301   0.921   0.169  0.00  0.00    -0.254 OA
ENDROOT
BRANCH   1   2
ATOM      2  C   UNL d   1      -2.980   2.175  -0.152  0.00  0.00     0.175 C 
ATOM      3  N   UNL d   1      -3.502   3.285   0.526  0.00  0.00    -0.234 N 
ATOM      4  N   UNL d   1      -2.927   4.442   0.085  0.00  0.00    -0.296 N 
ATOM      5  C   UNL d   1      -2.053   4.075  -0.849  0.00  0.00     0.026 C 
ATOM      6  HN  UNL d   1      -3.126   5.390   0.405  1.00  0.00     0.187 HD
ATOM      7  C   UNL d   1      -2.136   2.700  -1.116  0.00  0.00     0.084 C 
ATOM      8  C   UNL d   1      -1.112   5.068  -1.419  0.00  0.00     0.070 C 
BRANCH   3   9
ATOM      9  C   UNL d   1      -4.446   3.369   1.601  0.00  0.00     0.059 A 
ATOM     10  C   UNL d   1      -4.966   2.237   2.233  0.00  0.00     0.034 A 
ATOM     11  C   UNL d   1      -5.856   2.374   3.313  0.00  0.00     0.038 A 
ATOM     12  C   UNL d   1      -6.239   3.646   3.745  0.00  0.00     0.103 A 
ATOM     13  C   UNL d   1      -5.741   4.791   3.114  0.00  0.00     0.038 A 
ATOM     14  C   UNL d   1      -4.847   4.646   2.049  0.00  0.00     0.034 A 
BRANCH  12  15
ATOM     15  N   UNL d   1      -7.164   3.786   4.878  0.00  0.00    -0.116 N 
ATOM     16  O   UNL d   1      -7.574   2.744   5.415  0.00  0.00    -0.532 OA
ATOM     17  O   UNL d   1      -7.477   4.928   5.233  0.00  0.00    -0.532 OA
ENDBRANCH  12  15
ENDBRANCH   3   9
ENDBRANCH   1   2
BRANCH   1  18
ATOM     18  C   UNL d   1      -2.439  -0.096  -0.136  0.00  0.00     0.320 C 
ATOM     19  O   UNL d   1      -1.377   0.026  -0.739  0.00  0.00    -0.257 OA
BRANCH  18  20
ATOM     20  C   UNL d   1      -2.880  -1.403   0.372  0.00  0.00     0.149 A 
ATOM     21  N   UNL d   1      -3.994  -1.613   1.113  0.00  0.00    -0.272 N 
ATOM     22  N   UNL d   1      -3.955  -2.959   1.331  0.00  0.00    -0.196 N 
ATOM     23  HN  UNL d   1      -4.688  -0.935   1.428  1.00  0.00     0.189 HD
ATOM     24  N   UNL d   1      -2.880  -3.606   0.828  0.00  0.00    -0.281 N 
ATOM     25  C   UNL d   1      -2.224  -2.648   0.179  0.00  0.00     0.058 A 
ATOM     26  HN  UNL d   1      -2.632  -4.591   0.923  1.00  0.00     0.189 HD
ATOM     27  C   UNL d   1      -1.026  -3.022  -0.606  0.00  0.00     0.072 C 
BRANCH  22  28
ATOM     28  C   UNL d   1      -4.985  -3.699   1.968  0.00  0.00     0.074 A 
ATOM     29  C   UNL d   1      -6.169  -3.088   2.391  0.00  0.00     0.033 A 
ATOM     30  C   UNL d   1      -7.190  -3.876   2.937  0.00  0.00     0.002 A 
ATOM     31  C   UNL d   1      -7.026  -5.258   3.070  0.00  0.00     0.000 A 
ATOM     32  C   UNL d   1      -5.838  -5.863   2.675  0.00  0.00     0.002 A 
ATOM     33  C   UNL d   1      -4.819  -5.087   2.127  0.00  0.00     0.033 A 
ENDBRANCH  22  28
ENDBRANCH  18  20
ENDBRANCH   1  18
TORSDOF 6
