REMARK  6 active torsions:
REMARK  status: ('A' for Active; 'I' for Inactive)
REMARK    1  A    between atoms: C_4  and  C_1 
REMARK    2  A    between atoms: O_10  and  C_4 
REMARK    3  A    between atoms: C_9  and  C_5 
REMARK    4  A    between atoms: C_6  and  C_9 
REMARK    5  A    between atoms: C_14  and  O_10 
REMARK    6  A    between atoms: O_22  and  C_17 
ROOT
ATOM      1  C   UNL d   1       1.274   0.760  -0.224  0.00  0.00     0.116 A 
ATOM      2  N   UNL d   1       1.388  -0.586   0.122  0.00  0.00    -0.348 N 
ATOM      3  HN  UNL d   1       2.234  -1.024   0.485  1.00  0.00     0.166 HD
ATOM      4  C   UNL d   1       0.247  -1.214  -0.088  0.00  0.00     0.055 A 
ATOM      5  C   UNL d   1       0.012   1.129  -0.659  0.00  0.00     0.087 A 
ATOM      6  S   UNL d   1      -1.038  -0.217  -0.656  0.00  0.00    -0.086 SA
ENDROOT
BRANCH   1   7
ATOM      7  C   UNL d   1       2.391   1.706  -0.178  0.00  0.00     0.315 C 
ATOM      8  O   UNL d   1       2.363   2.772  -0.788  0.00  0.00    -0.257 OA
BRANCH   7   9
ATOM      9  O   UNL d   1       3.446   1.253   0.620  0.00  0.00    -0.274 OA
BRANCH   9  10
ATOM     10  C   UNL d   1       4.651   1.977   0.748  0.00  0.00     0.079 A 
ATOM     11  C   UNL d   1       4.745   3.364   0.641  0.00  0.00     0.040 A 
ATOM     12  C   UNL d   1       5.997   3.985   0.714  0.00  0.00     0.039 A 
ATOM     13  C   UNL d   1       7.149   3.225   0.920  0.00  0.00     0.068 A 
ATOM     14  C   UNL d   1       7.034   1.844   1.102  0.00  0.00     0.039 A 
ATOM     15  C   UNL d   1       5.787   1.217   1.018  0.00  0.00     0.040 A 
BRANCH  13  16
ATOM     16  O   UNL d   1       8.427   3.710   0.967  0.00  0.00    -0.356 OA
ATOM     17  C   UNL d   1       8.604   5.075   0.605  0.00  0.00     0.210 C 
ENDBRANCH  13  16
ENDBRANCH   9  10
ENDBRANCH   7   9
ENDBRANCH   1   7
BRANCH   4  18
ATOM     18  C   UNL d   1       0.038  -2.695   0.067  0.00  0.00     0.107 C 
BRANCH  18  19
ATOM     19  C   UNL d   1      -0.200  -3.136   1.497  0.00  0.00    -0.009 A 
ATOM     20  C   UNL d   1      -1.499  -3.203   2.041  0.00  0.00     0.042 A 
ATOM     21 CL   UNL d   1      -2.910  -2.801   1.124  0.00  0.00    -0.084 Cl
ATOM     22  C   UNL d   1      -1.714  -3.623   3.359  0.00  0.00     0.024 A 
ATOM     23  C   UNL d   1      -0.641  -3.988   4.164  0.00  0.00     0.003 A 
ATOM     24  C   UNL d   1       0.651  -3.920   3.654  0.00  0.00     0.024 A 
ATOM     25  C   UNL d   1       0.873  -3.491   2.339  0.00  0.00     0.042 A 
ATOM     26 CL   UNL d   1       2.520  -3.449   1.810  0.00  0.00    -0.084 Cl
ENDBRANCH  18  19
ENDBRANCH   4  18
TORSDOF 6
