REMARK  8 active torsions:
REMARK  status: ('A' for Active; 'I' for Inactive)
REMARK    1  A    between atoms: S_2  and  C_1 
REMARK    2  A    between atoms: C_12  and  S_2 
REMARK    3  A    between atoms: C_7  and  C_3 
REMARK    4  A    between atoms: N_13  and  C_4 
REMARK    5  A    between atoms: O_10  and  C_7 
REMARK    6  A    between atoms: C_16  and  O_10 
REMARK    7  A    between atoms: C_11  and  C_16 
REMARK    8  A    between atoms: C_14  and  C_11 
ROOT
ATOM      1  C   UNL d   1      -0.644  -1.193  -0.028  0.00  0.00     0.093 A 
ATOM      2  C   UNL d   1      -0.230   1.120  -0.043  0.00  0.00     0.107 A 
ATOM      3  C   UNL d   1      -1.199   0.123   0.026  0.00  0.00     0.071 A 
ATOM      4  S   UNL d   1       1.340   0.431  -0.164  0.00  0.00    -0.092 SA
ATOM      5  C   UNL d   1       0.733  -1.162  -0.109  0.00  0.00     0.076 A 
ENDROOT
BRANCH   2   6
ATOM      6  C   UNL d   1      -0.434   2.564   0.003  0.00  0.00     0.303 C 
ATOM      7  O   UNL d   1      -1.518   3.103   0.200  0.00  0.00    -0.259 OA
BRANCH   6   8
ATOM      8  O   UNL d   1       0.714   3.259  -0.260  0.00  0.00    -0.309 OA
BRANCH   8   9
ATOM      9  C   UNL d   1       0.609   4.686  -0.344  0.00  0.00     0.263 C 
BRANCH   9  10
ATOM     10  C   UNL d   1       1.308   5.398   0.812  0.00  0.00     0.183 C 
ATOM     11  O   UNL d   1       1.825   4.793   1.749  0.00  0.00    -0.290 OA
BRANCH  10  12
ATOM     12  C   UNL d   1       1.335   6.897   0.814  0.00  0.00     0.012 A 
ATOM     13  C   UNL d   1       1.522   7.558   2.038  0.00  0.00     0.017 A 
ATOM     14  C   UNL d   1       1.557   8.956   2.096  0.00  0.00     0.025 A 
ATOM     15  C   UNL d   1       1.418   9.699   0.927  0.00  0.00     0.034 A 
ATOM     16  C   UNL d   1       1.243   9.056  -0.297  0.00  0.00     0.025 A 
ATOM     17 CL   UNL d   1       1.469  11.417   0.992  0.00  0.00    -0.084 Cl
ATOM     18  C   UNL d   1       1.198   7.656  -0.356  0.00  0.00     0.017 A 
ENDBRANCH  10  12
ENDBRANCH   9  10
ENDBRANCH   8   9
ENDBRANCH   6   8
ENDBRANCH   2   6
BRANCH   3  19
ATOM     19  N   UNL d   1      -2.526   0.387   0.140  0.00  0.00    -0.397 N 
ATOM     20  H   UNL d   1      -2.812   1.354   0.326  0.00  0.00     0.156 HD
ATOM     21  H   UNL d   1      -3.108  -0.254   0.686  0.00  0.00     0.156 HD
ENDBRANCH   3  19
BRANCH   1  22
ATOM     22  S   UNL d   1      -1.546  -2.677   0.042  0.00  0.00     0.181 S 
ATOM     23  O   UNL d   1      -0.549  -3.724  -0.078  0.00  0.00    -0.222 OA
ATOM     24  O   UNL d   1      -2.355  -2.524   1.237  0.00  0.00    -0.222 OA
BRANCH  22  25
ATOM     25  C   UNL d   1      -2.623  -2.706  -1.391  0.00  0.00     0.105 C 
ATOM     26  C   UNL d   1      -1.857  -2.585  -2.702  0.00  0.00     0.026 C 
ATOM     27  C   UNL d   1      -3.450  -3.993  -1.383  0.00  0.00     0.026 C 
ENDBRANCH  22  25
ENDBRANCH   1  22
TORSDOF 8
