REMARK  6 active torsions:
REMARK  status: ('A' for Active; 'I' for Inactive)
REMARK    1  A    between atoms: C_7  and  C_1 
REMARK    2  A    between atoms: C_3  and  C_2 
REMARK    3  A    between atoms: N_13  and  C_6 
REMARK    4  A    between atoms: O_22  and  C_7 
REMARK       I    between atoms: C_10  and  N_12 
REMARK    5  A    between atoms: C_14  and  C_10 
REMARK    6  A    between atoms: N_12  and  N_13 
ROOT
ATOM      1  C   UNL d   1      -0.051  -1.430   0.016  0.00  0.00     0.086 A 
ATOM      2  C   UNL d   1       1.151  -0.752   0.055  0.00  0.00     0.136 A 
ATOM      3  N   UNL d   1       1.182   0.615   0.175  0.00  0.00    -0.327 N 
ATOM      4  HN  UNL d   1       2.075   1.107   0.225  1.00  0.00     0.168 HD
ATOM      5  C   UNL d   1       0.030   1.298   0.226  0.00  0.00     0.176 A 
ATOM      6  N   UNL d   1      -1.172   0.708   0.134  0.00  0.00    -0.340 N 
ATOM      7  HN  UNL d   1      -2.036   1.251   0.143  1.00  0.00     0.167 HD
ATOM      8  C   UNL d   1      -1.183  -0.639   0.028  0.00  0.00     0.110 A 
ENDROOT
BRANCH   5   9
ATOM      9  N   UNL d   1       0.121   2.681   0.428  0.00  0.00    -0.172 NA
ATOM     10  H   UNL d   1       1.054   2.994   0.151  0.00  0.00     0.156 HD
BRANCH   9  11
ATOM     11  N   UNL d   1      -0.914   3.421  -0.172  0.00  0.00    -0.280 N 
ATOM     12  C   UNL d   1      -0.597   4.697  -0.601  0.00  0.00     0.266 C 
ATOM     13  O   UNL d   1       0.550   5.141  -0.597  0.00  0.00    -0.266 OA
ATOM     14  H   UNL d   1      -1.857   3.115   0.053  0.00  0.00     0.184 HD
BRANCH  12  15
ATOM     15  C   UNL d   1      -1.727   5.538  -1.062  0.00  0.00     0.033 A 
ATOM     16  C   UNL d   1      -1.625   6.932  -0.923  0.00  0.00     0.020 A 
ATOM     17  C   UNL d   1      -2.649   7.764  -1.383  0.00  0.00     0.043 A 
ATOM     18  C   UNL d   1      -3.758   7.203  -2.003  0.00  0.00     0.116 A 
ATOM     19  C   UNL d   1      -3.871   5.824  -2.155  0.00  0.00     0.043 A 
ATOM     20  F   UNL d   1      -4.733   7.997  -2.462  0.00  0.00    -0.206 F 
ATOM     21  C   UNL d   1      -2.856   4.987  -1.689  0.00  0.00     0.020 A 
ENDBRANCH  12  15
ENDBRANCH   9  11
ENDBRANCH   5   9
BRANCH   2  22
ATOM     22  C   UNL d   1       2.501  -1.427  -0.078  0.00  0.00     0.433 C 
ATOM     23  F   UNL d   1       2.481  -2.756  -0.376  0.00  0.00    -0.165 F 
ATOM     24  F   UNL d   1       3.250  -0.871  -1.079  0.00  0.00    -0.165 F 
ATOM     25  F   UNL d   1       3.257  -1.311   1.051  0.00  0.00    -0.165 F 
ENDBRANCH   2  22
BRANCH   1  26
ATOM     26  C   UNL d   1      -0.252  -2.879  -0.067  0.00  0.00     0.296 C 
ATOM     27  O   UNL d   1      -1.091  -3.384  -0.794  0.00  0.00    -0.259 OA
BRANCH  26  28
ATOM     28  O   UNL d   1       0.521  -3.511   0.842  0.00  0.00    -0.322 OA
ATOM     29  C   UNL d   1       0.417  -4.938   0.808  0.00  0.00     0.213 C 
ENDBRANCH  26  28
ENDBRANCH   1  26
TORSDOF 6
