REMARK  5 active torsions:
REMARK  status: ('A' for Active; 'I' for Inactive)
REMARK    1  A    between atoms: C_6  and  C_1 
REMARK    2  A    between atoms: S_9  and  C_7 
REMARK    3  A    between atoms: C_12  and  S_9 
REMARK    4  A    between atoms: C_10  and  C_12 
REMARK    5  A    between atoms: C_11  and  C_10 
ROOT
ATOM      1  C   UNL d   1       2.385  -3.625   4.006  0.00  0.00     0.207 A 
ATOM      2  N   UNL d   1       2.727  -2.752   2.977  0.00  0.00    -0.317 N 
ATOM      3  HN  UNL d   1       3.509  -2.098   2.933  1.00  0.00     0.169 HD
ATOM      4  N   UNL d   1       1.272  -4.352   3.750  0.00  0.00    -0.280 N 
ATOM      5  HN  UNL d   1       0.806  -5.043   4.338  1.00  0.00     0.188 HD
ATOM      6  C   UNL d   1       1.801  -2.974   2.080  0.00  0.00     0.161 A 
ATOM      7  N   UNL d   1       0.941  -3.928   2.517  0.00  0.00    -0.278 N 
ATOM      8  H   UNL d   1       0.146  -4.331   2.034  0.00  0.00     0.189 HD
ENDROOT
BRANCH   6   9
ATOM      9  S   UNL d   1       1.633  -2.261   0.525  0.00  0.00    -0.085 SA
BRANCH   9  10
ATOM     10  C   UNL d   1       3.376  -1.915   0.137  0.00  0.00     0.166 C 
BRANCH  10  11
ATOM     11  C   UNL d   1       4.220  -3.180   0.142  0.00  0.00     0.169 C 
ATOM     12  O   UNL d   1       3.762  -4.303  -0.065  0.00  0.00    -0.291 OA
BRANCH  11  13
ATOM     13  C   UNL d   1       5.683  -3.050   0.375  0.00  0.00     0.011 A 
ATOM     14  C   UNL d   1       6.358  -4.135   0.952  0.00  0.00     0.017 A 
ATOM     15  C   UNL d   1       7.742  -4.087   1.135  0.00  0.00     0.025 A 
ATOM     16  C   UNL d   1       8.453  -2.959   0.733  0.00  0.00     0.034 A 
ATOM     17  C   UNL d   1       7.788  -1.870   0.168  0.00  0.00     0.025 A 
ATOM     18 CL   UNL d   1      10.162  -2.916   0.916  0.00  0.00    -0.084 Cl
ATOM     19  C   UNL d   1       6.400  -1.911  -0.010  0.00  0.00     0.017 A 
ENDBRANCH  11  13
ENDBRANCH  10  11
ENDBRANCH   9  10
ENDBRANCH   6   9
BRANCH   1  20
ATOM     20  C   UNL d   1       3.197  -3.757   5.277  0.00  0.00     0.450 C 
ATOM     21  F   UNL d   1       4.255  -2.899   5.311  0.00  0.00    -0.163 F 
ATOM     22  F   UNL d   1       2.463  -3.502   6.395  0.00  0.00    -0.163 F 
ATOM     23  F   UNL d   1       3.718  -5.007   5.429  0.00  0.00    -0.163 F 
ENDBRANCH   1  20
TORSDOF 5
