REMARK  5 active torsions:
REMARK  status: ('A' for Active; 'I' for Inactive)
REMARK    1  A    between atoms: C_4  and  S_1 
REMARK    2  A    between atoms: N_14  and  S_1 
REMARK    3  A    between atoms: S_18  and  C_10 
REMARK    4  A    between atoms: C_19  and  N_14 
REMARK    5  A    between atoms: C_20  and  C_19 
ROOT
ATOM      1  C   UNL d   1       0.881   5.449  -0.007  0.00  0.00     0.139 A 
ATOM      2  C   UNL d   1       0.275   6.628   0.383  0.00  0.00     0.117 A 
ATOM      3  C   UNL d   1       0.463   1.598   0.206  0.00  0.00     0.120 A 
ATOM      4  C   UNL d   1       0.473   4.078   0.146  0.00  0.00     0.044 A 
ATOM      5  S   UNL d   1       1.645   2.833   0.227  0.00  0.00    -0.074 SA
ATOM      6  O   UNL d   1       2.034   5.787  -0.675  0.00  0.00    -0.234 OA
ATOM      7  N   UNL d   1       2.150   7.159  -0.771  0.00  0.00    -0.253 N 
ATOM      8  HN  UNL d   1       2.896   7.684  -1.228  1.00  0.00     0.195 HD
ATOM      9  C   UNL d   1       1.084   7.653  -0.142  0.00  0.00     0.114 A 
ATOM     10  C   UNL d   1      -0.812   2.131   0.209  0.00  0.00     0.034 A 
ATOM     11  C   UNL d   1      -0.916   6.745   1.148  0.00  0.00     0.105 C 
ATOM     12  C   UNL d   1      -0.806   3.560   0.191  0.00  0.00     0.024 A 
ATOM     13  N   UNL d   1      -1.891   6.788   1.773  0.00  0.00    -0.191 NA
ENDROOT
BRANCH   9  14
ATOM     14  S   UNL d   1       0.776   9.370  -0.033  0.00  0.00    -0.113 SA
ATOM     15  C   UNL d   1       2.151  10.054  -0.989  0.00  0.00     0.097 C 
ENDBRANCH   9  14
BRANCH   3  16
ATOM     16  S   UNL d   1       1.066  -0.084   0.120  0.00  0.00     0.265 S 
ATOM     17  O   UNL d   1       2.483  -0.027   0.384  0.00  0.00    -0.200 OA
ATOM     18  O   UNL d   1       0.521  -0.595  -1.119  0.00  0.00    -0.200 OA
BRANCH  16  19
ATOM     19  N   UNL d   1       0.378  -0.926   1.397  0.00  0.00    -0.311 N 
ATOM     20  H   UNL d   1       0.504  -0.464   2.297  0.00  0.00     0.172 HD
BRANCH  19  21
ATOM     21  C   UNL d   1      -0.937  -1.529   1.181  0.00  0.00     0.170 C 
BRANCH  21  22
ATOM     22  C   UNL d   1      -1.411  -2.238   2.427  0.00  0.00    -0.040 A 
ATOM     23  C   UNL d   1      -2.618  -1.878   3.043  0.00  0.00     0.009 A 
ATOM     24  C   UNL d   1      -3.045  -2.539   4.197  0.00  0.00     0.001 A 
ATOM     25  C   UNL d   1      -2.274  -3.563   4.744  0.00  0.00     0.000 A 
ATOM     26  C   UNL d   1      -1.075  -3.932   4.138  0.00  0.00     0.001 A 
ATOM     27  C   UNL d   1      -0.647  -3.275   2.984  0.00  0.00     0.009 A 
ENDBRANCH  21  22
ENDBRANCH  19  21
ENDBRANCH  16  19
ENDBRANCH   3  16
TORSDOF 5
