REMARK  2 active torsions:
REMARK  status: ('A' for Active; 'I' for Inactive)
REMARK    1  A    between atoms: C_10  and  C_4 
REMARK    2  A    between atoms: O_12  and  C_5 
ROOT
ATOM      1  C   UNL d   1      -0.641   1.252  -0.039  0.00  0.00     0.096 A 
ATOM      2  N   UNL d   1      -0.724  -1.163   0.005  0.00  0.00    -0.339 N 
ATOM      3  HN  UNL d   1      -1.279  -2.019  -0.000  1.00  0.00     0.168 HD
ATOM      4  C   UNL d   1       1.414  -0.045   0.014  0.00  0.00     0.033 A 
ATOM      5  C   UNL d   1      -1.313   0.047  -0.034  0.00  0.00     0.161 A 
ATOM      6  C   UNL d   1       0.751   1.195  -0.015  0.00  0.00     0.044 A 
ATOM      7  C   UNL d   1       0.638  -1.208   0.050  0.00  0.00     0.021 A 
ATOM      8  C   UNL d   1      -1.329   2.502  -0.066  0.00  0.00     0.104 C 
ATOM      9  N   UNL d   1      -1.848   3.538  -0.092  0.00  0.00    -0.191 NA
ATOM     10  C   UNL d   1       1.188  -2.600   0.147  0.00  0.00     0.069 C 
ENDROOT
BRANCH   5  11
ATOM     11  O   UNL d   1      -2.667  -0.028  -0.053  0.00  0.00    -0.345 OA
ATOM     12  H   UNL d   1      -2.799  -0.992  -0.019  0.00  0.00     0.219 HD
ENDBRANCH   5  11
BRANCH   4  13
ATOM     13  C   UNL d   1       2.899   0.012   0.071  0.00  0.00     0.157 C 
ATOM     14  O   UNL d   1       3.423   0.920   0.713  0.00  0.00    -0.293 OA
ATOM     15  C   UNL d   1       3.741  -0.977  -0.689  0.00  0.00     0.097 C 
ENDBRANCH   4  13
TORSDOF 2
