REMARK  10 active torsions:
REMARK  status: ('A' for Active; 'I' for Inactive)
REMARK    1  A    between atoms: C_17  and  N_1 
REMARK    2  A    between atoms: S_8  and  C_2 
REMARK    3  A    between atoms: O_14  and  C_3 
REMARK    4  A    between atoms: C_13  and  S_8 
REMARK    5  A    between atoms: C_9  and  C_13 
REMARK       I    between atoms: N_10  and  C_9 
REMARK    6  A    between atoms: C_18  and  N_10 
REMARK    7  A    between atoms: C_19  and  C_11 
REMARK    8  A    between atoms: C_24  and  C_17 
REMARK    9  A    between atoms: C_26  and  C_24 
REMARK   10  A    between atoms: C_25  and  C_26 
ROOT
ATOM      1  S   UNL d   1       2.830  -1.408  -1.348  0.00  0.00    -0.083 SA
ENDROOT
BRANCH   1   2
ATOM      2  C   UNL d   1       2.679  -2.088  -2.929  0.00  0.00     0.165 A 
ATOM      3  N   UNL d   1       2.441  -1.374  -4.079  0.00  0.00    -0.291 N 
ATOM      4  C   UNL d   1       2.278  -2.336  -5.050  0.00  0.00     0.240 A 
ATOM      5  N   UNL d   1       2.509  -3.522  -4.550  0.00  0.00    -0.263 N 
ATOM      6  N   UNL d   1       2.746  -3.368  -3.209  0.00  0.00    -0.277 N 
ATOM      7  HN  UNL d   1       2.512  -4.403  -5.065  1.00  0.00     0.190 HD
ATOM      8  HN  UNL d   1       2.941  -4.117  -2.544  1.00  0.00     0.189 HD
BRANCH   3   9
ATOM      9  C   UNL d   1       2.295   0.048  -4.265  0.00  0.00     0.135 C 
BRANCH   9  10
ATOM     10  C   UNL d   1       3.502   0.927  -3.935  0.00  0.00     0.020 C 
BRANCH  10  11
ATOM     11  C   UNL d   1       4.809   0.595  -4.666  0.00  0.00     0.001 C 
BRANCH  11  12
ATOM     12  C   UNL d   1       5.891   1.568  -4.187  0.00  0.00    -0.004 C 
ATOM     13  C   UNL d   1       7.260   1.331  -4.799  0.00  0.00     0.005 C 
ENDBRANCH  11  12
ENDBRANCH  10  11
ENDBRANCH   9  10
ENDBRANCH   3   9
BRANCH   4  14
ATOM     14  O   UNL d   1       1.929  -2.127  -6.309  0.00  0.00    -0.331 OA
ATOM     15  H   UNL d   1       1.319  -1.377  -6.349  0.00  0.00     0.221 HD
ENDBRANCH   4  14
ENDBRANCH   1   2
BRANCH   1  16
ATOM     16  C   UNL d   1       2.910  -2.919  -0.329  0.00  0.00     0.185 C 
BRANCH  16  17
ATOM     17  C   UNL d   1       4.266  -3.613  -0.279  0.00  0.00     0.231 C 
ATOM     18  N   UNL d   1       5.332  -2.938  -0.840  0.00  0.00    -0.327 N 
ATOM     19  H   UNL d   1       5.205  -1.951  -1.020  0.00  0.00     0.169 HD
ATOM     20  O   UNL d   1       4.369  -4.683   0.325  0.00  0.00    -0.272 OA
BRANCH  18  21
ATOM     21  C   UNL d   1       6.609  -3.482  -1.077  0.00  0.00     0.034 A 
ATOM     22  C   UNL d   1       6.814  -4.846  -1.282  0.00  0.00     0.030 A 
ATOM     23  C   UNL d   1       8.090  -5.334  -1.585  0.00  0.00     0.010 A 
ATOM     24  C   UNL d   1       9.190  -4.470  -1.661  0.00  0.00    -0.055 A 
ATOM     25  C   UNL d   1       8.978  -3.103  -1.433  0.00  0.00     0.010 A 
ATOM     26  C   UNL d   1       7.695  -2.610  -1.168  0.00  0.00     0.030 A 
BRANCH  24  27
ATOM     27  C   UNL d   1      10.577  -4.976  -2.017  0.00  0.00     0.010 C 
ATOM     28  C   UNL d   1      11.068  -6.061  -1.055  0.00  0.00     0.015 C 
ATOM     29  C   UNL d   1      10.623  -5.475  -3.464  0.00  0.00     0.015 C 
ENDBRANCH  24  27
ENDBRANCH  18  21
ENDBRANCH  16  17
ENDBRANCH   1  16
TORSDOF 10
