REMARK  6 active torsions:
REMARK  status: ('A' for Active; 'I' for Inactive)
REMARK    1  A    between atoms: S_6  and  C_1 
REMARK    2  A    between atoms: C_10  and  C_3 
REMARK    3  A    between atoms: N_7  and  S_6 
REMARK       I    between atoms: C_9  and  N_7 
REMARK       I    between atoms: N_11  and  C_9 
REMARK    4  A    between atoms: O_18  and  C_10 
REMARK    5  A    between atoms: C_16  and  N_11 
REMARK    6  A    between atoms: C_27  and  O_18 
ROOT
ATOM      1  S   UNL d   1      -1.254   3.559   0.132  0.00  0.00    -0.085 SA
ATOM      2  C   UNL d   1       0.044   2.545  -0.675  0.00  0.00     0.108 C 
ENDROOT
BRANCH   1   3
ATOM      3  C   UNL d   1      -1.018   4.931  -0.955  0.00  0.00     0.061 C 
ATOM      4  S   UNL d   1      -0.030   6.187  -0.330  0.00  0.00    -0.075 SA
ATOM      5  C   UNL d   1       0.173   6.920  -1.860  0.00  0.00     0.088 C 
ATOM      6  C   UNL d   1      -0.646   6.323  -2.809  0.00  0.00    -0.022 A 
ATOM      7  C   UNL d   1      -1.340   5.166  -2.281  0.00  0.00    -0.004 A 
ATOM      8  C   UNL d   1      -0.720   6.726  -4.256  0.00  0.00     0.045 A 
ATOM      9  C   UNL d   1      -2.115   4.360  -3.179  0.00  0.00     0.010 A 
ATOM     10  C   UNL d   1      -2.255   4.660  -4.479  0.00  0.00    -0.025 A 
ATOM     11  C   UNL d   1      -1.631   5.856  -5.136  0.00  0.00     0.032 A 
BRANCH   5  12
ATOM     12  C   UNL d   1       1.158   7.973  -2.069  0.00  0.00     0.300 C 
ATOM     13  O   UNL d   1       1.369   8.553  -3.130  0.00  0.00    -0.259 OA
BRANCH  12  14
ATOM     14  O   UNL d   1       1.915   8.163  -0.945  0.00  0.00    -0.317 OA
BRANCH  14  15
ATOM     15  C   UNL d   1       3.188   8.787  -1.135  0.00  0.00     0.174 C 
ATOM     16  C   UNL d   1       4.209   7.710  -1.461  0.00  0.00     0.034 C 
ENDBRANCH  14  15
ENDBRANCH  12  14
ENDBRANCH   5  12
ENDBRANCH   1   3
BRANCH   1  17
ATOM     17  N   UNL d   1      -2.472   2.918  -0.492  0.00  0.00    -0.287 N 
ATOM     18  C   UNL d   1      -2.695   1.595  -0.368  0.00  0.00     0.330 C 
ATOM     19  N   UNL d   1      -2.338   1.030   0.852  0.00  0.00    -0.308 N 
ATOM     20  O   UNL d   1      -3.224   0.940  -1.266  0.00  0.00    -0.246 OA
ATOM     21  H   UNL d   1      -2.062   1.722   1.535  0.00  0.00     0.170 HD
ATOM     22  HN  UNL d   1      -3.133   3.494  -1.014  1.00  0.00     0.178 HD
BRANCH  19  23
ATOM     23  C   UNL d   1      -1.992  -0.319   1.098  0.00  0.00     0.036 A 
ATOM     24  C   UNL d   1      -2.095  -1.323   0.132  0.00  0.00     0.031 A 
ATOM     25  C   UNL d   1      -1.516  -2.579   0.339  0.00  0.00     0.026 A 
ATOM     26  C   UNL d   1      -0.849  -2.844   1.529  0.00  0.00     0.034 A 
ATOM     27  C   UNL d   1      -0.816  -1.887   2.541  0.00  0.00     0.026 A 
ATOM     28 CL   UNL d   1      -0.027  -4.343   1.733  0.00  0.00    -0.084 Cl
ATOM     29  C   UNL d   1      -1.394  -0.629   2.327  0.00  0.00     0.031 A 
ENDBRANCH  19  23
ENDBRANCH   1  17
TORSDOF 6
