REMARK  4 active torsions:
REMARK  status: ('A' for Active; 'I' for Inactive)
REMARK    1  A    between atoms: C_2  and  C_1 
REMARK    2  A    between atoms: C_4  and  C_2 
REMARK    3  A    between atoms: S_6  and  C_3 
REMARK    4  A    between atoms: S_7  and  C_3 
ROOT
ATOM      1  C   UNL d   1       1.375  -0.260   0.111  0.00  0.00     0.076 C 
ATOM      2  C   UNL d   1       1.231   0.187  -1.152  0.00  0.00     0.039 C 
ENDROOT
BRANCH   1   3
ATOM      3  C   UNL d   1       0.326  -0.735   1.064  0.00  0.00     0.158 C 
ATOM      4  O   UNL d   1      -0.836  -0.356   0.952  0.00  0.00    -0.292 OA
BRANCH   3   5
ATOM      5  C   UNL d   1       0.747  -1.623   2.260  0.00  0.00     0.013 C 
ATOM      6  C   UNL d   1       0.992  -0.690   3.454  0.00  0.00     0.023 C 
ATOM      7  C   UNL d   1      -0.417  -2.578   2.588  0.00  0.00     0.023 C 
ATOM      8  C   UNL d   1       1.995  -2.482   2.007  0.00  0.00     0.023 C 
ENDBRANCH   3   5
ENDBRANCH   1   3
BRANCH   2   9
ATOM      9  S   UNL d   1       2.728   0.664  -1.958  0.00  0.00    -0.127 SA
ATOM     10  C   UNL d   1       2.213   2.006  -3.055  0.00  0.00     0.096 C 
ENDBRANCH   2   9
BRANCH   2  11
ATOM     11  S   UNL d   1      -0.271   0.317  -2.024  0.00  0.00    -0.127 SA
ATOM     12  C   UNL d   1      -0.969  -1.343  -1.911  0.00  0.00     0.096 C 
ENDBRANCH   2  11
TORSDOF 4
