REMARK  4 active torsions:
REMARK  status: ('A' for Active; 'I' for Inactive)
REMARK       I    between atoms: N_2  and  C_1 
REMARK    1  A    between atoms: O_4  and  C_1 
REMARK    2  A    between atoms: C_3  and  C_6 
REMARK       I    between atoms: N_12  and  C_3 
REMARK    3  A    between atoms: C_13  and  O_4 
REMARK    4  A    between atoms: C_14  and  C_13 
ROOT
ATOM      1  C   UNL d   1       0.950   0.095   0.013  0.00  0.00     0.363 C 
ATOM      2  N   UNL d   1       0.393  -0.368   1.195  0.00  0.00    -0.328 N 
ATOM      3  O   UNL d   1       1.799   0.978  -0.032  0.00  0.00    -0.238 OA
ATOM      4  C   UNL d   1      -1.702   0.170   3.122  0.00  0.00     0.081 C 
ATOM      5  C   UNL d   1       0.759   0.263   2.459  0.00  0.00     0.129 C 
ATOM      6  C   UNL d   1      -0.740  -1.282   1.268  0.00  0.00     0.129 C 
ATOM      7  C   UNL d   1      -1.976  -0.546   1.786  0.00  0.00     0.034 C 
ATOM      8  C   UNL d   1      -0.432   1.036   3.028  0.00  0.00     0.034 C 
ENDROOT
BRANCH   1   9
ATOM      9  O   UNL d   1       0.411  -0.488  -1.093  0.00  0.00    -0.299 OA
BRANCH   9  10
ATOM     10  C   UNL d   1       0.674   0.183  -2.332  0.00  0.00     0.219 C 
BRANCH  10  11
ATOM     11  C   UNL d   1       1.513  -0.631  -3.289  0.00  0.00    -0.034 A 
ATOM     12  C   UNL d   1       1.081  -1.885  -3.742  0.00  0.00     0.009 A 
ATOM     13  C   UNL d   1       1.800  -2.567  -4.728  0.00  0.00     0.001 A 
ATOM     14  C   UNL d   1       2.960  -2.010  -5.264  0.00  0.00     0.000 A 
ATOM     15  C   UNL d   1       3.411  -0.776  -4.803  0.00  0.00     0.001 A 
ATOM     16  C   UNL d   1       2.696  -0.092  -3.819  0.00  0.00     0.009 A 
ENDBRANCH  10  11
ENDBRANCH   9  10
ENDBRANCH   1   9
BRANCH   4  17
ATOM     17  C   UNL d   1      -1.622  -0.814   4.286  0.00  0.00     0.219 C 
ATOM     18  O   UNL d   1      -0.633  -0.978   4.991  0.00  0.00    -0.273 OA
ATOM     19  N   UNL d   1      -2.759  -1.526   4.524  0.00  0.00    -0.370 N 
ATOM     20  H   UNL d   1      -3.656  -1.264   4.136  0.00  0.00     0.159 HD
ATOM     21  H   UNL d   1      -2.757  -2.123   5.343  0.00  0.00     0.159 HD
ENDBRANCH   4  17
TORSDOF 4
