REMARK  5 active torsions:
REMARK  status: ('A' for Active; 'I' for Inactive)
REMARK    1  A    between atoms: C_5  and  C_1 
REMARK       I    between atoms: C_2  and  N_6 
REMARK    2  A    between atoms: C_3  and  C_2 
REMARK    3  A    between atoms: O_8  and  C_4 
REMARK    4  A    between atoms: N_6  and  C_5 
REMARK    5  A    between atoms: C_14  and  O_8 
ROOT
ATOM      1  C   UNL d   1       0.217   1.105  -0.116  0.00  0.00     0.015 A 
ATOM      2  C   UNL d   1       1.625   1.144  -0.172  0.00  0.00     0.085 A 
ATOM      3  C   UNL d   1      -0.399  -0.162  -0.067  0.00  0.00     0.044 A 
ATOM      4 CL   UNL d   1      -2.116  -0.363   0.008  0.00  0.00    -0.084 Cl
ATOM      5  C   UNL d   1       2.374  -0.041  -0.256  0.00  0.00     0.038 A 
ATOM      6  C   UNL d   1       1.746  -1.280  -0.195  0.00  0.00     0.004 A 
ATOM      7  C   UNL d   1       0.362  -1.338  -0.089  0.00  0.00     0.024 A 
ENDROOT
BRANCH   1   8
ATOM      8  C   UNL d   1      -0.595   2.376  -0.130  0.00  0.00     0.166 C 
BRANCH   8   9
ATOM      9  N   UNL d   1      -0.324   3.321   0.935  0.00  0.00    -0.352 N 
ATOM     10  C   UNL d   1      -0.312   2.992   2.274  0.00  0.00     0.258 C 
ATOM     11  O   UNL d   1      -0.344   1.830   2.668  0.00  0.00    -0.267 OA
ATOM     12  H   UNL d   1      -0.423   4.303   0.717  0.00  0.00     0.163 HD
BRANCH  10  13
ATOM     13  C   UNL d   1      -0.245   4.123   3.191  0.00  0.00     0.072 A 
ATOM     14  S   UNL d   1      -0.533   5.736   2.690  0.00  0.00    -0.097 SA
ATOM     15  C   UNL d   1      -0.303   6.345   4.270  0.00  0.00     0.050 A 
ATOM     16  C   UNL d   1      -0.001   5.345   5.168  0.00  0.00     0.009 A 
ATOM     17  C   UNL d   1       0.025   4.067   4.546  0.00  0.00     0.025 A 
ENDBRANCH  10  13
ENDBRANCH   8   9
ENDBRANCH   1   8
BRANCH   2  18
ATOM     18  O   UNL d   1       2.245   2.383  -0.188  0.00  0.00    -0.310 OA
BRANCH  18  19
ATOM     19  C   UNL d   1       3.437   2.501   0.497  0.00  0.00     0.076 A 
ATOM     20  C   UNL d   1       4.480   3.160  -0.153  0.00  0.00     0.037 A 
ATOM     21  C   UNL d   1       5.733   3.247   0.456  0.00  0.00     0.003 A 
ATOM     22  C   UNL d   1       5.936   2.689   1.719  0.00  0.00     0.000 A 
ATOM     23  C   UNL d   1       4.879   2.074   2.390  0.00  0.00     0.003 A 
ATOM     24  C   UNL d   1       3.622   1.997   1.789  0.00  0.00     0.037 A 
ENDBRANCH  18  19
ENDBRANCH   2  18
TORSDOF 5
