REMARK  9 active torsions:
REMARK  status: ('A' for Active; 'I' for Inactive)
REMARK    1  A    between atoms: N_2  and  C_1 
REMARK    2  A    between atoms: C_3  and  C_1 
REMARK    3  A    between atoms: C_7  and  C_1 
REMARK    4  A    between atoms: N_8  and  C_1 
REMARK       I    between atoms: C_4  and  N_2 
REMARK    5  A    between atoms: C_5  and  C_4 
REMARK    6  A    between atoms: C_6  and  C_9 
REMARK    7  A    between atoms: O_21  and  C_7 
REMARK    8  A    between atoms: C_12  and  N_8 
REMARK    9  A    between atoms: C_28  and  O_21 
ROOT
ATOM      1  C   UNL d   1       0.808   0.069  -0.011  0.00  0.00     0.297 C 
ENDROOT
BRANCH   1   2
ATOM      2  N   UNL d   1       0.368  -1.341   0.053  0.00  0.00    -0.314 N 
ATOM      3  C   UNL d   1       0.236  -2.078   1.201  0.00  0.00     0.255 C 
ATOM      4  O   UNL d   1       0.489  -1.636   2.309  0.00  0.00    -0.268 OA
ATOM      5  H   UNL d   1       0.077  -1.753  -0.825  0.00  0.00     0.166 HD
BRANCH   3   6
ATOM      6  C   UNL d   1      -0.356  -3.444   1.029  0.00  0.00     0.053 A 
ATOM      7  C   UNL d   1       0.014  -4.340   0.016  0.00  0.00     0.049 A 
ATOM      8 CL   UNL d   1       1.351  -4.080  -1.038  0.00  0.00    -0.083 Cl
ATOM      9  C   UNL d   1      -0.676  -5.548  -0.150  0.00  0.00     0.025 A 
ATOM     10  C   UNL d   1      -1.710  -5.894   0.718  0.00  0.00     0.002 A 
ATOM     11  C   UNL d   1      -2.042  -5.039   1.768  0.00  0.00     0.001 A 
ATOM     12  C   UNL d   1      -1.373  -3.821   1.922  0.00  0.00     0.019 A 
ENDBRANCH   3   6
ENDBRANCH   1   2
BRANCH   1  13
ATOM     13  C   UNL d   1       0.098   1.062   0.985  0.00  0.00     0.442 C 
ATOM     14  F   UNL d   1      -0.981   0.518   1.600  0.00  0.00    -0.166 F 
ATOM     15  F   UNL d   1       0.950   1.480   1.959  0.00  0.00    -0.166 F 
ATOM     16  F   UNL d   1      -0.358   2.192   0.382  0.00  0.00    -0.166 F 
ENDBRANCH   1  13
BRANCH   1  17
ATOM     17  C   UNL d   1       0.353   0.620  -1.389  0.00  0.00     0.318 C 
ATOM     18  O   UNL d   1      -0.580   0.150  -2.027  0.00  0.00    -0.260 OA
BRANCH  17  19
ATOM     19  O   UNL d   1       1.146   1.646  -1.829  0.00  0.00    -0.318 OA
BRANCH  19  20
ATOM     20  C   UNL d   1       0.855   2.165  -3.136  0.00  0.00     0.174 C 
ATOM     21  C   UNL d   1       1.440   1.278  -4.220  0.00  0.00     0.034 C 
ENDBRANCH  19  20
ENDBRANCH  17  19
ENDBRANCH   1  17
BRANCH   1  22
ATOM     22  N   UNL d   1       2.296   0.062   0.111  0.00  0.00    -0.348 N 
ATOM     23  H   UNL d   1       2.606   0.120   1.079  0.00  0.00     0.163 HD
BRANCH  22  24
ATOM     24  C   UNL d   1       3.199  -0.518  -0.764  0.00  0.00     0.031 A 
ATOM     25  C   UNL d   1       2.833  -1.195  -1.928  0.00  0.00     0.045 A 
ATOM     26  C   UNL d   1       3.768  -1.735  -2.827  0.00  0.00     0.050 A 
ATOM     27  C   UNL d   1       5.127  -1.531  -2.582  0.00  0.00     0.016 A 
ATOM     28  C   UNL d   1       5.526  -0.812  -1.458  0.00  0.00     0.003 A 
ATOM     29  C   UNL d   1       4.571  -0.314  -0.561  0.00  0.00     0.029 A 
BRANCH  26  30
ATOM     30  C   UNL d   1       3.292  -2.519  -4.024  0.00  0.00     0.417 C 
ATOM     31  F   UNL d   1       1.936  -2.646  -4.087  0.00  0.00    -0.166 F 
ATOM     32  F   UNL d   1       3.661  -1.945  -5.204  0.00  0.00    -0.166 F 
ATOM     33  F   UNL d   1       3.785  -3.787  -4.052  0.00  0.00    -0.166 F 
ENDBRANCH  26  30
ENDBRANCH  22  24
ENDBRANCH   1  22
TORSDOF 9
