REMARK  4 active torsions:
REMARK  status: ('A' for Active; 'I' for Inactive)
REMARK    1  A    between atoms: C_8  and  C_2 
REMARK    2  A    between atoms: C_13  and  N_5 
REMARK    3  A    between atoms: O_16  and  C_8 
REMARK    4  A    between atoms: C_19  and  O_16 
ROOT
ATOM      1  C   UNL d   1      -0.708   1.256   0.033  0.00  0.00     0.098 A 
ATOM      2  C   UNL d   1       1.282  -0.119  -0.048  0.00  0.00     0.131 A 
ATOM      3  N   UNL d   1       0.660  -1.260  -0.029  0.00  0.00    -0.286 N 
ATOM      4  HN  UNL d   1       1.172  -2.142  -0.055  1.00  0.00     0.188 HD
ATOM      5  N   UNL d   1      -0.713  -1.236   0.026  0.00  0.00    -0.238 N 
ATOM      6  C   UNL d   1      -1.448  -0.046   0.117  0.00  0.00     0.142 A 
ATOM      7  C   UNL d   1       0.640   1.235   0.006  0.00  0.00    -0.003 A 
ATOM      8  C   UNL d   1      -1.443   2.476   0.033  0.00  0.00     0.104 C 
ATOM      9  N   UNL d   1      -1.962   3.519   0.017  0.00  0.00    -0.191 NA
ATOM     10  N   UNL d   1      -2.729   0.053   0.338  0.00  0.00    -0.383 N 
ATOM     11  HN  UNL d   1      -3.247   0.932   0.365  1.00  0.00     0.157 HD
ATOM     12  C   UNL d   1       1.459   2.494   0.045  0.00  0.00     0.052 C 
ATOM     13  H   UNL d   1      -3.142  -0.871   0.481  0.00  0.00     0.157 HD
ENDROOT
BRANCH   5  14
ATOM     14  C   UNL d   1      -1.309  -2.538  -0.012  0.00  0.00     0.058 A 
ATOM     15  C   UNL d   1      -2.493  -2.796  -0.726  0.00  0.00     0.031 A 
ATOM     16  C   UNL d   1      -3.119  -4.045  -0.666  0.00  0.00     0.002 A 
ATOM     17  C   UNL d   1      -2.551  -5.075   0.076  0.00  0.00     0.000 A 
ATOM     18  C   UNL d   1      -1.341  -4.867   0.732  0.00  0.00     0.002 A 
ATOM     19  C   UNL d   1      -0.722  -3.614   0.680  0.00  0.00     0.031 A 
ENDBRANCH   5  14
BRANCH   2  20
ATOM     20  C   UNL d   1       2.802  -0.198  -0.233  0.00  0.00     0.312 C 
ATOM     21  O   UNL d   1       3.396   0.520  -1.018  0.00  0.00    -0.258 OA
BRANCH  20  22
ATOM     22  O   UNL d   1       3.313  -1.224   0.481  0.00  0.00    -0.317 OA
BRANCH  22  23
ATOM     23  C   UNL d   1       4.638  -1.622   0.096  0.00  0.00     0.175 C 
ATOM     24  C   UNL d   1       4.574  -2.464  -1.169  0.00  0.00     0.034 C 
ENDBRANCH  22  23
ENDBRANCH  20  22
ENDBRANCH   2  20
TORSDOF 4
