REMARK  6 active torsions:
REMARK  status: ('A' for Active; 'I' for Inactive)
REMARK    1  A    between atoms: C_2  and  C_1 
REMARK       I    between atoms: N_3  and  C_1 
REMARK       I    between atoms: C_4  and  N_3 
REMARK       I    between atoms: N_6  and  C_4 
REMARK    2  A    between atoms: O_16  and  C_5 
REMARK    3  A    between atoms: C_7  and  N_6 
REMARK    4  A    between atoms: O_18  and  C_8 
REMARK    5  A    between atoms: C_23  and  C_12 
REMARK    6  A    between atoms: C_22  and  C_13 
ROOT
ATOM      1  C   UNL d   1       0.962  -0.110   0.334  0.00  0.00     0.265 C 
ATOM      2  N   UNL d   1       0.281   0.648  -0.618  0.00  0.00    -0.275 N 
ATOM      3  C   UNL d   1      -0.842   0.596  -1.425  0.00  0.00     0.327 C 
ATOM      4  N   UNL d   1      -1.981   0.057  -0.885  0.00  0.00    -0.308 N 
ATOM      5  O   UNL d   1       2.035   0.309   0.772  0.00  0.00    -0.267 OA
ATOM      6  O   UNL d   1      -0.756   1.097  -2.547  0.00  0.00    -0.247 OA
ATOM      7  H   UNL d   1       0.934   1.310  -1.021  0.00  0.00     0.173 HD
ATOM      8  H   UNL d   1      -1.847  -0.629  -0.167  0.00  0.00     0.170 HD
ENDROOT
BRANCH   1   9
ATOM      9  C   UNL d   1       0.499  -1.431   0.797  0.00  0.00     0.100 A 
ATOM     10  C   UNL d   1      -0.600  -1.545   1.660  0.00  0.00     0.104 A 
ATOM     11  C   UNL d   1      -0.937  -2.798   2.187  0.00  0.00     0.045 A 
ATOM     12 BR   UNL d   1      -2.486  -3.074   3.247  0.00  0.00    -0.048 Br
ATOM     13  C   UNL d   1      -0.150  -3.915   1.898  0.00  0.00     0.025 A 
ATOM     14  C   UNL d   1       0.962  -3.798   1.063  0.00  0.00     0.039 A 
ATOM     15  C   UNL d   1       1.309  -2.555   0.526  0.00  0.00     0.086 A 
BRANCH  10  16
ATOM     16  O   UNL d   1      -1.414  -0.457   1.842  0.00  0.00    -0.353 OA
ATOM     17  C   UNL d   1      -1.181   0.195   3.092  0.00  0.00     0.210 C 
ENDBRANCH  10  16
BRANCH  15  18
ATOM     18  O   UNL d   1       2.381  -2.381  -0.310  0.00  0.00    -0.355 OA
ATOM     19  C   UNL d   1       3.499  -3.245  -0.130  0.00  0.00     0.210 C 
ENDBRANCH  15  18
ENDBRANCH   1   9
BRANCH   4  20
ATOM     20  C   UNL d   1      -3.243   0.079  -1.538  0.00  0.00     0.049 C 
ATOM     21  C   UNL d   1      -3.996  -1.118  -1.628  0.00  0.00    -0.031 C 
ATOM     22  C   UNL d   1      -5.154  -1.127  -2.430  0.00  0.00     0.009 C 
ATOM     23  C   UNL d   1      -5.596   0.019  -3.082  0.00  0.00     0.001 C 
ATOM     24  C   UNL d   1      -4.913   1.211  -2.897  0.00  0.00     0.009 C 
ATOM     25  C   UNL d   1      -3.764   1.280  -2.091  0.00  0.00    -0.031 C 
BRANCH  21  26
ATOM     26  C   UNL d   1      -3.591  -2.437  -1.000  0.00  0.00     0.036 C 
ATOM     27  C   UNL d   1      -4.667  -3.026  -0.091  0.00  0.00     0.010 C 
ENDBRANCH  21  26
BRANCH  25  28
ATOM     28  C   UNL d   1      -3.160   2.649  -1.812  0.00  0.00     0.036 C 
ATOM     29  C   UNL d   1      -4.177   3.733  -1.453  0.00  0.00     0.010 C 
ENDBRANCH  25  28
ENDBRANCH   4  20
TORSDOF 6
