REMARK  5 active torsions:
REMARK  status: ('A' for Active; 'I' for Inactive)
REMARK    1  A    between atoms: C_2  and  C_1 
REMARK    2  A    between atoms: C_7  and  C_2 
REMARK    3  A    between atoms: C_3  and  O_8 
REMARK    4  A    between atoms: C_10  and  C_4 
REMARK    5  A    between atoms: O_8  and  C_16 
ROOT
ATOM      1  C   UNL d   1       0.917  -0.071  -0.052  0.00  0.00     0.096 C 
ATOM      2  C   UNL d   1       0.229   0.904  -0.677  0.00  0.00     0.038 C 
ATOM      3  C   UNL d   1       0.278  -1.150   0.619  0.00  0.00     0.103 C 
ATOM      4  N   UNL d   1      -0.218  -2.030   1.195  0.00  0.00    -0.191 NA
ENDROOT
BRANCH   1   5
ATOM      5  C   UNL d   1       2.415   0.003  -0.101  0.00  0.00     0.202 C 
ATOM      6  O   UNL d   1       2.995   0.584  -1.016  0.00  0.00    -0.286 OA
BRANCH   5   7
ATOM      7  C   UNL d   1       3.229  -0.644   0.969  0.00  0.00     0.016 A 
ATOM      8  C   UNL d   1       4.476  -1.192   0.632  0.00  0.00     0.018 A 
ATOM      9  C   UNL d   1       5.272  -1.819   1.604  0.00  0.00     0.038 A 
ATOM     10  C   UNL d   1       4.848  -1.868   2.930  0.00  0.00     0.078 A 
ATOM     11  C   UNL d   1       3.607  -1.318   3.265  0.00  0.00     0.038 A 
ATOM     12  C   UNL d   1       2.812  -0.689   2.303  0.00  0.00     0.018 A 
BRANCH  10  13
ATOM     13  O   UNL d   1       5.497  -2.453   3.972  0.00  0.00    -0.255 OA
BRANCH  13  14
ATOM     14  C   UNL d   1       6.915  -2.508   3.993  0.00  0.00     0.530 C 
ATOM     15  F   UNL d   1       7.512  -1.775   3.032  0.00  0.00    -0.144 F 
ATOM     16  F   UNL d   1       7.340  -2.043   5.191  0.00  0.00    -0.144 F 
ATOM     17  F   UNL d   1       7.315  -3.792   3.877  0.00  0.00    -0.144 F 
ENDBRANCH  13  14
ENDBRANCH  10  13
ENDBRANCH   5   7
ENDBRANCH   1   5
BRANCH   2  18
ATOM     18  C   UNL d   1      -1.235   1.017  -0.668  0.00  0.00    -0.035 A 
ATOM     19  C   UNL d   1      -1.863   1.783   0.320  0.00  0.00     0.012 A 
ATOM     20  C   UNL d   1      -3.257   1.871   0.369  0.00  0.00     0.007 A 
ATOM     21  C   UNL d   1      -4.045   1.197  -0.572  0.00  0.00    -0.062 A 
ATOM     22  C   UNL d   1      -3.413   0.439  -1.566  0.00  0.00     0.007 A 
ATOM     23  C   UNL d   1      -5.541   1.275  -0.487  0.00  0.00     0.048 C 
ATOM     24  C   UNL d   1      -2.019   0.349  -1.614  0.00  0.00     0.012 A 
ENDBRANCH   2  18
TORSDOF 5
