REMARK  2 active torsions:
REMARK  status: ('A' for Active; 'I' for Inactive)
REMARK    1  A    between atoms: C_7  and  C_1 
REMARK    2  A    between atoms: S_12  and  C_6 
ROOT
ATOM      1  N   UNL d   1      -4.557  -1.356   1.022  0.00  0.00    -0.336 N 
ATOM      2  HN  UNL d   1      -3.886  -1.599   1.751  1.00  0.00     0.168 HD
ATOM      3  C   UNL d   1      -5.811  -1.838   1.034  0.00  0.00     0.144 A 
ATOM      4  C   UNL d   1      -4.228  -0.535   0.004  0.00  0.00     0.052 A 
ATOM      5  N   UNL d   1      -6.737  -1.576   0.097  0.00  0.00    -0.347 N 
ATOM      6  HN  UNL d   1      -7.677  -1.969   0.148  1.00  0.00     0.167 HD
ATOM      7  C   UNL d   1      -5.110  -0.218  -1.009  0.00  0.00     0.048 A 
ATOM      8  C   UNL d   1      -6.362  -0.770  -0.909  0.00  0.00     0.092 A 
ENDROOT
BRANCH   4   9
ATOM      9  C   UNL d   1      -2.852  -0.020   0.065  0.00  0.00     0.033 A 
ATOM     10  S   UNL d   1      -2.440   1.506  -0.622  0.00  0.00    -0.081 SA
ATOM     11  C   UNL d   1      -0.829   1.370  -0.127  0.00  0.00     0.052 A 
ATOM     12 BR   UNL d   1       0.457   2.688  -0.468  0.00  0.00    -0.043 Br
ATOM     13  C   UNL d   1      -0.565   0.207   0.548  0.00  0.00     0.028 A 
ATOM     14  C   UNL d   1      -1.741  -0.593   0.667  0.00  0.00     0.023 A 
ENDBRANCH   4   9
BRANCH   3  15
ATOM     15  S   UNL d   1      -6.242  -2.889   2.398  0.00  0.00    -0.098 SA
ATOM     16  C   UNL d   1      -7.979  -3.225   2.012  0.00  0.00     0.099 C 
ENDBRANCH   3  15
TORSDOF 2
