REMARK  6 active torsions:
REMARK  status: ('A' for Active; 'I' for Inactive)
REMARK    1  A    between atoms: C_14  and  N_1 
REMARK    2  A    between atoms: C_4  and  C_12 
REMARK    3  A    between atoms: C_17  and  C_5 
REMARK    4  A    between atoms: N_8  and  O_15 
REMARK    5  A    between atoms: C_10  and  C_19 
REMARK    6  A    between atoms: O_15  and  C_10 
ROOT
ATOM      1  N   UNL d   1      -3.589   4.854   1.849  0.00  0.00    -0.261 N 
ATOM      2  HN  UNL d   1      -2.986   4.056   2.047  1.00  0.00     0.194 HD
ATOM      3  C   UNL d   1      -4.416   4.846   0.839  0.00  0.00     0.039 C 
ATOM      4  C   UNL d   1      -4.482   3.503   0.129  0.00  0.00     0.071 C 
ENDROOT
BRANCH   3   5
ATOM      5  C   UNL d   1      -5.279   5.965   0.313  0.00  0.00    -0.005 A 
ATOM      6  C   UNL d   1      -5.623   6.110  -1.038  0.00  0.00    -0.039 A 
ATOM      7  C   UNL d   1      -6.368   7.223  -1.468  0.00  0.00    -0.043 A 
ATOM      8  C   UNL d   1      -5.394   5.209  -2.221  0.00  0.00     0.041 C 
ATOM      9  C   UNL d   1      -6.609   7.208  -2.965  0.00  0.00    -0.020 C 
ATOM     10  C   UNL d   1      -6.816   8.185  -0.573  0.00  0.00     0.016 A 
ATOM     11  C   UNL d   1      -6.317   8.556  -3.632  0.00  0.00     0.020 C 
ATOM     12  C   UNL d   1      -8.040   6.750  -3.276  0.00  0.00     0.020 C 
ATOM     13  C   UNL d   1      -5.568   6.160  -3.407  0.00  0.00     0.018 C 
ATOM     14  C   UNL d   1      -6.533   8.060   0.793  0.00  0.00    -0.049 A 
ATOM     15  C   UNL d   1      -5.775   6.937   1.205  0.00  0.00     0.022 A 
BRANCH  14  16
ATOM     16  C   UNL d   1      -7.006   9.098   1.828  0.00  0.00    -0.024 C 
ATOM     17  C   UNL d   1      -5.786   9.746   2.518  0.00  0.00     0.019 C 
ATOM     18  C   UNL d   1      -7.846  10.229   1.194  0.00  0.00     0.019 C 
ATOM     19  C   UNL d   1      -7.880   8.428   2.909  0.00  0.00     0.019 C 
ENDBRANCH  14  16
ENDBRANCH   3   5
BRANCH   1  20
ATOM     20  O   UNL d   1      -3.561   6.007   2.654  0.00  0.00    -0.195 OA
BRANCH  20  21
ATOM     21  C   UNL d   1      -2.275   6.290   3.014  0.00  0.00     0.315 C 
ATOM     22  O   UNL d   1      -1.303   6.275   2.266  0.00  0.00    -0.257 OA
BRANCH  21  23
ATOM     23  C   UNL d   1      -2.153   6.664   4.460  0.00  0.00     0.041 A 
ATOM     24  C   UNL d   1      -3.224   6.633   5.369  0.00  0.00     0.020 A 
ATOM     25  C   UNL d   1      -3.021   6.987   6.720  0.00  0.00     0.037 A 
ATOM     26  C   UNL d   1      -1.744   7.357   7.161  0.00  0.00     0.102 A 
ATOM     27  C   UNL d   1      -0.663   7.366   6.269  0.00  0.00     0.037 A 
ATOM     28  C   UNL d   1      -0.877   7.020   4.930  0.00  0.00     0.020 A 
BRANCH  26  29
ATOM     29  N   UNL d   1      -1.530   7.746   8.566  0.00  0.00    -0.116 N 
ATOM     30  O   UNL d   1      -0.387   8.056   8.907  0.00  0.00    -0.532 OA
ATOM     31  O   UNL d   1      -2.516   7.743   9.318  0.00  0.00    -0.532 OA
ENDBRANCH  26  29
ENDBRANCH  21  23
ENDBRANCH  20  21
ENDBRANCH   1  20
TORSDOF 6
