REMARK  3 active torsions:
REMARK  status: ('A' for Active; 'I' for Inactive)
REMARK    1  A    between atoms: O_6  and  C_2 
REMARK    2  A    between atoms: S_4  and  C_7 
REMARK    3  A    between atoms: C_12  and  O_6 
ROOT
ATOM      1  C   UNL d   1       0.769   5.061  -0.902  0.00  0.00     0.117 A 
ATOM      2  C   UNL d   1       0.757   3.668  -0.735  0.00  0.00     0.100 A 
ATOM      3  C   UNL d   1      -0.146   5.940  -0.244  0.00  0.00     0.105 C 
ATOM      4  N   UNL d   1      -0.902   6.664   0.264  0.00  0.00    -0.191 NA
ATOM      5  C   UNL d   1       1.733   5.627  -1.738  0.00  0.00     0.139 A 
ATOM      6  F   UNL d   1       1.740   6.950  -1.963  0.00  0.00    -0.204 F 
ATOM      7  C   UNL d   1       1.764   2.889  -1.328  0.00  0.00     0.039 A 
ATOM      8  C   UNL d   1       2.740   3.478  -2.134  0.00  0.00     0.006 A 
ATOM      9  C   UNL d   1       2.713   4.851  -2.354  0.00  0.00     0.044 A 
ENDROOT
BRANCH   2  10
ATOM     10  O   UNL d   1      -0.111   2.958   0.066  0.00  0.00    -0.309 OA
BRANCH  10  11
ATOM     11  C   UNL d   1      -1.469   3.167  -0.011  0.00  0.00     0.076 A 
ATOM     12  C   UNL d   1      -2.146   3.672  -1.123  0.00  0.00     0.039 A 
ATOM     13  C   UNL d   1      -3.522   3.920  -1.050  0.00  0.00     0.024 A 
ATOM     14  C   UNL d   1      -4.240   3.612   0.112  0.00  0.00     0.031 A 
ATOM     15  C   UNL d   1      -3.572   3.024   1.189  0.00  0.00     0.024 A 
ATOM     16  C   UNL d   1      -2.192   2.807   1.129  0.00  0.00     0.039 A 
BRANCH  14  17
ATOM     17  S   UNL d   1      -6.022   3.916   0.175  0.00  0.00     0.045 S 
ATOM     18  O   UNL d   1      -6.477   3.442   1.525  0.00  0.00    -0.253 OA
ATOM     19  C   UNL d   1      -5.967   5.726   0.227  0.00  0.00     0.133 C 
ENDBRANCH  14  17
ENDBRANCH  10  11
ENDBRANCH   2  10
TORSDOF 3
