REMARK  3 active torsions:
REMARK  status: ('A' for Active; 'I' for Inactive)
REMARK    1  A    between atoms: C_2  and  C_1 
REMARK       I    between atoms: C_7  and  N_3 
REMARK    2  A    between atoms: C_16  and  C_6 
REMARK    3  A    between atoms: C_13  and  C_7 
ROOT
ATOM      1  C   UNL d   1       0.321  -2.638  -0.021  0.00  0.00     0.076 C 
ATOM      2  N   UNL d   1      -0.109  -3.601  -0.920  0.00  0.00    -0.219 N 
ATOM      3  C   UNL d   1      -0.685  -3.444  -2.195  0.00  0.00     0.277 C 
ATOM      4  N   UNL d   1       0.209  -4.860  -0.490  0.00  0.00    -0.302 N 
ATOM      5  HN  UNL d   1      -0.083  -5.750  -0.892  1.00  0.00     0.186 HD
ATOM      6  C   UNL d   1       1.091  -3.301   0.912  0.00  0.00     0.051 C 
ATOM      7  C   UNL d   1       0.987  -4.658   0.573  0.00  0.00     0.110 C 
ATOM      8  O   UNL d   1      -0.467  -2.391  -2.796  0.00  0.00    -0.265 OA
ENDROOT
BRANCH   1   9
ATOM      9  C   UNL d   1      -0.015  -1.183   0.002  0.00  0.00     0.053 A 
ATOM     10  C   UNL d   1       0.763  -0.071   0.462  0.00  0.00     0.080 A 
ATOM     11  N   UNL d   1       0.034   1.056   0.400  0.00  0.00    -0.259 N 
ATOM     12  O   UNL d   1      -1.194   0.705  -0.104  0.00  0.00    -0.241 OA
ATOM     13  HN  UNL d   1       0.334   1.992   0.675  1.00  0.00     0.195 HD
ATOM     14  C   UNL d   1      -1.236  -0.633  -0.333  0.00  0.00     0.087 A 
ATOM     15  C   UNL d   1      -2.553  -1.145  -0.767  0.00  0.00     0.080 C 
BRANCH  10  16
ATOM     16  C   UNL d   1       2.150  -0.014   0.928  0.00  0.00    -0.007 A 
ATOM     17  C   UNL d   1       2.509   0.863   1.963  0.00  0.00     0.014 A 
ATOM     18  C   UNL d   1       3.827   0.922   2.422  0.00  0.00     0.001 A 
ATOM     19  C   UNL d   1       4.800   0.103   1.855  0.00  0.00     0.000 A 
ATOM     20  C   UNL d   1       4.463  -0.759   0.813  0.00  0.00     0.001 A 
ATOM     21  C   UNL d   1       3.148  -0.804   0.341  0.00  0.00     0.014 A 
ENDBRANCH  10  16
ENDBRANCH   1   9
BRANCH   3  22
ATOM     22  C   UNL d   1      -1.554  -4.462  -2.845  0.00  0.00     0.034 A 
ATOM     23  C   UNL d   1      -2.372  -5.301  -2.075  0.00  0.00     0.019 A 
ATOM     24  C   UNL d   1      -3.258  -6.180  -2.700  0.00  0.00     0.025 A 
ATOM     25  C   UNL d   1      -3.332  -6.220  -4.090  0.00  0.00     0.034 A 
ATOM     26  C   UNL d   1      -2.526  -5.383  -4.865  0.00  0.00     0.025 A 
ATOM     27 CL   UNL d   1      -4.438  -7.290  -4.855  0.00  0.00    -0.084 Cl
ATOM     28  C   UNL d   1      -1.642  -4.496  -4.242  0.00  0.00     0.019 A 
ENDBRANCH   3  22
TORSDOF 3
