REMARK  4 active torsions:
REMARK  status: ('A' for Active; 'I' for Inactive)
REMARK    1  A    between atoms: N_2  and  C_1 
REMARK    2  A    between atoms: N_3  and  C_7 
REMARK    3  A    between atoms: C_5  and  S_8 
REMARK    4  A    between atoms: S_8  and  C_6 
ROOT
ATOM      1  C   UNL d   1       1.443  -0.293   0.157  0.00  0.00     0.122 A 
ATOM      2  C   UNL d   1       0.511  -1.346   0.181  0.00  0.00     0.073 A 
ATOM      3  C   UNL d   1       1.054   1.043  -0.044  0.00  0.00     0.040 A 
ATOM      4  C   UNL d   1      -0.846  -1.048   0.024  0.00  0.00     0.105 A 
ATOM      5  C   UNL d   1      -0.320   1.307  -0.186  0.00  0.00     0.024 A 
ATOM      6  C   UNL d   1      -1.266   0.275  -0.152  0.00  0.00     0.037 A 
ENDROOT
BRANCH   3   7
ATOM      7  S   UNL d   1       2.140   2.462  -0.116  0.00  0.00    -0.063 SA
BRANCH   7   8
ATOM      8  C   UNL d   1       3.007   2.213  -1.599  0.00  0.00     0.108 C 
ATOM      9  N   UNL d   1       2.866   1.172  -2.350  0.00  0.00    -0.378 N 
ATOM     10  C   UNL d   1       3.823   1.269  -3.476  0.00  0.00     0.131 C 
ATOM     11  HN  UNL d   1       2.206   0.411  -2.194  1.00  0.00     0.160 HD
ATOM     12  C   UNL d   1       4.149   2.728  -3.759  0.00  0.00     0.101 C 
ATOM     13  S   UNL d   1       4.099   3.465  -2.118  0.00  0.00    -0.103 SA
ENDBRANCH   7   8
ENDBRANCH   3   7
BRANCH   1  14
ATOM     14  N   UNL d   1       2.833  -0.648   0.397  0.00  0.00    -0.114 N 
ATOM     15  O   UNL d   1       3.311  -1.554  -0.300  0.00  0.00    -0.532 OA
ATOM     16  O   UNL d   1       3.415  -0.075   1.326  0.00  0.00    -0.532 OA
ENDBRANCH   1  14
BRANCH   4  17
ATOM     17  N   UNL d   1      -1.841  -2.129   0.059  0.00  0.00    -0.116 N 
ATOM     18  O   UNL d   1      -1.425  -3.286   0.205  0.00  0.00    -0.532 OA
ATOM     19  O   UNL d   1      -3.034  -1.816  -0.055  0.00  0.00    -0.532 OA
ENDBRANCH   4  17
TORSDOF 4
