REMARK  5 active torsions:
REMARK  status: ('A' for Active; 'I' for Inactive)
REMARK    1  A    between atoms: C_10  and  C_7 
REMARK    2  A    between atoms: C_17  and  C_15 
REMARK    3  A    between atoms: C_18  and  C_17 
REMARK    4  A    between atoms: C_20  and  C_18 
REMARK    5  A    between atoms: C_19  and  C_20 
ROOT
ATOM      1  C   UNL d   1       1.205   0.873  -0.004  0.00  0.00    -0.042 A 
ATOM      2  C   UNL d   1      -1.145   0.884   0.014  0.00  0.00    -0.042 A 
ATOM      3  C   UNL d   1       0.747  -0.462  -0.006  0.00  0.00    -0.019 A 
ATOM      4  C   UNL d   1      -0.701  -0.454  -0.002  0.00  0.00    -0.019 A 
ATOM      5  C   UNL d   1       0.034   1.834  -0.005  0.00  0.00     0.078 A 
ATOM      6  C   UNL d   1       2.557   1.174   0.001  0.00  0.00     0.023 A 
ATOM      7  C   UNL d   1       3.472   0.111   0.023  0.00  0.00     0.010 A 
ATOM      8  C   UNL d   1       1.645  -1.514  -0.008  0.00  0.00     0.014 A 
ATOM      9  C   UNL d   1      -1.613  -1.495  -0.005  0.00  0.00     0.013 A 
ATOM     10  C   UNL d   1      -2.493   1.199   0.037  0.00  0.00     0.015 A 
ATOM     11  C   UNL d   1       3.015  -1.223   0.003  0.00  0.00     0.016 A 
ATOM     12  C   UNL d   1      -2.978  -1.186   0.005  0.00  0.00     0.008 A 
ATOM     13  C   UNL d   1      -3.427   0.152   0.021  0.00  0.00    -0.058 A 
ENDROOT
BRANCH  13  14
ATOM     14  C   UNL d   1      -4.908   0.456   0.024  0.00  0.00     0.038 C 
BRANCH  14  15
ATOM     15  C   UNL d   1      -5.331   1.252  -1.213  0.00  0.00     0.005 C 
BRANCH  15  16
ATOM     16  C   UNL d   1      -6.830   1.544  -1.212  0.00  0.00    -0.000 C 
BRANCH  16  17
ATOM     17  C   UNL d   1      -7.221   2.363  -2.442  0.00  0.00    -0.005 C 
ATOM     18  C   UNL d   1      -8.708   2.671  -2.459  0.00  0.00     0.005 C 
ENDBRANCH  16  17
ENDBRANCH  15  16
ENDBRANCH  14  15
ENDBRANCH  13  14
BRANCH   7  19
ATOM     19  C   UNL d   1       4.922   0.448   0.056  0.00  0.00     0.155 C 
ATOM     20  O   UNL d   1       5.305   1.515  -0.420  0.00  0.00    -0.293 OA
ATOM     21  C   UNL d   1       5.894  -0.501   0.709  0.00  0.00     0.096 C 
ENDBRANCH   7  19
TORSDOF 5
