REMARK  2 active torsions:
REMARK  status: ('A' for Active; 'I' for Inactive)
REMARK    1  A    between atoms: O_7  and  C_3 
REMARK    2  A    between atoms: O_8  and  C_4 
ROOT
ATOM      1  C   UNL d   1       0.051  -0.706   0.003  0.00  0.00     0.010 A 
ATOM      2  C   UNL d   1       0.048   0.715   0.009  0.00  0.00     0.010 A 
ATOM      3  C   UNL d   1       1.286  -1.401  -0.005  0.00  0.00     0.079 A 
ATOM      4  C   UNL d   1       1.281   1.415   0.013  0.00  0.00     0.079 A 
ATOM      5  C   UNL d   1       2.486  -0.688  -0.012  0.00  0.00     0.040 A 
ATOM      6  C   UNL d   1       2.484   0.707  -0.003  0.00  0.00     0.040 A 
ATOM      7  C   UNL d   1      -1.192  -1.382   0.001  0.00  0.00     0.015 A 
ATOM      8  C   UNL d   1      -1.196   1.386   0.012  0.00  0.00     0.015 A 
ATOM      9  C   UNL d   1      -2.405  -0.693   0.002  0.00  0.00     0.001 A 
ATOM     10  C   UNL d   1      -2.408   0.693   0.007  0.00  0.00     0.001 A 
ENDROOT
BRANCH   3  11
ATOM     11  O   UNL d   1       1.213  -2.775  -0.004  0.00  0.00    -0.355 OA
ATOM     12  C   UNL d   1       2.435  -3.501  -0.002  0.00  0.00     0.210 C 
ENDBRANCH   3  11
BRANCH   4  13
ATOM     13  O   UNL d   1       1.202   2.788   0.034  0.00  0.00    -0.355 OA
ATOM     14  C   UNL d   1       2.421   3.519   0.056  0.00  0.00     0.210 C 
ENDBRANCH   4  13
TORSDOF 2
