REMARK  6 active torsions:
REMARK  status: ('A' for Active; 'I' for Inactive)
REMARK    1  A    between atoms: C_7  and  C_1 
REMARK    2  A    between atoms: C_8  and  C_2 
REMARK    3  A    between atoms: C_11  and  N_3 
REMARK    4  A    between atoms: N_9  and  C_7 
REMARK    5  A    between atoms: O_16  and  C_8 
REMARK    6  A    between atoms: C_15  and  N_9 
ROOT
ATOM      1  C   UNL d   1       0.991  -0.840   0.033  0.00  0.00     0.089 C 
ATOM      2  C   UNL d   1      -0.337  -1.253   0.008  0.00  0.00     0.086 C 
ATOM      3  N   UNL d   1       0.960   0.547   0.079  0.00  0.00    -0.255 N 
ATOM      4  N   UNL d   1      -0.301   1.014   0.252  0.00  0.00    -0.303 N 
ATOM      5  HN  UNL d   1      -0.592   1.972   0.450  1.00  0.00     0.186 HD
ATOM      6  C   UNL d   1      -1.076  -0.061   0.105  0.00  0.00     0.127 C 
ENDROOT
BRANCH   1   7
ATOM      7  C   UNL d   1       2.186  -1.637   0.069  0.00  0.00     0.121 C 
BRANCH   7   8
ATOM      8  N   UNL d   1       2.289  -2.694  -0.663  0.00  0.00    -0.364 N 
ATOM      9  HN  UNL d   1       1.541  -2.957  -1.304  1.00  0.00     0.165 HD
BRANCH   8  10
ATOM     10  C   UNL d   1       3.452  -3.475  -0.561  0.00  0.00     0.032 A 
ATOM     11  C   UNL d   1       3.307  -4.864  -0.539  0.00  0.00     0.030 A 
ATOM     12  C   UNL d   1       4.421  -5.705  -0.474  0.00  0.00     0.009 A 
ATOM     13  C   UNL d   1       5.710  -5.164  -0.441  0.00  0.00    -0.062 A 
ATOM     14  C   UNL d   1       5.863  -3.774  -0.464  0.00  0.00     0.009 A 
ATOM     15  C   UNL d   1       6.904  -6.072  -0.404  0.00  0.00     0.048 C 
ATOM     16  C   UNL d   1       4.744  -2.938  -0.536  0.00  0.00     0.030 A 
ENDBRANCH   8  10
ENDBRANCH   7   8
ENDBRANCH   1   7
BRANCH   2  17
ATOM     17  C   UNL d   1      -0.893  -2.592  -0.035  0.00  0.00     0.296 C 
ATOM     18  O   UNL d   1      -2.002  -2.828  -0.498  0.00  0.00    -0.259 OA
BRANCH  17  19
ATOM     19  O   UNL d   1      -0.100  -3.520   0.567  0.00  0.00    -0.322 OA
ATOM     20  C   UNL d   1      -0.590  -4.857   0.486  0.00  0.00     0.213 C 
ENDBRANCH  17  19
ENDBRANCH   2  17
BRANCH   3  21
ATOM     21  C   UNL d   1       2.033   1.474  -0.063  0.00  0.00     0.057 A 
ATOM     22  C   UNL d   1       3.186   1.152  -0.796  0.00  0.00     0.033 A 
ATOM     23  C   UNL d   1       4.219   2.087  -0.920  0.00  0.00     0.026 A 
ATOM     24  C   UNL d   1       4.104   3.338  -0.319  0.00  0.00     0.034 A 
ATOM     25  C   UNL d   1       2.956   3.675   0.394  0.00  0.00     0.026 A 
ATOM     26 CL   UNL d   1       5.383   4.479  -0.473  0.00  0.00    -0.084 Cl
ATOM     27  C   UNL d   1       1.913   2.751   0.509  0.00  0.00     0.033 A 
ENDBRANCH   3  21
TORSDOF 6
