REMARK  2 active torsions:
REMARK  status: ('A' for Active; 'I' for Inactive)
REMARK    1  A    between atoms: C_7  and  N_2 
REMARK    2  A    between atoms: C_10  and  C_6 
ROOT
ATOM      1  N   UNL d   1      -0.100  -0.845  -0.348  0.00  0.00    -0.014 NA
ATOM      2  N   UNL d   1       1.152  -0.432  -0.042  0.00  0.00    -0.242 N 
ATOM      3  N   UNL d   1      -0.909   0.200  -0.284  0.00  0.00    -0.281 N 
ATOM      4  HN  UNL d   1      -1.923   0.178  -0.391  1.00  0.00     0.184 HD
ATOM      5  C   UNL d   1       1.183   0.954   0.026  0.00  0.00     0.057 C 
ATOM      6  C   UNL d   1      -0.152   1.315  -0.048  0.00  0.00     0.080 C 
ATOM      7  C   UNL d   1       2.420   1.776   0.007  0.00  0.00     0.072 C 
ENDROOT
BRANCH   2   8
ATOM      8  C   UNL d   1       2.188  -1.381   0.157  0.00  0.00     0.056 A 
ATOM      9  C   UNL d   1       2.137  -2.604  -0.532  0.00  0.00     0.058 A 
ATOM     10  C   UNL d   1       3.158  -3.539  -0.358  0.00  0.00     0.074 A 
ATOM     11 CL   UNL d   1       3.126  -5.006  -1.258  0.00  0.00    -0.081 Cl
ATOM     12  C   UNL d   1       4.199  -3.275   0.530  0.00  0.00     0.138 A 
ATOM     13  C   UNL d   1       4.238  -2.080   1.242  0.00  0.00     0.046 A 
ATOM     14  F   UNL d   1       5.182  -4.168   0.721  0.00  0.00    -0.204 F 
ATOM     15  C   UNL d   1       3.236  -1.126   1.054  0.00  0.00     0.034 A 
ENDBRANCH   2   8
BRANCH   6  16
ATOM     16  C   UNL d   1      -0.714   2.657  -0.017  0.00  0.00    -0.006 A 
ATOM     17  C   UNL d   1      -0.132   3.690   0.732  0.00  0.00     0.014 A 
ATOM     18  C   UNL d   1      -0.668   4.976   0.714  0.00  0.00     0.001 A 
ATOM     19  C   UNL d   1      -1.813   5.245  -0.035  0.00  0.00     0.000 A 
ATOM     20  C   UNL d   1      -2.424   4.222  -0.756  0.00  0.00     0.001 A 
ATOM     21  C   UNL d   1      -1.879   2.934  -0.746  0.00  0.00     0.014 A 
ENDBRANCH   6  16
TORSDOF 2
