REMARK  4 active torsions:
REMARK  status: ('A' for Active; 'I' for Inactive)
REMARK    1  A    between atoms: C_2  and  C_1 
REMARK    2  A    between atoms: C_5  and  C_2 
REMARK    3  A    between atoms: N_10  and  N_3 
REMARK    4  A    between atoms: C_13  and  N_10 
ROOT
ATOM      1  C   UNL d   1       0.985  -0.081   0.028  0.00  0.00     0.175 C 
ATOM      2  N   UNL d   1       0.314   0.912  -0.486  0.00  0.00    -0.287 N 
ATOM      3  HN  UNL d   1       0.814   1.726  -0.843  1.00  0.00     0.188 HD
ATOM      4  C   UNL d   1       0.271  -1.222   0.544  0.00  0.00     0.123 C 
ATOM      5  N   UNL d   1      -0.350  -2.117   0.956  0.00  0.00    -0.190 NA
ENDROOT
BRANCH   1   6
ATOM      6  C   UNL d   1       2.485  -0.017   0.071  0.00  0.00     0.192 C 
ATOM      7  O   UNL d   1       3.097  -0.513   1.006  0.00  0.00    -0.290 OA
BRANCH   6   8
ATOM      8  C   UNL d   1       3.154   0.634  -1.089  0.00  0.00     0.063 A 
ATOM      9  C   UNL d   1       4.415   0.024  -1.660  0.00  0.00     0.013 A 
ATOM     10  C   UNL d   1       4.488   1.325  -0.917  0.00  0.00     0.013 A 
ENDBRANCH   6   8
ENDBRANCH   1   6
BRANCH   2  11
ATOM     11  N   UNL d   1      -1.049   0.874  -0.552  0.00  0.00    -0.300 N 
ATOM     12  H   UNL d   1      -1.603   0.398   0.165  0.00  0.00     0.187 HD
BRANCH  11  13
ATOM     13  C   UNL d   1      -1.704   1.998  -1.105  0.00  0.00     0.051 A 
ATOM     14  C   UNL d   1      -1.003   3.006  -1.780  0.00  0.00     0.073 A 
ATOM     15  C   UNL d   1      -1.684   4.058  -2.382  0.00  0.00     0.118 A 
ATOM     16  F   UNL d   1      -0.989   5.015  -3.011  0.00  0.00    -0.206 F 
ATOM     17  C   UNL d   1      -3.070   4.126  -2.352  0.00  0.00     0.042 A 
ATOM     18  C   UNL d   1      -3.787   3.121  -1.708  0.00  0.00     0.005 A 
ATOM     19  C   UNL d   1      -3.108   2.059  -1.097  0.00  0.00     0.031 A 
ENDBRANCH  11  13
ENDBRANCH   2  11
TORSDOF 4
