REMARK  2 active torsions:
REMARK  status: ('A' for Active; 'I' for Inactive)
REMARK    1  A    between atoms: S_7  and  C_2 
REMARK    2  A    between atoms: C_10  and  C_5 
ROOT
ATOM      1  C   UNL d   1      -0.363  -1.347  -0.098  0.00  0.00     0.118 A 
ATOM      2  C   UNL d   1       0.887  -0.692  -0.043  0.00  0.00     0.144 A 
ATOM      3  N   UNL d   1       0.745   0.632   0.079  0.00  0.00    -0.250 N 
ATOM      4  HN  UNL d   1       1.486   1.330   0.148  1.00  0.00     0.195 HD
ATOM      5  C   UNL d   1      -1.293  -0.331  -0.013  0.00  0.00     0.132 A 
ATOM      6  O   UNL d   1      -0.621   0.856   0.090  0.00  0.00    -0.234 OA
ATOM      7  C   UNL d   1      -0.663  -2.734  -0.202  0.00  0.00     0.105 C 
ATOM      8  N   UNL d   1      -0.999  -3.842  -0.264  0.00  0.00    -0.191 NA
ENDROOT
BRANCH   2   9
ATOM      9  S   UNL d   1       2.447  -1.451  -0.040  0.00  0.00     0.066 S 
ATOM     10  O   UNL d   1       2.258  -2.885  -0.429  0.00  0.00    -0.252 OA
ATOM     11  C   UNL d   1       3.223  -0.558  -1.402  0.00  0.00     0.134 C 
ENDBRANCH   2   9
BRANCH   5  12
ATOM     12  C   UNL d   1      -2.751  -0.226   0.030  0.00  0.00     0.002 A 
ATOM     13  C   UNL d   1      -3.542  -1.249   0.578  0.00  0.00     0.016 A 
ATOM     14  C   UNL d   1      -4.935  -1.121   0.652  0.00  0.00     0.024 A 
ATOM     15  C   UNL d   1      -5.553   0.031   0.177  0.00  0.00     0.034 A 
ATOM     16  C   UNL d   1      -4.792   1.050  -0.388  0.00  0.00     0.024 A 
ATOM     17 CL   UNL d   1      -7.260   0.201   0.300  0.00  0.00    -0.084 Cl
ATOM     18  C   UNL d   1      -3.400   0.920  -0.461  0.00  0.00     0.016 A 
ENDBRANCH   5  12
TORSDOF 2
