REMARK  2 active torsions:
REMARK  status: ('A' for Active; 'I' for Inactive)
REMARK    1  A    between atoms: C_2  and  C_1 
REMARK    2  A    between atoms: O_9  and  C_2 
ROOT
ATOM      1  C   UNL d   1      -0.043   2.543  -0.029  0.00  0.00     0.040 A 
ATOM      2  C   UNL d   1       1.177   1.855  -0.042  0.00  0.00     0.037 A 
ATOM      3  C   UNL d   1      -1.249   1.830  -0.003  0.00  0.00     0.037 A 
ATOM      4  C   UNL d   1      -1.218   0.435   0.038  0.00  0.00     0.013 A 
ATOM      5  C   UNL d   1       1.186   0.461  -0.007  0.00  0.00     0.013 A 
ATOM      6  C   UNL d   1      -0.008  -0.256   0.040  0.00  0.00     0.038 A 
ATOM      7 BR   UNL d   1      -2.844  -0.531   0.081  0.00  0.00    -0.051 Br
ATOM      8 BR   UNL d   1       2.833  -0.465  -0.033  0.00  0.00    -0.051 Br
ENDROOT
BRANCH   1   9
ATOM      9  C   UNL d   1      -0.004   4.024  -0.104  0.00  0.00     0.176 C 
ATOM     10  O   UNL d   1       0.894   4.628  -0.662  0.00  0.00    -0.646 OA
BRANCH   9  11
ATOM     11  O   UNL d   1      -1.025   4.638   0.529  0.00  0.00    -0.773 OA
ATOM     12  H   UNL d   1      -1.582   4.073   1.093  0.00  0.00     0.167 HD
ENDBRANCH   9  11
ENDBRANCH   1   9
TORSDOF 2
