REMARK  5 active torsions:
REMARK  status: ('A' for Active; 'I' for Inactive)
REMARK    1  A    between atoms: N_10  and  C_2 
REMARK    2  A    between atoms: S_3  and  N_5 
REMARK    3  A    between atoms: C_12  and  S_3 
REMARK    4  A    between atoms: N_5  and  N_10 
REMARK    5  A    between atoms: C_11  and  C_15 
ROOT
ATOM      1  N   UNL d   1      -3.391  -1.254   0.236  0.00  0.00    -0.221 N 
ATOM      2  H   UNL d   1      -4.402  -1.198   0.388  0.00  0.00     0.200 HD
ENDROOT
BRANCH   1   3
ATOM      3  S   UNL d   1      -2.791  -2.781  -0.198  0.00  0.00     0.276 S 
ATOM      4  O   UNL d   1      -2.374  -2.720  -1.585  0.00  0.00    -0.199 OA
ATOM      5  O   UNL d   1      -1.880  -3.219   0.838  0.00  0.00    -0.199 OA
BRANCH   3   6
ATOM      6  C   UNL d   1      -4.243  -3.797  -0.108  0.00  0.00     0.081 A 
ATOM      7  C   UNL d   1      -5.026  -3.996  -1.247  0.00  0.00     0.026 A 
ATOM      8  C   UNL d   1      -6.148  -4.827  -1.176  0.00  0.00     0.018 A 
ATOM      9  C   UNL d   1      -6.487  -5.469   0.027  0.00  0.00     0.048 A 
ATOM     10  C   UNL d   1      -5.673  -5.276   1.157  0.00  0.00     0.018 A 
ATOM     11  C   UNL d   1      -4.551  -4.446   1.091  0.00  0.00     0.026 A 
BRANCH   9  12
ATOM     12  C   UNL d   1      -7.708  -6.355   0.126  0.00  0.00     0.417 C 
ATOM     13  F   UNL d   1      -8.384  -6.485  -1.049  0.00  0.00    -0.166 F 
ATOM     14  F   UNL d   1      -7.405  -7.620   0.527  0.00  0.00    -0.166 F 
ATOM     15  F   UNL d   1      -8.614  -5.883   1.027  0.00  0.00    -0.166 F 
ENDBRANCH   9  12
ENDBRANCH   3   6
ENDBRANCH   1   3
BRANCH   1  16
ATOM     16  N   UNL d   1      -2.563  -0.005   0.397  0.00  0.00    -0.284 N 
ATOM     17  C   UNL d   1      -1.117  -0.153   0.161  0.00  0.00     0.179 C 
BRANCH  16  18
ATOM     18  C   UNL d   1      -3.162   1.230   0.732  0.00  0.00     0.095 C 
ATOM     19  C   UNL d   1      -4.436   1.533   1.056  0.00  0.00     0.133 C 
ATOM     20  C   UNL d   1      -4.898   2.935   1.324  0.00  0.00     0.285 C 
ATOM     21 CL   UNL d   1      -5.690   0.333   1.184  0.00  0.00    -0.076 Cl
ATOM     22  N   UNL d   1      -3.944   3.929   1.166  0.00  0.00    -0.261 N 
ATOM     23  O   UNL d   1      -6.063   3.175   1.641  0.00  0.00    -0.265 OA
ATOM     24  N   UNL d   1      -2.625   3.678   0.941  0.00  0.00    -0.305 N 
ATOM     25  C   UNL d   1      -4.313   5.318   1.365  0.00  0.00     0.181 C 
ATOM     26  C   UNL d   1      -2.287   2.445   0.757  0.00  0.00     0.140 C 
ATOM     27  HN  UNL d   1      -1.936   4.429   0.919  1.00  0.00     0.186 HD
ENDBRANCH  16  18
ENDBRANCH   1  16
TORSDOF 5
