REMARK  1 active torsions:
REMARK  status: ('A' for Active; 'I' for Inactive)
REMARK    1  A    between atoms: C_2  and  C_1 
ROOT
ATOM      1  C   UNL d   1       2.262  -1.371   0.090  0.00  0.00     0.083 A 
ATOM      2  N   UNL d   1       2.358  -2.251  -0.941  0.00  0.00    -0.361 N 
ATOM      3  HN  UNL d   1       1.654  -2.299  -1.678  1.00  0.00     0.165 HD
ATOM      4  C   UNL d   1       3.201  -1.345   1.129  0.00  0.00     0.034 A 
ATOM      5  N   UNL d   1       4.290  -2.168   1.112  0.00  0.00    -0.366 N 
ATOM      6  HN  UNL d   1       4.990  -2.146   1.854  1.00  0.00     0.165 HD
ATOM      7  C   UNL d   1       3.443  -3.059  -0.934  0.00  0.00     0.105 A 
ATOM      8  C   UNL d   1       4.392  -3.011   0.066  0.00  0.00     0.105 A 
ATOM      9  C   UNL d   1       3.107  -0.464   2.334  0.00  0.00     0.070 C 
ENDROOT
BRANCH   1  10
ATOM     10  C   UNL d   1       1.088  -0.516  -0.019  0.00  0.00     0.078 A 
ATOM     11  N   UNL d   1      -0.059  -0.952  -0.637  0.00  0.00    -0.299 N 
ATOM     12  N   UNL d   1      -1.073  -0.070  -0.602  0.00  0.00    -0.311 N 
ATOM     13  H   UNL d   1      -0.199  -1.853  -1.083  0.00  0.00     0.187 HD
ATOM     14  C   UNL d   1      -0.534   1.000  -0.015  0.00  0.00     0.109 A 
ATOM     15  HN  UNL d   1      -2.027  -0.191  -0.943  1.00  0.00     0.186 HD
ATOM     16  C   UNL d   1       0.810   0.789   0.341  0.00  0.00     0.052 A 
ENDBRANCH   1  10
TORSDOF 1
