REMARK  3 active torsions:
REMARK  status: ('A' for Active; 'I' for Inactive)
REMARK    1  A    between atoms: C_8  and  C_3 
REMARK    2  A    between atoms: C_10  and  C_6 
REMARK    3  A    between atoms: O_15  and  C_8 
ROOT
ATOM      1  N   UNL d   1       1.248  -1.238  -0.065  0.00  0.00    -0.355 N 
ATOM      2  HN  UNL d   1       1.256  -2.256  -0.124  1.00  0.00     0.166 HD
ATOM      3  C   UNL d   1       1.224   1.522   0.021  0.00  0.00     0.052 A 
ATOM      4  C   UNL d   1       0.078  -0.578  -0.054  0.00  0.00     0.044 A 
ATOM      5  C   UNL d   1      -0.007   0.826  -0.023  0.00  0.00     0.008 A 
ATOM      6  C   UNL d   1       2.416  -0.557   0.001  0.00  0.00     0.044 A 
ATOM      7  C   UNL d   1       2.438   0.826   0.049  0.00  0.00     0.049 A 
ATOM      8  C   UNL d   1      -1.293   1.425  -0.034  0.00  0.00     0.015 A 
ATOM      9  C   UNL d   1      -1.091  -1.327  -0.063  0.00  0.00     0.037 A 
ATOM     10  C   UNL d   1      -2.455   0.650  -0.041  0.00  0.00     0.007 A 
ATOM     11  C   UNL d   1      -2.363  -0.738  -0.052  0.00  0.00    -0.060 A 
ATOM     12  C   UNL d   1      -3.590  -1.599  -0.002  0.00  0.00     0.048 C 
ENDROOT
BRANCH   6  13
ATOM     13  C   UNL d   1       3.638  -1.387   0.024  0.00  0.00    -0.009 A 
ATOM     14  C   UNL d   1       3.676  -2.627  -0.644  0.00  0.00     0.015 A 
ATOM     15  C   UNL d   1       4.820  -3.434  -0.627  0.00  0.00     0.024 A 
ATOM     16  C   UNL d   1       5.950  -3.014   0.064  0.00  0.00     0.034 A 
ATOM     17  C   UNL d   1       5.945  -1.795   0.736  0.00  0.00     0.024 A 
ATOM     18 CL   UNL d   1       7.354  -4.005   0.100  0.00  0.00    -0.084 Cl
ATOM     19  C   UNL d   1       4.799  -0.992   0.717  0.00  0.00     0.015 A 
ENDBRANCH   6  13
BRANCH   3  20
ATOM     20  C   UNL d   1       1.273   3.002   0.122  0.00  0.00     0.177 C 
ATOM     21  O   UNL d   1       0.552   3.658   0.848  0.00  0.00    -0.646 OA
BRANCH  20  22
ATOM     22  O   UNL d   1       2.219   3.558  -0.670  0.00  0.00    -0.773 OA
ATOM     23  H   UNL d   1       2.642   2.958  -1.313  0.00  0.00     0.167 HD
ENDBRANCH  20  22
ENDBRANCH   3  20
TORSDOF 3
