REMARK  5 active torsions:
REMARK  status: ('A' for Active; 'I' for Inactive)
REMARK    1  A    between atoms: C_3  and  C_1 
REMARK       I    between atoms: N_6  and  C_1 
REMARK    2  A    between atoms: C_2  and  N_8 
REMARK    3  A    between atoms: N_5  and  C_2 
REMARK    4  A    between atoms: C_4  and  N_5 
REMARK    5  A    between atoms: N_8  and  N_6 
ROOT
ATOM      1  C   UNL d   1      -1.911   1.308   2.095  0.00  0.00     0.191 C 
ATOM      2  S   UNL d   1      -3.566   1.477   2.280  0.00  0.00    -0.039 SA
ENDROOT
BRANCH   1   3
ATOM      3  N   UNL d   1      -1.312   0.650   1.058  0.00  0.00    -0.273 N 
ATOM      4  H   UNL d   1      -0.391   0.939   0.726  0.00  0.00     0.189 HD
BRANCH   3   5
ATOM      5  N   UNL d   1      -1.985  -0.271   0.250  0.00  0.00    -0.262 N 
ATOM      6  C   UNL d   1      -1.236  -0.958  -0.694  0.00  0.00     0.293 C 
ATOM      7  O   UNL d   1      -0.117  -0.572  -1.031  0.00  0.00    -0.264 OA
ATOM      8  H   UNL d   1      -2.821  -0.710   0.633  0.00  0.00     0.190 HD
BRANCH   6   9
ATOM      9  C   UNL d   1      -1.867  -2.157  -1.194  0.00  0.00     0.144 A 
ATOM     10  O   UNL d   1      -3.062  -2.566  -0.662  0.00  0.00    -0.317 OA
ATOM     11  C   UNL d   1      -3.408  -3.717  -1.293  0.00  0.00     0.143 A 
ATOM     12  C   UNL d   1      -2.461  -4.059  -2.229  0.00  0.00     0.027 A 
ATOM     13  C   UNL d   1      -1.463  -3.059  -2.164  0.00  0.00     0.045 A 
ENDBRANCH   6   9
ENDBRANCH   3   5
ENDBRANCH   1   3
BRANCH   1  14
ATOM     14  N   UNL d   1      -1.089   1.860   3.040  0.00  0.00    -0.331 N 
ATOM     15  H   UNL d   1      -1.552   2.534   3.647  0.00  0.00     0.168 HD
BRANCH  14  16
ATOM     16  C   UNL d   1       0.240   1.528   3.418  0.00  0.00     0.057 A 
ATOM     17  C   UNL d   1       0.911   0.392   2.947  0.00  0.00     0.055 A 
ATOM     18  C   UNL d   1       2.216   0.117   3.349  0.00  0.00     0.036 A 
ATOM     19 CL   UNL d   1       3.018  -1.278   2.736  0.00  0.00    -0.084 Cl
ATOM     20  C   UNL d   1       2.869   0.945   4.255  0.00  0.00     0.026 A 
ATOM     21  C   UNL d   1       2.202   2.052   4.776  0.00  0.00     0.028 A 
ATOM     22  C   UNL d   1       0.894   2.338   4.365  0.00  0.00     0.060 A 
ATOM     23 CL   UNL d   1       0.105   3.705   5.073  0.00  0.00    -0.082 Cl
ENDBRANCH  14  16
ENDBRANCH   1  14
TORSDOF 5
