REMARK  8 active torsions:
REMARK  status: ('A' for Active; 'I' for Inactive)
REMARK    1  A    between atoms: N_2  and  C_1 
REMARK    2  A    between atoms: O_11  and  C_3 
REMARK    3  A    between atoms: O_12  and  N_5 
REMARK    4  A    between atoms: C_7  and  C_9 
REMARK    5  A    between atoms: N_24  and  C_7 
REMARK    6  A    between atoms: C_8  and  O_12 
REMARK    7  A    between atoms: C_14  and  C_8 
REMARK    8  A    between atoms: C_10  and  O_11 
ROOT
ATOM      1  C   UNL d   1      -4.263   4.269   0.739  0.00  0.00     0.137 A 
ATOM      2  C   UNL d   1      -5.147   3.215   0.510  0.00  0.00     0.109 A 
ATOM      3  C   UNL d   1      -2.877   4.072   0.771  0.00  0.00     0.053 A 
ATOM      4  C   UNL d   1      -2.361   2.779   0.603  0.00  0.00     0.006 A 
ATOM      5  C   UNL d   1      -4.628   1.915   0.452  0.00  0.00     0.041 A 
ATOM      6  C   UNL d   1      -3.244   1.700   0.481  0.00  0.00     0.018 A 
ENDROOT
BRANCH   4   7
ATOM      7  C   UNL d   1      -0.872   2.576   0.538  0.00  0.00     0.109 C 
ATOM      8  N   UNL d   1      -0.128   3.608   0.796  0.00  0.00    -0.246 N 
ATOM      9  HN  UNL d   1      -0.500   4.516   1.076  1.00  0.00     0.196 HD
BRANCH   8  10
ATOM     10  O   UNL d   1       1.246   3.341   0.648  0.00  0.00    -0.198 OA
BRANCH  10  11
ATOM     11  C   UNL d   1       1.961   4.485   0.910  0.00  0.00     0.288 C 
ATOM     12  O   UNL d   1       1.486   5.561   1.272  0.00  0.00    -0.262 OA
BRANCH  11  13
ATOM     13  C   UNL d   1       3.463   4.292   0.667  0.00  0.00     0.039 C 
ATOM     14  C   UNL d   1       3.852   2.852   0.306  0.00  0.00     0.025 C 
ATOM     15  C   UNL d   1       3.870   5.225  -0.483  0.00  0.00     0.025 C 
ATOM     16  C   UNL d   1       4.201   4.698   1.952  0.00  0.00     0.025 C 
ENDBRANCH  11  13
ENDBRANCH  10  11
ENDBRANCH   8  10
BRANCH   7  17
ATOM     17  N   UNL d   1      -0.367   1.346   0.187  0.00  0.00    -0.286 NA
ATOM     18  H   UNL d   1       0.626   1.381  -0.024  0.00  0.00     0.125 HD
ATOM     19  H   UNL d   1      -0.881   0.827  -0.515  0.00  0.00     0.125 HD
ENDBRANCH   7  17
ENDBRANCH   4   7
BRANCH   1  20
ATOM     20  N   UNL d   1      -4.772   5.610   0.944  0.00  0.00    -0.113 N 
ATOM     21  O   UNL d   1      -5.549   5.780   1.895  0.00  0.00    -0.532 OA
ATOM     22  O   UNL d   1      -4.370   6.489   0.173  0.00  0.00    -0.532 OA
ENDBRANCH   1  20
BRANCH   2  23
ATOM     23  O   UNL d   1      -6.493   3.478   0.349  0.00  0.00    -0.308 OA
BRANCH  23  24
ATOM     24  C   UNL d   1      -7.192   2.716  -0.565  0.00  0.00     0.079 A 
ATOM     25  C   UNL d   1      -8.470   2.303  -0.191  0.00  0.00     0.061 A 
ATOM     26  C   UNL d   1      -9.188   1.452  -1.031  0.00  0.00     0.038 A 
ATOM     27 CL   UNL d   1     -10.748   0.903  -0.556  0.00  0.00    -0.084 Cl
ATOM     28  C   UNL d   1      -8.646   1.019  -2.240  0.00  0.00     0.048 A 
ATOM     29  C   UNL d   1      -7.394   1.484  -2.629  0.00  0.00     0.038 A 
ATOM     30  C   UNL d   1      -6.676   2.357  -1.815  0.00  0.00     0.061 A 
ATOM     31 CL   UNL d   1      -6.700   0.941  -4.107  0.00  0.00    -0.084 Cl
ENDBRANCH  23  24
ENDBRANCH   2  23
TORSDOF 8
