REMARK  1 active torsions:
REMARK  status: ('A' for Active; 'I' for Inactive)
REMARK       I    between atoms: N_2  and  C_1 
REMARK    1  A    between atoms: C_4  and  C_1 
ROOT
ATOM      1  C   UNL d   1       1.106  -0.016  -0.080  0.00  0.00     0.273 C 
ATOM      2  N   UNL d   1       0.480   1.141  -0.475  0.00  0.00    -0.156 N 
ATOM      3  HN  UNL d   1      -0.330   1.509   0.023  1.00  0.00     0.187 HD
ATOM      4  C   UNL d   1       0.968   1.735  -1.505  0.00  0.00     0.676 C 
ATOM      5  N   UNL d   1       2.080   1.438  -2.246  0.00  0.00    -0.225 N 
ATOM      6  N   UNL d   1       0.448   2.879  -2.048  0.00  0.00    -0.225 N 
ATOM      7  O   UNL d   1       2.317  -0.213  -0.151  0.00  0.00    -0.267 OA
ATOM      8  C   UNL d   1       2.490   2.513  -3.124  0.00  0.00     0.158 C 
ATOM      9  C   UNL d   1       1.387   3.565  -2.915  0.00  0.00     0.158 C 
ATOM     10  H   UNL d   1       2.783   0.875  -1.768  0.00  0.00     0.177 HD
ATOM     11  H   UNL d   1      -0.212   3.399  -1.486  0.00  0.00     0.177 HD
ENDROOT
BRANCH   1  12
ATOM     12  C   UNL d   1       0.238  -1.095   0.460  0.00  0.00     0.076 A 
ATOM     13  C   UNL d   1       0.653  -1.824   1.590  0.00  0.00     0.051 A 
ATOM     14 CL   UNL d   1       2.046  -1.419   2.537  0.00  0.00    -0.083 Cl
ATOM     15  C   UNL d   1      -0.090  -2.925   2.040  0.00  0.00     0.025 A 
ATOM     16  C   UNL d   1      -1.262  -3.297   1.392  0.00  0.00     0.003 A 
ATOM     17  C   UNL d   1      -1.699  -2.564   0.293  0.00  0.00     0.025 A 
ATOM     18  C   UNL d   1      -0.953  -1.475  -0.183  0.00  0.00     0.051 A 
ATOM     19 CL   UNL d   1      -1.571  -0.728  -1.617  0.00  0.00    -0.083 Cl
ENDBRANCH   1  12
TORSDOF 1
