REMARK  6 active torsions:
REMARK  status: ('A' for Active; 'I' for Inactive)
REMARK    1  A    between atoms: C_11  and  N_3 
REMARK    2  A    between atoms: C_7  and  O_10 
REMARK    3  A    between atoms: O_10  and  C_16 
REMARK    4  A    between atoms: C_14  and  C_11 
REMARK    5  A    between atoms: C_16  and  C_14 
REMARK    6  A    between atoms: O_19  and  C_14 
ROOT
ATOM      1  C   UNL d   1      -2.258  -2.516   0.018  0.00  0.00     0.160 C 
ENDROOT
BRANCH   1   2
ATOM      2  C   UNL d   1      -2.940  -1.897   1.243  0.00  0.00     0.163 C 
BRANCH   2   3
ATOM      3  N   UNL d   1      -2.464  -2.479   2.487  0.00  0.00    -0.349 N 
ATOM      4  C   UNL d   1      -1.438  -1.997   3.248  0.00  0.00     0.182 A 
ATOM      5  N   UNL d   1      -1.264  -2.719   4.331  0.00  0.00    -0.361 N 
ATOM      6  C   UNL d   1      -2.207  -3.710   4.258  0.00  0.00     0.106 A 
ATOM      7  HN  UNL d   1      -0.574  -2.573   5.069  1.00  0.00     0.166 HD
ATOM      8  C   UNL d   1      -2.972  -3.576   3.123  0.00  0.00     0.108 A 
ENDBRANCH   2   3
ENDBRANCH   1   2
BRANCH   1   9
ATOM      9  C   UNL d   1      -2.859  -2.008  -1.302  0.00  0.00     0.209 C 
BRANCH   9  10
ATOM     10  O   UNL d   1      -2.692  -0.584  -1.346  0.00  0.00    -0.347 OA
BRANCH  10  11
ATOM     11  C   UNL d   1      -3.072   0.052  -2.498  0.00  0.00     0.090 A 
ATOM     12  C   UNL d   1      -3.542   1.372  -2.382  0.00  0.00     0.069 A 
ATOM     13  C   UNL d   1      -3.896   2.111  -3.514  0.00  0.00     0.050 A 
ATOM     14 CL   UNL d   1      -3.712   2.126  -0.835  0.00  0.00    -0.081 Cl
ATOM     15  C   UNL d   1      -3.765   1.534  -4.774  0.00  0.00     0.035 A 
ATOM     16  C   UNL d   1      -3.286   0.233  -4.908  0.00  0.00     0.026 A 
ATOM     17 CL   UNL d   1      -4.185   2.436  -6.177  0.00  0.00    -0.084 Cl
ATOM     18  C   UNL d   1      -2.937  -0.506  -3.773  0.00  0.00     0.040 A 
ENDBRANCH  10  11
ENDBRANCH   9  10
ENDBRANCH   1   9
BRANCH   1  19
ATOM     19  O   UNL d   1      -0.858  -2.197   0.017  0.00  0.00    -0.392 OA
ATOM     20  H   UNL d   1      -0.777  -1.254  -0.225  0.00  0.00     0.210 HD
ENDBRANCH   1  19
TORSDOF 6
