REMARK  3 active torsions:
REMARK  status: ('A' for Active; 'I' for Inactive)
REMARK    1  A    between atoms: C_11  and  C_8 
REMARK    2  A    between atoms: S_13  and  C_11 
REMARK    3  A    between atoms: C_14  and  S_13 
ROOT
ATOM      1  C   UNL d   1      -0.214   0.618  -0.029  0.00  0.00     0.178 A 
ATOM      2  C   UNL d   1      -0.150  -0.755  -0.011  0.00  0.00     0.048 A 
ATOM      3  C   UNL d   1       1.161  -1.304   0.041  0.00  0.00    -0.040 A 
ATOM      4  O   UNL d   1       0.754   1.517  -0.040  0.00  0.00    -0.256 OA
ATOM      5  N   UNL d   1      -1.531   0.943  -0.019  0.00  0.00    -0.279 N 
ATOM      6  N   UNL d   1      -2.334  -0.131   0.023  0.00  0.00    -0.301 N 
ATOM      7  HN  UNL d   1      -3.352  -0.143   0.090  1.00  0.00     0.186 HD
ATOM      8  C   UNL d   1      -1.502  -1.193  -0.044  0.00  0.00     0.050 A 
ATOM      9  C   UNL d   1       2.023   1.017  -0.031  0.00  0.00     0.290 A 
ATOM     10  C   UNL d   1       2.209  -0.458   0.037  0.00  0.00     0.090 A 
ATOM     11  O   UNL d   1       3.009   1.748  -0.063  0.00  0.00    -0.260 OA
ATOM     12  C   UNL d   1       1.334  -2.779   0.173  0.00  0.00     0.049 C 
ATOM     13  H   UNL d   1      -1.948   1.867  -0.022  0.00  0.00     0.189 HD
ENDROOT
BRANCH   8  14
ATOM     14  C   UNL d   1      -2.089  -2.579  -0.060  0.00  0.00     0.139 C 
BRANCH  14  15
ATOM     15  S   UNL d   1      -3.410  -2.750  -1.327  0.00  0.00    -0.124 SA
BRANCH  15  16
ATOM     16  C   UNL d   1      -4.340  -4.202  -0.855  0.00  0.00     0.001 A 
ATOM     17  C   UNL d   1      -4.073  -5.026   0.243  0.00  0.00     0.020 A 
ATOM     18  C   UNL d   1      -4.883  -6.140   0.515  0.00  0.00     0.025 A 
ATOM     19  C   UNL d   1      -5.964  -6.438  -0.312  0.00  0.00     0.034 A 
ATOM     20  C   UNL d   1      -6.245  -5.633  -1.409  0.00  0.00     0.025 A 
ATOM     21 CL   UNL d   1      -6.952  -7.805   0.024  0.00  0.00    -0.084 Cl
ATOM     22  C   UNL d   1      -5.437  -4.521  -1.674  0.00  0.00     0.020 A 
ENDBRANCH  15  16
ENDBRANCH  14  15
ENDBRANCH   8  14
TORSDOF 3
