REMARK  3 active torsions:
REMARK  status: ('A' for Active; 'I' for Inactive)
REMARK    1  A    between atoms: C_5  and  C_1 
REMARK    2  A    between atoms: C_14  and  C_4 
REMARK    3  A    between atoms: C_13  and  C_9 
ROOT
ATOM      1  C   UNL d   1       0.492  -2.664  -0.007  0.00  0.00     0.050 A 
ATOM      2  N   UNL d   1      -0.256  -3.526  -0.721  0.00  0.00    -0.341 N 
ATOM      3  HN  UNL d   1      -1.016  -3.199  -1.317  1.00  0.00     0.167 HD
ATOM      4  C   UNL d   1       0.037  -4.832  -0.619  0.00  0.00     0.116 A 
ATOM      5  N   UNL d   1       1.065  -5.325   0.096  0.00  0.00    -0.352 N 
ATOM      6  HN  UNL d   1       1.257  -6.326   0.143  1.00  0.00     0.166 HD
ATOM      7  C   UNL d   1       1.573  -3.074   0.744  0.00  0.00     0.047 A 
ATOM      8  C   UNL d   1       1.825  -4.425   0.744  0.00  0.00     0.092 A 
ENDROOT
BRANCH   1   9
ATOM      9  C   UNL d   1       0.007  -1.295   0.007  0.00  0.00     0.051 A 
ATOM     10  C   UNL d   1      -1.337  -0.784   0.027  0.00  0.00     0.080 A 
ATOM     11  N   UNL d   1      -1.317   0.560  -0.003  0.00  0.00    -0.259 N 
ATOM     12  O   UNL d   1       0.003   0.936  -0.032  0.00  0.00    -0.241 OA
ATOM     13  HN  UNL d   1      -2.126   1.181  -0.005  1.00  0.00     0.195 HD
ATOM     14  C   UNL d   1       0.798  -0.163  -0.030  0.00  0.00     0.087 A 
ATOM     15  C   UNL d   1       2.248   0.115  -0.086  0.00  0.00     0.080 C 
BRANCH  10  16
ATOM     16  C   UNL d   1      -2.622  -1.495   0.083  0.00  0.00    -0.007 A 
ATOM     17  C   UNL d   1      -3.748  -0.971  -0.571  0.00  0.00     0.014 A 
ATOM     18  C   UNL d   1      -4.972  -1.648  -0.549  0.00  0.00     0.001 A 
ATOM     19  C   UNL d   1      -5.084  -2.861   0.125  0.00  0.00     0.000 A 
ATOM     20  C   UNL d   1      -3.984  -3.386   0.797  0.00  0.00     0.001 A 
ATOM     21  C   UNL d   1      -2.767  -2.697   0.791  0.00  0.00     0.014 A 
ENDBRANCH  10  16
ENDBRANCH   1   9
BRANCH   4  22
ATOM     22  C   UNL d   1      -0.902  -5.784  -1.238  0.00  0.00     0.008 A 
ATOM     23  C   UNL d   1      -1.681  -5.418  -2.354  0.00  0.00     0.017 A 
ATOM     24  C   UNL d   1      -2.596  -6.308  -2.927  0.00  0.00     0.025 A 
ATOM     25  C   UNL d   1      -2.758  -7.578  -2.382  0.00  0.00     0.034 A 
ATOM     26  C   UNL d   1      -2.011  -7.966  -1.274  0.00  0.00     0.025 A 
ATOM     27 CL   UNL d   1      -3.889  -8.671  -3.078  0.00  0.00    -0.084 Cl
ATOM     28  C   UNL d   1      -1.088  -7.077  -0.713  0.00  0.00     0.017 A 
ENDBRANCH   4  22
TORSDOF 3
