REMARK  5 active torsions:
REMARK  status: ('A' for Active; 'I' for Inactive)
REMARK    1  A    between atoms: C_6  and  C_1 
REMARK    2  A    between atoms: C_2  and  C_12 
REMARK       I    between atoms: N_5  and  C_2 
REMARK    3  A    between atoms: C_11  and  N_5 
REMARK    4  A    between atoms: O_10  and  C_13 
REMARK    5  A    between atoms: C_12  and  O_10 
ROOT
ATOM      1  O   UNL d   1      -0.860  -5.128   3.962  0.00  0.00    -0.342 OA
ENDROOT
BRANCH   1   2
ATOM      2  C   UNL d   1      -0.572  -4.136   3.052  0.00  0.00     0.069 A 
ATOM      3  C   UNL d   1      -0.585  -4.525   1.713  0.00  0.00     0.037 A 
ATOM      4  C   UNL d   1      -0.342  -3.593   0.695  0.00  0.00     0.012 A 
ATOM      5  C   UNL d   1      -0.095  -2.243   0.993  0.00  0.00    -0.035 A 
ATOM      6  C   UNL d   1      -0.079  -1.864   2.344  0.00  0.00     0.012 A 
ATOM      7  C   UNL d   1      -0.313  -2.799   3.361  0.00  0.00     0.037 A 
BRANCH   5   8
ATOM      8  C   UNL d   1       0.075  -1.236  -0.130  0.00  0.00     0.141 C 
ATOM      9  S   UNL d   1       1.615  -0.264  -0.003  0.00  0.00    -0.148 SA
ATOM     10  C   UNL d   1       0.886   1.343  -0.414  0.00  0.00     0.085 C 
ATOM     11  C   UNL d   1      -0.482   1.400   0.233  0.00  0.00     0.085 C 
ATOM     12  S   UNL d   1      -1.361  -0.110  -0.239  0.00  0.00    -0.148 SA
ENDBRANCH   5   8
ENDBRANCH   1   2
BRANCH   1  13
ATOM     13  C   UNL d   1      -0.398  -4.874   5.281  0.00  0.00     0.278 C 
BRANCH  13  14
ATOM     14  C   UNL d   1      -0.738  -5.936   6.328  0.00  0.00     0.246 C 
ATOM     15  N   UNL d   1      -1.514  -6.986   5.876  0.00  0.00    -0.325 N 
ATOM     16  H   UNL d   1      -1.650  -7.034   4.870  0.00  0.00     0.169 HD
ATOM     17  O   UNL d   1      -0.315  -5.794   7.477  0.00  0.00    -0.271 OA
BRANCH  15  18
ATOM     18  C   UNL d   1      -1.994  -8.059   6.661  0.00  0.00     0.034 A 
ATOM     19  C   UNL d   1      -2.002  -8.040   8.062  0.00  0.00     0.031 A 
ATOM     20  C   UNL d   1      -2.434  -9.150   8.795  0.00  0.00     0.026 A 
ATOM     21  C   UNL d   1      -2.872 -10.288   8.128  0.00  0.00     0.034 A 
ATOM     22  C   UNL d   1      -2.912 -10.310   6.738  0.00  0.00     0.026 A 
ATOM     23 CL   UNL d   1      -3.358 -11.672   9.029  0.00  0.00    -0.084 Cl
ATOM     24  C   UNL d   1      -2.486  -9.193   6.005  0.00  0.00     0.031 A 
ENDBRANCH  15  18
ENDBRANCH  13  14
ENDBRANCH   1  13
TORSDOF 5
