REMARK  2 active torsions:
REMARK  status: ('A' for Active; 'I' for Inactive)
REMARK    1  A    between atoms: C_2  and  C_1 
REMARK    2  A    between atoms: O_8  and  C_2 
ROOT
ATOM      1  C   UNL d   1      -1.136  -1.484   0.062  0.00  0.00     0.051 A 
ATOM      2  C   UNL d   1       0.099  -0.788   0.054  0.00  0.00     0.007 A 
ATOM      3  N   UNL d   1      -1.151   1.275  -0.148  0.00  0.00    -0.365 N 
ATOM      4  HN  UNL d   1      -1.166   2.290  -0.248  1.00  0.00     0.165 HD
ATOM      5  C   UNL d   1       0.015   0.615  -0.066  0.00  0.00     0.043 A 
ATOM      6  C   UNL d   1      -2.301   0.575  -0.097  0.00  0.00     0.089 A 
ATOM      7  C   UNL d   1      -2.349  -0.795   0.004  0.00  0.00     0.036 A 
ATOM      8  C   UNL d   1       1.382  -1.385   0.178  0.00  0.00     0.015 A 
ATOM      9  C   UNL d   1       1.187   1.359  -0.096  0.00  0.00     0.030 A 
ATOM     10  C   UNL d   1       2.544  -0.613   0.134  0.00  0.00     0.001 A 
ATOM     11  C   UNL d   1       2.445   0.763  -0.006  0.00  0.00     0.002 A 
ENDROOT
BRANCH   1  12
ATOM     12  C   UNL d   1      -1.244  -2.956   0.155  0.00  0.00     0.177 C 
ATOM     13  O   UNL d   1      -2.021  -3.513   0.907  0.00  0.00    -0.646 OA
BRANCH  12  14
ATOM     14  O   UNL d   1      -0.480  -3.611  -0.746  0.00  0.00    -0.773 OA
ATOM     15  H   UNL d   1      -0.008  -3.037  -1.379  0.00  0.00     0.167 HD
ENDBRANCH  12  14
ENDBRANCH   1  12
TORSDOF 2
