REMARK  4 active torsions:
REMARK  status: ('A' for Active; 'I' for Inactive)
REMARK    1  A    between atoms: C_7  and  C_1 
REMARK    2  A    between atoms: C_6  and  C_3 
REMARK    3  A    between atoms: S_11  and  C_5 
REMARK    4  A    between atoms: O_14  and  C_7 
ROOT
ATOM      1  C   UNL d   1       1.290  -1.300  -0.129  0.00  0.00     0.094 A 
ATOM      2  C   UNL d   1      -0.691  -0.081   0.127  0.00  0.00     0.081 A 
ATOM      3  C   UNL d   1      -0.097  -1.396  -0.020  0.00  0.00     0.020 A 
ATOM      4  S   UNL d   1       1.819   0.331  -0.117  0.00  0.00    -0.075 SA
ATOM      5  C   UNL d   1       0.236   0.939   0.041  0.00  0.00     0.063 A 
ATOM      6  C   UNL d   1      -2.089   0.170   0.345  0.00  0.00     0.102 C 
ATOM      7  N   UNL d   1      -3.221   0.370   0.487  0.00  0.00    -0.191 NA
ENDROOT
BRANCH   3   8
ATOM      8  C   UNL d   1      -0.815  -2.684  -0.015  0.00  0.00    -0.021 A 
ATOM      9  C   UNL d   1      -2.004  -2.831  -0.746  0.00  0.00     0.036 A 
ATOM     10  C   UNL d   1      -2.704  -4.041  -0.728  0.00  0.00     0.034 A 
ATOM     11 CL   UNL d   1      -4.185  -4.182  -1.594  0.00  0.00    -0.084 Cl
ATOM     12  C   UNL d   1      -2.217  -5.131  -0.015  0.00  0.00     0.024 A 
ATOM     13  C   UNL d   1      -1.035  -5.004   0.709  0.00  0.00     0.003 A 
ATOM     14  C   UNL d   1      -0.353  -3.782   0.729  0.00  0.00     0.012 A 
ENDBRANCH   3   8
BRANCH   5  15
ATOM     15  S   UNL d   1      -0.033   2.679   0.133  0.00  0.00    -0.126 SA
ATOM     16  C   UNL d   1      -0.908   2.978  -1.423  0.00  0.00     0.096 C 
ENDBRANCH   5  15
BRANCH   1  17
ATOM     17  C   UNL d   1       2.289  -2.349  -0.292  0.00  0.00     0.300 C 
ATOM     18  O   UNL d   1       2.160  -3.359  -0.974  0.00  0.00    -0.259 OA
BRANCH  17  19
ATOM     19  O   UNL d   1       3.369  -2.095   0.505  0.00  0.00    -0.322 OA
ATOM     20  C   UNL d   1       4.346  -3.137   0.530  0.00  0.00     0.213 C 
ENDBRANCH  17  19
ENDBRANCH   1  17
TORSDOF 4
