REMARK  7 active torsions:
REMARK  status: ('A' for Active; 'I' for Inactive)
REMARK    1  A    between atoms: C_2  and  C_1 
REMARK    2  A    between atoms: C_3  and  C_1 
REMARK    3  A    between atoms: C_5  and  C_1 
REMARK    4  A    between atoms: O_21  and  C_1 
REMARK       I    between atoms: C_4  and  N_6 
REMARK       I    between atoms: N_9  and  C_4 
REMARK    5  A    between atoms: O_24  and  C_5 
REMARK    6  A    between atoms: N_6  and  C_7 
REMARK    7  A    between atoms: C_13  and  N_9 
ROOT
ATOM      1  C   UNL d   1       0.801  -0.431   0.417  0.00  0.00    -0.004 C 
ATOM      2  C   UNL d   1      -2.007  -0.128   0.102  0.00  0.00     0.042 C 
ATOM      3  C   UNL d   1       0.111   0.619   1.045  0.00  0.00     0.020 C 
ATOM      4  C   UNL d   1      -1.292   0.772   0.920  0.00  0.00    -0.035 C 
ATOM      5  C   UNL d   1       0.026  -1.429  -0.181  0.00  0.00     0.013 C 
ATOM      6  C   UNL d   1      -1.347  -1.268  -0.342  0.00  0.00     0.031 C 
ATOM      7  C   UNL d   1      -1.969   1.843   1.734  0.00  0.00     0.050 C 
ENDROOT
BRANCH   2   8
ATOM      8  N   UNL d   1      -3.332   0.178  -0.324  0.00  0.00    -0.308 N 
ATOM      9  C   UNL d   1      -4.059  -0.539  -1.266  0.00  0.00     0.325 C 
ATOM     10  N   UNL d   1      -5.206   0.131  -1.663  0.00  0.00    -0.309 N 
ATOM     11  O   UNL d   1      -3.737  -1.624  -1.715  0.00  0.00    -0.247 OA
ATOM     12  H   UNL d   1      -5.206   1.134  -1.567  0.00  0.00     0.170 HD
ATOM     13  H   UNL d   1      -3.742   1.033   0.010  0.00  0.00     0.170 HD
BRANCH  10  14
ATOM     14  C   UNL d   1      -6.256  -0.442  -2.426  0.00  0.00     0.037 A 
ATOM     15  C   UNL d   1      -6.422  -1.824  -2.572  0.00  0.00     0.042 A 
ATOM     16  C   UNL d   1      -7.544  -2.367  -3.216  0.00  0.00    -0.024 A 
ATOM     17  C   UNL d   1      -7.734  -3.756  -3.284  0.00  0.00     0.012 A 
ATOM     18  C   UNL d   1      -8.512  -1.503  -3.764  0.00  0.00    -0.026 A 
ATOM     19  C   UNL d   1      -8.888  -4.292  -3.853  0.00  0.00     0.001 A 
ATOM     20  C   UNL d   1      -9.848  -3.443  -4.391  0.00  0.00     0.001 A 
ATOM     21  C   UNL d   1      -9.657  -2.059  -4.362  0.00  0.00     0.012 A 
ATOM     22  C   UNL d   1      -8.317  -0.116  -3.667  0.00  0.00     0.014 A 
ATOM     23  C   UNL d   1      -7.207   0.410  -2.991  0.00  0.00     0.030 A 
ENDBRANCH  10  14
ENDBRANCH   2   8
BRANCH   1  24
ATOM     24  C   UNL d   1       2.327  -0.475   0.282  0.00  0.00     0.271 C 
BRANCH  24  25
ATOM     25  C   UNL d   1       2.909   0.775  -0.431  0.00  0.00     0.432 C 
ATOM     26  F   UNL d   1       1.974   1.659  -0.848  0.00  0.00    -0.167 F 
ATOM     27  F   UNL d   1       3.805   1.468   0.305  0.00  0.00    -0.167 F 
ATOM     28  F   UNL d   1       3.571   0.374  -1.558  0.00  0.00    -0.167 F 
ENDBRANCH  24  25
BRANCH  24  29
ATOM     29  C   UNL d   1       3.068  -0.546   1.620  0.00  0.00     0.307 C 
ATOM     30  O   UNL d   1       2.679  -0.061   2.677  0.00  0.00    -0.261 OA
BRANCH  29  31
ATOM     31  O   UNL d   1       4.264  -1.200   1.474  0.00  0.00    -0.324 OA
ATOM     32  C   UNL d   1       5.010  -1.365   2.680  0.00  0.00     0.213 C 
ENDBRANCH  29  31
ENDBRANCH  24  29
BRANCH  24  33
ATOM     33  O   UNL d   1       2.644  -1.683  -0.490  0.00  0.00    -0.368 OA
ATOM     34  H   UNL d   1       3.128  -1.398  -1.286  0.00  0.00     0.212 HD
ENDBRANCH  24  33
ENDBRANCH   1  24
TORSDOF 7
