REMARK  12 active torsions:
REMARK  status: ('A' for Active; 'I' for Inactive)
REMARK    1  A    between atoms: C2_3  and  C1_1 
REMARK    2  A    between atoms: C3_4  and  C2_3 
REMARK    3  A    between atoms: C2_3  and  O2_12 
REMARK    4  A    between atoms: C3_4  and  O3_13 
REMARK    5  A    between atoms: C5_7  and  C3_4 
REMARK    6  A    between atoms: C4_5  and  C6_8 
REMARK    7  A    between atoms: C5_7  and  O4_14 
REMARK    8  A    between atoms: C5_7  and  C8_10 
REMARK    9  A    between atoms: O5_15  and  C6_8 
REMARK   10  A    between atoms: C8_10  and  O6_16 
REMARK   11  A    between atoms: C9_18  and  C8_10 
REMARK   12  A    between atoms: O7_17  and  C9_18 
ROOT
ATOM      1  C2  <1> d   1       2.910  -1.421  -5.430  0.00  0.00     0.192 C 
ENDROOT
BRANCH   1   2
ATOM      2  C1  <1> d   1       4.388  -1.764  -5.814  0.00  0.00     0.314 C 
ATOM      3  N1  <1> d   1       5.359  -1.767  -4.693  0.00  0.00     0.116 N 
ATOM      4  C4  <1> d   1       5.930  -0.371  -4.548  0.00  0.00     0.328 C 
ATOM      5  H2  <1> d   1       6.138  -2.336  -5.048  0.00  0.00     0.318 HD
ATOM      6  C7  <1> d   1       5.597   0.546  -5.723  0.00  0.00     0.123 C 
ATOM      7  S1  <1> d   1       5.069  -0.588  -7.019  0.00  0.00    -0.129 SA
BRANCH   4   8
ATOM      8  C6  <1> d   1       5.429   0.210  -3.222  0.00  0.00     0.175 C 
ATOM      9  O1  <1> d   1       5.532   1.375  -2.875  0.00  0.00    -0.648 OA
BRANCH   8  10
ATOM     10  O5  <1> d   1       4.859  -0.751  -2.450  0.00  0.00    -0.775 OA
ATOM     11  H13 <1> d   1       4.947  -1.601  -2.949  0.00  0.00     0.167 HD
ENDBRANCH   8  10
ENDBRANCH   4   8
ENDBRANCH   1   2
BRANCH   1  12
ATOM     12  C3  <1> d   1       2.259  -2.502  -4.522  0.00  0.00     0.181 C 
BRANCH  12  13
ATOM     13  O3  <1> d   1       2.290  -3.787  -5.145  0.00  0.00    -0.390 OA
ATOM     14  H11 <1> d   1       1.800  -3.732  -5.983  0.00  0.00     0.210 HD
ENDBRANCH  12  13
BRANCH  12  15
ATOM     15  C5  <1> d   1       0.825  -2.170  -4.011  0.00  0.00     0.180 C 
BRANCH  15  16
ATOM     16  O4  <1> d   1       0.817  -0.906  -3.333  0.00  0.00    -0.390 OA
ATOM     17  H12 <1> d   1       1.026  -0.236  -4.023  0.00  0.00     0.210 HD
ENDBRANCH  15  16
BRANCH  15  18
ATOM     18  C8  <1> d   1      -0.268  -2.170  -5.090  0.00  0.00     0.173 C 
BRANCH  18  19
ATOM     19  O6  <1> d   1       0.040  -1.162  -6.069  0.00  0.00    -0.391 OA
ATOM     20  H14 <1> d   1      -0.678  -0.504  -6.058  0.00  0.00     0.210 HD
ENDBRANCH  18  19
BRANCH  18  21
ATOM     21  C9  <1> d   1      -1.661  -1.906  -4.487  0.00  0.00     0.198 C 
BRANCH  21  22
ATOM     22  O7  <1> d   1      -2.641  -1.999  -5.519  0.00  0.00    -0.398 OA
ATOM     23  H15 <1> d   1      -3.510  -1.871  -5.101  0.00  0.00     0.209 HD
ENDBRANCH  21  22
ENDBRANCH  18  21
ENDBRANCH  15  18
ENDBRANCH  12  15
ENDBRANCH   1  12
BRANCH   1  24
ATOM     24  O2  <1> d   1       2.808  -0.130  -4.806  0.00  0.00    -0.390 OA
ATOM     25  H10 <1> d   1       3.040  -0.233  -3.862  0.00  0.00     0.210 HD
ENDBRANCH   1  24
TORSDOF 12
