REMARK  5 active torsions:
REMARK  status: ('A' for Active; 'I' for Inactive)
REMARK    1  A    between atoms: C_7  and  C_1 
REMARK    2  A    between atoms: O_11  and  C_8 
REMARK    3  A    between atoms: C_9  and  C_14 
REMARK    4  A    between atoms: C_19  and  C_10 
REMARK    5  A    between atoms: C_22  and  O_11 
ROOT
ATOM      1  C   UNL d   1      -0.232   1.208  -0.411  0.00  0.00     0.167 A 
ATOM      2  N   UNL d   1      -0.770   0.029  -0.415  0.00  0.00    -0.331 N 
ATOM      3  HN  UNL d   1      -1.758  -0.217  -0.367  1.00  0.00     0.168 HD
ATOM      4  O   UNL d   1       1.113   1.283  -0.509  0.00  0.00    -0.255 OA
ATOM      5  C   UNL d   1       0.312  -0.806  -0.501  0.00  0.00     0.111 A 
ATOM      6  C   UNL d   1       1.566  -0.003  -0.566  0.00  0.00     0.316 A 
ATOM      7  C   UNL d   1       0.301  -2.145  -0.464  0.00  0.00     0.047 C 
ATOM      8  O   UNL d   1       2.719  -0.385  -0.630  0.00  0.00    -0.257 OA
ENDROOT
BRANCH   1   9
ATOM      9  C   UNL d   1      -0.965   2.450  -0.163  0.00  0.00     0.067 A 
ATOM     10  C   UNL d   1      -0.580   3.712  -0.596  0.00  0.00     0.162 A 
ATOM     11  N   UNL d   1      -1.235   4.845  -0.219  0.00  0.00    -0.346 N 
ATOM     12  C   UNL d   1      -2.345   4.714   0.534  0.00  0.00     0.090 A 
ATOM     13  HN  UNL d   1      -0.895   5.765  -0.499  1.00  0.00     0.167 HD
ATOM     14  C   UNL d   1      -2.848   3.496   0.945  0.00  0.00     0.018 A 
ATOM     15  C   UNL d   1      -2.140   2.350   0.596  0.00  0.00     0.021 A 
BRANCH  10  16
ATOM     16  O   UNL d   1       0.475   3.840  -1.492  0.00  0.00    -0.293 OA
BRANCH  16  17
ATOM     17  C   UNL d   1       0.433   4.927  -2.347  0.00  0.00     0.077 A 
ATOM     18  C   UNL d   1       1.615   5.644  -2.540  0.00  0.00     0.039 A 
ATOM     19  C   UNL d   1       1.616   6.778  -3.359  0.00  0.00     0.026 A 
ATOM     20  C   UNL d   1       0.440   7.184  -3.989  0.00  0.00     0.034 A 
ATOM     21  C   UNL d   1      -0.731   6.445  -3.838  0.00  0.00     0.026 A 
ATOM     22 CL   UNL d   1       0.429   8.608  -4.955  0.00  0.00    -0.084 Cl
ATOM     23  C   UNL d   1      -0.728   5.303  -3.035  0.00  0.00     0.039 A 
ENDBRANCH  16  17
ENDBRANCH  10  16
ENDBRANCH   1   9
BRANCH   7  24
ATOM     24  C   UNL d   1      -0.910  -2.983  -0.388  0.00  0.00    -0.034 A 
ATOM     25  C   UNL d   1      -2.073  -2.670  -1.103  0.00  0.00     0.012 A 
ATOM     26  C   UNL d   1      -3.197  -3.499  -1.049  0.00  0.00     0.017 A 
ATOM     27  C   UNL d   1      -3.179  -4.676  -0.290  0.00  0.00     0.048 A 
ATOM     28  C   UNL d   1      -2.012  -5.001   0.417  0.00  0.00     0.017 A 
ATOM     29  C   UNL d   1      -0.888  -4.165   0.363  0.00  0.00     0.012 A 
BRANCH  27  30
ATOM     30  C   UNL d   1      -4.399  -5.564  -0.259  0.00  0.00     0.417 C 
ATOM     31  F   UNL d   1      -4.243  -6.682   0.503  0.00  0.00    -0.166 F 
ATOM     32  F   UNL d   1      -5.496  -4.926   0.236  0.00  0.00    -0.166 F 
ATOM     33  F   UNL d   1      -4.753  -6.005  -1.498  0.00  0.00    -0.166 F 
ENDBRANCH  27  30
ENDBRANCH   7  24
TORSDOF 5
