REMARK  3 active torsions:
REMARK  status: ('A' for Active; 'I' for Inactive)
REMARK    1  A    between atoms: C_2  and  N_1 
REMARK    2  A    between atoms: C_8  and  C_2 
REMARK    3  A    between atoms: O_9  and  C_7 
ROOT
ATOM      1  N   UNL d   1       1.699   0.004   0.109  0.00  0.00     0.092 N 
ATOM      2  C   UNL d   1      -0.251  -1.341  -0.648  0.00  0.00     0.062 C 
ATOM      3  C   UNL d   1      -0.356   1.165  -0.698  0.00  0.00     0.062 C 
ATOM      4  C   UNL d   1       0.936  -1.239   0.310  0.00  0.00     0.275 C 
ATOM      5  C   UNL d   1       0.844   1.194   0.249  0.00  0.00     0.275 C 
ATOM      6  C   UNL d   1      -1.161  -0.122  -0.561  0.00  0.00     0.121 C 
ENDROOT
BRANCH   1   7
ATOM      7  C   UNL d   1       2.829   0.102   1.058  0.00  0.00     0.311 C 
BRANCH   7   8
ATOM      8  C   UNL d   1       3.842  -1.017   0.931  0.00  0.00    -0.030 A 
ATOM      9  C   UNL d   1       4.532  -1.223  -0.272  0.00  0.00     0.009 A 
ATOM     10  C   UNL d   1       5.446  -2.270  -0.394  0.00  0.00     0.001 A 
ATOM     11  C   UNL d   1       5.686  -3.117   0.687  0.00  0.00     0.000 A 
ATOM     12  C   UNL d   1       5.015  -2.916   1.891  0.00  0.00     0.001 A 
ATOM     13  C   UNL d   1       4.099  -1.870   2.015  0.00  0.00     0.009 A 
ENDBRANCH   7   8
ENDBRANCH   1   7
BRANCH   6  14
ATOM     14  O   UNL d   1      -1.895  -0.126   0.663  0.00  0.00    -0.395 OA
ATOM     15  H   UNL d   1      -1.270  -0.109   1.405  0.00  0.00     0.210 HD
ENDBRANCH   6  14
TORSDOF 3
