REMARK  8 active torsions:
REMARK  status: ('A' for Active; 'I' for Inactive)
REMARK    1  A    between atoms: N_2  and  C_1 
REMARK    2  A    between atoms: N_3  and  C_1 
REMARK    3  A    between atoms: C_4  and  C_1 
REMARK    4  A    between atoms: C_7  and  C_1 
REMARK       I    between atoms: C_5  and  N_2 
REMARK    5  A    between atoms: C_8  and  N_3 
REMARK    6  A    between atoms: C_6  and  C_5 
REMARK    7  A    between atoms: O_19  and  C_7 
REMARK    8  A    between atoms: C_26  and  O_19 
ROOT
ATOM      1  C   UNL d   1       1.119  -0.095  -0.078  0.00  0.00     0.310 C 
ENDROOT
BRANCH   1   2
ATOM      2  N   UNL d   1       0.949   1.305   0.345  0.00  0.00    -0.314 N 
ATOM      3  C   UNL d   1      -0.229   1.855   0.769  0.00  0.00     0.255 C 
ATOM      4  O   UNL d   1      -1.271   1.231   0.905  0.00  0.00    -0.268 OA
ATOM      5  H   UNL d   1       1.729   1.909   0.115  0.00  0.00     0.166 HD
BRANCH   3   6
ATOM      6  C   UNL d   1      -0.159   3.287   1.149  0.00  0.00     0.053 A 
ATOM      7  C   UNL d   1       0.421   4.274   0.344  0.00  0.00     0.049 A 
ATOM      8 CL   UNL d   1       1.035   3.956  -1.239  0.00  0.00    -0.083 Cl
ATOM      9  C   UNL d   1       0.504   5.591   0.808  0.00  0.00     0.025 A 
ATOM     10  C   UNL d   1       0.007   5.928   2.069  0.00  0.00     0.002 A 
ATOM     11  C   UNL d   1      -0.589   4.952   2.866  0.00  0.00     0.001 A 
ATOM     12  C   UNL d   1      -0.678   3.636   2.407  0.00  0.00     0.019 A 
ENDBRANCH   3   6
ENDBRANCH   1   2
BRANCH   1  13
ATOM     13  N   UNL d   1       0.411  -0.191  -1.353  0.00  0.00    -0.180 N 
ATOM     14  H   UNL d   1      -0.514  -0.597  -1.362  0.00  0.00     0.181 HD
BRANCH  13  15
ATOM     15  C   UNL d   1       0.926   0.089  -2.577  0.00  0.00     0.680 A 
ATOM     16  N   UNL d   1       2.153   0.611  -2.696  0.00  0.00    -0.202 N 
ATOM     17  C   UNL d   1       2.614   0.816  -3.945  0.00  0.00     0.107 A 
ATOM     18  HN  UNL d   1       2.714   0.844  -1.876  1.00  0.00     0.183 HD
ATOM     19  C   UNL d   1       1.885   0.550  -5.075  0.00  0.00     0.035 A 
ATOM     20  C   UNL d   1       0.630   0.048  -4.849  0.00  0.00     0.107 A 
ATOM     21  N   UNL d   1       0.136  -0.193  -3.620  0.00  0.00    -0.202 N 
ATOM     22  HN  UNL d   1      -0.801  -0.575  -3.489  1.00  0.00     0.183 HD
ENDBRANCH  13  15
ENDBRANCH   1  13
BRANCH   1  23
ATOM     23  C   UNL d   1       0.655  -1.183   0.971  0.00  0.00     0.442 C 
ATOM     24  F   UNL d   1      -0.007  -0.661   2.034  0.00  0.00    -0.166 F 
ATOM     25  F   UNL d   1      -0.179  -2.096   0.403  0.00  0.00    -0.166 F 
ATOM     26  F   UNL d   1       1.678  -1.887   1.522  0.00  0.00    -0.166 F 
ENDBRANCH   1  23
BRANCH   1  27
ATOM     27  C   UNL d   1       2.639  -0.413  -0.208  0.00  0.00     0.318 C 
ATOM     28  O   UNL d   1       3.120  -1.466  -0.619  0.00  0.00    -0.260 OA
BRANCH  27  29
ATOM     29  O   UNL d   1       3.386   0.637   0.273  0.00  0.00    -0.318 OA
BRANCH  29  30
ATOM     30  C   UNL d   1       4.792   0.413   0.438  0.00  0.00     0.174 C 
ATOM     31  C   UNL d   1       5.045   0.127   1.905  0.00  0.00     0.034 C 
ENDBRANCH  29  30
ENDBRANCH  27  29
ENDBRANCH   1  27
TORSDOF 8
