REMARK  2 active torsions:
REMARK  status: ('A' for Active; 'I' for Inactive)
REMARK    1  A    between atoms: C_6  and  N_1 
REMARK    2  A    between atoms: N_4  and  C_12 
ROOT
ATOM      1  C   UNL d   1       2.077  -1.510   0.086  0.00  0.00     0.141 A 
ATOM      2  N   UNL d   1       3.036  -1.425   1.028  0.00  0.00    -0.282 N 
ATOM      3  HN  UNL d   1       2.927  -0.775   1.806  1.00  0.00     0.188 HD
ATOM      4  N   UNL d   1       4.173  -2.219   0.946  0.00  0.00    -0.284 N 
ATOM      5  HN  UNL d   1       4.904  -2.118   1.650  1.00  0.00     0.188 HD
ATOM      6  C   UNL d   1       4.330  -3.118  -0.046  0.00  0.00     0.118 A 
ATOM      7  C   UNL d   1       2.218  -2.394  -0.971  0.00  0.00     0.055 A 
ATOM      8  C   UNL d   1       3.349  -3.204  -1.026  0.00  0.00     0.053 A 
ENDROOT
BRANCH   1   9
ATOM      9  N   UNL d   1       0.896  -0.712   0.173  0.00  0.00    -0.243 N 
ATOM     10  N   UNL d   1      -0.085  -0.862  -0.771  0.00  0.00    -0.297 N 
ATOM     11  C   UNL d   1      -1.083  -0.076  -0.378  0.00  0.00     0.024 A 
ATOM     12  HN  UNL d   1      -0.056  -1.454  -1.601  1.00  0.00     0.187 HD
ATOM     13  C   UNL d   1      -2.343  -0.016  -1.159  0.00  0.00     0.070 C 
ATOM     14  C   UNL d   1      -0.762   0.621   0.799  0.00  0.00     0.052 A 
ATOM     15  C   UNL d   1       0.519   0.226   1.131  0.00  0.00     0.034 A 
ATOM     16  C   UNL d   1       1.328   0.694   2.287  0.00  0.00     0.070 C 
ENDBRANCH   1   9
BRANCH   6  17
ATOM     17  N   UNL d   1       5.474  -3.873  -0.151  0.00  0.00    -0.361 N 
ATOM     18  C   UNL d   1       6.701  -3.473   0.541  0.00  0.00     0.156 C 
ATOM     19  C   UNL d   1       7.882  -3.857  -0.387  0.00  0.00     0.136 C 
ATOM     20  C   UNL d   1       9.226  -3.545   0.249  0.00  0.00     0.041 C 
ATOM     21  O   UNL d   1       7.860  -5.267  -0.712  0.00  0.00    -0.378 OA
ATOM     22  C   UNL d   1       6.620  -5.627  -1.362  0.00  0.00     0.136 C 
ATOM     23  C   UNL d   1       5.417  -5.304  -0.453  0.00  0.00     0.156 C 
ATOM     24  C   UNL d   1       6.667  -7.107  -1.704  0.00  0.00     0.041 C 
ENDBRANCH   6  17
TORSDOF 2
