REMARK  4 active torsions:
REMARK  status: ('A' for Active; 'I' for Inactive)
REMARK    1  A    between atoms: C_3  and  C_1 
REMARK    2  A    between atoms: C_8  and  CA_2 
REMARK       I    between atoms: N_5  and  C_3 
REMARK       I    between atoms: C_4  and  N_6 
REMARK    3  A    between atoms: C_7  and  C_4 
REMARK    4  A    between atoms: OXT_23  and  C_8 
ROOT
ATOM      1  C   UNL d   1      -1.554  -2.643  -0.069  0.00  0.00     0.273 C 
ATOM      2  C   UNL d   1       0.890  -7.167   0.757  0.00  0.00     0.260 C 
ATOM      3  N   UNL d   1      -0.693  -3.719   0.180  0.00  0.00    -0.345 N 
ATOM      4  N   UNL d   1      -0.400  -6.619   0.876  0.00  0.00    -0.346 N 
ATOM      5  O   UNL d   1      -2.365  -2.633  -0.996  0.00  0.00    -0.266 OA
ATOM      6  C   UNL d   1      -0.580  -4.779  -0.836  0.00  0.00     0.146 C 
ATOM      7  C   UNL d   1      -1.049  -6.164  -0.362  0.00  0.00     0.146 C 
ATOM      8  O   UNL d   1       1.403  -7.288  -0.357  0.00  0.00    -0.267 OA
ATOM      9  C   UNL d   1      -0.399  -4.673   2.477  0.00  0.00     0.040 C 
ATOM     10  C   UNL d   1       0.192  -3.841   1.338  0.00  0.00     0.128 C 
ATOM     11  C   UNL d   1      -0.953  -6.048   2.100  0.00  0.00     0.127 C 
ENDROOT
BRANCH   1  12
ATOM     12  C   UNL d   1      -1.546  -1.456   0.823  0.00  0.00     0.134 A 
ATOM     13  CA  UNL d   1      -1.499  -0.164   0.320  0.00  0.00     0.139 A 
ATOM     14  N   UNL d   1      -1.675   0.949   1.116  0.00  0.00    -0.357 N 
ATOM     15  C   UNL d   1      -1.856   0.693   2.432  0.00  0.00     0.105 A 
ATOM     16  HN  UNL d   1      -1.670   1.897   0.740  1.00  0.00     0.165 HD
ATOM     17  C   UNL d   1      -1.878  -0.595   2.941  0.00  0.00     0.105 A 
ATOM     18  N   UNL d   1      -1.743  -1.691   2.160  0.00  0.00    -0.358 N 
ATOM     19  HN  UNL d   1      -1.786  -2.636   2.542  1.00  0.00     0.165 HD
BRANCH  13  20
ATOM     20  C   UNL d   1      -1.158   0.160  -1.091  0.00  0.00     0.196 C 
ATOM     21  O   UNL d   1      -0.588  -0.570  -1.879  0.00  0.00    -0.645 OA
BRANCH  20  22
ATOM     22  OXT UNL d   1      -1.478   1.453  -1.362  0.00  0.00    -0.772 OA
ATOM     23  HXT UNL d   1      -1.814   1.891  -0.544  0.00  0.00     0.167 HD
ENDBRANCH  20  22
ENDBRANCH  13  20
ENDBRANCH   1  12
BRANCH   2  24
ATOM     24  C   UNL d   1       1.603  -7.560   1.966  0.00  0.00     0.072 A 
ATOM     25  S   UNL d   1       3.253  -7.109   2.125  0.00  0.00    -0.097 SA
ATOM     26  C   UNL d   1       3.402  -7.911   3.627  0.00  0.00     0.050 A 
ATOM     27  C   UNL d   1       2.227  -8.521   4.004  0.00  0.00     0.009 A 
ATOM     28  C   UNL d   1       1.195  -8.335   3.036  0.00  0.00     0.025 A 
ENDBRANCH   2  24
TORSDOF 4
