REMARK  7 active torsions:
REMARK  status: ('A' for Active; 'I' for Inactive)
REMARK    1  A    between atoms: C_8  and  C_1 
REMARK    2  A    between atoms: S_2  and  C_9 
REMARK    3  A    between atoms: C_11  and  S_2 
REMARK    4  A    between atoms: C_9  and  C_3 
REMARK       I    between atoms: N_13  and  C_8 
REMARK    5  A    between atoms: C_10  and  C_15 
REMARK       I    between atoms: C_12  and  N_14 
REMARK    6  A    between atoms: C_20  and  C_12 
REMARK    7  A    between atoms: N_14  and  N_13 
ROOT
ATOM      1  C   UNL d   1      -0.147  -1.182  -0.183  0.00  0.00     0.098 A 
ATOM      2  C   UNL d   1       0.657   1.127  -0.196  0.00  0.00     0.066 A 
ATOM      3  N   UNL d   1      -0.653   1.106  -0.099  0.00  0.00    -0.355 N 
ATOM      4  HN  UNL d   1      -1.243   1.936  -0.039  1.00  0.00     0.166 HD
ATOM      5  C   UNL d   1      -1.125  -0.199  -0.088  0.00  0.00     0.028 A 
ATOM      6  S   UNL d   1       1.383  -0.424  -0.392  0.00  0.00    -0.068 SA
ATOM      7  C   UNL d   1      -2.591  -0.400   0.076  0.00  0.00     0.070 C 
ENDROOT
BRANCH   1   8
ATOM      8  C   UNL d   1      -0.313  -2.625  -0.052  0.00  0.00     0.279 C 
ATOM      9  N   UNL d   1       0.790  -3.422  -0.312  0.00  0.00    -0.262 N 
ATOM     10  H   UNL d   1       1.659  -3.068  -0.707  0.00  0.00     0.190 HD
ATOM     11  O   UNL d   1      -1.371  -3.146   0.313  0.00  0.00    -0.265 OA
BRANCH   9  12
ATOM     12  N   UNL d   1       0.713  -4.809  -0.060  0.00  0.00    -0.263 N 
ATOM     13  C   UNL d   1       1.541  -5.655  -0.775  0.00  0.00     0.270 C 
ATOM     14  O   UNL d   1       2.355  -5.247  -1.597  0.00  0.00    -0.266 OA
ATOM     15  H   UNL d   1      -0.123  -5.133   0.425  0.00  0.00     0.190 HD
BRANCH  13  16
ATOM     16  C   UNL d   1       1.415  -7.118  -0.501  0.00  0.00     0.033 A 
ATOM     17  C   UNL d   1       1.719  -8.018  -1.532  0.00  0.00     0.018 A 
ATOM     18  C   UNL d   1       1.704  -9.399  -1.300  0.00  0.00     0.017 A 
ATOM     19  C   UNL d   1       1.405  -9.905  -0.027  0.00  0.00     0.048 A 
ATOM     20  C   UNL d   1       1.095  -8.999   1.002  0.00  0.00     0.017 A 
ATOM     21  C   UNL d   1       1.098  -7.615   0.769  0.00  0.00     0.018 A 
BRANCH  19  22
ATOM     22  C   UNL d   1       1.441 -11.393   0.251  0.00  0.00     0.417 C 
ATOM     23  F   UNL d   1       1.734 -12.147  -0.845  0.00  0.00    -0.166 F 
ATOM     24  F   UNL d   1       2.372 -11.722   1.189  0.00  0.00    -0.166 F 
ATOM     25  F   UNL d   1       0.254 -11.865   0.722  0.00  0.00    -0.166 F 
ENDBRANCH  19  22
ENDBRANCH  13  16
ENDBRANCH   9  12
ENDBRANCH   1   8
BRANCH   2  26
ATOM     26  C   UNL d   1       1.487   2.349  -0.009  0.00  0.00     0.212 C 
BRANCH  26  27
ATOM     27  S   UNL d   1       1.474   3.346  -1.468  0.00  0.00     0.196 S 
ATOM     28  O   UNL d   1       2.268   4.536  -1.205  0.00  0.00    -0.221 OA
ATOM     29  O   UNL d   1       1.836   2.500  -2.598  0.00  0.00    -0.221 OA
BRANCH  27  30
ATOM     30  C   UNL d   1      -0.211   3.871  -1.692  0.00  0.00     0.128 A 
ATOM     31  N   UNL d   1      -0.745   4.520  -0.623  0.00  0.00    -0.357 N 
ATOM     32  C   UNL d   1      -2.018   4.945  -0.776  0.00  0.00     0.089 A 
ATOM     33  HN  UNL d   1      -0.219   4.676   0.237  1.00  0.00     0.166 HD
ATOM     34  C   UNL d   1      -2.767   4.748  -1.929  0.00  0.00     0.017 A 
ATOM     35  C   UNL d   1      -2.179   4.082  -3.002  0.00  0.00     0.004 A 
ATOM     36  C   UNL d   1      -0.868   3.636  -2.891  0.00  0.00     0.042 A 
ENDBRANCH  27  30
ENDBRANCH  26  27
ENDBRANCH   2  26
TORSDOF 7
