REMARK  5 active torsions:
REMARK  status: ('A' for Active; 'I' for Inactive)
REMARK    1  A    between atoms: C_8  and  C_1 
REMARK    2  A    between atoms: C_11  and  C_2 
REMARK       I    between atoms: C_9  and  N_10 
REMARK    3  A    between atoms: C_13  and  C_9 
REMARK       I    between atoms: N_10  and  C_12 
REMARK       I    between atoms: C_12  and  N_15 
REMARK    4  A    between atoms: N_15  and  C_14 
REMARK    5  A    between atoms: O_28  and  C_22 
ROOT
ATOM      1  C   UNL d   1      -0.705  -2.371  -1.216  0.00  0.00     0.038 A 
ATOM      2  C   UNL d   1      -1.745  -2.468  -2.169  0.00  0.00     0.030 A 
ATOM      3  C   UNL d   1      -0.574  -3.420  -0.279  0.00  0.00     0.018 A 
ATOM      4  C   UNL d   1      -2.594  -3.590  -2.171  0.00  0.00     0.025 A 
ATOM      5  C   UNL d   1      -1.425  -4.525  -0.280  0.00  0.00     0.001 A 
ATOM      6  C   UNL d   1      -2.428  -4.620  -1.240  0.00  0.00     0.002 A 
ENDROOT
BRANCH   1   7
ATOM      7  C   UNL d   1       0.230  -1.248  -1.142  0.00  0.00     0.176 A 
ATOM      8  O   UNL d   1       0.878  -1.071   0.056  0.00  0.00    -0.273 OA
ATOM      9  C   UNL d   1       1.752  -0.052  -0.211  0.00  0.00     0.176 A 
ATOM     10  N   UNL d   1       1.627   0.382  -1.449  0.00  0.00    -0.277 N 
ATOM     11  N   UNL d   1       0.645  -0.391  -2.053  0.00  0.00    -0.277 N 
ATOM     12  HN  UNL d   1       2.152   1.142  -1.881  1.00  0.00     0.189 HD
ATOM     13  HN  UNL d   1       0.310  -0.311  -3.013  1.00  0.00     0.189 HD
BRANCH   9  14
ATOM     14  C   UNL d   1       2.639   0.421   0.869  0.00  0.00     0.037 A 
ATOM     15  C   UNL d   1       2.827  -0.209   2.118  0.00  0.00     0.025 A 
ATOM     16  C   UNL d   1       3.658   0.366   3.093  0.00  0.00     0.023 A 
ATOM     17 BR   UNL d   1       2.051  -1.870   2.634  0.00  0.00    -0.050 Br
ATOM     18  C   UNL d   1       4.324   1.561   2.843  0.00  0.00     0.038 A 
ATOM     19  C   UNL d   1       4.198   2.182   1.606  0.00  0.00     0.069 A 
ATOM     20  C   UNL d   1       3.361   1.624   0.634  0.00  0.00     0.054 A 
BRANCH  19  21
ATOM     21  O   UNL d   1       4.886   3.355   1.486  0.00  0.00    -0.356 OA
ATOM     22  C   UNL d   1       5.360   3.672   0.183  0.00  0.00     0.210 C 
ENDBRANCH  19  21
ENDBRANCH   9  14
ENDBRANCH   1   7
BRANCH   2  23
ATOM     23  N   UNL d   1      -2.160  -1.352  -2.943  0.00  0.00    -0.214 NA
ATOM     24  C   UNL d   1      -2.000  -1.211  -4.313  0.00  0.00     0.284 C 
ATOM     25  N   UNL d   1      -0.752  -1.512  -4.810  0.00  0.00    -0.180 NA
ATOM     26  O   UNL d   1      -2.914  -0.697  -4.939  0.00  0.00    -0.260 OA
ATOM     27  C   UNL d   1      -0.533  -1.786  -6.154  0.00  0.00     0.240 C 
ATOM     28  H   UNL d   1      -0.400  -2.301  -4.286  0.00  0.00     0.141 HD
ATOM     29  O   UNL d   1      -0.343  -2.956  -6.475  0.00  0.00    -0.273 OA
ATOM     30  H   UNL d   1      -3.148  -1.145  -2.799  0.00  0.00     0.138 HD
BRANCH  27  31
ATOM     31  C   UNL d   1      -0.328  -0.645  -7.126  0.00  0.00     0.048 A 
ATOM     32  C   UNL d   1       0.594  -0.740  -8.192  0.00  0.00     0.049 A 
ATOM     33 CL   UNL d   1       1.429  -2.191  -8.637  0.00  0.00    -0.083 Cl
ATOM     34  C   UNL d   1       0.907   0.388  -8.975  0.00  0.00     0.025 A 
ATOM     35  C   UNL d   1       0.282   1.609  -8.743  0.00  0.00     0.002 A 
ATOM     36  C   UNL d   1      -0.696   1.694  -7.762  0.00  0.00     0.001 A 
ATOM     37  C   UNL d   1      -0.992   0.581  -6.962  0.00  0.00     0.018 A 
ENDBRANCH  27  31
ENDBRANCH   2  23
TORSDOF 5
