REMARK  5 active torsions:
REMARK  status: ('A' for Active; 'I' for Inactive)
REMARK    1  A    between atoms: C_10  and  C_1 
REMARK    2  A    between atoms: N_3  and  C_2 
REMARK    3  A    between atoms: C_17  and  C_9 
REMARK       I    between atoms: N_20  and  C_10 
REMARK    4  A    between atoms: C_12  and  C_19 
REMARK    5  A    between atoms: N_13  and  N_20 
ROOT
ATOM      1  C   UNL d   1       2.234  -1.596  -0.016  0.00  0.00     0.287 C 
ATOM      2  N   UNL d   1       1.989  -2.966  -0.030  0.00  0.00    -0.265 N 
ATOM      3  O   UNL d   1       3.406  -1.215  -0.013  0.00  0.00    -0.264 OA
ATOM      4  H   UNL d   1       2.819  -3.551  -0.041  0.00  0.00     0.190 HD
ENDROOT
BRANCH   1   5
ATOM      5  C   UNL d   1       1.115  -0.682  -0.007  0.00  0.00     0.119 A 
ATOM      6  C   UNL d   1       1.089   0.699  -0.006  0.00  0.00     0.064 A 
ATOM      7  C   UNL d   1      -0.285   1.069   0.003  0.00  0.00     0.035 A 
ATOM      8  N   UNL d   1      -1.066  -0.021   0.007  0.00  0.00    -0.303 N 
ATOM      9  N   UNL d   1      -0.199  -1.043   0.005  0.00  0.00    -0.295 N 
ATOM     10  HN  UNL d   1      -2.085  -0.063   0.010  1.00  0.00     0.186 HD
ATOM     11  H   UNL d   1      -0.546  -1.995   0.008  0.00  0.00     0.187 HD
BRANCH   7  12
ATOM     12  C   UNL d   1      -0.876   2.471   0.016  0.00  0.00    -0.007 C 
ATOM     13  C   UNL d   1      -0.429   3.250  -1.238  0.00  0.00     0.021 C 
ATOM     14  C   UNL d   1      -2.421   2.450   0.038  0.00  0.00     0.021 C 
ATOM     15  C   UNL d   1      -0.396   3.237   1.265  0.00  0.00     0.021 C 
ENDBRANCH   7  12
ENDBRANCH   1   5
BRANCH   2  16
ATOM     16  N   UNL d   1       0.741  -3.515  -0.040  0.00  0.00    -0.308 N 
ATOM     17  C   UNL d   1       0.667  -4.810  -0.041  0.00  0.00     0.126 C 
ATOM     18  HN  UNL d   1      -0.097  -2.934  -0.047  1.00  0.00     0.186 HD
BRANCH  17  19
ATOM     19  C   UNL d   1      -0.643  -5.419  -0.050  0.00  0.00     0.024 A 
ATOM     20  S   UNL d   1      -0.818  -7.121  -0.039  0.00  0.00    -0.065 SA
ATOM     21  C   UNL d   1      -2.518  -7.004  -0.029  0.00  0.00     0.144 A 
ATOM     22  C   UNL d   1      -2.962  -5.701  -0.050  0.00  0.00     0.045 A 
ATOM     23  C   UNL d   1      -1.873  -4.785  -0.064  0.00  0.00     0.023 A 
BRANCH  21  24
ATOM     24  N   UNL d   1      -3.347  -8.181   0.002  0.00  0.00    -0.108 N 
ATOM     25  O   UNL d   1      -4.570  -7.989   0.009  0.00  0.00    -0.531 OA
ATOM     26  O   UNL d   1      -2.794  -9.288   0.023  0.00  0.00    -0.531 OA
ENDBRANCH  21  24
ENDBRANCH  17  19
ENDBRANCH   2  16
TORSDOF 5
