REMARK  3 active torsions:
REMARK  status: ('A' for Active; 'I' for Inactive)
REMARK    1  A    between atoms: C_2  and  C_1 
REMARK    2  A    between atoms: O_4  and  C_1 
REMARK    3  A    between atoms: C_9  and  O_4 
ROOT
ATOM      1  N   UNL d   1       1.846   0.412   7.639  0.00  0.00    -0.191 NA
ATOM      2  C   UNL d   1       1.573   0.349   6.514  0.00  0.00     0.099 C 
ATOM      3  C   UNL d   1       0.545   0.038   2.427  0.00  0.00     0.079 A 
ATOM      4  C   UNL d   1       1.229   0.261   5.122  0.00  0.00     0.044 A 
ATOM      5  C   UNL d   1       2.133  -0.299   4.207  0.00  0.00     0.025 A 
ATOM      6  C   UNL d   1      -0.362   0.601   3.326  0.00  0.00     0.039 A 
ATOM      7  C   UNL d   1       1.790  -0.416   2.856  0.00  0.00     0.039 A 
ATOM      8  C   UNL d   1      -0.017   0.717   4.674  0.00  0.00     0.025 A 
ENDROOT
BRANCH   3   9
ATOM      9  O   UNL d   1       0.098  -0.179   1.113  0.00  0.00    -0.275 OA
BRANCH   9  10
ATOM     10  C   UNL d   1       0.851   0.341   0.076  0.00  0.00     0.302 C 
ATOM     11  O   UNL d   1       1.904   0.953   0.142  0.00  0.00    -0.259 OA
BRANCH  10  12
ATOM     12  C   UNL d   1       0.170  -0.011  -1.185  0.00  0.00     0.083 A 
ATOM     13  C   UNL d   1       0.840  -0.767  -2.159  0.00  0.00     0.052 A 
ATOM     14 CL   UNL d   1       2.445  -1.370  -1.936  0.00  0.00    -0.083 Cl
ATOM     15  C   UNL d   1       0.199  -1.095  -3.360  0.00  0.00     0.025 A 
ATOM     16  C   UNL d   1      -1.111  -0.682  -3.596  0.00  0.00     0.003 A 
ATOM     17  C   UNL d   1      -1.779   0.073  -2.635  0.00  0.00     0.025 A 
ATOM     18  C   UNL d   1      -1.141   0.420  -1.438  0.00  0.00     0.052 A 
ATOM     19 CL   UNL d   1      -2.030   1.421  -0.342  0.00  0.00    -0.083 Cl
ENDBRANCH  10  12
ENDBRANCH   9  10
ENDBRANCH   3   9
TORSDOF 3
