REMARK  3 active torsions:
REMARK  status: ('A' for Active; 'I' for Inactive)
REMARK    1  A    between atoms: C_2  and  N_1 
REMARK    2  A    between atoms: O_6  and  C_3 
REMARK    3  A    between atoms: C_5  and  O_6 
ROOT
ATOM      1  C   UNL d   1       0.143   0.715  -0.997  0.00  0.00     0.138 A 
ATOM      2  C   UNL d   1      -1.007   1.444  -0.689  0.00  0.00     0.109 A 
ATOM      3  N   UNL d   1       0.877   1.273  -5.756  0.00  0.00    -0.191 NA
ATOM      4  C   UNL d   1       0.461   1.273  -4.672  0.00  0.00     0.099 C 
ATOM      5  C   UNL d   1       0.643   0.641  -2.307  0.00  0.00     0.061 A 
ATOM      6  C   UNL d   1      -1.740   2.004  -1.745  0.00  0.00     0.041 A 
ATOM      7  C   UNL d   1      -0.052   1.286  -3.336  0.00  0.00     0.047 A 
ATOM      8  C   UNL d   1      -1.253   1.945  -3.055  0.00  0.00     0.025 A 
ENDROOT
BRANCH   1   9
ATOM      9  N   UNL d   1       0.853  -0.003   0.044  0.00  0.00    -0.113 N 
ATOM     10  O   UNL d   1       0.212  -0.834   0.699  0.00  0.00    -0.532 OA
ATOM     11  O   UNL d   1       2.063   0.231   0.158  0.00  0.00    -0.532 OA
ENDBRANCH   1   9
BRANCH   2  12
ATOM     12  O   UNL d   1      -1.379   1.599   0.630  0.00  0.00    -0.308 OA
BRANCH  12  13
ATOM     13  C   UNL d   1      -1.972   2.790   0.995  0.00  0.00     0.079 A 
ATOM     14  C   UNL d   1      -3.079   2.709   1.839  0.00  0.00     0.061 A 
ATOM     15  C   UNL d   1      -3.781   3.870   2.160  0.00  0.00     0.038 A 
ATOM     16 CL   UNL d   1      -5.174   3.771   3.164  0.00  0.00    -0.084 Cl
ATOM     17  C   UNL d   1      -3.384   5.106   1.654  0.00  0.00     0.048 A 
ATOM     18  C   UNL d   1      -2.243   5.183   0.859  0.00  0.00     0.038 A 
ATOM     19  C   UNL d   1      -1.514   4.036   0.553  0.00  0.00     0.061 A 
ATOM     20 CL   UNL d   1      -1.753   6.697   0.207  0.00  0.00    -0.084 Cl
ENDBRANCH  12  13
ENDBRANCH   2  12
TORSDOF 3
