REMARK  4 active torsions:
REMARK  status: ('A' for Active; 'I' for Inactive)
REMARK    1  A    between atoms: C_3  and  S_1 
REMARK    2  A    between atoms: O_4  and  S_1 
REMARK    3  A    between atoms: S_2  and  C_3 
REMARK    4  A    between atoms: C_9  and  O_4 
ROOT
ATOM      1  S   UNL d   1       1.188  -0.143  -0.016  0.00  0.00     0.283 S 
ATOM      2  O   UNL d   1       0.548  -1.109  -0.881  0.00  0.00    -0.197 OA
ATOM      3  O   UNL d   1       2.629   0.008   0.040  0.00  0.00    -0.197 OA
ENDROOT
BRANCH   1   4
ATOM      4  C   UNL d   1       0.586  -0.308   1.619  0.00  0.00     0.310 C 
BRANCH   4   5
ATOM      5  S   UNL d   1       1.135  -1.795   2.381  0.00  0.00     0.156 S 
ATOM      6  O   UNL d   1       0.633  -1.751   3.744  0.00  0.00    -0.227 OA
ATOM      7  O   UNL d   1       0.806  -2.925   1.539  0.00  0.00    -0.227 OA
ATOM      8  C   UNL d   1       2.908  -1.687   2.500  0.00  0.00     0.162 C 
ENDBRANCH   4   5
ENDBRANCH   1   4
BRANCH   1   9
ATOM      9  O   UNL d   1       0.541   1.326  -0.321  0.00  0.00    -0.232 OA
BRANCH   9  10
ATOM     10  C   UNL d   1       0.699   1.944  -1.540  0.00  0.00     0.089 A 
ATOM     11  C   UNL d   1       1.407   1.415  -2.622  0.00  0.00     0.040 A 
ATOM     12  C   UNL d   1       1.496   2.123  -3.824  0.00  0.00     0.026 A 
ATOM     13  C   UNL d   1       0.878   3.365  -3.946  0.00  0.00     0.034 A 
ATOM     14  C   UNL d   1       0.175   3.905  -2.872  0.00  0.00     0.026 A 
ATOM     15 CL   UNL d   1       0.986   4.229  -5.428  0.00  0.00    -0.084 Cl
ATOM     16  C   UNL d   1       0.085   3.195  -1.671  0.00  0.00     0.040 A 
ENDBRANCH   9  10
ENDBRANCH   1   9
TORSDOF 4
