REMARK  4 active torsions:
REMARK  status: ('A' for Active; 'I' for Inactive)
REMARK    1  A    between atoms: N_2  and  C_1 
REMARK    2  A    between atoms: N_3  and  C_1 
REMARK    3  A    between atoms: C_4  and  N_3 
REMARK    4  A    between atoms: C_5  and  C_14 
REMARK       I    between atoms: N_19  and  C_5 
ROOT
ATOM      1  N   UNL d   1       0.593   1.317  -0.537  0.00  0.00    -0.358 N 
ATOM      2  C   UNL d   1      -0.535   2.134  -0.091  0.00  0.00     0.126 C 
ATOM      3  C   UNL d   1       0.988   1.548  -1.925  0.00  0.00     0.126 C 
ATOM      4  C   UNL d   1      -1.420   2.215  -2.478  0.00  0.00     0.081 C 
ATOM      5  C   UNL d   1      -1.760   2.000  -0.994  0.00  0.00     0.034 C 
ATOM      6  C   UNL d   1      -0.193   1.388  -2.893  0.00  0.00     0.034 C 
ENDROOT
BRANCH   1   7
ATOM      7  C   UNL d   1       0.828   0.088   0.043  0.00  0.00     0.170 C 
ATOM      8  S   UNL d   1      -0.312  -1.124   0.242  0.00  0.00    -0.041 SA
BRANCH   7   9
ATOM      9  N   UNL d   1       2.081  -0.157   0.511  0.00  0.00    -0.362 N 
ATOM     10  H   UNL d   1       2.142  -1.015   1.050  0.00  0.00     0.162 HD
BRANCH   9  11
ATOM     11  C   UNL d   1       3.247   0.709   0.561  0.00  0.00     0.092 C 
ATOM     12  C   UNL d   1       3.386   1.628   1.808  0.00  0.00     0.031 C 
ATOM     13  C   UNL d   1       3.435   0.802   3.079  0.00  0.00    -0.024 C 
ATOM     14  C   UNL d   1       4.886   1.968   1.716  0.00  0.00     0.019 C 
ATOM     15  C   UNL d   1       4.595   0.125   3.076  0.00  0.00    -0.026 C 
ATOM     16  C   UNL d   1       5.324   0.503   1.806  0.00  0.00     0.010 C 
ATOM     17  C   UNL d   1       4.572  -0.120   0.610  0.00  0.00     0.034 C 
ENDBRANCH   9  11
ENDBRANCH   7   9
ENDBRANCH   1   7
BRANCH   4  18
ATOM     18  C   UNL d   1      -1.250   3.694  -2.806  0.00  0.00     0.219 C 
ATOM     19  O   UNL d   1      -1.218   4.592  -1.971  0.00  0.00    -0.273 OA
ATOM     20  N   UNL d   1      -1.148   3.989  -4.132  0.00  0.00    -0.370 N 
ATOM     21  H   UNL d   1      -1.381   3.322  -4.856  0.00  0.00     0.159 HD
ATOM     22  H   UNL d   1      -1.137   4.971  -4.380  0.00  0.00     0.159 HD
ENDBRANCH   4  18
TORSDOF 4
