REMARK  7 active torsions:
REMARK  status: ('A' for Active; 'I' for Inactive)
REMARK    1  A    between atoms: N_3  and  C_1 
REMARK    2  A    between atoms: N_4  and  C_2 
REMARK    3  A    between atoms: C_7  and  C_11 
REMARK    4  A    between atoms: C_10  and  C_8 
REMARK    5  A    between atoms: C_9  and  C_12 
REMARK       I    between atoms: N_18  and  C_10 
REMARK       I    between atoms: C_11  and  N_17 
REMARK    6  A    between atoms: N_17  and  C_20 
REMARK    7  A    between atoms: C_19  and  N_18 
ROOT
ATOM      1  C   UNL d   1      -3.970   0.663  -0.848  0.00  0.00     0.052 A 
ATOM      2  C   UNL d   1      -3.157  -1.559  -0.270  0.00  0.00     0.038 A 
ATOM      3  C   UNL d   1      -5.114  -0.644   0.864  0.00  0.00     0.038 A 
ATOM      4  C   UNL d   1      -4.984   0.534   0.115  0.00  0.00     0.046 A 
ATOM      5  C   UNL d   1      -3.066  -0.393  -1.030  0.00  0.00     0.046 A 
ATOM      6  C   UNL d   1      -4.221  -1.698   0.628  0.00  0.00     0.059 A 
ENDROOT
BRANCH   2   7
ATOM      7  N   UNL d   1      -2.184  -2.587  -0.307  0.00  0.00    -0.321 N 
ATOM      8  C   UNL d   1      -0.874  -2.426  -0.732  0.00  0.00     0.280 C 
ATOM      9  O   UNL d   1      -0.427  -1.399  -1.236  0.00  0.00    -0.265 OA
ATOM     10  H   UNL d   1      -2.382  -3.438   0.210  0.00  0.00     0.169 HD
BRANCH   8  11
ATOM     11  C   UNL d   1       0.004  -3.554  -0.480  0.00  0.00     0.146 A 
ATOM     12  O   UNL d   1      -0.481  -4.748  -0.006  0.00  0.00    -0.283 OA
ATOM     13  C   UNL d   1       0.603  -5.573   0.103  0.00  0.00     0.215 A 
ATOM     14  C   UNL d   1       1.767  -4.944  -0.266  0.00  0.00     0.066 A 
ATOM     15  C   UNL d   1       1.379  -3.638  -0.641  0.00  0.00     0.047 A 
BRANCH  13  16
ATOM     16  N   UNL d   1       0.364  -6.904   0.564  0.00  0.00    -0.090 N 
ATOM     17  O   UNL d   1       1.354  -7.639   0.657  0.00  0.00    -0.530 OA
ATOM     18  O   UNL d   1      -0.802  -7.214   0.835  0.00  0.00    -0.530 OA
ENDBRANCH  13  16
ENDBRANCH   8  11
ENDBRANCH   2   7
BRANCH   1  19
ATOM     19  C   UNL d   1      -3.808   1.917  -1.671  0.00  0.00     0.417 C 
ATOM     20  F   UNL d   1      -4.677   2.907  -1.327  0.00  0.00    -0.166 F 
ATOM     21  F   UNL d   1      -2.564   2.461  -1.560  0.00  0.00    -0.166 F 
ATOM     22  F   UNL d   1      -4.003   1.696  -3.001  0.00  0.00    -0.166 F 
ENDBRANCH   1  19
BRANCH   3  23
ATOM     23  N   UNL d   1      -6.117  -0.672   1.862  0.00  0.00    -0.321 N 
ATOM     24  C   UNL d   1      -6.386  -1.701   2.749  0.00  0.00     0.280 C 
ATOM     25  O   UNL d   1      -5.827  -2.793   2.753  0.00  0.00    -0.265 OA
ATOM     26  H   UNL d   1      -6.672   0.169   1.986  0.00  0.00     0.169 HD
BRANCH  24  27
ATOM     27  C   UNL d   1      -7.420  -1.396   3.723  0.00  0.00     0.146 A 
ATOM     28  O   UNL d   1      -8.012  -0.156   3.753  0.00  0.00    -0.283 OA
ATOM     29  C   UNL d   1      -8.925  -0.201   4.766  0.00  0.00     0.215 A 
ATOM     30  C   UNL d   1      -8.943  -1.426   5.386  0.00  0.00     0.066 A 
ATOM     31  C   UNL d   1      -7.962  -2.196   4.717  0.00  0.00     0.047 A 
BRANCH  29  32
ATOM     32  N   UNL d   1      -9.687   0.985   5.000  0.00  0.00    -0.090 N 
ATOM     33  O   UNL d   1     -10.575   0.908   5.858  0.00  0.00    -0.530 OA
ATOM     34  O   UNL d   1      -9.399   1.990   4.336  0.00  0.00    -0.530 OA
ENDBRANCH  29  32
ENDBRANCH  24  27
ENDBRANCH   3  23
TORSDOF 7
