REMARK  5 active torsions:
REMARK  status: ('A' for Active; 'I' for Inactive)
REMARK    1  A    between atoms: C_6  and  C_2 
REMARK    2  A    between atoms: S_10  and  C_3 
REMARK    3  A    between atoms: C_11  and  S_10 
REMARK    4  A    between atoms: C_14  and  C_13 
REMARK    5  A    between atoms: O_21  and  C_13 
ROOT
ATOM      1  C   UNL d   1      -0.559  -2.875  -0.107  0.00  0.00     0.094 A 
ATOM      2  C   UNL d   1      -1.455  -1.788  -0.061  0.00  0.00     0.079 A 
ATOM      3  C   UNL d   1       0.822  -2.622  -0.102  0.00  0.00     0.096 A 
ATOM      4  N   UNL d   1       1.329  -1.366  -0.062  0.00  0.00    -0.352 N 
ATOM      5  HN  UNL d   1       2.337  -1.212  -0.062  1.00  0.00     0.166 HD
ATOM      6  C   UNL d   1      -0.927  -0.474   0.005  0.00  0.00    -0.019 A 
ATOM      7  C   UNL d   1       0.467  -0.315  -0.023  0.00  0.00     0.017 A 
ATOM      8  C   UNL d   1      -1.021  -4.233  -0.155  0.00  0.00     0.103 C 
ATOM      9  N   UNL d   1      -1.374  -5.336  -0.186  0.00  0.00    -0.191 NA
ATOM     10  C   UNL d   1      -1.843   0.735   0.029  0.00  0.00     0.041 C 
ATOM     11  C   UNL d   1       1.100   1.058   0.036  0.00  0.00     0.057 C 
ATOM     12  C   UNL d   1      -1.156   2.026   0.459  0.00  0.00     0.005 C 
ATOM     13  C   UNL d   1       0.142   2.196  -0.311  0.00  0.00     0.006 C 
ENDROOT
BRANCH   2  14
ATOM     14  C   UNL d   1      -2.959  -1.988  -0.091  0.00  0.00     0.419 C 
ATOM     15  F   UNL d   1      -3.378  -3.271  -0.221  0.00  0.00    -0.166 F 
ATOM     16  F   UNL d   1      -3.557  -1.527   1.042  0.00  0.00    -0.166 F 
ATOM     17  F   UNL d   1      -3.540  -1.316  -1.124  0.00  0.00    -0.166 F 
ENDBRANCH   2  14
BRANCH   3  18
ATOM     18  S   UNL d   1       1.988  -3.990  -0.265  0.00  0.00    -0.080 SA
BRANCH  18  19
ATOM     19  C   UNL d   1       3.336  -3.487   0.697  0.00  0.00     0.089 C 
ATOM     20  C   UNL d   1       3.773  -4.197   1.756  0.00  0.00     0.082 C 
BRANCH  20  21
ATOM     21  C   UNL d   1       5.003  -3.871   2.520  0.00  0.00    -0.002 A 
ATOM     22  C   UNL d   1       5.499  -2.560   2.610  0.00  0.00     0.017 A 
ATOM     23  C   UNL d   1       6.660  -2.279   3.339  0.00  0.00     0.043 A 
ATOM     24  C   UNL d   1       7.330  -3.304   3.992  0.00  0.00     0.116 A 
ATOM     25  C   UNL d   1       6.862  -4.609   3.932  0.00  0.00     0.043 A 
ATOM     26  F   UNL d   1       8.437  -3.029   4.693  0.00  0.00    -0.206 F 
ATOM     27  C   UNL d   1       5.703  -4.889   3.200  0.00  0.00     0.017 A 
ENDBRANCH  20  21
BRANCH  20  28
ATOM     28  O   UNL d   1       3.118  -5.334   2.202  0.00  0.00    -0.359 OA
ATOM     29  H   UNL d   1       2.355  -5.480   1.612  0.00  0.00     0.217 HD
ENDBRANCH  20  28
ENDBRANCH  18  19
ENDBRANCH   3  18
TORSDOF 5
