REMARK  3 active torsions:
REMARK  status: ('A' for Active; 'I' for Inactive)
REMARK    1  A    between atoms: N_2  and  S_1 
REMARK    2  A    between atoms: C_8  and  S_1 
REMARK       I    between atoms: C_6  and  N_2 
REMARK       I    between atoms: C_4  and  N_5 
REMARK    3  A    between atoms: C_7  and  C_4 
REMARK       I    between atoms: N_5  and  C_6 
ROOT
ATOM      1  N   UNL d   1       0.097   0.125   2.406  0.00  0.00    -0.265 N 
ATOM      2  HN  UNL d   1      -0.171   1.019   2.818  1.00  0.00     0.180 HD
ATOM      3  C   UNL d   1       1.030  -0.931   5.082  0.00  0.00     0.263 C 
ATOM      4  N   UNL d   1       0.068  -1.450   4.232  0.00  0.00    -0.274 N 
ATOM      5  C   UNL d   1      -0.340  -1.058   2.975  0.00  0.00     0.334 C 
ATOM      6  O   UNL d   1       1.714   0.065   4.888  0.00  0.00    -0.267 OA
ATOM      7  O   UNL d   1      -1.140  -1.807   2.415  0.00  0.00    -0.246 OA
ATOM      8  H   UNL d   1      -0.363  -2.330   4.468  0.00  0.00     0.173 HD
ENDROOT
BRANCH   1   9
ATOM      9  S   UNL d   1       0.986   0.090   1.150  0.00  0.00     0.056 S 
ATOM     10  O   UNL d   1       1.132  -1.052   0.271  0.00  0.00    -0.245 OA
ATOM     11  C   UNL d   1       2.624   0.550   1.667  0.00  0.00     0.142 C 
BRANCH   9  12
ATOM     12  C   UNL d   1       0.520   1.465   0.099  0.00  0.00     0.038 A 
ATOM     13  C   UNL d   1      -0.515   2.329   0.457  0.00  0.00     0.022 A 
ATOM     14  C   UNL d   1      -0.836   3.404  -0.381  0.00  0.00     0.008 A 
ATOM     15  C   UNL d   1      -0.129   3.620  -1.573  0.00  0.00    -0.062 A 
ATOM     16  C   UNL d   1       0.893   2.732  -1.930  0.00  0.00     0.008 A 
ATOM     17  C   UNL d   1      -0.475   4.787  -2.452  0.00  0.00     0.048 C 
ATOM     18  C   UNL d   1       1.214   1.653  -1.101  0.00  0.00     0.022 A 
ENDBRANCH   9  12
ENDBRANCH   1   9
BRANCH   3  19
ATOM     19  C   UNL d   1       1.242  -1.712   6.333  0.00  0.00     0.075 A 
ATOM     20  C   UNL d   1       1.605  -3.069   6.283  0.00  0.00     0.051 A 
ATOM     21 CL   UNL d   1       1.804  -3.930   4.796  0.00  0.00    -0.083 Cl
ATOM     22  C   UNL d   1       1.841  -3.789   7.460  0.00  0.00     0.025 A 
ATOM     23  C   UNL d   1       1.732  -3.164   8.700  0.00  0.00     0.003 A 
ATOM     24  C   UNL d   1       1.380  -1.820   8.765  0.00  0.00     0.025 A 
ATOM     25  C   UNL d   1       1.131  -1.092   7.589  0.00  0.00     0.051 A 
ATOM     26 CL   UNL d   1       0.633   0.551   7.786  0.00  0.00    -0.083 Cl
ENDBRANCH   3  19
TORSDOF 3
