REMARK  6 active torsions:
REMARK  status: ('A' for Active; 'I' for Inactive)
REMARK    1  A    between atoms: S_7  and  C_1 
REMARK    2  A    between atoms: C_15  and  C_4 
REMARK    3  A    between atoms: S_16  and  C_5 
REMARK    4  A    between atoms: C_6  and  S_7 
REMARK    5  A    between atoms: C_20  and  S_16 
REMARK    6  A    between atoms: C_22  and  C_20 
ROOT
ATOM      1  C   UNL d   1      -0.087  -1.429   0.104  0.00  0.00     0.051 A 
ATOM      2  N   UNL d   1       1.235   0.565  -0.073  0.00  0.00    -0.335 N 
ATOM      3  HN  UNL d   1       2.145   1.018  -0.153  1.00  0.00     0.168 HD
ATOM      4  C   UNL d   1       1.147  -0.794  -0.007  0.00  0.00     0.063 A 
ATOM      5  C   UNL d   1       0.117   1.301  -0.033  0.00  0.00     0.144 A 
ATOM      6  N   UNL d   1      -1.109   0.790   0.087  0.00  0.00    -0.345 N 
ATOM      7  HN  UNL d   1      -1.942   1.378   0.130  1.00  0.00     0.167 HD
ATOM      8  C   UNL d   1      -1.173  -0.560   0.148  0.00  0.00     0.111 A 
ENDROOT
BRANCH   1   9
ATOM      9  S   UNL d   1      -0.468  -3.164   0.092  0.00  0.00    -0.050 SA
BRANCH   9  10
ATOM     10  C   UNL d   1       0.408  -3.831   1.482  0.00  0.00     0.149 A 
ATOM     11  N   UNL d   1       0.598  -3.066   2.569  0.00  0.00    -0.346 N 
ATOM     12  C   UNL d   1       1.200  -3.667   3.615  0.00  0.00     0.091 A 
ATOM     13  HN  UNL d   1       0.304  -2.089   2.602  1.00  0.00     0.167 HD
ATOM     14  C   UNL d   1       1.603  -4.984   3.615  0.00  0.00     0.034 A 
ATOM     15  C   UNL d   1       1.360  -5.673   2.453  0.00  0.00     0.091 A 
ATOM     16  N   UNL d   1       0.765  -5.123   1.379  0.00  0.00    -0.346 N 
ATOM     17  HN  UNL d   1       0.594  -5.660   0.529  1.00  0.00     0.167 HD
ENDBRANCH   9  10
ENDBRANCH   1   9
BRANCH   4  18
ATOM     18  C   UNL d   1       2.492  -1.431  -0.076  0.00  0.00    -0.008 A 
ATOM     19  C   UNL d   1       3.601  -0.768   0.500  0.00  0.00     0.015 A 
ATOM     20  C   UNL d   1       4.894  -1.299   0.456  0.00  0.00     0.024 A 
ATOM     21  C   UNL d   1       5.109  -2.523  -0.161  0.00  0.00     0.034 A 
ATOM     22  C   UNL d   1       4.049  -3.197  -0.757  0.00  0.00     0.024 A 
ATOM     23 CL   UNL d   1       6.689  -3.200  -0.199  0.00  0.00    -0.084 Cl
ATOM     24  C   UNL d   1       2.760  -2.644  -0.733  0.00  0.00     0.015 A 
ENDBRANCH   4  18
BRANCH   5  25
ATOM     25  S   UNL d   1       0.337   3.044  -0.258  0.00  0.00    -0.089 SA
BRANCH  25  26
ATOM     26  C   UNL d   1      -1.154   3.688   0.559  0.00  0.00     0.121 C 
BRANCH  26  27
ATOM     27  C   UNL d   1      -1.165   5.202   0.518  0.00  0.00    -0.048 A 
ATOM     28  C   UNL d   1      -1.742   5.881  -0.568  0.00  0.00     0.009 A 
ATOM     29  C   UNL d   1      -1.712   7.277  -0.632  0.00  0.00     0.024 A 
ATOM     30  C   UNL d   1      -1.101   8.003   0.387  0.00  0.00     0.034 A 
ATOM     31  C   UNL d   1      -0.522   7.348   1.470  0.00  0.00     0.024 A 
ATOM     32 CL   UNL d   1      -1.053   9.723   0.302  0.00  0.00    -0.084 Cl
ATOM     33  C   UNL d   1      -0.552   5.951   1.534  0.00  0.00     0.009 A 
ENDBRANCH  26  27
ENDBRANCH  25  26
ENDBRANCH   5  25
TORSDOF 6
