REMARK  1 active torsions:
REMARK  status: ('A' for Active; 'I' for Inactive)
REMARK    1  A    between atoms: C_3  and  C_1 
REMARK       I    between atoms: C_6  and  N_2 
ROOT
ATOM      1  C   UNL d   1      -0.450  -1.078   0.129  0.00  0.00     0.089 A 
ATOM      2  N   UNL d   1       0.898  -0.707   0.159  0.00  0.00    -0.223 N 
ATOM      3  N   UNL d   1       1.040   0.633   0.412  0.00  0.00    -0.302 N 
ATOM      4  HN  UNL d   1       1.908   1.155   0.534  1.00  0.00     0.186 HD
ATOM      5  C   UNL d   1       2.060  -1.466  -0.104  0.00  0.00     0.239 C 
ATOM      6  C   UNL d   1      -1.159   0.096   0.322  0.00  0.00     0.052 A 
ATOM      7  C   UNL d   1      -0.199   1.103   0.462  0.00  0.00     0.110 A 
ATOM      8  O   UNL d   1       2.014  -2.475  -0.799  0.00  0.00    -0.272 OA
ATOM      9  C   UNL d   1       3.325  -0.883   0.457  0.00  0.00     0.119 C 
ENDROOT
BRANCH   1  10
ATOM     10  C   UNL d   1      -0.919  -2.458   0.017  0.00  0.00     0.083 A 
ATOM     11  N   UNL d   1      -0.157  -3.333   0.721  0.00  0.00    -0.361 N 
ATOM     12  C   UNL d   1      -0.503  -4.636   0.631  0.00  0.00     0.105 A 
ATOM     13  HN  UNL d   1       0.634  -3.024   1.287  1.00  0.00     0.165 HD
ATOM     14  C   UNL d   1      -1.609  -5.059  -0.076  0.00  0.00     0.105 A 
ATOM     15  N   UNL d   1      -2.419  -4.196  -0.724  0.00  0.00    -0.366 N 
ATOM     16  C   UNL d   1      -2.059  -2.880  -0.682  0.00  0.00     0.034 A 
ATOM     17  HN  UNL d   1      -3.254  -4.510  -1.218  1.00  0.00     0.165 HD
ATOM     18  C   UNL d   1      -3.012  -1.951  -1.370  0.00  0.00     0.070 C 
ENDBRANCH   1  10
TORSDOF 1
