REMARK  3 active torsions:
REMARK  status: ('A' for Active; 'I' for Inactive)
REMARK    1  A    between atoms: C_6  and  N_1 
REMARK    2  A    between atoms: C_7  and  C_2 
REMARK    3  A    between atoms: O_16  and  C_9 
ROOT
ATOM      1  N   UNL d   1       0.847  -0.734   0.166  0.00  0.00    -0.253 N 
ATOM      2  C   UNL d   1      -0.452  -1.165   0.213  0.00  0.00     0.077 A 
ATOM      3  C   UNL d   1       0.830   0.663   0.191  0.00  0.00     0.377 A 
ATOM      4  C   UNL d   1      -1.207  -0.080   0.298  0.00  0.00     0.178 A 
ATOM      5  O   UNL d   1      -0.489   1.115   0.291  0.00  0.00    -0.271 OA
ATOM      6  O   UNL d   1       1.771   1.439   0.103  0.00  0.00    -0.237 OA
ENDROOT
BRANCH   1   7
ATOM      7  C   UNL d   1       2.023  -1.501  -0.004  0.00  0.00     0.078 A 
ATOM      8  C   UNL d   1       3.177  -1.330   0.781  0.00  0.00     0.095 A 
ATOM      9  C   UNL d   1       4.322  -2.093   0.517  0.00  0.00     0.039 A 
ATOM     10  C   UNL d   1       4.328  -3.045  -0.503  0.00  0.00     0.003 A 
ATOM     11  C   UNL d   1       3.192  -3.228  -1.281  0.00  0.00     0.002 A 
ATOM     12  C   UNL d   1       2.055  -2.461  -1.032  0.00  0.00     0.033 A 
BRANCH   8  13
ATOM     13  O   UNL d   1       3.309  -0.450   1.824  0.00  0.00    -0.354 OA
ATOM     14  C   UNL d   1       2.342  -0.613   2.857  0.00  0.00     0.210 C 
ENDBRANCH   8  13
ENDBRANCH   1   7
BRANCH   2  15
ATOM     15  C   UNL d   1      -0.878  -2.557   0.299  0.00  0.00    -0.007 A 
ATOM     16  C   UNL d   1      -1.271  -3.258  -0.850  0.00  0.00     0.017 A 
ATOM     17  C   UNL d   1      -1.551  -4.624  -0.777  0.00  0.00     0.043 A 
ATOM     18  C   UNL d   1      -1.479  -5.276   0.449  0.00  0.00     0.116 A 
ATOM     19  C   UNL d   1      -1.145  -4.585   1.608  0.00  0.00     0.043 A 
ATOM     20  F   UNL d   1      -1.728  -6.590   0.513  0.00  0.00    -0.206 F 
ATOM     21  C   UNL d   1      -0.843  -3.224   1.534  0.00  0.00     0.017 A 
ENDBRANCH   2  15
TORSDOF 3
