REMARK  5 active torsions:
REMARK  status: ('A' for Active; 'I' for Inactive)
REMARK    1  A    between atoms: N_10  and  C_1 
REMARK    2  A    between atoms: C_8  and  N_2 
REMARK    3  A    between atoms: C_6  and  C_4 
REMARK    4  A    between atoms: O_15  and  C_6 
REMARK    5  A    between atoms: C_19  and  O_15 
ROOT
ATOM      1  C   UNL d   1      -0.258  -1.085  -0.084  0.00  0.00     0.128 A 
ATOM      2  N   UNL d   1       1.065  -0.609  -0.019  0.00  0.00    -0.291 N 
ATOM      3  C   UNL d   1      -1.107   0.004  -0.072  0.00  0.00     0.097 A 
ATOM      4  C   UNL d   1       1.022   0.794   0.010  0.00  0.00     0.124 A 
ATOM      5  C   UNL d   1      -0.322   1.184   0.003  0.00  0.00    -0.004 A 
ATOM      6  C   UNL d   1      -2.536  -0.079  -0.098  0.00  0.00     0.104 C 
ATOM      7  N   UNL d   1      -3.691  -0.150  -0.106  0.00  0.00    -0.191 NA
ATOM      8  C   UNL d   1      -0.848   2.583   0.008  0.00  0.00     0.052 C 
ENDROOT
BRANCH   1   9
ATOM      9  N   UNL d   1      -0.597  -2.402  -0.076  0.00  0.00    -0.384 N 
ATOM     10  H   UNL d   1       0.042  -3.112   0.282  0.00  0.00     0.157 HD
ATOM     11  H   UNL d   1      -1.570  -2.695   0.022  0.00  0.00     0.157 HD
ENDBRANCH   1   9
BRANCH   2  12
ATOM     12  C   UNL d   1       2.231  -1.441   0.103  0.00  0.00     0.041 A 
ATOM     13  C   UNL d   1       2.285  -2.685  -0.540  0.00  0.00     0.030 A 
ATOM     14  C   UNL d   1       3.335  -3.570  -0.290  0.00  0.00     0.009 A 
ATOM     15  C   UNL d   1       4.382  -3.201   0.558  0.00  0.00    -0.062 A 
ATOM     16  C   UNL d   1       4.368  -1.932   1.143  0.00  0.00     0.009 A 
ATOM     17  C   UNL d   1       5.489  -4.170   0.839  0.00  0.00     0.048 C 
ATOM     18  C   UNL d   1       3.294  -1.062   0.931  0.00  0.00     0.030 A 
ENDBRANCH   2  12
BRANCH   4  19
ATOM     19  C   UNL d   1       2.182   1.665  -0.059  0.00  0.00     0.311 C 
ATOM     20  O   UNL d   1       3.233   1.425  -0.635  0.00  0.00    -0.258 OA
BRANCH  19  21
ATOM     21  O   UNL d   1       1.937   2.819   0.628  0.00  0.00    -0.317 OA
BRANCH  21  22
ATOM     22  C   UNL d   1       2.997   3.787   0.646  0.00  0.00     0.175 C 
ATOM     23  C   UNL d   1       3.044   4.560  -0.660  0.00  0.00     0.034 C 
ENDBRANCH  21  22
ENDBRANCH  19  21
ENDBRANCH   4  19
TORSDOF 5
