REMARK  2 active torsions:
REMARK  status: ('A' for Active; 'I' for Inactive)
REMARK    1  A    between atoms: C_9  and  O_12 
REMARK    2  A    between atoms: O_12  and  C_11 
ROOT
ATOM      1  C   UNL d   1      -0.577   2.102   0.001  0.00  0.00     0.299 A 
ATOM      2  C   UNL d   1       1.452   0.702   0.013  0.00  0.00     0.093 A 
ATOM      3  O   UNL d   1       0.807   1.958   0.013  0.00  0.00    -0.274 OA
ATOM      4  C   UNL d   1       0.710  -0.482  -0.005  0.00  0.00     0.009 A 
ATOM      5  C   UNL d   1      -0.755  -0.406  -0.004  0.00  0.00    -0.007 A 
ATOM      6  C   UNL d   1      -1.379   0.851  -0.001  0.00  0.00     0.051 A 
ATOM      7  C   UNL d   1       2.851   0.720   0.031  0.00  0.00     0.075 A 
ATOM      8  C   UNL d   1       1.437  -1.682  -0.027  0.00  0.00     0.018 A 
ATOM      9  O   UNL d   1      -1.106   3.205  -0.007  0.00  0.00    -0.259 OA
ATOM     10  C   UNL d   1       3.539  -0.490   0.037  0.00  0.00     0.081 A 
ATOM     11  C   UNL d   1       2.837  -1.690  -0.021  0.00  0.00     0.038 A 
ATOM     12  C   UNL d   1      -1.586  -1.544  -0.001  0.00  0.00     0.013 A 
ATOM     13  C   UNL d   1      -2.781   0.961   0.002  0.00  0.00     0.018 A 
ATOM     14  C   UNL d   1      -2.979  -1.434   0.002  0.00  0.00     0.001 A 
ATOM     15  C   UNL d   1      -3.579  -0.181   0.003  0.00  0.00     0.001 A 
ENDROOT
BRANCH  10  16
ATOM     16  O   UNL d   1       4.948  -0.426   0.033  0.00  0.00    -0.279 OA
BRANCH  16  17
ATOM     17  C   UNL d   1       5.720  -1.426   0.628  0.00  0.00     0.260 C 
ATOM     18  O   UNL d   1       5.311  -2.405   1.239  0.00  0.00    -0.265 OA
ATOM     19  C   UNL d   1       7.178  -1.137   0.424  0.00  0.00     0.126 C 
ENDBRANCH  16  17
ENDBRANCH  10  16
TORSDOF 2
