REMARK  2 active torsions:
REMARK  status: ('A' for Active; 'I' for Inactive)
REMARK    1  A    between atoms: C_2  and  N_1 
REMARK    2  A    between atoms: N_6  and  C_3 
ROOT
ATOM      1  C   UNL d   1       0.373  -0.330  -1.264  0.00  0.00     0.118 A 
ATOM      2  C   UNL d   1      -1.186  -1.266  -3.355  0.00  0.00     0.103 A 
ATOM      3  N   UNL d   1      -0.111  -0.488  -3.622  0.00  0.00    -0.350 N 
ATOM      4  HN  UNL d   1       0.126  -0.242  -4.583  1.00  0.00     0.166 HD
ATOM      5  C   UNL d   1       0.648  -0.039  -2.587  0.00  0.00     0.125 A 
ATOM      6  C   UNL d   1      -0.722  -1.135  -0.974  0.00  0.00     0.041 A 
ATOM      7  C   UNL d   1      -1.501  -1.603  -2.034  0.00  0.00     0.051 A 
ENDROOT
BRANCH   2   8
ATOM      8  N   UNL d   1      -2.032  -1.633  -4.386  0.00  0.00    -0.364 N 
ATOM      9  C   UNL d   1      -1.848  -0.967  -5.676  0.00  0.00     0.151 C 
ATOM     10  C   UNL d   1      -3.091  -1.172  -6.516  0.00  0.00    -0.011 C 
ATOM     11  C   UNL d   1      -4.077  -2.035  -6.215  0.00  0.00    -0.027 C 
ATOM     12  C   UNL d   1      -3.985  -2.933  -5.010  0.00  0.00     0.047 C 
ATOM     13  C   UNL d   1      -2.550  -2.999  -4.467  0.00  0.00     0.128 C 
ENDBRANCH   2   8
BRANCH   1  14
ATOM     14  N   UNL d   1       1.195   0.225  -0.202  0.00  0.00    -0.114 N 
ATOM     15  O   UNL d   1       2.167   0.923  -0.529  0.00  0.00    -0.532 OA
ATOM     16  O   UNL d   1       0.872  -0.027   0.967  0.00  0.00    -0.532 OA
ENDBRANCH   1  14
TORSDOF 2
