REMARK  2 active torsions:
REMARK  status: ('A' for Active; 'I' for Inactive)
REMARK    1  A    between atoms: C_8  and  N_3 
REMARK    2  A    between atoms: C_7  and  C_5 
ROOT
ATOM      1  N   UNL d   1      -1.383  -0.645  -0.091  0.00  0.00    -0.298 N 
ATOM      2  HN  UNL d   1      -2.163  -1.293  -0.202  1.00  0.00     0.187 HD
ATOM      3  N   UNL d   1      -0.042  -0.976   0.028  0.00  0.00    -0.224 N 
ATOM      4  C   UNL d   1       0.801   0.135   0.173  0.00  0.00     0.248 A 
ATOM      5  C   UNL d   1      -1.453   0.651  -0.035  0.00  0.00     0.020 A 
ATOM      6  C   UNL d   1      -0.118   1.312   0.129  0.00  0.00     0.160 A 
ATOM      7  O   UNL d   1       2.011   0.219   0.311  0.00  0.00    -0.271 OA
ENDROOT
BRANCH   3   8
ATOM      8  C   UNL d   1       0.324  -2.346   0.082  0.00  0.00     0.059 A 
ATOM      9  C   UNL d   1       1.642  -2.746   0.346  0.00  0.00     0.031 A 
ATOM     10  C   UNL d   1       1.982  -4.100   0.442  0.00  0.00     0.002 A 
ATOM     11  C   UNL d   1       1.010  -5.079   0.264  0.00  0.00     0.000 A 
ATOM     12  C   UNL d   1      -0.300  -4.704  -0.018  0.00  0.00     0.002 A 
ATOM     13  C   UNL d   1      -0.640  -3.348  -0.106  0.00  0.00     0.031 A 
ENDBRANCH   3   8
BRANCH   5  14
ATOM     14  C   UNL d   1      -2.755   1.442  -0.020  0.00  0.00    -0.011 C 
ATOM     15  C   UNL d   1      -3.224   1.540   1.438  0.00  0.00     0.021 C 
ATOM     16  C   UNL d   1      -2.542   2.853  -0.588  0.00  0.00     0.021 C 
ATOM     17  C   UNL d   1      -3.827   0.730  -0.858  0.00  0.00     0.021 C 
ENDBRANCH   5  14
TORSDOF 2
