REMARK  2 active torsions:
REMARK  status: ('A' for Active; 'I' for Inactive)
REMARK    1  A    between atoms: N_4  and  C_1 
REMARK    2  A    between atoms: N_5  and  C_2 
REMARK       I    between atoms: C_6  and  N_4 
REMARK       I    between atoms: C_7  and  N_5 
ROOT
ATOM      1  C   UNL d   1       0.791   0.822   1.090  0.00  0.00     0.036 C 
ATOM      2  C   UNL d   1      -1.523   0.402   0.073  0.00  0.00     0.036 C 
ATOM      3  C   UNL d   1      -0.726   1.130   1.183  0.00  0.00     0.062 C 
ATOM      4  C   UNL d   1       0.198  -1.466   0.175  0.00  0.00    -0.009 C 
ATOM      5  C   UNL d   1       0.529   0.460  -1.410  0.00  0.00    -0.009 C 
ATOM      6  C   UNL d   1      -0.967   0.787  -1.319  0.00  0.00     0.035 C 
ATOM      7  C   UNL d   1      -1.299  -1.122   0.260  0.00  0.00     0.035 C 
ATOM      8  C   UNL d   1       0.966  -0.706   1.268  0.00  0.00     0.035 C 
ATOM      9  C   UNL d   1       1.278   1.241  -0.319  0.00  0.00     0.035 C 
ATOM     10  C   UNL d   1       0.740  -1.046  -1.200  0.00  0.00     0.009 C 
ENDROOT
BRANCH   1  11
ATOM     11  N   UNL d   1       1.493   1.568   2.142  0.00  0.00    -0.352 N 
ATOM     12  C   UNL d   1       2.857   1.539   2.336  0.00  0.00     0.214 C 
ATOM     13  O   UNL d   1       3.638   0.861   1.678  0.00  0.00    -0.274 OA
ATOM     14  C   UNL d   1       3.344   2.428   3.449  0.00  0.00     0.117 C 
ATOM     15  H   UNL d   1       0.955   2.243   2.672  0.00  0.00     0.163 HD
ENDBRANCH   1  11
BRANCH   2  16
ATOM     16  N   UNL d   1      -2.960   0.699   0.167  0.00  0.00    -0.352 N 
ATOM     17  C   UNL d   1      -3.493   1.964   0.046  0.00  0.00     0.214 C 
ATOM     18  O   UNL d   1      -2.829   2.984  -0.124  0.00  0.00    -0.274 OA
ATOM     19  C   UNL d   1      -4.993   2.026   0.150  0.00  0.00     0.117 C 
ATOM     20  H   UNL d   1      -3.597  -0.080   0.282  0.00  0.00     0.163 HD
ENDBRANCH   2  16
TORSDOF 2
