REMARK  3 active torsions:
REMARK  status: ('A' for Active; 'I' for Inactive)
REMARK    1  A    between atoms: C_3  and  C_1 
REMARK    2  A    between atoms: C_2  and  N_7 
REMARK       I    between atoms: N_7  and  C_3 
REMARK    3  A    between atoms: C_8  and  C_9 
ROOT
ATOM      1  C   UNL d   1       0.902  -0.026   0.005  0.00  0.00     0.113 C 
ATOM      2  C   UNL d   1       0.300  -1.225  -0.133  0.00  0.00     0.047 C 
ATOM      3  C   UNL d   1       0.204   1.183   0.266  0.00  0.00     0.105 C 
ATOM      4  N   UNL d   1      -0.273   2.216   0.495  0.00  0.00    -0.191 NA
ENDROOT
BRANCH   1   5
ATOM      5  C   UNL d   1       2.401  -0.003  -0.140  0.00  0.00     0.267 C 
ATOM      6  N   UNL d   1       2.997   1.221   0.100  0.00  0.00    -0.307 N 
ATOM      7  H   UNL d   1       2.464   2.010   0.441  0.00  0.00     0.170 HD
ATOM      8  O   UNL d   1       2.992  -1.035  -0.450  0.00  0.00    -0.266 OA
BRANCH   6   9
ATOM      9  C   UNL d   1       4.331   1.491  -0.164  0.00  0.00     0.130 A 
ATOM     10  N   UNL d   1       5.205   0.648  -0.718  0.00  0.00    -0.245 N 
ATOM     11  O   UNL d   1       6.386   1.344  -0.862  0.00  0.00    -0.241 OA
ATOM     12  HN  UNL d   1       5.032  -0.322  -0.984  1.00  0.00     0.196 HD
ATOM     13  C   UNL d   1       6.225   2.605  -0.387  0.00  0.00     0.076 A 
ATOM     14  C   UNL d   1       4.944   2.745   0.085  0.00  0.00     0.084 A 
ATOM     15  C   UNL d   1       7.394   3.494  -0.495  0.00  0.00     0.079 C 
ENDBRANCH   6   9
ENDBRANCH   1   5
BRANCH   2  16
ATOM     16  C   UNL d   1      -1.106  -1.440  -0.076  0.00  0.00     0.007 A 
ATOM     17  C   UNL d   1      -1.802  -2.295   0.763  0.00  0.00     0.038 A 
ATOM     18  C   UNL d   1      -3.194  -2.288   0.499  0.00  0.00     0.018 A 
ATOM     19 BR   UNL d   1      -4.405  -3.335   1.495  0.00  0.00    -0.051 Br
ATOM     20  C   UNL d   1      -3.546  -1.466  -0.539  0.00  0.00     0.069 A 
ATOM     21  S   UNL d   1      -2.174  -0.702  -1.213  0.00  0.00    -0.101 SA
ENDBRANCH   2  16
TORSDOF 3
