REMARK  5 active torsions:
REMARK  status: ('A' for Active; 'I' for Inactive)
REMARK    1  A    between atoms: C_4  and  C_3 
REMARK    2  A    between atoms: O_15  and  C_7 
REMARK    3  A    between atoms: C_17  and  O_15 
REMARK    4  A    between atoms: C_19  and  C_17 
REMARK    5  A    between atoms: C_20  and  C_19 
ROOT
ATOM      1  N   UNL d   1      -1.683   1.374  -0.029  0.00  0.00    -0.352 N 
ATOM      2  HN  UNL d   1      -1.764   2.390  -0.043  1.00  0.00     0.166 HD
ATOM      3  C   UNL d   1      -2.792   0.593  -0.021  0.00  0.00     0.119 A 
ATOM      4  C   UNL d   1      -0.294  -0.613   0.006  0.00  0.00     0.025 A 
ATOM      5  C   UNL d   1      -0.478   0.787  -0.017  0.00  0.00     0.045 A 
ATOM      6  C   UNL d   1      -1.461  -1.416   0.018  0.00  0.00     0.083 A 
ATOM      7  C   UNL d   1      -2.710  -0.793   0.003  0.00  0.00     0.072 A 
ATOM      8  C   UNL d   1       1.029  -1.124   0.013  0.00  0.00     0.023 A 
ATOM      9  C   UNL d   1       0.632   1.615  -0.028  0.00  0.00     0.031 A 
ATOM     10  C   UNL d   1       2.143  -0.269  -0.002  0.00  0.00    -0.061 A 
ATOM     11  C   UNL d   1       1.931   1.109  -0.022  0.00  0.00     0.009 A 
ATOM     12  C   UNL d   1       3.536  -0.825  -0.006  0.00  0.00     0.048 C 
ENDROOT
BRANCH   6  13
ATOM     13  O   UNL d   1      -1.303  -2.792   0.048  0.00  0.00    -0.350 OA
BRANCH  13  14
ATOM     14  C   UNL d   1      -2.523  -3.541   0.073  0.00  0.00     0.175 C 
BRANCH  14  15
ATOM     15  C   UNL d   1      -2.284  -5.048   0.118  0.00  0.00     0.026 C 
BRANCH  15  16
ATOM     16  C   UNL d   1      -3.639  -5.763   0.141  0.00  0.00    -0.002 C 
ATOM     17  C   UNL d   1      -3.520  -7.274   0.186  0.00  0.00     0.005 C 
ENDBRANCH  15  16
ENDBRANCH  14  15
ENDBRANCH  13  14
ENDBRANCH   6  13
BRANCH   3  18
ATOM     18  C   UNL d   1      -4.173   1.230  -0.041  0.00  0.00     0.432 C 
ATOM     19  F   UNL d   1      -4.176   2.591  -0.060  0.00  0.00    -0.165 F 
ATOM     20  F   UNL d   1      -4.905   0.839  -1.127  0.00  0.00    -0.165 F 
ATOM     21  F   UNL d   1      -4.923   0.869   1.043  0.00  0.00    -0.165 F 
ENDBRANCH   3  18
TORSDOF 5
