REMARK  4 active torsions:
REMARK  status: ('A' for Active; 'I' for Inactive)
REMARK    1  A    between atoms: C_1  and  O_7 
REMARK    2  A    between atoms: S_3  and  O_7 
REMARK    3  A    between atoms: C_5  and  C_9 
REMARK    4  A    between atoms: C_19  and  C_13 
ROOT
ATOM      1  C   UNL d   1      -2.248  -0.072  -0.288  0.00  0.00     0.251 C 
ATOM      2  C   UNL d   1      -1.130  -1.045   0.059  0.00  0.00     0.195 C 
ATOM      3  O   UNL d   1      -0.578   1.744  -0.197  0.00  0.00    -0.337 OA
ATOM      4  C   UNL d   1      -1.817   1.256   0.369  0.00  0.00     0.200 C 
ATOM      5  C   UNL d   1       0.243  -0.537  -0.051  0.00  0.00     0.046 A 
ATOM      6  C   UNL d   1       0.445   0.835  -0.156  0.00  0.00     0.083 A 
ATOM      7  O   UNL d   1      -1.291  -2.192   0.453  0.00  0.00    -0.289 OA
ATOM      8  C   UNL d   1       1.321  -1.429  -0.004  0.00  0.00     0.018 A 
ATOM      9  C   UNL d   1       1.749   1.321  -0.229  0.00  0.00     0.038 A 
ATOM     10  C   UNL d   1       2.623  -0.941  -0.063  0.00  0.00     0.001 A 
ATOM     11  C   UNL d   1       2.834   0.437  -0.169  0.00  0.00     0.003 A 
ENDROOT
BRANCH   4  12
ATOM     12  C   UNL d   1      -2.798   2.422   0.303  0.00  0.00    -0.026 A 
ATOM     13  C   UNL d   1      -3.600   2.715  -0.808  0.00  0.00     0.010 A 
ATOM     14  C   UNL d   1      -4.461   3.829  -0.803  0.00  0.00     0.008 A 
ATOM     15  C   UNL d   1      -4.545   4.679   0.310  0.00  0.00    -0.055 A 
ATOM     16  C   UNL d   1      -3.715   4.404   1.404  0.00  0.00     0.008 A 
ATOM     17  C   UNL d   1      -2.857   3.302   1.400  0.00  0.00     0.010 A 
BRANCH  15  18
ATOM     18  C   UNL d   1      -5.448   5.902   0.372  0.00  0.00     0.010 C 
ATOM     19  C   UNL d   1      -4.728   7.141  -0.164  0.00  0.00     0.015 C 
ATOM     20  C   UNL d   1      -6.802   5.731  -0.324  0.00  0.00     0.015 C 
ENDBRANCH  15  18
ENDBRANCH   4  12
BRANCH   1  21
ATOM     21  O   UNL d   1      -3.487  -0.542   0.238  0.00  0.00    -0.260 OA
BRANCH  21  22
ATOM     22  S   UNL d   1      -4.245  -1.770  -0.539  0.00  0.00     0.262 S 
ATOM     23  O   UNL d   1      -4.327  -1.435  -1.948  0.00  0.00    -0.199 OA
ATOM     24  O   UNL d   1      -3.758  -3.049  -0.083  0.00  0.00    -0.199 OA
ATOM     25  C   UNL d   1      -5.847  -1.553   0.183  0.00  0.00     0.194 C 
ENDBRANCH  21  22
ENDBRANCH   1  21
TORSDOF 4
