REMARK  9 active torsions:
REMARK  status: ('A' for Active; 'I' for Inactive)
REMARK    1  A    between atoms: C_7  and  C_1 
REMARK    2  A    between atoms: C_12  and  C_2 
REMARK    3  A    between atoms: N_6  and  C_5 
REMARK    4  A    between atoms: N_8  and  C_13 
REMARK    5  A    between atoms: O_24  and  C_12 
REMARK    6  A    between atoms: C_14  and  O_27 
REMARK    7  A    between atoms: C_32  and  O_24 
REMARK    8  A    between atoms: O_27  and  C_33 
REMARK    9  A    between atoms: C_33  and  C_32 
ROOT
ATOM      1  C   UNL d   1       0.357  -2.722  -0.384  0.00  0.00     0.298 C 
ATOM      2  O   UNL d   1      -0.521  -3.498  -0.035  0.00  0.00    -0.259 OA
ENDROOT
BRANCH   1   3
ATOM      3  C   UNL d   1       0.088  -1.380  -0.837  0.00  0.00     0.100 A 
ATOM      4  C   UNL d   1      -0.986  -0.509  -0.469  0.00  0.00     0.087 A 
ATOM      5  N   UNL d   1      -0.878   0.658  -1.126  0.00  0.00    -0.259 N 
ATOM      6  O   UNL d   1       0.205   0.541  -1.964  0.00  0.00    -0.241 OA
ATOM      7  HN  UNL d   1      -1.482   1.473  -1.023  1.00  0.00     0.195 HD
ATOM      8  C   UNL d   1       0.787  -0.672  -1.796  0.00  0.00     0.091 A 
ATOM      9  C   UNL d   1       1.941  -0.939  -2.680  0.00  0.00     0.080 C 
BRANCH   4  10
ATOM     10  C   UNL d   1      -2.079  -0.723   0.489  0.00  0.00     0.037 A 
ATOM     11  C   UNL d   1      -1.824  -1.123   1.817  0.00  0.00     0.048 A 
ATOM     12 CL   UNL d   1      -0.224  -1.283   2.469  0.00  0.00    -0.083 Cl
ATOM     13  C   UNL d   1      -2.874  -1.360   2.715  0.00  0.00     0.025 A 
ATOM     14  C   UNL d   1      -4.193  -1.149   2.330  0.00  0.00     0.003 A 
ATOM     15  C   UNL d   1      -4.467  -0.712   1.039  0.00  0.00     0.025 A 
ATOM     16  C   UNL d   1      -3.426  -0.516   0.119  0.00  0.00     0.048 A 
ATOM     17 CL   UNL d   1      -3.913  -0.047  -1.479  0.00  0.00    -0.083 Cl
ENDBRANCH   4  10
ENDBRANCH   1   3
BRANCH   1  18
ATOM     18  O   UNL d   1       1.686  -3.043  -0.445  0.00  0.00    -0.315 OA
BRANCH  18  19
ATOM     19  C   UNL d   1       1.998  -4.440  -0.293  0.00  0.00     0.205 C 
BRANCH  19  20
ATOM     20  C   UNL d   1       1.590  -5.167  -1.570  0.00  0.00     0.202 C 
BRANCH  20  21
ATOM     21  O   UNL d   1       1.758  -6.581  -1.455  0.00  0.00    -0.346 OA
BRANCH  21  22
ATOM     22  C   UNL d   1       1.285  -7.269  -2.546  0.00  0.00     0.102 A 
ATOM     23  C   UNL d   1       2.016  -8.350  -3.053  0.00  0.00     0.138 A 
ATOM     24  C   UNL d   1       1.564  -9.106  -4.148  0.00  0.00     0.075 A 
ATOM     25  C   UNL d   1       0.343  -8.763  -4.739  0.00  0.00     0.105 A 
ATOM     26  C   UNL d   1      -0.418  -7.703  -4.232  0.00  0.00     0.039 A 
ATOM     27  C   UNL d   1       0.046  -6.978  -3.131  0.00  0.00     0.042 A 
BRANCH  23  28
ATOM     28  N   UNL d   1       3.292  -8.707  -2.465  0.00  0.00    -0.113 N 
ATOM     29  O   UNL d   1       3.409  -9.868  -2.050  0.00  0.00    -0.532 OA
ATOM     30  O   UNL d   1       4.185  -7.849  -2.481  0.00  0.00    -0.532 OA
ENDBRANCH  23  28
BRANCH  25  31
ATOM     31  N   UNL d   1      -0.156  -9.517  -5.893  0.00  0.00    -0.116 N 
ATOM     32  O   UNL d   1       0.552 -10.441  -6.320  0.00  0.00    -0.532 OA
ATOM     33  O   UNL d   1      -1.245  -9.180  -6.377  0.00  0.00    -0.532 OA
ENDBRANCH  25  31
ENDBRANCH  21  22
ENDBRANCH  20  21
ENDBRANCH  19  20
ENDBRANCH  18  19
ENDBRANCH   1  18
TORSDOF 9
