REMARK  0 active torsions:
REMARK  status: ('A' for Active; 'I' for Inactive)
ROOT
ATOM      1  C   UNL d   1       2.730  -0.746   0.000  0.00  0.00     0.134 A 
ATOM      2  C   UNL d   1       1.781   0.245   0.002  0.00  0.00     0.104 A 
ATOM      3  N   UNL d   1       4.093  -0.343   0.001  0.00  0.00    -0.288 N 
ATOM      4  N   UNL d   1       3.530   1.963  -0.000  0.00  0.00    -0.270 N 
ATOM      5  N   UNL d   1       2.258  -2.099   0.000  0.00  0.00    -0.303 N 
ATOM      6  C   UNL d   1       4.501   1.007   0.001  0.00  0.00     0.332 A 
ATOM      7  C   UNL d   1       2.189   1.688   0.001  0.00  0.00     0.267 A 
ATOM      8  C   UNL d   1      -0.101  -1.366  -0.000  0.00  0.00     0.061 A 
ATOM      9  C   UNL d   1       0.327  -0.067   0.002  0.00  0.00     0.068 A 
ATOM     10  C   UNL d   1       0.878  -2.431  -0.000  0.00  0.00     0.261 A 
ATOM     11  N   UNL d   1      -0.583   0.941   0.003  0.00  0.00    -0.354 N 
ATOM     12  HN  UNL d   1      -0.261   1.909   0.005  1.00  0.00     0.166 HD
ATOM     13  C   UNL d   1      -1.467  -1.668  -0.003  0.00  0.00     0.033 A 
ATOM     14  C   UNL d   1      -1.909   0.678  -0.000  0.00  0.00     0.043 A 
ATOM     15  O   UNL d   1       5.696   1.326   0.002  0.00  0.00    -0.246 OA
ATOM     16  O   UNL d   1       1.379   2.614   0.001  0.00  0.00    -0.267 OA
ATOM     17  C   UNL d   1      -2.399  -0.636  -0.005  0.00  0.00    -0.008 A 
ATOM     18  O   UNL d   1       0.449  -3.585  -0.001  0.00  0.00    -0.267 OA
ATOM     19  C   UNL d   1       5.290  -1.159  -0.002  0.00  0.00     0.163 C 
ATOM     20  C   UNL d   1       3.922   3.366  -0.003  0.00  0.00     0.164 C 
ATOM     21  C   UNL d   1       2.988  -3.351  -0.001  0.00  0.00     0.161 C 
ATOM     22  C   UNL d   1      -2.840   1.711  -0.001  0.00  0.00     0.030 A 
ATOM     23  C   UNL d   1      -3.781  -0.898  -0.008  0.00  0.00     0.014 A 
ATOM     24  C   UNL d   1      -4.218   1.463  -0.005  0.00  0.00     0.002 A 
ATOM     25  C   UNL d   1      -4.689   0.155  -0.009  0.00  0.00     0.001 A 
ENDROOT
TORSDOF 0
