REMARK  3 active torsions:
REMARK  status: ('A' for Active; 'I' for Inactive)
REMARK    1  A    between atoms: C_5  and  CA_4 
REMARK    2  A    between atoms: OXT_11  and  C_5 
REMARK    3  A    between atoms: O_12  and  C_6 
ROOT
ATOM      1  N   UNL d   1       0.990   1.455   0.004  0.00  0.00    -0.348 N 
ATOM      2  HN  UNL d   1       0.713   2.437   0.003  1.00  0.00     0.166 HD
ATOM      3  C   UNL d   1       0.074   0.456   0.004  0.00  0.00     0.076 A 
ATOM      4  CA  UNL d   1       2.307   1.080   0.004  0.00  0.00     0.107 A 
ATOM      5  C   UNL d   1      -1.292   0.748   0.006  0.00  0.00     0.093 A 
ATOM      6  C   UNL d   1       2.754  -0.231   0.003  0.00  0.00     0.037 A 
ATOM      7  C   UNL d   1       0.438  -0.911   0.003  0.00  0.00    -0.007 A 
ATOM      8  C   UNL d   1       1.800  -1.238   0.002  0.00  0.00     0.016 A 
ATOM      9  C   UNL d   1      -1.902  -1.576   0.005  0.00  0.00     0.004 A 
ATOM     10  C   UNL d   1      -2.276  -0.238   0.007  0.00  0.00     0.039 A 
ATOM     11  C   UNL d   1      -0.549  -1.913   0.002  0.00  0.00     0.014 A 
ENDROOT
BRANCH   4  12
ATOM     12  C   UNL d   1       3.303   2.194   0.004  0.00  0.00     0.193 C 
ATOM     13  O   UNL d   1       4.511   2.049   0.006  0.00  0.00    -0.645 OA
BRANCH  12  14
ATOM     14  OXT UNL d   1       2.678   3.395   0.002  0.00  0.00    -0.772 OA
ATOM     15  HXT UNL d   1       1.706   3.247   0.000  0.00  0.00     0.167 HD
ENDBRANCH  12  14
ENDBRANCH   4  12
BRANCH   5  16
ATOM     16  O   UNL d   1      -1.718   2.054   0.008  0.00  0.00    -0.358 OA
ATOM     17  H   UNL d   1      -0.905   2.591   0.007  0.00  0.00     0.217 HD
ENDBRANCH   5  16
TORSDOF 3
