REMARK  2 active torsions:
REMARK  status: ('A' for Active; 'I' for Inactive)
REMARK    1  A    between atoms: C_3  and  N_1 
REMARK    2  A    between atoms: C_10  and  C_9 
ROOT
ATOM      1  N   UNL d   1       0.934   0.021  -0.023  0.00  0.00    -0.365 N 
ATOM      2  HN  UNL d   1       0.384  -0.652  -0.557  1.00  0.00     0.165 HD
ATOM      3  C   UNL d   1       2.219  -0.104   0.061  0.00  0.00     0.099 C 
ENDROOT
BRANCH   1   4
ATOM      4  C   UNL d   1       0.305   1.095   0.629  0.00  0.00     0.035 A 
ATOM      5  C   UNL d   1      -0.795   1.687   0.003  0.00  0.00     0.053 A 
ATOM      6  C   UNL d   1      -1.465   2.757   0.600  0.00  0.00     0.037 A 
ATOM      7 CL   UNL d   1      -2.814   3.473  -0.195  0.00  0.00    -0.084 Cl
ATOM      8  C   UNL d   1      -1.047   3.256   1.831  0.00  0.00     0.048 A 
ATOM      9  C   UNL d   1       0.033   2.654   2.468  0.00  0.00     0.037 A 
ATOM     10  C   UNL d   1       0.693   1.572   1.887  0.00  0.00     0.053 A 
ATOM     11 CL   UNL d   1       0.564   3.257   3.991  0.00  0.00    -0.084 Cl
ENDBRANCH   1   4
BRANCH   3  12
ATOM     12  C   UNL d   1       2.951  -1.179  -0.638  0.00  0.00    -0.021 A 
ATOM     13  C   UNL d   1       2.301  -2.017  -1.549  0.00  0.00     0.014 A 
ATOM     14  C   UNL d   1       3.029  -2.994  -2.233  0.00  0.00     0.024 A 
ATOM     15  C   UNL d   1       4.397  -3.131  -1.999  0.00  0.00     0.034 A 
ATOM     16  C   UNL d   1       5.045  -2.302  -1.082  0.00  0.00     0.024 A 
ATOM     17 CL   UNL d   1       5.295  -4.326  -2.851  0.00  0.00    -0.084 Cl
ATOM     18  C   UNL d   1       4.322  -1.322  -0.399  0.00  0.00     0.014 A 
ENDBRANCH   3  12
TORSDOF 2
