REMARK  5 active torsions:
REMARK  status: ('A' for Active; 'I' for Inactive)
REMARK    1  A    between atoms: C_4  and  S_1 
REMARK    2  A    between atoms: N_10  and  S_1 
REMARK    3  A    between atoms: N_3  and  C_17 
REMARK    4  A    between atoms: C_16  and  N_10 
REMARK    5  A    between atoms: C_17  and  C_16 
ROOT
ATOM      1  S   UNL d   1       0.938   0.068   0.067  0.00  0.00     0.258 S 
ATOM      2  O   UNL d   1       0.551  -1.074  -0.734  0.00  0.00    -0.201 OA
ATOM      3  O   UNL d   1       0.570   0.192   1.460  0.00  0.00    -0.201 OA
ENDROOT
BRANCH   1   4
ATOM      4  C   UNL d   1       0.392   1.528  -0.790  0.00  0.00     0.080 A 
ATOM      5  C   UNL d   1      -0.384   2.489  -0.128  0.00  0.00     0.035 A 
ATOM      6  C   UNL d   1      -0.819   3.577  -0.867  0.00  0.00    -0.021 A 
ATOM      7  C   UNL d   1      -1.653   4.733  -0.465  0.00  0.00     0.068 C 
ATOM      8  C   UNL d   1      -0.453   3.726  -2.198  0.00  0.00     0.075 A 
ATOM      9  C   UNL d   1      -1.973   5.297  -1.852  0.00  0.00     0.180 C 
ATOM     10  O   UNL d   1      -0.964   4.853  -2.788  0.00  0.00    -0.350 OA
ATOM     11  C   UNL d   1       0.347   2.811  -2.852  0.00  0.00     0.039 A 
ATOM     12  C   UNL d   1       0.760   1.684  -2.142  0.00  0.00     0.028 A 
ENDBRANCH   1   4
BRANCH   1  13
ATOM     13  N   UNL d   1       2.617   0.182  -0.029  0.00  0.00    -0.314 N 
ATOM     14  H   UNL d   1       2.974  -0.200  -0.906  0.00  0.00     0.172 HD
BRANCH  13  15
ATOM     15  C   UNL d   1       3.243   1.410   0.491  0.00  0.00     0.152 C 
BRANCH  15  16
ATOM     16  C   UNL d   1       4.766   1.302   0.438  0.00  0.00     0.148 C 
BRANCH  16  17
ATOM     17  N   UNL d   1       5.447   2.512   0.846  0.00  0.00    -0.331 N 
ATOM     18  C   UNL d   1       5.636   3.635   0.038  0.00  0.00     0.318 C 
ATOM     19  N   UNL d   1       6.357   4.557   0.795  0.00  0.00    -0.341 N 
ATOM     20  O   UNL d   1       5.273   3.785  -1.109  0.00  0.00    -0.247 OA
ATOM     21  C   UNL d   1       6.851   3.923   1.989  0.00  0.00     0.144 C 
ATOM     22  H   UNL d   1       6.766   5.361   0.337  0.00  0.00     0.164 HD
ATOM     23  C   UNL d   1       5.836   2.806   2.205  0.00  0.00     0.147 C 
ENDBRANCH  16  17
ENDBRANCH  15  16
ENDBRANCH  13  15
ENDBRANCH   1  13
TORSDOF 5
