REMARK  9 active torsions:
REMARK  status: ('A' for Active; 'I' for Inactive)
REMARK    1  A    between atoms: S_13  and  C_2 
REMARK    2  A    between atoms: C_23  and  C_7 
REMARK    3  A    between atoms: C_9  and  C_15 
REMARK    4  A    between atoms: C_15  and  S_13 
REMARK    5  A    between atoms: C_14  and  O_28 
REMARK    6  A    between atoms: S_25  and  C_23 
REMARK    7  A    between atoms: C_29  and  S_25 
REMARK    8  A    between atoms: O_28  and  C_30 
REMARK    9  A    between atoms: C_30  and  C_29 
ROOT
ATOM      1  O   UNL d   1       0.121   0.488  -1.195  0.00  0.00    -0.271 OA
ATOM      2  C   UNL d   1       0.701  -0.656  -0.714  0.00  0.00     0.203 A 
ATOM      3  N   UNL d   1       0.614  -0.742   0.599  0.00  0.00    -0.272 N 
ATOM      4  HN  UNL d   1       0.969  -1.500   1.183  1.00  0.00     0.189 HD
ATOM      5  N   UNL d   1      -0.050   0.390   1.032  0.00  0.00    -0.280 N 
ATOM      6  HN  UNL d   1      -0.274   0.638   1.996  1.00  0.00     0.189 HD
ATOM      7  C   UNL d   1      -0.334   1.082  -0.052  0.00  0.00     0.150 A 
ENDROOT
BRANCH   7   8
ATOM      8  C   UNL d   1      -1.004   2.395  -0.190  0.00  0.00     0.160 C 
BRANCH   8   9
ATOM      9  S   UNL d   1      -2.831   2.276  -0.243  0.00  0.00    -0.159 SA
BRANCH   9  10
ATOM     10  C   UNL d   1      -3.211   1.599   1.424  0.00  0.00     0.101 C 
BRANCH  10  11
ATOM     11  C   UNL d   1      -2.663   2.477   2.543  0.00  0.00     0.186 C 
BRANCH  11  12
ATOM     12  O   UNL d   1      -2.924   1.901   3.831  0.00  0.00    -0.349 OA
BRANCH  12  13
ATOM     13  C   UNL d   1      -2.349   2.571   4.885  0.00  0.00     0.090 A 
ATOM     14  C   UNL d   1      -2.999   2.542   6.126  0.00  0.00     0.069 A 
ATOM     15  C   UNL d   1      -2.462   3.209   7.231  0.00  0.00     0.050 A 
ATOM     16 CL   UNL d   1      -4.498   1.705   6.336  0.00  0.00    -0.081 Cl
ATOM     17  C   UNL d   1      -1.255   3.899   7.100  0.00  0.00     0.035 A 
ATOM     18  C   UNL d   1      -0.580   3.912   5.891  0.00  0.00     0.026 A 
ATOM     19 CL   UNL d   1      -0.595   4.736   8.450  0.00  0.00    -0.084 Cl
ATOM     20  C   UNL d   1      -1.119   3.239   4.790  0.00  0.00     0.040 A 
ENDBRANCH  12  13
ENDBRANCH  11  12
ENDBRANCH  10  11
ENDBRANCH   9  10
ENDBRANCH   8   9
ENDBRANCH   7   8
BRANCH   2  21
ATOM     21  S   UNL d   1       1.489  -1.800  -1.754  0.00  0.00    -0.080 SA
BRANCH  21  22
ATOM     22  C   UNL d   1       1.938  -3.090  -0.560  0.00  0.00     0.123 C 
BRANCH  22  23
ATOM     23  C   UNL d   1       2.829  -4.141  -1.188  0.00  0.00    -0.027 A 
ATOM     24  C   UNL d   1       2.329  -5.308  -1.792  0.00  0.00     0.042 A 
ATOM     25  C   UNL d   1       3.197  -6.255  -2.345  0.00  0.00     0.048 A 
ATOM     26 CL   UNL d   1       0.635  -5.636  -1.883  0.00  0.00    -0.084 Cl
ATOM     27  C   UNL d   1       4.572  -6.038  -2.311  0.00  0.00     0.035 A 
ATOM     28  C   UNL d   1       5.088  -4.878  -1.742  0.00  0.00     0.024 A 
ATOM     29 CL   UNL d   1       5.641  -7.209  -2.980  0.00  0.00    -0.084 Cl
ATOM     30  C   UNL d   1       4.222  -3.934  -1.185  0.00  0.00     0.011 A 
ENDBRANCH  22  23
ENDBRANCH  21  22
ENDBRANCH   2  21
TORSDOF 9
