REMARK  3 active torsions:
REMARK  status: ('A' for Active; 'I' for Inactive)
REMARK    1  A    between atoms: C_7  and  C_3 
REMARK    2  A    between atoms: C_12  and  C_4 
REMARK    3  A    between atoms: N_15  and  C_5 
ROOT
ATOM      1  C   UNL d   1       0.491  -1.373  -0.054  0.00  0.00     0.066 C 
ATOM      2  C   UNL d   1       0.931   1.111  -0.076  0.00  0.00     0.081 C 
ATOM      3  C   UNL d   1       1.462  -0.256   0.280  0.00  0.00     0.116 C 
ATOM      4  C   UNL d   1      -0.820  -1.120  -0.270  0.00  0.00     0.080 C 
ATOM      5  C   UNL d   1      -0.386   1.284  -0.337  0.00  0.00     0.138 C 
ATOM      6  O   UNL d   1      -1.279   0.207  -0.289  0.00  0.00    -0.300 OA
ATOM      7  C   UNL d   1       1.054  -2.681  -0.187  0.00  0.00     0.099 C 
ATOM      8  C   UNL d   1       1.869   2.187  -0.207  0.00  0.00     0.100 C 
ATOM      9  N   UNL d   1       1.523  -3.729  -0.332  0.00  0.00    -0.192 NA
ATOM     10  N   UNL d   1       2.639   3.046  -0.308  0.00  0.00    -0.191 NA
ENDROOT
BRANCH   3  11
ATOM     11  C   UNL d   1       1.991  -0.351   1.728  0.00  0.00    -0.000 A 
ATOM     12  C   UNL d   1       1.179  -0.162   2.874  0.00  0.00     0.043 A 
ATOM     13 CL   UNL d   1      -0.509   0.199   2.818  0.00  0.00    -0.084 Cl
ATOM     14  C   UNL d   1       1.704  -0.258   4.173  0.00  0.00     0.024 A 
ATOM     15  C   UNL d   1       3.044  -0.547   4.376  0.00  0.00     0.003 A 
ATOM     16  C   UNL d   1       3.865  -0.747   3.274  0.00  0.00     0.024 A 
ATOM     17  C   UNL d   1       3.352  -0.653   1.972  0.00  0.00     0.043 A 
ATOM     18 CL   UNL d   1       4.492  -0.934   0.699  0.00  0.00    -0.084 Cl
ENDBRANCH   3  11
BRANCH   4  19
ATOM     19  C   UNL d   1      -1.942  -2.184  -0.419  0.00  0.00    -0.001 C 
ATOM     20  C   UNL d   1      -2.003  -3.051   0.862  0.00  0.00     0.021 C 
ATOM     21  C   UNL d   1      -3.345  -1.547  -0.579  0.00  0.00     0.021 C 
ATOM     22  C   UNL d   1      -1.743  -3.090  -1.652  0.00  0.00     0.021 C 
ENDBRANCH   4  19
BRANCH   5  23
ATOM     23  N   UNL d   1      -0.985   2.481  -0.646  0.00  0.00    -0.282 NA
ATOM     24  H   UNL d   1      -1.972   2.489  -0.391  0.00  0.00     0.126 HD
ATOM     25  H   UNL d   1      -0.493   3.311  -0.322  0.00  0.00     0.126 HD
ENDBRANCH   5  23
TORSDOF 3
