REMARK  1 active torsions:
REMARK  status: ('A' for Active; 'I' for Inactive)
REMARK    1  A    between atoms: C_2  and  N_1 
ROOT
ATOM      1  C   UNL d   1       2.066  -1.477  -0.097  0.00  0.00     0.100 A 
ATOM      2  C   UNL d   1       3.142  -1.104   0.732  0.00  0.00     0.066 A 
ATOM      3  C   UNL d   1       2.219  -2.577  -0.957  0.00  0.00     0.066 A 
ATOM      4  C   UNL d   1       4.329  -1.847   0.724  0.00  0.00     0.050 A 
ATOM      5  C   UNL d   1       3.403  -3.326  -0.941  0.00  0.00     0.050 A 
ATOM      6  C   UNL d   1       4.448  -2.958  -0.100  0.00  0.00     0.037 A 
ATOM      7 CL   UNL d   1       1.071  -3.016  -2.177  0.00  0.00    -0.082 Cl
ATOM      8 CL   UNL d   1       3.073   0.176   1.898  0.00  0.00    -0.082 Cl
ATOM      9 CL   UNL d   1       5.899  -3.882  -0.088  0.00  0.00    -0.084 Cl
ENDROOT
BRANCH   1  10
ATOM     10  N   UNL d   1       0.866  -0.724  -0.076  0.00  0.00    -0.258 N 
ATOM     11  N   UNL d   1       0.924   0.624  -0.210  0.00  0.00    -0.298 N 
ATOM     12  C   UNL d   1      -0.339   1.044  -0.131  0.00  0.00     0.024 A 
ATOM     13  HN  UNL d   1       1.758   1.196  -0.343  1.00  0.00     0.187 HD
ATOM     14  C   UNL d   1      -0.659   2.490  -0.187  0.00  0.00     0.070 C 
ATOM     15  C   UNL d   1      -1.232  -0.029   0.034  0.00  0.00     0.052 A 
ATOM     16  C   UNL d   1      -0.441  -1.159   0.108  0.00  0.00     0.032 A 
ATOM     17  C   UNL d   1      -0.858  -2.550   0.425  0.00  0.00     0.070 C 
ENDBRANCH   1  10
TORSDOF 1
