REMARK  4 active torsions:
REMARK  status: ('A' for Active; 'I' for Inactive)
REMARK    1  A    between atoms: N_2  and  C_1 
REMARK    2  A    between atoms: C_15  and  C_8 
REMARK    3  A    between atoms: C_16  and  C_9 
REMARK    4  A    between atoms: S_17  and  C_13 
ROOT
ATOM      1  C   UNL d   1       1.410   0.862   0.079  0.00  0.00     0.134 A 
ATOM      2  N   UNL d   1       1.437  -0.528   0.078  0.00  0.00    -0.334 N 
ATOM      3  HN  UNL d   1       2.295  -1.073   0.163  1.00  0.00     0.168 HD
ATOM      4  C   UNL d   1       0.111   1.378  -0.048  0.00  0.00     0.062 A 
ATOM      5  C   UNL d   1       0.242  -1.070  -0.045  0.00  0.00     0.086 A 
ATOM      6  S   UNL d   1      -1.021   0.079  -0.152  0.00  0.00    -0.067 SA
ENDROOT
BRANCH   1   7
ATOM      7  N   UNL d   1       2.646   1.561   0.176  0.00  0.00    -0.259 N 
ATOM      8  C   UNL d   1       3.872   0.929  -0.156  0.00  0.00     0.333 C 
ATOM      9  N   UNL d   1       5.003   1.726  -0.250  0.00  0.00    -0.302 N 
ATOM     10  O   UNL d   1       3.993  -0.267  -0.403  0.00  0.00    -0.246 OA
ATOM     11  C   UNL d   1       4.904   2.981  -0.005  0.00  0.00     0.074 C 
ATOM     12  HN  UNL d   1       5.902   1.319  -0.511  1.00  0.00     0.171 HD
ATOM     13  C   UNL d   1       3.697   3.674   0.439  0.00  0.00     0.054 C 
ATOM     14  C   UNL d   1       2.628   2.888   0.552  0.00  0.00     0.106 C 
BRANCH  11  15
ATOM     15  S   UNL d   1       6.272   4.060  -0.165  0.00  0.00    -0.117 SA
ATOM     16  C   UNL d   1       7.637   2.883  -0.141  0.00  0.00     0.097 C 
ENDBRANCH  11  15
ENDBRANCH   1   7
BRANCH   4  17
ATOM     17  C   UNL d   1      -0.420   2.751  -0.137  0.00  0.00    -0.015 A 
ATOM     18  C   UNL d   1       0.150   3.685  -1.018  0.00  0.00     0.013 A 
ATOM     19  C   UNL d   1      -0.149   5.045  -0.902  0.00  0.00     0.001 A 
ATOM     20  C   UNL d   1      -1.088   5.475   0.033  0.00  0.00     0.000 A 
ATOM     21  C   UNL d   1      -1.752   4.545   0.829  0.00  0.00     0.001 A 
ATOM     22  C   UNL d   1      -1.415   3.191   0.751  0.00  0.00     0.013 A 
ENDBRANCH   4  17
BRANCH   5  23
ATOM     23  C   UNL d   1      -0.008  -2.529  -0.103  0.00  0.00    -0.002 A 
ATOM     24  C   UNL d   1       1.090  -3.408  -0.091  0.00  0.00     0.014 A 
ATOM     25  C   UNL d   1       0.911  -4.795  -0.157  0.00  0.00     0.001 A 
ATOM     26  C   UNL d   1      -0.375  -5.327  -0.244  0.00  0.00     0.000 A 
ATOM     27  C   UNL d   1      -1.475  -4.483  -0.241  0.00  0.00     0.001 A 
ATOM     28  C   UNL d   1      -1.292  -3.095  -0.173  0.00  0.00     0.014 A 
ENDBRANCH   5  23
TORSDOF 4
