REMARK  7 active torsions:
REMARK  status: ('A' for Active; 'I' for Inactive)
REMARK    1  A    between atoms: S_11  and  C_1 
REMARK    2  A    between atoms: C_5  and  C_12 
REMARK    3  A    between atoms: C_28  and  N_9 
REMARK    4  A    between atoms: C_12  and  S_11 
REMARK    5  A    between atoms: C_16  and  C_13 
REMARK    6  A    between atoms: O_29  and  C_19 
REMARK    7  A    between atoms: C_22  and  C_28 
ROOT
ATOM      1  C   UNL d   1       0.166   1.301  -0.083  0.00  0.00     0.144 A 
ATOM      2  N   UNL d   1       1.259   0.526  -0.043  0.00  0.00    -0.336 N 
ATOM      3  HN  UNL d   1       2.202   0.913  -0.061  1.00  0.00     0.168 HD
ATOM      4  N   UNL d   1      -1.100   0.844  -0.068  0.00  0.00    -0.347 N 
ATOM      5  HN  UNL d   1      -1.897   1.479  -0.104  1.00  0.00     0.167 HD
ATOM      6  C   UNL d   1       1.027  -0.801   0.021  0.00  0.00     0.050 A 
ATOM      7  C   UNL d   1      -1.265  -0.492  -0.002  0.00  0.00     0.092 A 
ATOM      8  C   UNL d   1      -0.223  -1.376   0.047  0.00  0.00     0.048 A 
ENDROOT
BRANCH   6   9
ATOM      9  C   UNL d   1       2.234  -1.655   0.036  0.00  0.00     0.113 C 
ATOM     10  N   UNL d   1       2.142  -2.939   0.092  0.00  0.00    -0.393 N 
ATOM     11  HN  UNL d   1       1.244  -3.418   0.166  1.00  0.00     0.159 HD
BRANCH  10  12
ATOM     12  C   UNL d   1       3.411  -3.664   0.040  0.00  0.00     0.157 C 
BRANCH  12  13
ATOM     13  C   UNL d   1       3.197  -5.028  -0.574  0.00  0.00    -0.040 A 
ATOM     14  C   UNL d   1       3.304  -5.209  -1.958  0.00  0.00     0.011 A 
ATOM     15  C   UNL d   1       3.050  -6.458  -2.529  0.00  0.00     0.037 A 
ATOM     16  C   UNL d   1       2.694  -7.545  -1.730  0.00  0.00     0.068 A 
ATOM     17  C   UNL d   1       2.558  -7.368  -0.353  0.00  0.00     0.037 A 
ATOM     18  C   UNL d   1       2.805  -6.115   0.220  0.00  0.00     0.011 A 
BRANCH  16  19
ATOM     19  O   UNL d   1       2.455  -8.712  -2.403  0.00  0.00    -0.356 OA
ATOM     20  C   UNL d   1       2.675  -9.905  -1.659  0.00  0.00     0.210 C 
ENDBRANCH  16  19
ENDBRANCH  12  13
ENDBRANCH  10  12
ENDBRANCH   6   9
BRANCH   1  21
ATOM     21  S   UNL d   1       0.447   3.053  -0.180  0.00  0.00    -0.089 SA
BRANCH  21  22
ATOM     22  C   UNL d   1      -1.269   3.659  -0.229  0.00  0.00     0.122 C 
BRANCH  22  23
ATOM     23  C   UNL d   1      -1.323   5.170  -0.321  0.00  0.00    -0.027 A 
ATOM     24  C   UNL d   1      -1.336   6.003   0.812  0.00  0.00     0.042 A 
ATOM     25  C   UNL d   1      -1.384   7.394   0.678  0.00  0.00     0.048 A 
ATOM     26 CL   UNL d   1      -1.296   5.363   2.417  0.00  0.00    -0.084 Cl
ATOM     27  C   UNL d   1      -1.414   7.966  -0.590  0.00  0.00     0.035 A 
ATOM     28  C   UNL d   1      -1.390   7.163  -1.726  0.00  0.00     0.024 A 
ATOM     29 CL   UNL d   1      -1.481   9.678  -0.755  0.00  0.00    -0.084 Cl
ATOM     30  C   UNL d   1      -1.342   5.773  -1.593  0.00  0.00     0.011 A 
ENDBRANCH  22  23
ENDBRANCH  21  22
ENDBRANCH   1  21
TORSDOF 7
