REMARK  5 active torsions:
REMARK  status: ('A' for Active; 'I' for Inactive)
REMARK    1  A    between atoms: N_2  and  S_1 
REMARK    2  A    between atoms: C_6  and  S_1 
REMARK    3  A    between atoms: C_4  and  C_8 
REMARK    4  A    between atoms: C_5  and  C_7 
REMARK    5  A    between atoms: N_21  and  C_9 
ROOT
ATOM      1  C   UNL d   1       0.536   0.674  -1.368  0.00  0.00     0.081 A 
ATOM      2  C   UNL d   1      -0.658   0.445  -3.469  0.00  0.00     0.050 A 
ATOM      3  C   UNL d   1       0.175   2.639  -2.746  0.00  0.00     0.050 A 
ATOM      4  C   UNL d   1      -0.144  -0.125  -2.294  0.00  0.00     0.041 A 
ATOM      5  C   UNL d   1       0.694   2.047  -1.585  0.00  0.00     0.041 A 
ATOM      6  C   UNL d   1      -0.483   1.825  -3.687  0.00  0.00     0.032 A 
ENDROOT
BRANCH   1   7
ATOM      7  S   UNL d   1       1.125  -0.048   0.161  0.00  0.00     0.263 S 
ATOM      8  O   UNL d   1       1.212   1.034   1.124  0.00  0.00    -0.200 OA
ATOM      9  O   UNL d   1       0.279  -1.194   0.428  0.00  0.00    -0.200 OA
BRANCH   7  10
ATOM     10  N   UNL d   1       2.616  -0.551  -0.224  0.00  0.00    -0.277 N 
ATOM     11  C   UNL d   1       3.282  -1.105   0.729  0.00  0.00     0.188 C 
ATOM     12  HN  UNL d   1       3.003  -0.436  -1.161  1.00  0.00     0.179 HD
BRANCH  11  13
ATOM     13  N   UNL d   1       4.559  -1.610   0.647  0.00  0.00    -0.385 N 
ATOM     14  C   UNL d   1       5.224  -2.220   1.788  0.00  0.00     0.149 C 
ATOM     15  C   UNL d   1       5.331  -1.563  -0.585  0.00  0.00     0.149 C 
ENDBRANCH  11  13
ENDBRANCH   7  10
ENDBRANCH   1   7
BRANCH   2  16
ATOM     16  C   UNL d   1      -1.413  -0.387  -4.481  0.00  0.00     0.417 C 
ATOM     17  F   UNL d   1      -1.556  -1.691  -4.119  0.00  0.00    -0.166 F 
ATOM     18  F   UNL d   1      -2.671   0.083  -4.698  0.00  0.00    -0.166 F 
ATOM     19  F   UNL d   1      -0.803  -0.399  -5.698  0.00  0.00    -0.166 F 
ENDBRANCH   2  16
BRANCH   3  20
ATOM     20  C   UNL d   1       0.279   4.130  -2.976  0.00  0.00     0.417 C 
ATOM     21  F   UNL d   1       0.885   4.797  -1.956  0.00  0.00    -0.166 F 
ATOM     22  F   UNL d   1       0.984   4.435  -4.098  0.00  0.00    -0.166 F 
ATOM     23  F   UNL d   1      -0.943   4.711  -3.130  0.00  0.00    -0.166 F 
ENDBRANCH   3  20
TORSDOF 5
