REMARK  2 active torsions:
REMARK  status: ('A' for Active; 'I' for Inactive)
REMARK    1  A    between atoms: C_11  and  C_7 
REMARK    2  A    between atoms: C_13  and  C_14 
ROOT
ATOM      1  N   UNL d   1      -0.299   0.104  -0.605  0.00  0.00    -0.203 N 
ATOM      2  C   UNL d   1      -0.234   0.093   0.773  0.00  0.00     0.133 A 
ATOM      3  N   UNL d   1      -1.578   0.051  -1.055  0.00  0.00    -0.289 N 
ATOM      4  HN  UNL d   1      -1.898   0.052  -2.023  1.00  0.00     0.188 HD
ATOM      5  C   UNL d   1      -1.520   0.018   1.231  0.00  0.00     0.082 A 
ATOM      6  C   UNL d   1       0.824   0.181  -1.447  0.00  0.00     0.270 A 
ATOM      7  C   UNL d   1      -2.330  -0.003   0.059  0.00  0.00     0.062 A 
ATOM      8  C   UNL d   1       2.122   0.256  -0.717  0.00  0.00     0.101 A 
ATOM      9  N   UNL d   1       0.974   0.165   1.373  0.00  0.00    -0.345 N 
ATOM     10  C   UNL d   1       2.142   0.248   0.631  0.00  0.00     0.012 A 
ATOM     11  O   UNL d   1       0.735   0.191  -2.667  0.00  0.00    -0.266 OA
ATOM     12  C   UNL d   1       3.431   0.330   1.398  0.00  0.00     0.068 C 
ATOM     13  H   UNL d   1       1.070   0.180   2.387  0.00  0.00     0.167 HD
ENDROOT
BRANCH   7  14
ATOM     14  C   UNL d   1      -3.791  -0.032   0.001  0.00  0.00    -0.008 A 
ATOM     15  C   UNL d   1      -4.550  -0.621   1.017  0.00  0.00     0.014 A 
ATOM     16  C   UNL d   1      -5.951  -0.594   0.970  0.00  0.00     0.009 A 
ATOM     17  C   UNL d   1      -6.638   0.020  -0.094  0.00  0.00    -0.051 A 
ATOM     18  C   UNL d   1      -5.860   0.593  -1.113  0.00  0.00     0.009 A 
ATOM     19  C   UNL d   1      -4.462   0.564  -1.069  0.00  0.00     0.014 A 
BRANCH  17  20
ATOM     20  C   UNL d   1      -8.177   0.039  -0.127  0.00  0.00    -0.024 C 
ATOM     21  C   UNL d   1      -8.752   0.767  -1.363  0.00  0.00     0.019 C 
ATOM     22  C   UNL d   1      -8.714  -1.408  -0.153  0.00  0.00     0.019 C 
ATOM     23  C   UNL d   1      -8.730   0.757   1.122  0.00  0.00     0.019 C 
ENDBRANCH  17  20
ENDBRANCH   7  14
TORSDOF 2
