REMARK  6 active torsions:
REMARK  status: ('A' for Active; 'I' for Inactive)
REMARK    1  A    between atoms: C_3  and  C_1 
REMARK    2  A    between atoms: C_8  and  C_2 
REMARK       I    between atoms: N_15  and  C_8 
REMARK    3  A    between atoms: C_16  and  C_12 
REMARK    4  A    between atoms: N_18  and  N_15 
REMARK    5  A    between atoms: O_17  and  C_16 
REMARK    6  A    between atoms: C_19  and  O_17 
ROOT
ATOM      1  C   UNL d   1      -0.042  -1.328  -0.057  0.00  0.00     0.057 A 
ATOM      2  C   UNL d   1      -0.205  -0.378  -1.104  0.00  0.00     0.138 A 
ATOM      3  N   UNL d   1      -0.652   0.794  -0.604  0.00  0.00    -0.255 N 
ATOM      4  HN  UNL d   1      -0.874   1.639  -1.130  1.00  0.00     0.195 HD
ATOM      5  O   UNL d   1      -0.748   0.622   0.760  0.00  0.00    -0.241 OA
ATOM      6  C   UNL d   1      -0.376  -0.641   1.089  0.00  0.00     0.087 A 
ATOM      7  C   UNL d   1      -0.433  -0.989   2.522  0.00  0.00     0.080 C 
ENDROOT
BRANCH   1   8
ATOM      8  C   UNL d   1       0.388  -2.722  -0.131  0.00  0.00     0.054 A 
ATOM      9  N   UNL d   1       1.123  -3.218   0.935  0.00  0.00    -0.351 N 
ATOM     10  C   UNL d   1       1.393  -4.496   0.747  0.00  0.00     0.075 A 
ATOM     11  HN  UNL d   1       1.413  -2.673   1.747  1.00  0.00     0.166 HD
ATOM     12  S   UNL d   1       0.778  -5.166  -0.714  0.00  0.00    -0.084 SA
ATOM     13  C   UNL d   1       0.096  -3.644  -1.112  0.00  0.00     0.082 A 
BRANCH  10  14
ATOM     14  C   UNL d   1       2.189  -5.351   1.690  0.00  0.00     0.240 C 
BRANCH  14  15
ATOM     15  O   UNL d   1       1.259  -5.962   2.586  0.00  0.00    -0.345 OA
BRANCH  15  16
ATOM     16  C   UNL d   1       1.778  -6.762   3.567  0.00  0.00     0.069 A 
ATOM     17  C   UNL d   1       3.120  -7.122   3.712  0.00  0.00     0.037 A 
ATOM     18  C   UNL d   1       3.512  -7.957   4.764  0.00  0.00     0.003 A 
ATOM     19  C   UNL d   1       2.570  -8.434   5.674  0.00  0.00     0.000 A 
ATOM     20  C   UNL d   1       1.231  -8.078   5.533  0.00  0.00     0.003 A 
ATOM     21  C   UNL d   1       0.840  -7.246   4.482  0.00  0.00     0.037 A 
ENDBRANCH  15  16
ENDBRANCH  14  15
ENDBRANCH  10  14
ENDBRANCH   1   8
BRANCH   2  22
ATOM     22  C   UNL d   1       0.055  -0.492  -2.542  0.00  0.00     0.285 C 
ATOM     23  O   UNL d   1       0.534  -1.487  -3.084  0.00  0.00    -0.265 OA
ATOM     24  N   UNL d   1      -0.288   0.649  -3.270  0.00  0.00    -0.288 N 
ATOM     25  H   UNL d   1      -0.749   1.414  -2.773  0.00  0.00     0.183 HD
BRANCH  24  26
ATOM     26  N   UNL d   1      -0.200   0.663  -4.681  0.00  0.00    -0.247 NA
ATOM     27  H   UNL d   1       0.115  -0.272  -4.976  0.00  0.00     0.143 HD
ATOM     28  H   UNL d   1       0.568   1.286  -4.945  0.00  0.00     0.143 HD
ENDBRANCH  24  26
ENDBRANCH   2  22
TORSDOF 6
