REMARK  2 active torsions:
REMARK  status: ('A' for Active; 'I' for Inactive)
REMARK    1  A    between atoms: S_15  and  C_3 
REMARK    2  A    between atoms: C_8  and  C_4 
REMARK       I    between atoms: N_17  and  C_8 
ROOT
ATOM      1  C   UNL d   1      -0.733  -0.592  -0.001  0.00  0.00     0.032 A 
ATOM      2  C   UNL d   1      -1.491   0.633  -0.088  0.00  0.00    -0.020 A 
ATOM      3  C   UNL d   1      -1.511  -1.719   0.097  0.00  0.00     0.055 A 
ATOM      4  C   UNL d   1      -2.856   0.385  -0.056  0.00  0.00     0.081 A 
ATOM      5  S   UNL d   1      -3.171  -1.301   0.089  0.00  0.00    -0.076 SA
ATOM      6  C   UNL d   1       0.749  -0.505  -0.016  0.00  0.00     0.119 A 
ATOM      7  C   UNL d   1       1.369   0.721   0.089  0.00  0.00    -0.004 A 
ATOM      8  N   UNL d   1       2.947  -0.901  -0.122  0.00  0.00    -0.271 N 
ATOM      9  HN  UNL d   1       3.846  -1.376  -0.209  1.00  0.00     0.194 HD
ATOM     10  O   UNL d   1       1.682  -1.482  -0.122  0.00  0.00    -0.237 OA
ATOM     11  C   UNL d   1      -0.798   1.974  -0.262  0.00  0.00     0.046 C 
ATOM     12  C   UNL d   1       0.641   2.003   0.306  0.00  0.00     0.048 C 
ATOM     13  C   UNL d   1       2.736   0.413   0.018  0.00  0.00     0.124 A 
ENDROOT
BRANCH   4  14
ATOM     14  C   UNL d   1      -3.945   1.351  -0.140  0.00  0.00     0.256 C 
ATOM     15  O   UNL d   1      -3.789   2.561  -0.281  0.00  0.00    -0.267 OA
ATOM     16  N   UNL d   1      -5.218   0.861  -0.052  0.00  0.00    -0.365 N 
ATOM     17  H   UNL d   1      -5.407  -0.122   0.075  0.00  0.00     0.159 HD
ATOM     18  H   UNL d   1      -5.984   1.519  -0.096  0.00  0.00     0.159 HD
ENDBRANCH   4  14
BRANCH   3  19
ATOM     19  S   UNL d   1      -1.006  -3.390   0.305  0.00  0.00    -0.126 SA
ATOM     20  C   UNL d   1      -0.802  -3.893  -1.418  0.00  0.00     0.096 C 
ENDBRANCH   3  19
TORSDOF 2
