REMARK  5 active torsions:
REMARK  status: ('A' for Active; 'I' for Inactive)
REMARK    1  A    between atoms: C_2  and  O_1 
REMARK    2  A    between atoms: C_5  and  O_1 
REMARK    3  A    between atoms: C_4  and  C_5 
REMARK    4  A    between atoms: C_17  and  C_6 
REMARK    5  A    between atoms: O_16  and  C_17 
ROOT
ATOM      1  C   UNL d   1       0.168   1.121  -0.480  0.00  0.00     0.069 A 
ATOM      2  C   UNL d   1      -1.308   3.175  -1.717  0.00  0.00    -0.035 A 
ATOM      3  C   UNL d   1       0.551   1.609  -1.729  0.00  0.00     0.037 A 
ATOM      4  C   UNL d   1      -0.992   1.611   0.121  0.00  0.00     0.037 A 
ATOM      5  C   UNL d   1      -1.721   2.631  -0.494  0.00  0.00     0.012 A 
ATOM      6  C   UNL d   1      -0.179   2.630  -2.344  0.00  0.00     0.012 A 
ENDROOT
BRANCH   1   7
ATOM      7  O   UNL d   1       0.988   0.166   0.058  0.00  0.00    -0.347 OA
BRANCH   7   8
ATOM      8  C   UNL d   1       0.941   0.062   1.481  0.00  0.00     0.214 C 
BRANCH   8   9
ATOM      9  C   UNL d   1       2.190  -0.639   1.955  0.00  0.00    -0.034 A 
ATOM     10  C   UNL d   1       3.369   0.093   2.170  0.00  0.00     0.012 A 
ATOM     11  C   UNL d   1       4.525  -0.548   2.618  0.00  0.00     0.043 A 
ATOM     12  C   UNL d   1       4.504  -1.919   2.838  0.00  0.00     0.116 A 
ATOM     13  C   UNL d   1       3.352  -2.664   2.615  0.00  0.00     0.043 A 
ATOM     14  F   UNL d   1       5.612  -2.534   3.272  0.00  0.00    -0.206 F 
ATOM     15  C   UNL d   1       2.194  -2.026   2.167  0.00  0.00     0.012 A 
ENDBRANCH   8   9
ENDBRANCH   7   8
ENDBRANCH   1   7
BRANCH   2  16
ATOM     16  C   UNL d   1      -2.086   4.281  -2.379  0.00  0.00     0.202 C 
BRANCH  16  17
ATOM     17  O   UNL d   1      -2.676   5.132  -1.404  0.00  0.00    -0.396 OA
ATOM     18  H   UNL d   1      -3.153   5.825  -1.889  0.00  0.00     0.209 HD
ENDBRANCH  16  17
ENDBRANCH   2  16
TORSDOF 5
