REMARK  7 active torsions:
REMARK  status: ('A' for Active; 'I' for Inactive)
REMARK    1  A    between atoms: C_9  and  C_1 
REMARK    2  A    between atoms: S_14  and  C_6 
REMARK    3  A    between atoms: C_24  and  C_7 
REMARK    4  A    between atoms: C_13  and  C_21 
REMARK    5  A    between atoms: C_21  and  S_14 
REMARK    6  A    between atoms: C_15  and  O_23 
REMARK    7  A    between atoms: O_23  and  C_24 
ROOT
ATOM      1  N   UNL d   1       2.609   2.581   0.905  0.00  0.00    -0.335 N 
ATOM      2  HN  UNL d   1       1.890   2.649   1.625  1.00  0.00     0.168 HD
ATOM      3  C   UNL d   1       3.665   3.404   0.894  0.00  0.00     0.144 A 
ATOM      4  C   UNL d   1       2.534   1.659  -0.076  0.00  0.00     0.062 A 
ATOM      5  N   UNL d   1       4.644   3.376  -0.026  0.00  0.00    -0.347 N 
ATOM      6  HN  UNL d   1       5.430   4.025   0.005  1.00  0.00     0.167 HD
ATOM      7  C   UNL d   1       3.490   1.552  -1.066  0.00  0.00     0.049 A 
ATOM      8  C   UNL d   1       4.530   2.446  -0.991  0.00  0.00     0.092 A 
ENDROOT
BRANCH   4   9
ATOM      9  C   UNL d   1       1.372   0.771  -0.030  0.00  0.00     0.066 A 
ATOM     10  N   UNL d   1       0.128   1.211   0.405  0.00  0.00    -0.350 N 
ATOM     11  C   UNL d   1      -0.745   0.224   0.387  0.00  0.00     0.075 A 
ATOM     12  HN  UNL d   1      -0.081   2.166   0.697  1.00  0.00     0.166 HD
ATOM     13  S   UNL d   1      -0.132  -1.280  -0.185  0.00  0.00    -0.084 SA
ATOM     14  C   UNL d   1       1.409  -0.560  -0.402  0.00  0.00     0.083 A 
BRANCH  11  15
ATOM     15  C   UNL d   1      -2.191   0.353   0.764  0.00  0.00     0.240 C 
BRANCH  15  16
ATOM     16  O   UNL d   1      -2.334  -0.110   2.109  0.00  0.00    -0.345 OA
BRANCH  16  17
ATOM     17  C   UNL d   1      -3.600  -0.121   2.630  0.00  0.00     0.072 A 
ATOM     18  C   UNL d   1      -4.762   0.282   1.970  0.00  0.00     0.060 A 
ATOM     19  C   UNL d   1      -5.997   0.195   2.619  0.00  0.00     0.038 A 
ATOM     20 CL   UNL d   1      -7.426   0.681   1.789  0.00  0.00    -0.084 Cl
ATOM     21  C   UNL d   1      -6.089  -0.283   3.922  0.00  0.00     0.048 A 
ATOM     22  C   UNL d   1      -4.928  -0.674   4.580  0.00  0.00     0.038 A 
ATOM     23  C   UNL d   1      -3.689  -0.595   3.942  0.00  0.00     0.060 A 
ATOM     24 CL   UNL d   1      -5.023  -1.267   6.193  0.00  0.00    -0.084 Cl
ENDBRANCH  16  17
ENDBRANCH  15  16
ENDBRANCH  11  15
ENDBRANCH   4   9
BRANCH   3  25
ATOM     25  S   UNL d   1       3.734   4.592   2.205  0.00  0.00    -0.089 SA
BRANCH  25  26
ATOM     26  C   UNL d   1       5.304   5.435   1.827  0.00  0.00     0.122 C 
BRANCH  26  27
ATOM     27  C   UNL d   1       5.574   6.513   2.854  0.00  0.00    -0.027 A 
ATOM     28  C   UNL d   1       6.283   6.274   4.043  0.00  0.00     0.041 A 
ATOM     29 CL   UNL d   1       7.000   4.740   4.391  0.00  0.00    -0.084 Cl
ATOM     30  C   UNL d   1       6.426   7.283   5.001  0.00  0.00     0.024 A 
ATOM     31  C   UNL d   1       5.865   8.542   4.788  0.00  0.00     0.002 A 
ATOM     32  C   UNL d   1       5.169   8.799   3.611  0.00  0.00     0.001 A 
ATOM     33  C   UNL d   1       5.024   7.794   2.652  0.00  0.00     0.009 A 
ENDBRANCH  26  27
ENDBRANCH  25  26
ENDBRANCH   3  25
TORSDOF 7
