REMARK  3 active torsions:
REMARK  status: ('A' for Active; 'I' for Inactive)
REMARK    1  A    between atoms: C_4  and  C_1 
REMARK       I    between atoms: N_11  and  C_4 
REMARK    2  A    between atoms: C_6  and  C_13 
REMARK    3  A    between atoms: C_13  and  N_11 
ROOT
ATOM      1  C   UNL d   1      -0.385   3.522  -1.044  0.00  0.00     0.256 C 
ATOM      2  N   UNL d   1      -1.081   3.363   0.132  0.00  0.00    -0.352 N 
ATOM      3  O   UNL d   1      -0.928   3.283  -2.126  0.00  0.00    -0.267 OA
ATOM      4  H   UNL d   1      -0.658   3.562   1.024  0.00  0.00     0.163 HD
ENDROOT
BRANCH   2   5
ATOM      5  C   UNL d   1      -2.418   2.795   0.127  0.00  0.00     0.164 C 
BRANCH   5   6
ATOM      6  C   UNL d   1      -3.524   3.825   0.068  0.00  0.00    -0.004 A 
ATOM      7  C   UNL d   1      -4.114   4.350   1.230  0.00  0.00     0.088 A 
ATOM      8  C   UNL d   1      -5.191   5.249   1.153  0.00  0.00     0.003 A 
ATOM      9  O   UNL d   1      -3.627   3.922   2.438  0.00  0.00    -0.325 OA
ATOM     10  C   UNL d   1      -5.818   5.776   2.409  0.00  0.00     0.212 C 
ATOM     11  C   UNL d   1      -5.657   5.665  -0.098  0.00  0.00     0.054 A 
ATOM     12  O   UNL d   1      -5.498   4.941   3.514  0.00  0.00    -0.362 OA
ATOM     13  C   UNL d   1      -4.099   4.699   3.541  0.00  0.00     0.345 C 
ATOM     14  C   UNL d   1      -5.063   5.165  -1.249  0.00  0.00     0.117 A 
ATOM     15  C   UNL d   1      -4.010   4.256  -1.180  0.00  0.00     0.054 A 
ATOM     16  F   UNL d   1      -5.523   5.555  -2.445  0.00  0.00    -0.206 F 
ENDBRANCH   5   6
ENDBRANCH   2   5
BRANCH   1  17
ATOM     17  C   UNL d   1       1.005   3.956  -0.990  0.00  0.00     0.087 A 
ATOM     18  C   UNL d   1       1.756   4.162  -2.138  0.00  0.00     0.090 A 
ATOM     19  O   UNL d   1       3.014   4.546  -1.815  0.00  0.00    -0.242 OA
ATOM     20  C   UNL d   1       1.475   4.045  -3.584  0.00  0.00     0.080 C 
ATOM     21  N   UNL d   1       3.137   4.599  -0.449  0.00  0.00    -0.265 N 
ATOM     22  C   UNL d   1       1.947   4.241   0.048  0.00  0.00     0.047 A 
ATOM     23  HN  UNL d   1       3.969   4.859   0.080  1.00  0.00     0.194 HD
ATOM     24  C   UNL d   1       1.825   4.193   1.525  0.00  0.00     0.071 C 
ENDBRANCH   1  17
TORSDOF 3
