REMARK  4 active torsions:
REMARK  status: ('A' for Active; 'I' for Inactive)
REMARK    1  A    between atoms: C_6  and  C_1 
REMARK    2  A    between atoms: N_5  and  C_6 
REMARK    3  A    between atoms: C_9  and  N_7 
REMARK    4  A    between atoms: C_14  and  C_9 
ROOT
ATOM      1  N   UNL d   1      -1.118  -3.696   0.096  0.00  0.00     0.096 N 
ATOM      2  N   UNL d   1       1.899  -3.562  -0.191  0.00  0.00     0.096 N 
ATOM      3  C   UNL d   1      -0.209  -3.494   1.241  0.00  0.00     0.303 C 
ATOM      4  C   UNL d   1      -0.401  -4.297  -1.039  0.00  0.00     0.303 C 
ATOM      5  C   UNL d   1       0.997  -3.714  -1.352  0.00  0.00     0.303 C 
ATOM      6  C   UNL d   1       1.162  -2.869   0.886  0.00  0.00     0.303 C 
ENDROOT
BRANCH   1   7
ATOM      7  C   UNL d   1      -1.853  -2.473  -0.261  0.00  0.00     0.313 C 
BRANCH   7   8
ATOM      8  C   UNL d   1      -2.970  -2.284   0.734  0.00  0.00    -0.002 A 
ATOM      9  C   UNL d   1      -3.942  -3.221   1.045  0.00  0.00     0.098 A 
ATOM     10  N   UNL d   1      -4.714  -2.732   2.059  0.00  0.00    -0.365 N 
ATOM     11  C   UNL d   1      -4.292  -1.473   2.411  0.00  0.00     0.043 A 
ATOM     12  H   UNL d   1      -5.476  -3.226   2.501  0.00  0.00     0.165 HD
ATOM     13  C   UNL d   1      -3.231  -1.141   1.564  0.00  0.00    -0.000 A 
ATOM     14  C   UNL d   1      -4.764  -0.618   3.414  0.00  0.00     0.030 A 
ATOM     15  C   UNL d   1      -2.648   0.137   1.701  0.00  0.00     0.014 A 
ATOM     16  C   UNL d   1      -3.122   1.012   2.688  0.00  0.00     0.001 A 
ATOM     17  C   UNL d   1      -4.154   0.632   3.542  0.00  0.00     0.002 A 
ENDBRANCH   7   8
ENDBRANCH   1   7
BRANCH   2  18
ATOM     18  C   UNL d   1       2.440  -4.848   0.291  0.00  0.00     0.311 C 
BRANCH  18  19
ATOM     19  C   UNL d   1       3.364  -5.538  -0.694  0.00  0.00    -0.030 A 
ATOM     20  C   UNL d   1       4.492  -4.879  -1.206  0.00  0.00     0.009 A 
ATOM     21  C   UNL d   1       5.342  -5.522  -2.108  0.00  0.00     0.001 A 
ATOM     22  C   UNL d   1       5.079  -6.833  -2.502  0.00  0.00     0.000 A 
ATOM     23  C   UNL d   1       3.971  -7.504  -1.988  0.00  0.00     0.001 A 
ATOM     24  C   UNL d   1       3.120  -6.862  -1.088  0.00  0.00     0.009 A 
ENDBRANCH  18  19
ENDBRANCH   2  18
TORSDOF 4
