REMARK  7 active torsions:
REMARK  status: ('A' for Active; 'I' for Inactive)
REMARK    1  A    between atoms: O_6  and  C_1 
REMARK    2  A    between atoms: C_2  and  C_3 
REMARK       I    between atoms: C_3  and  N_7 
REMARK    3  A    between atoms: C_5  and  C_4 
REMARK    4  A    between atoms: O_16  and  C_5 
REMARK    5  A    between atoms: C_8  and  O_6 
REMARK    6  A    between atoms: N_7  and  C_10 
REMARK    7  A    between atoms: C_10  and  C_9 
ROOT
ATOM      1  C   UNL d   1       3.251   0.229  -0.776  0.00  0.00     0.253 C 
ATOM      2  N   UNL d   1       2.685  -0.004   0.455  0.00  0.00    -0.353 N 
ATOM      3  O   UNL d   1       4.216  -0.400  -1.201  0.00  0.00    -0.268 OA
ATOM      4  H   UNL d   1       1.915   0.554   0.807  0.00  0.00     0.163 HD
ENDROOT
BRANCH   2   5
ATOM      5  C   UNL d   1       3.197  -1.021   1.356  0.00  0.00     0.164 C 
BRANCH   5   6
ATOM      6  C   UNL d   1       4.308  -0.488   2.227  0.00  0.00    -0.007 A 
ATOM      7  C   UNL d   1       4.086   0.024   3.514  0.00  0.00     0.086 A 
ATOM      8  C   UNL d   1       5.154   0.499   4.284  0.00  0.00     0.037 A 
ATOM      9  C   UNL d   1       6.452   0.483   3.771  0.00  0.00     0.003 A 
ATOM     10  C   UNL d   1       6.688  -0.023   2.497  0.00  0.00     0.001 A 
ATOM     11  C   UNL d   1       5.624  -0.498   1.730  0.00  0.00     0.011 A 
BRANCH   7  12
ATOM     12  O   UNL d   1       2.866  -0.100   4.121  0.00  0.00    -0.255 OA
BRANCH  12  13
ATOM     13  C   UNL d   1       2.050   1.054   3.951  0.00  0.00     0.530 C 
ATOM     14  F   UNL d   1       1.712   1.207   2.655  0.00  0.00    -0.144 F 
ATOM     15  F   UNL d   1       2.654   2.165   4.416  0.00  0.00    -0.144 F 
ATOM     16  F   UNL d   1       0.909   0.864   4.653  0.00  0.00    -0.144 F 
ENDBRANCH  12  13
ENDBRANCH   7  12
ENDBRANCH   5   6
ENDBRANCH   2   5
BRANCH   1  17
ATOM     17  C   UNL d   1       2.650   1.272  -1.645  0.00  0.00     0.048 A 
ATOM     18  C   UNL d   1       2.084   2.476  -1.206  0.00  0.00     0.053 A 
ATOM     19  C   UNL d   1       1.486   3.350  -2.134  0.00  0.00     0.019 A 
ATOM     20  C   UNL d   1       1.497   3.053  -3.497  0.00  0.00     0.001 A 
ATOM     21  C   UNL d   1       2.106   1.886  -3.945  0.00  0.00     0.001 A 
ATOM     22  C   UNL d   1       2.676   1.003  -3.027  0.00  0.00     0.018 A 
BRANCH  18  23
ATOM     23  C   UNL d   1       2.067   2.927   0.197  0.00  0.00     0.177 C 
ATOM     24  O   UNL d   1       1.053   3.336   0.732  0.00  0.00    -0.646 OA
BRANCH  23  25
ATOM     25  O   UNL d   1       3.272   2.908   0.799  0.00  0.00    -0.773 OA
ATOM     26  H   UNL d   1       4.025   2.579   0.271  0.00  0.00     0.167 HD
ENDBRANCH  23  25
ENDBRANCH  18  23
ENDBRANCH   1  17
TORSDOF 7
