REMARK  6 active torsions:
REMARK  status: ('A' for Active; 'I' for Inactive)
REMARK    1  A    between atoms: C_8  and  C_1 
REMARK    2  A    between atoms: C_13  and  C_6 
REMARK    3  A    between atoms: C_7  and  C_8 
REMARK    4  A    between atoms: N_12  and  C_9 
REMARK    5  A    between atoms: O_14  and  C_13 
REMARK    6  A    between atoms: C_15  and  O_14 
ROOT
ATOM      1  C   UNL d   1      -0.118  -1.036  -0.021  0.00  0.00     0.079 A 
ATOM      2  N   UNL d   1      -0.708   1.240  -0.035  0.00  0.00    -0.355 N 
ATOM      3  HN  UNL d   1      -1.328   2.050  -0.028  1.00  0.00     0.166 HD
ATOM      4  C   UNL d   1      -1.134  -0.082  -0.027  0.00  0.00     0.027 A 
ATOM      5  S   UNL d   1       1.397  -0.222  -0.047  0.00  0.00    -0.069 SA
ATOM      6  C   UNL d   1       0.606   1.303  -0.051  0.00  0.00     0.076 A 
ATOM      7  C   UNL d   1      -2.602  -0.331  -0.018  0.00  0.00     0.070 C 
ENDROOT
BRANCH   6   8
ATOM      8  C   UNL d   1       1.395   2.582   0.011  0.00  0.00     0.240 C 
BRANCH   8   9
ATOM      9  O   UNL d   1       1.729   2.973  -1.326  0.00  0.00    -0.345 OA
BRANCH   9  10
ATOM     10  C   UNL d   1       2.460   4.126  -1.461  0.00  0.00     0.070 A 
ATOM     11  C   UNL d   1       2.897   4.947  -0.419  0.00  0.00     0.060 A 
ATOM     12  C   UNL d   1       3.656   6.087  -0.701  0.00  0.00     0.036 A 
ATOM     13 CL   UNL d   1       4.201   7.085   0.593  0.00  0.00    -0.084 Cl
ATOM     14  C   UNL d   1       3.981   6.424  -2.012  0.00  0.00     0.024 A 
ATOM     15  C   UNL d   1       3.540   5.613  -3.056  0.00  0.00     0.004 A 
ATOM     16  C   UNL d   1       2.782   4.471  -2.779  0.00  0.00     0.037 A 
ENDBRANCH   9  10
ENDBRANCH   8   9
ENDBRANCH   6   8
BRANCH   1  17
ATOM     17  C   UNL d   1      -0.271  -2.490   0.006  0.00  0.00     0.192 C 
ATOM     18  O   UNL d   1      -1.383  -3.022   0.016  0.00  0.00    -0.287 OA
BRANCH  17  19
ATOM     19  C   UNL d   1       0.940  -3.381   0.034  0.00  0.00     0.073 C 
ATOM     20  C   UNL d   1       0.821  -4.718   0.053  0.00  0.00     0.088 C 
BRANCH  20  21
ATOM     21  N   UNL d   1       1.803  -5.704   0.081  0.00  0.00    -0.398 N 
ATOM     22  C   UNL d   1       3.242  -5.451   0.085  0.00  0.00     0.148 C 
ATOM     23  C   UNL d   1       1.460  -7.130   0.093  0.00  0.00     0.148 C 
ENDBRANCH  20  21
ENDBRANCH  17  19
ENDBRANCH   1  17
TORSDOF 6
