REMARK  9 active torsions:
REMARK  status: ('A' for Active; 'I' for Inactive)
REMARK    1  A    between atoms: C_4  and  N_20 
REMARK    2  A    between atoms: C_6  and  O_18 
REMARK    3  A    between atoms: C_9  and  O_35 
REMARK    4  A    between atoms: C_14  and  O_36 
REMARK    5  A    between atoms: C_16  and  C_21 
REMARK    6  A    between atoms: C_17  and  C_41 
REMARK    7  A    between atoms: C_19  and  O_18 
REMARK       I    between atoms: C_30  and  N_20 
REMARK    8  A    between atoms: O_39  and  C_21 
REMARK    9  A    between atoms: O_44  and  C_41 
ROOT
ATOM      1  C   UNL d   1     -13.173  -0.739  -1.552  0.00  0.00    -0.032 C 
ATOM      2  C   UNL d   1     -14.276  -0.146  -2.493  0.00  0.00    -0.001 C 
ATOM      3  C   UNL d   1     -11.670  -1.078  -2.321  0.00  0.00    -0.032 C 
ATOM      4  C   UNL d   1     -10.948  -1.544  -4.844  0.00  0.00    -0.035 C 
ATOM      5  C   UNL d   1     -15.734  -0.699  -2.638  0.00  0.00    -0.004 C 
ATOM      6  C   UNL d   1     -11.743  -0.646  -3.866  0.00  0.00     0.003 C 
ATOM      7  C   UNL d   1      -9.471  -1.109  -4.566  0.00  0.00     0.004 C 
ATOM      8  C   UNL d   1     -15.765  -2.178  -2.275  0.00  0.00     0.004 C 
ATOM      9  C   UNL d   1      -8.511  -1.645  -5.717  0.00  0.00    -0.017 C 
ATOM     10  C   UNL d   1     -13.841   0.643  -3.484  0.00  0.00     0.006 C 
ATOM     11  C   UNL d   1     -17.149  -2.841  -2.445  0.00  0.00     0.089 C 
ATOM     12  C   UNL d   1      -8.821  -0.691  -6.967  0.00  0.00     0.133 C 
ATOM     13  C   UNL d   1     -13.776  -1.988  -0.771  0.00  0.00     0.011 C 
ATOM     14  C   UNL d   1     -10.262  -0.369  -2.034  0.00  0.00     0.011 C 
ATOM     15  C   UNL d   1     -13.036  -0.151  -4.447  0.00  0.00     0.006 C 
ATOM     16  C   UNL d   1     -11.263  -1.303  -6.364  0.00  0.00     0.012 C 
ATOM     17  C   UNL d   1      -9.086  -0.960  -3.038  0.00  0.00     0.007 C 
ATOM     18  C   UNL d   1     -15.279  -2.254  -0.821  0.00  0.00     0.007 C 
ATOM     19  C   UNL d   1     -17.477  -1.341  -4.599  0.00  0.00    -0.046 C 
ATOM     20  C   UNL d   1     -16.292  -0.513  -4.078  0.00  0.00     0.014 C 
ATOM     21  C   UNL d   1     -18.065  -2.320  -3.571  0.00  0.00     0.024 C 
ATOM     22  C   UNL d   1     -10.332  -0.320  -7.056  0.00  0.00     0.034 C 
ATOM     23  C   UNL d   1     -12.931   0.361  -0.487  0.00  0.00     0.016 C 
ATOM     24  C   UNL d   1     -11.252  -2.491  -1.778  0.00  0.00     0.016 C 
ATOM     25  C   UNL d   1     -11.316  -3.021  -4.574  0.00  0.00     0.016 C 
ATOM     26  C   UNL d   1      -7.029  -1.542  -5.323  0.00  0.00     0.018 C 
ATOM     27  C   UNL d   1      -8.682  -3.137  -6.117  0.00  0.00     0.018 C 
ATOM     28  C   UNL d   1     -18.570  -0.343  -5.053  0.00  0.00     0.015 C 
ATOM     29  C   UNL d   1     -17.043  -2.105  -5.883  0.00  0.00     0.015 C 
ENDROOT
BRANCH  12  30
ATOM     30  O   UNL d   1      -8.378  -1.232  -8.224  0.00  0.00    -0.353 OA
BRANCH  30  31
ATOM     31  C   UNL d   1      -8.074  -0.227  -9.238  0.00  0.00     0.286 C 
ATOM     32  C   UNL d   1      -7.816  -0.994 -10.578  0.00  0.00     0.170 C 
ATOM     33  C   UNL d   1      -8.034  -0.143 -11.854  0.00  0.00     0.177 C 
ATOM     34  C   UNL d   1      -9.191   0.852 -11.742  0.00  0.00     0.180 C 
ATOM     35  C   UNL d   1      -9.037   1.630 -10.435  0.00  0.00     0.179 C 
ATOM     36  O   UNL d   1      -9.150   0.707  -9.358  0.00  0.00    -0.349 OA
BRANCH  32  37
ATOM     37  N   UNL d   1      -6.485  -1.631 -10.650  0.00  0.00    -0.349 N 
ATOM     38  C   UNL d   1      -5.335  -0.872 -10.676  0.00  0.00     0.214 C 
ATOM     39  O   UNL d   1      -5.314   0.326 -10.405  0.00  0.00    -0.274 OA
ATOM     40  C   UNL d   1      -4.101  -1.626 -11.086  0.00  0.00     0.117 C 
ATOM     41  H   UNL d   1      -6.452  -2.552 -11.070  0.00  0.00     0.163 HD
ENDBRANCH  32  37
BRANCH  33  42
ATOM     42  O   UNL d   1      -8.224  -1.008 -12.992  0.00  0.00    -0.391 OA
ATOM     43  H   UNL d   1      -9.174  -1.213 -13.068  0.00  0.00     0.210 HD
ENDBRANCH  33  42
BRANCH  34  44
ATOM     44  O   UNL d   1      -9.233   1.726 -12.879  0.00  0.00    -0.390 OA
ATOM     45  H   UNL d   1      -8.331   1.797 -13.246  0.00  0.00     0.210 HD
ENDBRANCH  34  44
BRANCH  35  46
ATOM     46  C   UNL d   1     -10.142   2.690 -10.294  0.00  0.00     0.198 C 
BRANCH  46  47
ATOM     47  O   UNL d   1     -10.018   3.727 -11.260  0.00  0.00    -0.398 OA
ATOM     48  H   UNL d   1      -9.982   3.288 -12.137  0.00  0.00     0.209 HD
ENDBRANCH  46  47
ENDBRANCH  35  46
ENDBRANCH  30  31
ENDBRANCH  12  30
BRANCH  11  49
ATOM     49  C   UNL d   1     -17.056  -4.369  -2.518  0.00  0.00     0.144 C 
ATOM     50  O   UNL d   1     -17.666  -5.113  -1.777  0.00  0.00    -0.650 OA
BRANCH  49  51
ATOM     51  O   UNL d   1     -16.266  -4.841  -3.510  0.00  0.00    -0.776 OA
ATOM     52  H   UNL d   1     -15.841  -4.158  -4.058  0.00  0.00     0.167 HD
ENDBRANCH  49  51
ENDBRANCH  11  49
TORSDOF 9
