REMARK  1 active torsions:
REMARK  status: ('A' for Active; 'I' for Inactive)
REMARK       I    between atoms: C_5  and  N_6 
REMARK    1  A    between atoms: N_6  and  C_9 
ROOT
ATOM      1  C   UNL d   1      -0.714   0.466  -0.025  0.00  0.00    -0.019 A 
ATOM      2  C   UNL d   1      -1.466  -0.705   0.208  0.00  0.00    -0.045 A 
ATOM      3  C   UNL d   1       0.764   0.395   0.002  0.00  0.00    -0.019 A 
ATOM      4  C   UNL d   1      -1.414   1.645  -0.304  0.00  0.00     0.015 A 
ATOM      5  C   UNL d   1       1.397  -0.850  -0.208  0.00  0.00    -0.047 A 
ATOM      6  C   UNL d   1      -2.871  -0.656   0.257  0.00  0.00     0.037 A 
ATOM      7  C   UNL d   1      -3.553   0.542   0.011  0.00  0.00     0.035 A 
ATOM      8  C   UNL d   1      -0.731  -2.007   0.439  0.00  0.00     0.044 C 
ATOM      9  C   UNL d   1       0.540  -2.077  -0.420  0.00  0.00     0.044 C 
ATOM     10  C   UNL d   1      -2.813   1.682  -0.293  0.00  0.00     0.030 A 
ATOM     11  C   UNL d   1       1.576   1.512   0.261  0.00  0.00     0.013 A 
ATOM     12  C   UNL d   1       2.795  -0.941  -0.252  0.00  0.00     0.008 A 
ATOM     13  C   UNL d   1       2.969   1.409   0.254  0.00  0.00     0.001 A 
ATOM     14  C   UNL d   1       3.577   0.188  -0.021  0.00  0.00     0.001 A 
ENDROOT
BRANCH   7  15
ATOM     15  N   UNL d   1      -4.963   0.520   0.083  0.00  0.00    -0.328 N 
ATOM     16  C   UNL d   1      -5.828   1.576  -0.142  0.00  0.00     0.218 C 
ATOM     17  O   UNL d   1      -5.529   2.714  -0.488  0.00  0.00    -0.274 OA
ATOM     18  C   UNL d   1      -7.277   1.214   0.075  0.00  0.00     0.117 C 
ATOM     19  H   UNL d   1      -5.375  -0.368   0.336  0.00  0.00     0.169 HD
ENDBRANCH   7  15
TORSDOF 1
