REMARK  5 active torsions:
REMARK  status: ('A' for Active; 'I' for Inactive)
REMARK    1  A    between atoms: C_6  and  C_1 
REMARK    2  A    between atoms: C_5  and  N_12 
REMARK    3  A    between atoms: O_14  and  C_6 
REMARK    4  A    between atoms: N_12  and  C_7 
REMARK    5  A    between atoms: C_16  and  O_14 
ROOT
ATOM      1  C   UNL d   1       0.951  -0.053   0.028  0.00  0.00     0.135 C 
ATOM      2  C   UNL d   1       0.292  -0.870   0.885  0.00  0.00     0.118 C 
ATOM      3  C   UNL d   1       0.237   0.852  -0.887  0.00  0.00     0.107 C 
ATOM      4  N   UNL d   1      -0.357   1.556  -1.593  0.00  0.00    -0.191 NA
ENDROOT
BRANCH   1   5
ATOM      5  C   UNL d   1       2.450  -0.054   0.155  0.00  0.00     0.305 C 
ATOM      6  O   UNL d   1       3.090  -0.701   0.973  0.00  0.00    -0.258 OA
BRANCH   5   7
ATOM      7  O   UNL d   1       2.965   0.847  -0.715  0.00  0.00    -0.317 OA
BRANCH   7   8
ATOM      8  C   UNL d   1       4.293   1.290  -0.413  0.00  0.00     0.174 C 
ATOM      9  C   UNL d   1       4.174   2.460   0.546  0.00  0.00     0.034 C 
ENDBRANCH   7   8
ENDBRANCH   5   7
ENDBRANCH   1   5
BRANCH   2  10
ATOM     10  N   UNL d   1      -1.075  -1.067   0.961  0.00  0.00    -0.349 N 
ATOM     11  H   UNL d   1      -1.610  -0.739   0.157  0.00  0.00     0.167 HD
BRANCH  10  12
ATOM     12  C   UNL d   1      -1.783  -1.812   1.840  0.00  0.00     0.128 A 
ATOM     13  N   UNL d   1      -3.001  -2.299   1.583  0.00  0.00    -0.245 N 
ATOM     14  O   UNL d   1      -3.373  -3.015   2.704  0.00  0.00    -0.241 OA
ATOM     15  HN  UNL d   1      -3.546  -2.168   0.731  1.00  0.00     0.196 HD
ATOM     16  C   UNL d   1      -2.399  -2.914   3.646  0.00  0.00     0.076 A 
ATOM     17  C   UNL d   1      -1.374  -2.146   3.151  0.00  0.00     0.084 A 
ATOM     18  C   UNL d   1      -2.646  -3.608   4.921  0.00  0.00     0.079 C 
ENDBRANCH  10  12
ENDBRANCH   2  10
TORSDOF 5
