REMARK  6 active torsions:
REMARK  status: ('A' for Active; 'I' for Inactive)
REMARK    1  A    between atoms: C_6  and  C_1 
REMARK    2  A    between atoms: C_10  and  C_2 
REMARK    3  A    between atoms: C_3  and  C_9 
REMARK    4  A    between atoms: C_9  and  O_18 
REMARK    5  A    between atoms: N_22  and  C_10 
REMARK    6  A    between atoms: O_18  and  N_14 
ROOT
ATOM      1  C   UNL d   1       0.240  -2.651   0.207  0.00  0.00     0.114 C 
ATOM      2  N   UNL d   1      -0.460  -3.575   0.774  0.00  0.00    -0.245 N 
ATOM      3  HN  UNL d   1      -0.072  -4.437   1.158  1.00  0.00     0.196 HD
ENDROOT
BRANCH   1   4
ATOM      4  C   UNL d   1       1.635  -2.926  -0.073  0.00  0.00     0.065 A 
ATOM      5  C   UNL d   1       2.252  -4.186  -0.398  0.00  0.00     0.084 A 
ATOM      6  N   UNL d   1       3.555  -4.012  -0.674  0.00  0.00    -0.259 N 
ATOM      7  O   UNL d   1       3.825  -2.685  -0.462  0.00  0.00    -0.241 OA
ATOM      8  HN  UNL d   1       4.215  -4.727  -0.981  1.00  0.00     0.195 HD
ATOM      9  C   UNL d   1       2.691  -2.032  -0.103  0.00  0.00     0.088 A 
ATOM     10  C   UNL d   1       2.882  -0.595   0.174  0.00  0.00     0.080 C 
BRANCH   5  11
ATOM     11  C   UNL d   1       1.666  -5.526  -0.510  0.00  0.00     0.037 A 
ATOM     12  C   UNL d   1       0.612  -5.799  -1.404  0.00  0.00     0.048 A 
ATOM     13 CL   UNL d   1      -0.048  -4.609  -2.482  0.00  0.00    -0.083 Cl
ATOM     14  C   UNL d   1       0.071  -7.089  -1.508  0.00  0.00     0.025 A 
ATOM     15  C   UNL d   1       0.596  -8.138  -0.760  0.00  0.00     0.003 A 
ATOM     16  C   UNL d   1       1.655  -7.896   0.108  0.00  0.00     0.025 A 
ATOM     17  C   UNL d   1       2.178  -6.601   0.246  0.00  0.00     0.048 A 
ATOM     18 CL   UNL d   1       3.461  -6.422   1.400  0.00  0.00    -0.083 Cl
ENDBRANCH   5  11
ENDBRANCH   1   4
BRANCH   1  19
ATOM     19  N   UNL d   1      -0.200  -1.432  -0.232  0.00  0.00    -0.286 NA
ATOM     20  H   UNL d   1       0.251  -1.074  -1.067  0.00  0.00     0.125 HD
ATOM     21  H   UNL d   1      -1.211  -1.385  -0.295  0.00  0.00     0.125 HD
ENDBRANCH   1  19
BRANCH   2  22
ATOM     22  O   UNL d   1      -1.837  -3.239   0.794  0.00  0.00    -0.192 OA
BRANCH  22  23
ATOM     23  C   UNL d   1      -2.465  -3.922   1.809  0.00  0.00     0.332 C 
ATOM     24  O   UNL d   1      -1.903  -4.411   2.791  0.00  0.00    -0.256 OA
BRANCH  23  25
ATOM     25  C   UNL d   1      -3.915  -4.028   1.610  0.00  0.00     0.117 A 
ATOM     26  N   UNL d   1      -4.559  -3.666   0.421  0.00  0.00    -0.349 N 
ATOM     27  C   UNL d   1      -5.840  -3.970   0.492  0.00  0.00     0.047 A 
ATOM     28  HN  UNL d   1      -4.104  -3.232  -0.382  1.00  0.00     0.166 HD
ATOM     29  C   UNL d   1      -6.817  -3.812  -0.622  0.00  0.00     0.076 C 
ATOM     30  S   UNL d   1      -6.367  -4.624   1.990  0.00  0.00    -0.087 SA
ATOM     31  C   UNL d   1      -4.761  -4.549   2.573  0.00  0.00     0.087 A 
ENDBRANCH  23  25
ENDBRANCH  22  23
ENDBRANCH   2  22
TORSDOF 6
