REMARK  1 active torsions:
REMARK  status: ('A' for Active; 'I' for Inactive)
REMARK    1  A    between atoms: C_10  and  N_9 
ROOT
ATOM      1  N   UNL d   1       0.129   1.003   0.562  0.00  0.00    -0.020 N 
ATOM      2  HN  UNL d   1      -0.101   1.843   1.093  1.00  0.00     0.203 HD
ATOM      3  C   UNL d   1       1.272   0.684   0.003  0.00  0.00     0.708 A 
ATOM      4  C   UNL d   1      -0.675  -0.055   0.267  0.00  0.00     0.705 A 
ATOM      5  N   UNL d   1      -0.099  -1.045  -0.406  0.00  0.00    -0.118 N 
ATOM      6  HN  UNL d   1      -0.478  -1.951  -0.682  1.00  0.00     0.206 HD
ATOM      7  N   UNL d   1       1.121  -0.525  -0.623  0.00  0.00    -0.117 N 
ATOM      8  N   UNL d   1       2.403   1.433  -0.034  0.00  0.00    -0.211 N 
ATOM      9  N   UNL d   1      -1.939  -0.043   0.672  0.00  0.00    -0.233 N 
ATOM     10  H   UNL d   1       1.777  -0.994  -1.237  0.00  0.00     0.206 HD
ATOM     11  H   UNL d   1       2.313   2.311   0.474  0.00  0.00     0.178 HD
ATOM     12  H   UNL d   1      -2.196   0.617   1.395  0.00  0.00     0.174 HD
ATOM     13  H   UNL d   1      -2.434  -0.925   0.680  0.00  0.00     0.174 HD
ENDROOT
BRANCH   8  14
ATOM     14  C   UNL d   1       3.772   0.872   0.006  0.00  0.00     0.191 C 
ATOM     15  C   UNL d   1       4.116   0.035  -1.251  0.00  0.00     0.240 C 
ATOM     16  N   UNL d   1       5.398  -0.390  -1.431  0.00  0.00    -0.359 N 
ATOM     17  O   UNL d   1       3.287  -0.309  -2.096  0.00  0.00    -0.271 OA
ATOM     18  C   UNL d   1       6.530  -0.174  -0.563  0.00  0.00     0.122 C 
ATOM     19  H   UNL d   1       5.529  -0.925  -2.283  0.00  0.00     0.162 HD
ATOM     20  C   UNL d   1       6.347  -0.845   0.790  0.00  0.00     0.020 C 
ATOM     21  C   UNL d   1       5.455  -0.044   1.738  0.00  0.00     0.004 C 
ATOM     22  C   UNL d   1       3.992   0.080   1.305  0.00  0.00     0.035 C 
ENDBRANCH   8  14
TORSDOF 1
