REMARK  8 active torsions:
REMARK  status: ('A' for Active; 'I' for Inactive)
REMARK       I    between atoms: N_6  and  C_1 
REMARK    1  A    between atoms: C_14  and  C_1 
REMARK    2  A    between atoms: N_2  and  N_6 
REMARK    3  A    between atoms: C_9  and  C_4 
REMARK    4  A    between atoms: C_5  and  C_13 
REMARK    5  A    between atoms: C_7  and  O_8 
REMARK    6  A    between atoms: O_8  and  C_14 
REMARK    7  A    between atoms: S_11  and  C_9 
REMARK    8  A    between atoms: C_15  and  S_11 
ROOT
ATOM      1  O   UNL d   1       2.953   1.216  -0.255  0.00  0.00    -0.341 OA
ENDROOT
BRANCH   1   2
ATOM      2  C   UNL d   1       4.280   1.462  -0.454  0.00  0.00     0.076 A 
ATOM      3  C   UNL d   1       5.039   0.458  -1.091  0.00  0.00    -0.015 A 
ATOM      4  C   UNL d   1       6.420   0.695  -1.278  0.00  0.00     0.011 A 
ATOM      5  C   UNL d   1       7.017   1.895  -0.893  0.00  0.00     0.001 A 
ATOM      6  C   UNL d   1       6.244   2.893  -0.320  0.00  0.00     0.003 A 
ATOM      7  C   UNL d   1       4.881   2.682  -0.114  0.00  0.00     0.037 A 
BRANCH   3   8
ATOM      8  C   UNL d   1       4.545  -0.921  -1.508  0.00  0.00     0.120 C 
BRANCH   8   9
ATOM      9  S   UNL d   1       2.793  -1.117  -1.954  0.00  0.00    -0.125 SA
BRANCH   9  10
ATOM     10  C   UNL d   1       2.666  -2.797  -2.544  0.00  0.00     0.001 A 
ATOM     11  C   UNL d   1       3.697  -3.741  -2.516  0.00  0.00     0.020 A 
ATOM     12  C   UNL d   1       3.510  -5.016  -3.064  0.00  0.00     0.025 A 
ATOM     13  C   UNL d   1       2.285  -5.359  -3.632  0.00  0.00     0.034 A 
ATOM     14  C   UNL d   1       1.237  -4.445  -3.636  0.00  0.00     0.025 A 
ATOM     15 CL   UNL d   1       2.074  -6.911  -4.341  0.00  0.00    -0.084 Cl
ATOM     16  C   UNL d   1       1.428  -3.172  -3.091  0.00  0.00     0.020 A 
ENDBRANCH   9  10
ENDBRANCH   8   9
ENDBRANCH   3   8
ENDBRANCH   1   2
BRANCH   1  17
ATOM     17  C   UNL d   1       2.277   1.807   0.844  0.00  0.00     0.280 C 
BRANCH  17  18
ATOM     18  C   UNL d   1       2.093   0.867   2.028  0.00  0.00     0.260 C 
ATOM     19  N   UNL d   1       2.586  -0.413   1.829  0.00  0.00    -0.269 N 
ATOM     20  H   UNL d   1       2.955  -0.671   0.916  0.00  0.00     0.190 HD
ATOM     21  O   UNL d   1       1.533   1.253   3.055  0.00  0.00    -0.269 OA
BRANCH  19  22
ATOM     22  N   UNL d   1       2.423  -1.333   2.807  0.00  0.00    -0.308 N 
ATOM     23  C   UNL d   1       2.910  -2.515   2.615  0.00  0.00     0.120 C 
ATOM     24  HN  UNL d   1       1.931  -1.101   3.670  1.00  0.00     0.186 HD
BRANCH  23  25
ATOM     25  C   UNL d   1       2.704  -3.563   3.643  0.00  0.00     0.002 A 
ATOM     26  C   UNL d   1       3.215  -4.858   3.516  0.00  0.00     0.045 A 
ATOM     27 CL   UNL d   1       4.191  -5.354   2.179  0.00  0.00    -0.083 Cl
ATOM     28  C   UNL d   1       2.940  -5.813   4.505  0.00  0.00     0.024 A 
ATOM     29  C   UNL d   1       2.163  -5.478   5.618  0.00  0.00     0.002 A 
ATOM     30  C   UNL d   1       1.665  -4.186   5.753  0.00  0.00     0.001 A 
ATOM     31  C   UNL d   1       1.933  -3.235   4.773  0.00  0.00     0.014 A 
ENDBRANCH  23  25
ENDBRANCH  19  22
ENDBRANCH  17  18
ENDBRANCH   1  17
TORSDOF 8
