REMARK  4 active torsions:
REMARK  status: ('A' for Active; 'I' for Inactive)
REMARK    1  A    between atoms: C_4  and  S_1 
REMARK    2  A    between atoms: C_13  and  S_1 
REMARK    3  A    between atoms: N_9  and  C_5 
REMARK    4  A    between atoms: N_14  and  C_6 
ROOT
ATOM      1  N   UNL d   1      -0.726   3.110   2.151  0.00  0.00    -0.180 N 
ATOM      2  HN  UNL d   1      -1.233   3.233   3.028  1.00  0.00     0.185 HD
ATOM      3  C   UNL d   1       0.282   1.690   0.550  0.00  0.00     0.114 A 
ATOM      4  C   UNL d   1      -0.314   4.182   1.448  0.00  0.00     0.681 A 
ATOM      5  C   UNL d   1      -0.462   1.877   1.685  0.00  0.00     0.117 A 
ATOM      6  N   UNL d   1       0.358   4.062   0.294  0.00  0.00    -0.200 N 
ATOM      7  HN  UNL d   1       0.622   4.882  -0.252  1.00  0.00     0.183 HD
ATOM      8  C   UNL d   1       0.671   2.819  -0.119  0.00  0.00     0.133 A 
ENDROOT
BRANCH   3   9
ATOM      9  S   UNL d   1       0.829   0.125   0.006  0.00  0.00     0.183 S 
ATOM     10  O   UNL d   1       0.902  -0.734   1.185  0.00  0.00    -0.222 OA
ATOM     11  O   UNL d   1       2.020   0.339  -0.792  0.00  0.00    -0.222 OA
BRANCH   9  12
ATOM     12  C   UNL d   1      -0.470  -0.494  -1.054  0.00  0.00     0.105 C 
ATOM     13  C   UNL d   1      -0.683   0.380  -2.283  0.00  0.00     0.026 C 
ATOM     14  C   UNL d   1      -0.174  -1.934  -1.472  0.00  0.00     0.026 C 
ENDBRANCH   9  12
ENDBRANCH   3   9
BRANCH   5  15
ATOM     15  N   UNL d   1      -1.157   0.850   2.320  0.00  0.00    -0.287 NA
ATOM     16  H   UNL d   1      -1.556   1.209   3.184  0.00  0.00     0.125 HD
ATOM     17  H   UNL d   1      -0.622  -0.009   2.448  0.00  0.00     0.125 HD
ENDBRANCH   5  15
BRANCH   4  18
ATOM     18  N   UNL d   1      -0.639   5.434   1.897  0.00  0.00    -0.214 N 
ATOM     19  C   UNL d   1      -0.392   6.626   1.088  0.00  0.00     0.167 C 
ATOM     20  C   UNL d   1       0.599   7.560   1.797  0.00  0.00     0.188 C 
ATOM     21  O   UNL d   1       0.175   7.856   3.138  0.00  0.00    -0.388 OA
ATOM     22  C   UNL d   1       0.084   6.645   3.908  0.00  0.00     0.188 C 
ATOM     23  C   UNL d   1      -0.938   5.663   3.309  0.00  0.00     0.167 C 
ENDBRANCH   4  18
TORSDOF 4
