REMARK  4 active torsions:
REMARK  status: ('A' for Active; 'I' for Inactive)
REMARK    1  A    between atoms: C_2  and  C_1 
REMARK       I    between atoms: N_5  and  C_2 
REMARK    2  A    between atoms: C_15  and  N_5 
REMARK    3  A    between atoms: C_8  and  C_17 
REMARK    4  A    between atoms: C_17  and  C_15 
ROOT
ATOM      1  C   UNL d   1      -0.481   2.488  -0.024  0.00  0.00     0.253 C 
ATOM      2  O   UNL d   1       0.187   3.519  -0.033  0.00  0.00    -0.268 OA
ATOM      3  N   UNL d   1      -1.856   2.526  -0.042  0.00  0.00    -0.357 N 
ATOM      4  H   UNL d   1      -2.376   1.657  -0.043  0.00  0.00     0.162 HD
ENDROOT
BRANCH   3   5
ATOM      5  C   UNL d   1      -2.589   3.780  -0.080  0.00  0.00     0.127 C 
BRANCH   5   6
ATOM      6  C   UNL d   1      -4.100   3.550  -0.087  0.00  0.00     0.058 C 
BRANCH   6   7
ATOM      7  C   UNL d   1      -4.892   4.832  -0.151  0.00  0.00    -0.057 A 
ATOM      8  C   UNL d   1      -5.234   5.392  -1.390  0.00  0.00     0.009 A 
ATOM      9  C   UNL d   1      -5.981   6.571  -1.452  0.00  0.00     0.024 A 
ATOM     10  C   UNL d   1      -6.384   7.199  -0.276  0.00  0.00     0.034 A 
ATOM     11  C   UNL d   1      -6.041   6.661   0.962  0.00  0.00     0.024 A 
ATOM     12 CL   UNL d   1      -7.313   8.645  -0.353  0.00  0.00    -0.084 Cl
ATOM     13  C   UNL d   1      -5.293   5.482   1.026  0.00  0.00     0.009 A 
ENDBRANCH   6   7
ENDBRANCH   5   6
ENDBRANCH   3   5
BRANCH   1  14
ATOM     14  C   UNL d   1       0.206   1.152   0.005  0.00  0.00     0.053 A 
ATOM     15  C   UNL d   1      -0.411  -0.111   0.025  0.00  0.00     0.049 A 
ATOM     16 CL   UNL d   1      -2.122  -0.373   0.024  0.00  0.00    -0.083 Cl
ATOM     17  C   UNL d   1       0.371  -1.279   0.049  0.00  0.00     0.025 A 
ATOM     18  C   UNL d   1       1.763  -1.209   0.054  0.00  0.00     0.002 A 
ATOM     19  C   UNL d   1       2.387   0.031   0.037  0.00  0.00     0.001 A 
ATOM     20  C   UNL d   1       1.616   1.197   0.012  0.00  0.00     0.019 A 
ENDBRANCH   1  14
TORSDOF 4
