REMARK  5 active torsions:
REMARK  status: ('A' for Active; 'I' for Inactive)
REMARK    1  A    between atoms: N_2  and  C_1 
REMARK       I    between atoms: N_3  and  C_6 
REMARK    2  A    between atoms: C_7  and  N_3 
REMARK    3  A    between atoms: C_6  and  C_5 
REMARK    4  A    between atoms: N_10  and  C_7 
REMARK    5  A    between atoms: C_15  and  N_10 
ROOT
ATOM      1  N   UNL d   1      -2.107  -2.770  -0.422  0.00  0.00    -0.298 N 
ATOM      2  C   UNL d   1      -2.432  -4.122  -0.500  0.00  0.00     0.281 C 
ATOM      3  O   UNL d   1      -3.578  -4.562  -0.438  0.00  0.00    -0.265 OA
ATOM      4  H   UNL d   1      -1.118  -2.566  -0.383  0.00  0.00     0.171 HD
ENDROOT
BRANCH   1   5
ATOM      5  C   UNL d   1      -2.944  -1.711  -0.141  0.00  0.00     0.179 C 
ATOM      6  S   UNL d   1      -4.548  -1.778   0.341  0.00  0.00    -0.040 SA
BRANCH   5   7
ATOM      7  N   UNL d   1      -2.415  -0.450  -0.204  0.00  0.00    -0.333 N 
ATOM      8  H   UNL d   1      -3.026   0.235   0.235  0.00  0.00     0.168 HD
BRANCH   7   9
ATOM      9  C   UNL d   1      -1.327   0.090  -0.912  0.00  0.00     0.034 A 
ATOM     10  C   UNL d   1      -0.639  -0.586  -1.921  0.00  0.00     0.031 A 
ATOM     11  C   UNL d   1       0.405   0.041  -2.605  0.00  0.00     0.026 A 
ATOM     12  C   UNL d   1       0.748   1.356  -2.302  0.00  0.00     0.034 A 
ATOM     13  C   UNL d   1       0.048   2.054  -1.322  0.00  0.00     0.026 A 
ATOM     14 CL   UNL d   1       2.021   2.127  -3.161  0.00  0.00    -0.084 Cl
ATOM     15  C   UNL d   1      -0.989   1.422  -0.631  0.00  0.00     0.031 A 
ENDBRANCH   7   9
ENDBRANCH   5   7
ENDBRANCH   1   5
BRANCH   2  16
ATOM     16  C   UNL d   1      -1.322  -5.041  -0.687  0.00  0.00     0.146 A 
ATOM     17  O   UNL d   1      -0.149  -4.657  -1.297  0.00  0.00    -0.283 OA
ATOM     18  C   UNL d   1       0.561  -5.811  -1.468  0.00  0.00     0.215 A 
ATOM     19  C   UNL d   1      -0.072  -6.907  -0.943  0.00  0.00     0.066 A 
ATOM     20  C   UNL d   1      -1.288  -6.405  -0.428  0.00  0.00     0.047 A 
BRANCH  18  21
ATOM     21  N   UNL d   1       1.765  -5.714  -2.218  0.00  0.00    -0.090 N 
ATOM     22  O   UNL d   1       2.753  -5.269  -1.625  0.00  0.00    -0.530 OA
ATOM     23  O   UNL d   1       1.724  -6.124  -3.383  0.00  0.00    -0.530 OA
ENDBRANCH  18  21
ENDBRANCH   2  16
TORSDOF 5
