REMARK  6 active torsions:
REMARK  status: ('A' for Active; 'I' for Inactive)
REMARK    1  A    between atoms: N_3  and  S_1 
REMARK    2  A    between atoms: C_14  and  S_1 
REMARK    3  A    between atoms: C_2  and  C_10 
REMARK    4  A    between atoms: S_17  and  C_4 
REMARK    5  A    between atoms: C_13  and  C_6 
REMARK    6  A    between atoms: O_22  and  C_13 
ROOT
ATOM      1  N   UNL d   1       1.180  -2.237  -0.602  0.00  0.00    -0.188 N 
ATOM      2  N   UNL d   1       0.435  -3.110  -1.332  0.00  0.00    -0.284 N 
ATOM      3  HN  UNL d   1       0.688  -3.578  -2.202  1.00  0.00     0.188 HD
ATOM      4  C   UNL d   1      -0.707  -3.212  -0.641  0.00  0.00     0.063 A 
ATOM      5  C   UNL d   1      -0.668  -2.469   0.561  0.00  0.00     0.052 A 
ATOM      6  C   UNL d   1       0.572  -1.877   0.577  0.00  0.00     0.131 A 
ENDROOT
BRANCH   4   7
ATOM      7  C   UNL d   1      -1.863  -4.011  -1.095  0.00  0.00     0.023 A 
ATOM      8  C   UNL d   1      -2.430  -3.933  -2.361  0.00  0.00     0.054 A 
ATOM      9  S   UNL d   1      -3.757  -4.995  -2.500  0.00  0.00    -0.076 SA
ATOM     10  C   UNL d   1      -3.608  -5.574  -0.897  0.00  0.00     0.088 A 
ATOM     11  C   UNL d   1      -2.535  -4.974  -0.234  0.00  0.00    -0.024 A 
ATOM     12  C   UNL d   1      -2.137  -5.304   1.176  0.00  0.00     0.050 C 
BRANCH   8  13
ATOM     13  S   UNL d   1      -1.918  -2.848  -3.670  0.00  0.00    -0.126 SA
ATOM     14  C   UNL d   1      -2.914  -3.333  -5.093  0.00  0.00     0.096 C 
ENDBRANCH   8  13
BRANCH  10  15
ATOM     15  C   UNL d   1      -4.578  -6.575  -0.459  0.00  0.00     0.300 C 
ATOM     16  O   UNL d   1      -5.454  -7.088  -1.146  0.00  0.00    -0.259 OA
BRANCH  15  17
ATOM     17  O   UNL d   1      -4.385  -6.883   0.857  0.00  0.00    -0.322 OA
ATOM     18  C   UNL d   1      -5.261  -7.882   1.377  0.00  0.00     0.213 C 
ENDBRANCH  15  17
ENDBRANCH  10  15
ENDBRANCH   4   7
BRANCH   1  19
ATOM     19  S   UNL d   1       2.676  -1.528  -1.098  0.00  0.00     0.282 S 
ATOM     20  O   UNL d   1       3.315  -1.055   0.116  0.00  0.00    -0.198 OA
ATOM     21  O   UNL d   1       2.344  -0.630  -2.188  0.00  0.00    -0.198 OA
BRANCH  19  22
ATOM     22  C   UNL d   1       3.621  -2.889  -1.723  0.00  0.00     0.081 A 
ATOM     23  C   UNL d   1       3.592  -3.187  -3.089  0.00  0.00     0.027 A 
ATOM     24  C   UNL d   1       4.401  -4.212  -3.585  0.00  0.00     0.025 A 
ATOM     25  C   UNL d   1       5.231  -4.925  -2.718  0.00  0.00     0.034 A 
ATOM     26  C   UNL d   1       5.259  -4.625  -1.355  0.00  0.00     0.025 A 
ATOM     27 CL   UNL d   1       6.242  -6.172  -3.336  0.00  0.00    -0.084 Cl
ATOM     28  C   UNL d   1       4.454  -3.601  -0.853  0.00  0.00     0.027 A 
ENDBRANCH  19  22
ENDBRANCH   1  19
TORSDOF 6
