REMARK  6 active torsions:
REMARK  status: ('A' for Active; 'I' for Inactive)
REMARK    1  A    between atoms: N_5  and  C_1 
REMARK    2  A    between atoms: N_6  and  C_1 
REMARK       I    between atoms: C_2  and  N_7 
REMARK    3  A    between atoms: O_14  and  C_2 
REMARK    4  A    between atoms: C_9  and  N_5 
REMARK    5  A    between atoms: N_7  and  N_6 
REMARK    6  A    between atoms: C_17  and  O_14 
ROOT
ATOM      1  C   UNL d   1       1.113  -0.018   0.106  0.00  0.00     0.191 C 
ATOM      2  S   UNL d   1       2.755  -0.038   0.410  0.00  0.00    -0.039 SA
ENDROOT
BRANCH   1   3
ATOM      3  N   UNL d   1       0.463   0.077  -1.110  0.00  0.00    -0.332 N 
ATOM      4  H   UNL d   1      -0.389   0.625  -1.033  0.00  0.00     0.168 HD
BRANCH   3   5
ATOM      5  C   UNL d   1       1.025  -0.048  -2.396  0.00  0.00     0.036 A 
ATOM      6  C   UNL d   1       1.966  -1.036  -2.701  0.00  0.00     0.055 A 
ATOM      7  C   UNL d   1       2.497  -1.136  -3.992  0.00  0.00     0.058 A 
ATOM      8 CL   UNL d   1       3.641  -2.396  -4.293  0.00  0.00    -0.082 Cl
ATOM      9  C   UNL d   1       2.086  -0.244  -4.986  0.00  0.00     0.055 A 
ATOM     10  C   UNL d   1       1.125   0.726  -4.690  0.00  0.00     0.028 A 
ATOM     11 CL   UNL d   1       2.714  -0.292  -6.594  0.00  0.00    -0.083 Cl
ATOM     12  C   UNL d   1       0.579   0.809  -3.405  0.00  0.00     0.031 A 
ENDBRANCH   3   5
ENDBRANCH   1   3
BRANCH   1  13
ATOM     13  N   UNL d   1       0.266  -0.028   1.187  0.00  0.00    -0.272 N 
ATOM     14  H   UNL d   1       0.685  -0.068   2.118  0.00  0.00     0.189 HD
BRANCH  13  15
ATOM     15  N   UNL d   1      -1.062  -0.495   1.092  0.00  0.00    -0.243 N 
ATOM     16  C   UNL d   1      -1.779  -0.479   2.267  0.00  0.00     0.379 C 
ATOM     17  O   UNL d   1      -1.512   0.233   3.227  0.00  0.00    -0.237 OA
ATOM     18  H   UNL d   1      -1.214  -1.311   0.506  0.00  0.00     0.192 HD
BRANCH  16  19
ATOM     19  O   UNL d   1      -2.745  -1.431   2.241  0.00  0.00    -0.303 OA
BRANCH  19  20
ATOM     20  C   UNL d   1      -3.431  -1.622   3.490  0.00  0.00     0.176 C 
ATOM     21  C   UNL d   1      -2.595  -2.477   4.430  0.00  0.00     0.034 C 
ENDBRANCH  19  20
ENDBRANCH  16  19
ENDBRANCH  13  15
ENDBRANCH   1  13
TORSDOF 6
