REMARK  4 active torsions:
REMARK  status: ('A' for Active; 'I' for Inactive)
REMARK    1  A    between atoms: S_2  and  C_1 
REMARK    2  A    between atoms: N_8  and  S_2 
REMARK    3  A    between atoms: C_18  and  N_8 
REMARK    4  A    between atoms: C_19  and  C_18 
ROOT
ATOM      1  N   UNL d   1      -2.801  -2.700  -1.390  0.00  0.00    -0.210 NA
ATOM      2  H   UNL d   1      -3.552  -3.384  -1.323  0.00  0.00     0.140 HD
ENDROOT
BRANCH   1   3
ATOM      3  S   UNL d   1      -2.755  -1.756   0.006  0.00  0.00     0.258 S 
ATOM      4  O   UNL d   1      -2.819  -2.657   1.136  0.00  0.00    -0.204 OA
ATOM      5  O   UNL d   1      -3.703  -0.675  -0.154  0.00  0.00    -0.204 OA
BRANCH   3   6
ATOM      6  C   UNL d   1      -1.208  -0.967   0.155  0.00  0.00     0.160 A 
ATOM      7  N   UNL d   1      -0.193  -1.080  -0.783  0.00  0.00    -0.341 N 
ATOM      8  C   UNL d   1       0.794  -0.355  -0.307  0.00  0.00     0.183 A 
ATOM      9  HN  UNL d   1      -0.210  -1.610  -1.655  1.00  0.00     0.167 HD
ATOM     10  N   UNL d   1       0.461   0.228   0.883  0.00  0.00    -0.354 N 
ATOM     11  C   UNL d   1      -0.815  -0.142   1.193  0.00  0.00     0.134 A 
ATOM     12  C   UNL d   1       1.323   1.077   1.664  0.00  0.00     0.156 C 
ENDBRANCH   3   6
ENDBRANCH   1   3
BRANCH   1  13
ATOM     13  C   UNL d   1      -2.796  -1.950  -2.652  0.00  0.00     0.143 C 
BRANCH  13  14
ATOM     14  C   UNL d   1      -2.792  -2.882  -3.843  0.00  0.00    -0.042 A 
ATOM     15  C   UNL d   1      -1.712  -3.761  -4.043  0.00  0.00     0.048 A 
ATOM     16  C   UNL d   1      -1.743  -4.590  -5.143  0.00  0.00     0.105 A 
ATOM     17  O   UNL d   1      -0.791  -5.502  -5.479  0.00  0.00    -0.323 OA
ATOM     18  C   UNL d   1      -2.786  -4.569  -6.038  0.00  0.00     0.105 A 
ATOM     19  C   UNL d   1      -1.379  -6.083  -6.661  0.00  0.00     0.352 A 
ATOM     20  O   UNL d   1      -2.622  -5.462  -7.050  0.00  0.00    -0.323 OA
ATOM     21  C   UNL d   1      -3.860  -3.720  -5.881  0.00  0.00     0.040 A 
ATOM     22  C   UNL d   1      -3.861  -2.872  -4.768  0.00  0.00     0.011 A 
ENDBRANCH  13  14
ENDBRANCH   1  13
TORSDOF 4
