REMARK  3 active torsions:
REMARK  status: ('A' for Active; 'I' for Inactive)
REMARK    1  A    between atoms: C_10  and  N_3 
REMARK    2  A    between atoms: C_5  and  C_4 
REMARK    3  A    between atoms: O_15  and  C_7 
ROOT
ATOM      1  N   UNL d   1       0.885  -0.707   0.185  0.00  0.00    -0.297 N 
ATOM      2  HN  UNL d   1       1.703  -1.296   0.338  1.00  0.00     0.187 HD
ATOM      3  N   UNL d   1       0.848   0.642   0.072  0.00  0.00    -0.294 N 
ATOM      4  C   UNL d   1      -0.395  -1.099   0.051  0.00  0.00     0.062 A 
ATOM      5  C   UNL d   1      -1.254   0.025  -0.044  0.00  0.00     0.050 A 
ATOM      6  C   UNL d   1      -0.431   1.121  -0.018  0.00  0.00     0.113 A 
ENDROOT
BRANCH   4   7
ATOM      7  C   UNL d   1      -0.760  -2.516   0.046  0.00  0.00     0.031 A 
ATOM      8  C   UNL d   1      -0.002  -3.480   0.733  0.00  0.00     0.117 A 
ATOM      9  C   UNL d   1      -0.400  -4.819   0.735  0.00  0.00     0.153 A 
ATOM     10  F   UNL d   1       0.310  -5.738   1.404  0.00  0.00    -0.203 F 
ATOM     11  C   UNL d   1      -1.533  -5.229   0.043  0.00  0.00     0.087 A 
ATOM     12  C   UNL d   1      -2.267  -4.281  -0.653  0.00  0.00     0.120 A 
ATOM     13  C   UNL d   1      -1.899  -2.939  -0.658  0.00  0.00     0.059 A 
ATOM     14  F   UNL d   1      -3.354  -4.663  -1.337  0.00  0.00    -0.206 F 
BRANCH   8  15
ATOM     15  O   UNL d   1       1.139  -3.149   1.418  0.00  0.00    -0.357 OA
ATOM     16  H   UNL d   1       1.360  -2.222   1.170  0.00  0.00     0.218 HD
ENDBRANCH   8  15
ENDBRANCH   4   7
BRANCH   3  17
ATOM     17  C   UNL d   1       2.088   1.441   0.029  0.00  0.00     0.042 C 
ATOM     18  C   UNL d   1       3.349   0.558   0.159  0.00  0.00     0.039 C 
ATOM     19  C   UNL d   1       2.168   2.194  -1.314  0.00  0.00     0.039 C 
ATOM     20  C   UNL d   1       2.097   2.459   1.184  0.00  0.00     0.039 C 
ENDBRANCH   3  17
TORSDOF 3
