REMARK  4 active torsions:
REMARK  status: ('A' for Active; 'I' for Inactive)
REMARK    1  A    between atoms: N_8  and  N_1 
REMARK    2  A    between atoms: C_7  and  C_2 
REMARK    3  A    between atoms: N_4  and  C_9 
REMARK    4  A    between atoms: C_14  and  N_8 
ROOT
ATOM      1  N   UNL d   1       0.814  -0.716   0.124  0.00  0.00    -0.237 N 
ATOM      2  C   UNL d   1      -0.524  -1.048  -0.086  0.00  0.00     0.075 A 
ATOM      3  C   UNL d   1       1.122   0.650   0.022  0.00  0.00     0.164 A 
ATOM      4  C   UNL d   1      -1.296   0.030  -0.295  0.00  0.00     0.085 A 
ATOM      5  S   UNL d   1      -0.399   1.517  -0.264  0.00  0.00    -0.068 SA
ATOM      6  S   UNL d   1       2.611   1.398   0.100  0.00  0.00    -0.050 SA
ENDROOT
BRANCH   2   7
ATOM      7  C   UNL d   1      -1.082  -2.414  -0.068  0.00  0.00    -0.004 A 
ATOM      8  C   UNL d   1      -2.249  -2.685   0.668  0.00  0.00     0.050 A 
ATOM      9  C   UNL d   1      -2.795  -3.977   0.678  0.00  0.00     0.103 A 
ATOM     10  C   UNL d   1      -2.177  -5.021  -0.016  0.00  0.00     0.036 A 
ATOM     11  C   UNL d   1      -1.016  -4.760  -0.741  0.00  0.00     0.003 A 
ATOM     12  C   UNL d   1      -0.485  -3.466  -0.780  0.00  0.00     0.014 A 
BRANCH   9  13
ATOM     13  N   UNL d   1      -4.044  -4.231   1.410  0.00  0.00    -0.116 N 
ATOM     14  O   UNL d   1      -4.568  -3.276   2.002  0.00  0.00    -0.532 OA
ATOM     15  O   UNL d   1      -4.508  -5.379   1.379  0.00  0.00    -0.532 OA
ENDBRANCH   9  13
ENDBRANCH   2   7
BRANCH   1  16
ATOM     16  N   UNL d   1       1.850  -1.629   0.340  0.00  0.00    -0.292 N 
ATOM     17  H   UNL d   1       2.218  -2.050  -0.507  0.00  0.00     0.187 HD
BRANCH  16  18
ATOM     18  C   UNL d   1       1.782  -2.476   1.465  0.00  0.00     0.048 A 
ATOM     19  C   UNL d   1       2.520  -3.669   1.454  0.00  0.00     0.031 A 
ATOM     20  C   UNL d   1       2.456  -4.563   2.525  0.00  0.00     0.002 A 
ATOM     21  C   UNL d   1       1.675  -4.262   3.636  0.00  0.00     0.000 A 
ATOM     22  C   UNL d   1       0.989  -3.052   3.692  0.00  0.00     0.002 A 
ATOM     23  C   UNL d   1       1.062  -2.155   2.624  0.00  0.00     0.031 A 
ENDBRANCH  16  18
ENDBRANCH   1  16
TORSDOF 4
