REMARK  4 active torsions:
REMARK  status: ('A' for Active; 'I' for Inactive)
REMARK    1  A    between atoms: N_2  and  S_1 
REMARK    2  A    between atoms: C_5  and  S_1 
REMARK       I    between atoms: C_3  and  N_2 
REMARK       I    between atoms: N_4  and  C_3 
REMARK    3  A    between atoms: C_13  and  N_8 
REMARK    4  A    between atoms: C_16  and  C_13 
ROOT
ATOM      1  N   UNL d   1       0.816   0.058  -3.031  0.00  0.00    -0.232 N 
ATOM      2  C   UNL d   1       0.606   1.406  -2.763  0.00  0.00     0.332 C 
ATOM      3  N   UNL d   1       1.739   2.246  -2.615  0.00  0.00    -0.332 N 
ATOM      4  N   UNL d   1       3.631   4.743  -1.861  0.00  0.00     0.094 N 
ATOM      5  O   UNL d   1      -0.533   1.843  -2.675  0.00  0.00    -0.246 OA
ATOM      6  C   UNL d   1       1.337   3.617  -2.264  0.00  0.00     0.157 C 
ATOM      7  C   UNL d   1       2.314   4.776  -2.490  0.00  0.00     0.292 C 
ATOM      8  C   UNL d   1       4.288   2.271  -2.206  0.00  0.00     0.050 C 
ATOM      9  C   UNL d   1       2.899   1.707  -1.908  0.00  0.00     0.129 C 
ATOM     10  C   UNL d   1       4.497   3.756  -2.484  0.00  0.00     0.274 C 
ATOM     11  H   UNL d   1       1.701  -0.299  -3.363  0.00  0.00     0.183 HD
ENDROOT
BRANCH   1  12
ATOM     12  S   UNL d   1      -0.405  -1.081  -3.030  0.00  0.00     0.266 S 
ATOM     13  O   UNL d   1      -1.042  -1.081  -1.726  0.00  0.00    -0.200 OA
ATOM     14  O   UNL d   1       0.198  -2.293  -3.551  0.00  0.00    -0.200 OA
BRANCH  12  15
ATOM     15  C   UNL d   1      -1.558  -0.503  -4.250  0.00  0.00     0.080 A 
ATOM     16  C   UNL d   1      -1.242  -0.643  -5.603  0.00  0.00     0.026 A 
ATOM     17  C   UNL d   1      -2.119  -0.144  -6.569  0.00  0.00     0.008 A 
ATOM     18  C   UNL d   1      -3.315   0.483  -6.191  0.00  0.00    -0.062 A 
ATOM     19  C   UNL d   1      -3.640   0.573  -4.831  0.00  0.00     0.008 A 
ATOM     20  C   UNL d   1      -4.218   1.062  -7.241  0.00  0.00     0.048 C 
ATOM     21  C   UNL d   1      -2.769   0.074  -3.860  0.00  0.00     0.026 A 
ENDBRANCH  12  15
ENDBRANCH   1  12
BRANCH   4  22
ATOM     22  C   UNL d   1       3.659   4.771  -0.397  0.00  0.00     0.311 C 
BRANCH  22  23
ATOM     23  C   UNL d   1       3.320   6.119   0.238  0.00  0.00    -0.030 A 
ATOM     24  C   UNL d   1       2.956   6.157   1.599  0.00  0.00     0.012 A 
ATOM     25  C   UNL d   1       2.723   7.375   2.248  0.00  0.00     0.043 A 
ATOM     26  C   UNL d   1       2.852   8.565   1.543  0.00  0.00     0.116 A 
ATOM     27  C   UNL d   1       3.218   8.558   0.204  0.00  0.00     0.043 A 
ATOM     28  F   UNL d   1       2.639   9.731   2.167  0.00  0.00    -0.206 F 
ATOM     29  C   UNL d   1       3.463   7.341  -0.443  0.00  0.00     0.012 A 
ENDBRANCH  22  23
ENDBRANCH   4  22
TORSDOF 4
