REMARK  4 active torsions:
REMARK  status: ('A' for Active; 'I' for Inactive)
REMARK    1  A    between atoms: O_8  and  S_1 
REMARK    2  A    between atoms: C_13  and  S_1 
REMARK    3  A    between atoms: C_15  and  C_2 
REMARK    4  A    between atoms: C_14  and  O_8 
ROOT
ATOM      1  C   UNL d   1       0.767   0.775  -7.606  0.00  0.00     0.048 A 
ATOM      2  C   UNL d   1       1.872   0.861  -6.616  0.00  0.00     0.197 A 
ATOM      3  C   UNL d   1       1.550   0.445  -5.240  0.00  0.00     0.049 A 
ATOM      4  C   UNL d   1      -0.426   0.352  -7.166  0.00  0.00     0.159 A 
ATOM      5  C   UNL d   1       0.259   0.022  -4.936  0.00  0.00     0.091 A 
ATOM      6  O   UNL d   1      -0.743  -0.017  -5.875  0.00  0.00    -0.321 OA
ATOM      7  C   UNL d   1      -0.052  -0.389  -3.634  0.00  0.00     0.076 A 
ATOM      8  C   UNL d   1       2.536   0.457  -4.252  0.00  0.00     0.021 A 
ATOM      9  C   UNL d   1       0.932  -0.373  -2.636  0.00  0.00     0.092 A 
ATOM     10  O   UNL d   1       2.998   1.245  -6.912  0.00  0.00    -0.286 OA
ATOM     11  C   UNL d   1       2.228   0.041  -2.955  0.00  0.00     0.039 A 
ENDROOT
BRANCH   9  12
ATOM     12  O   UNL d   1       0.551  -0.825  -1.392  0.00  0.00    -0.229 OA
BRANCH  12  13
ATOM     13  S   UNL d   1       1.294  -0.290  -0.034  0.00  0.00     0.303 S 
ATOM     14  O   UNL d   1       1.034   1.132   0.092  0.00  0.00    -0.193 OA
ATOM     15  O   UNL d   1       2.646  -0.817   0.015  0.00  0.00    -0.193 OA
BRANCH  13  16
ATOM     16  C   UNL d   1       0.437  -1.087   1.308  0.00  0.00     0.086 A 
ATOM     17  C   UNL d   1      -0.092  -2.370   1.142  0.00  0.00     0.026 A 
ATOM     18  C   UNL d   1      -0.740  -2.983   2.217  0.00  0.00     0.002 A 
ATOM     19  C   UNL d   1      -0.855  -2.318   3.440  0.00  0.00     0.000 A 
ATOM     20  C   UNL d   1      -0.324  -1.038   3.598  0.00  0.00     0.002 A 
ATOM     21  C   UNL d   1       0.323  -0.416   2.531  0.00  0.00     0.026 A 
ENDBRANCH  13  16
ENDBRANCH  12  13
ENDBRANCH   9  12
BRANCH   1  22
ATOM     22  C   UNL d   1       0.981   1.129  -9.014  0.00  0.00    -0.020 A 
ATOM     23  C   UNL d   1       0.763   2.440  -9.456  0.00  0.00     0.012 A 
ATOM     24  C   UNL d   1       0.999   2.783 -10.790  0.00  0.00     0.001 A 
ATOM     25  C   UNL d   1       1.450   1.818 -11.690  0.00  0.00     0.000 A 
ATOM     26  C   UNL d   1       1.666   0.510 -11.259  0.00  0.00     0.001 A 
ATOM     27  C   UNL d   1       1.431   0.165  -9.926  0.00  0.00     0.012 A 
ENDBRANCH   1  22
TORSDOF 4
