REMARK  4 active torsions:
REMARK  status: ('A' for Active; 'I' for Inactive)
REMARK    1  A    between atoms: C_3  and  C_1 
REMARK    2  A    between atoms: C_4  and  CA_2 
REMARK    3  A    between atoms: O_12  and  C_3 
REMARK    4  A    between atoms: OXT_11  and  C_4 
ROOT
ATOM      1  C   UNL d   1       0.531  -1.343  -0.003  0.00  0.00     0.140 A 
ATOM      2  CA  UNL d   1      -0.854  -1.228  -0.018  0.00  0.00     0.140 A 
ATOM      3  N   UNL d   1      -1.508  -0.005  -0.015  0.00  0.00    -0.357 N 
ATOM      4  HN  UNL d   1      -2.525   0.063  -0.023  1.00  0.00     0.165 HD
ATOM      5  N   UNL d   1       1.288  -0.194   0.004  0.00  0.00    -0.357 N 
ATOM      6  HN  UNL d   1       2.307  -0.243   0.009  1.00  0.00     0.165 HD
ATOM      7  C   UNL d   1       0.656   0.999   0.003  0.00  0.00     0.105 A 
ATOM      8  C   UNL d   1      -0.716   1.092  -0.003  0.00  0.00     0.105 A 
ENDROOT
BRANCH   1   9
ATOM      9  C   UNL d   1       1.394  -2.583   0.019  0.00  0.00     0.196 C 
ATOM     10  O   UNL d   1       2.615  -2.472   0.031  0.00  0.00    -0.645 OA
BRANCH   9  11
ATOM     11  O   UNL d   1       0.860  -3.817   0.043  0.00  0.00    -0.772 OA
ATOM     12  H   UNL d   1      -0.114  -3.949  -0.018  0.00  0.00     0.167 HD
ENDBRANCH   9  11
ENDBRANCH   1   9
BRANCH   2  13
ATOM     13  C   UNL d   1      -1.814  -2.362  -0.051  0.00  0.00     0.196 C 
ATOM     14  O   UNL d   1      -1.514  -3.542  -0.077  0.00  0.00    -0.645 OA
BRANCH  13  15
ATOM     15  OXT UNL d   1      -3.097  -1.928  -0.057  0.00  0.00    -0.772 OA
ATOM     16  HXT UNL d   1      -3.119  -0.941  -0.043  0.00  0.00     0.167 HD
ENDBRANCH  13  15
ENDBRANCH   2  13
TORSDOF 4
