REMARK  5 active torsions:
REMARK  status: ('A' for Active; 'I' for Inactive)
REMARK       I    between atoms: C_2  and  N_1 
REMARK    1  A    between atoms: C_5  and  C_2 
REMARK       I    between atoms: C_3  and  N_4 
REMARK    2  A    between atoms: C_12  and  C_3 
REMARK    3  A    between atoms: N_4  and  C_13 
REMARK    4  A    between atoms: C_14  and  C_5 
REMARK    5  A    between atoms: C_15  and  C_12 
ROOT
ATOM      1  N   UNL d   1       1.401  -0.109   0.020  0.00  0.00    -0.352 N 
ATOM      2  C   UNL d   1       2.309  -0.077   1.075  0.00  0.00     0.224 C 
ATOM      3  C   UNL d   1       0.750  -1.370  -0.319  0.00  0.00     0.127 C 
ATOM      4  C   UNL d   1       0.760   1.071  -0.552  0.00  0.00     0.127 C 
ATOM      5  O   UNL d   1       2.522  -1.067   1.780  0.00  0.00    -0.273 OA
ATOM      6  C   UNL d   1      -0.679   1.170  -0.048  0.00  0.00     0.045 C 
ATOM      7  C   UNL d   1      -0.712  -1.374   0.116  0.00  0.00     0.045 C 
ATOM      8  C   UNL d   1      -1.475  -0.116  -0.328  0.00  0.00     0.087 C 
ENDROOT
BRANCH   8   9
ATOM      9  N   UNL d   1      -1.884  -0.188  -1.731  0.00  0.00    -0.356 N 
ATOM     10  C   UNL d   1      -3.029   0.460  -2.160  0.00  0.00     0.222 C 
ATOM     11  O   UNL d   1      -3.810   1.025  -1.395  0.00  0.00    -0.273 OA
ATOM     12  H   UNL d   1      -1.194  -0.436  -2.429  0.00  0.00     0.162 HD
BRANCH  10  13
ATOM     13  C   UNL d   1      -3.250   0.435  -3.663  0.00  0.00     0.141 C 
BRANCH  13  14
ATOM     14  C   UNL d   1      -2.726   1.671  -4.355  0.00  0.00    -0.050 A 
ATOM     15  C   UNL d   1      -1.762   1.568  -5.367  0.00  0.00     0.007 A 
ATOM     16  C   UNL d   1      -1.299   2.712  -6.022  0.00  0.00     0.001 A 
ATOM     17  C   UNL d   1      -1.796   3.967  -5.676  0.00  0.00     0.000 A 
ATOM     18  C   UNL d   1      -2.758   4.081  -4.676  0.00  0.00     0.001 A 
ATOM     19  C   UNL d   1      -3.224   2.940  -4.021  0.00  0.00     0.007 A 
ENDBRANCH  13  14
ENDBRANCH  10  13
ENDBRANCH   8   9
BRANCH   2  20
ATOM     20  C   UNL d   1       3.105   1.202   1.306  0.00  0.00     0.141 C 
BRANCH  20  21
ATOM     21  C   UNL d   1       2.466   2.247   2.191  0.00  0.00    -0.050 A 
ATOM     22  C   UNL d   1       1.545   1.925   3.196  0.00  0.00     0.007 A 
ATOM     23  C   UNL d   1       1.002   2.926   4.008  0.00  0.00     0.001 A 
ATOM     24  C   UNL d   1       1.389   4.255   3.840  0.00  0.00     0.000 A 
ATOM     25  C   UNL d   1       2.328   4.584   2.868  0.00  0.00     0.001 A 
ATOM     26  C   UNL d   1       2.867   3.587   2.053  0.00  0.00     0.007 A 
ENDBRANCH  20  21
ENDBRANCH   2  20
TORSDOF 5
