REMARK  5 active torsions:
REMARK  status: ('A' for Active; 'I' for Inactive)
REMARK    1  A    between atoms: C_2  and  S_1 
REMARK    2  A    between atoms: N_8  and  S_1 
REMARK    3  A    between atoms: C_12  and  N_8 
REMARK    4  A    between atoms: O_11  and  C_13 
REMARK    5  A    between atoms: C_14  and  O_11 
ROOT
ATOM      1  N   UNL d   1       0.638   1.759  -0.307  0.00  0.00    -0.181 NA
ATOM      2  H   UNL d   1       1.042   2.018  -1.208  0.00  0.00     0.146 HD
ENDROOT
BRANCH   1   3
ATOM      3  S   UNL d   1       0.824   0.084  -0.080  0.00  0.00     0.246 S 
ATOM      4  O   UNL d   1      -0.083  -0.512  -1.040  0.00  0.00    -0.205 OA
ATOM      5  O   UNL d   1       2.239  -0.191  -0.158  0.00  0.00    -0.205 OA
BRANCH   3   6
ATOM      6  C   UNL d   1       0.297  -0.302   1.613  0.00  0.00     0.087 C 
ATOM      7  C   UNL d   1      -0.590  -1.394   1.845  0.00  0.00    -0.032 C 
ATOM      8  C   UNL d   1      -1.169  -1.564   3.132  0.00  0.00    -0.048 C 
ATOM      9  C   UNL d   1      -0.909  -2.416   0.775  0.00  0.00     0.050 C 
ATOM     10  C   UNL d   1      -2.214  -2.632   3.400  0.00  0.00     0.049 C 
ATOM     11  C   UNL d   1      -0.738  -0.757   4.216  0.00  0.00    -0.049 C 
ATOM     12  C   UNL d   1       0.263   0.227   4.013  0.00  0.00    -0.048 C 
ATOM     13  C   UNL d   1      -1.333  -1.008   5.589  0.00  0.00     0.049 C 
ATOM     14  C   UNL d   1       0.777   0.471   2.705  0.00  0.00    -0.032 C 
ATOM     15  C   UNL d   1       0.774   0.996   5.215  0.00  0.00     0.049 C 
ATOM     16  C   UNL d   1       1.885   1.492   2.563  0.00  0.00     0.050 C 
ENDBRANCH   3   6
ENDBRANCH   1   3
BRANCH   1  17
ATOM     17  C   UNL d   1      -0.619   2.366  -0.024  0.00  0.00     0.023 C 
ATOM     18  C   UNL d   1      -0.603   3.318   0.993  0.00  0.00     0.027 C 
ATOM     19  C   UNL d   1      -1.780   3.916   1.419  0.00  0.00     0.039 C 
ATOM     20  C   UNL d   1      -2.995   3.551   0.841  0.00  0.00     0.076 C 
ATOM     21  C   UNL d   1      -2.996   2.718  -0.282  0.00  0.00     0.039 C 
ATOM     22  C   UNL d   1      -1.801   2.121  -0.721  0.00  0.00     0.027 C 
BRANCH  20  23
ATOM     23  O   UNL d   1      -4.211   3.984   1.331  0.00  0.00    -0.311 OA
BRANCH  23  24
ATOM     24  C   UNL d   1      -4.359   4.086   2.705  0.00  0.00     0.076 A 
ATOM     25  C   UNL d   1      -5.213   5.085   3.179  0.00  0.00     0.039 A 
ATOM     26  C   UNL d   1      -5.345   5.297   4.557  0.00  0.00     0.026 A 
ATOM     27  C   UNL d   1      -4.619   4.513   5.455  0.00  0.00     0.034 A 
ATOM     28  C   UNL d   1      -3.805   3.483   4.991  0.00  0.00     0.026 A 
ATOM     29 CL   UNL d   1      -4.722   4.819   7.144  0.00  0.00    -0.084 Cl
ATOM     30  C   UNL d   1      -3.709   3.245   3.620  0.00  0.00     0.039 A 
ENDBRANCH  23  24
ENDBRANCH  20  23
ENDBRANCH   1  17
TORSDOF 5
