REMARK  2 active torsions:
REMARK  status: ('A' for Active; 'I' for Inactive)
REMARK    1  A    between atoms: C_10  and  C_5 
REMARK    2  A    between atoms: C_6  and  C_15 
ROOT
ATOM      1  S   UNL d   1      -1.174   1.222   0.383  0.00  0.00     0.203 S 
ATOM      2  C   UNL d   1      -1.527  -0.431   0.048  0.00  0.00     0.142 C 
ATOM      3  C   UNL d   1       0.520   1.493   0.002  0.00  0.00     0.229 C 
ATOM      4  C   UNL d   1      -0.569  -1.372  -0.061  0.00  0.00    -0.051 C 
ATOM      5  C   UNL d   1       1.466   0.295   0.117  0.00  0.00     0.055 C 
ATOM      6  C   UNL d   1       0.914  -1.125  -0.076  0.00  0.00     0.047 C 
ATOM      7  C   UNL d   1      -2.915  -0.732   0.034  0.00  0.00     0.112 C 
ATOM      8  C   UNL d   1       0.603   2.112  -1.321  0.00  0.00     0.080 C 
ATOM      9  O   UNL d   1      -1.301   1.398   1.819  0.00  0.00    -0.220 OA
ATOM     10  O   UNL d   1      -1.988   2.051  -0.492  0.00  0.00    -0.220 OA
ATOM     11  N   UNL d   1      -4.036  -1.033   0.016  0.00  0.00    -0.191 NA
ATOM     12  N   UNL d   1       0.774   2.620  -2.351  0.00  0.00    -0.196 NA
ATOM     13  C   UNL d   1      -0.898  -2.852  -0.170  0.00  0.00     0.046 C 
ENDROOT
BRANCH   5  14
ATOM     14  C   UNL d   1       2.301   0.389   1.389  0.00  0.00    -0.051 A 
ATOM     15  C   UNL d   1       3.681   0.632   1.280  0.00  0.00     0.023 A 
ATOM     16  C   UNL d   1       4.481   0.783   2.420  0.00  0.00     0.048 A 
ATOM     17  C   UNL d   1       3.882   0.686   3.682  0.00  0.00     0.016 A 
ATOM     18  C   UNL d   1       2.517   0.429   3.801  0.00  0.00     0.001 A 
ATOM     19  C   UNL d   1       1.730   0.272   2.662  0.00  0.00     0.007 A 
BRANCH  16  20
ATOM     20  C   UNL d   1       5.960   1.053   2.294  0.00  0.00     0.417 C 
ATOM     21  F   UNL d   1       6.388   1.122   1.002  0.00  0.00    -0.166 F 
ATOM     22  F   UNL d   1       6.326   2.229   2.872  0.00  0.00    -0.166 F 
ATOM     23  F   UNL d   1       6.716   0.088   2.885  0.00  0.00    -0.166 F 
ENDBRANCH  16  20
ENDBRANCH   5  14
TORSDOF 2
