REMARK  3 active torsions:
REMARK  status: ('A' for Active; 'I' for Inactive)
REMARK    1  A    between atoms: C_4  and  C_1 
REMARK       I    between atoms: N_8  and  C_4 
REMARK    2  A    between atoms: C_17  and  N_8 
REMARK    3  A    between atoms: C_16  and  C_17 
ROOT
ATOM      1  C   UNL d   1       3.408  -1.421  -0.017  0.00  0.00     0.258 C 
ATOM      2  N   UNL d   1       3.743  -2.759  -0.085  0.00  0.00    -0.352 N 
ATOM      3  O   UNL d   1       2.236  -1.059   0.046  0.00  0.00    -0.267 OA
ATOM      4  H   UNL d   1       4.719  -3.012  -0.013  0.00  0.00     0.163 HD
ENDROOT
BRANCH   2   5
ATOM      5  C   UNL d   1       2.744  -3.799   0.009  0.00  0.00     0.161 C 
BRANCH   5   6
ATOM      6  C   UNL d   1       3.187  -5.069  -0.676  0.00  0.00    -0.038 A 
ATOM      7  C   UNL d   1       3.233  -6.286   0.026  0.00  0.00     0.048 A 
ATOM      8  C   UNL d   1       3.585  -7.427  -0.668  0.00  0.00     0.105 A 
ATOM      9  O   UNL d   1       3.659  -8.683  -0.149  0.00  0.00    -0.323 OA
ATOM     10  C   UNL d   1       3.890  -7.398  -2.007  0.00  0.00     0.105 A 
ATOM     11  C   UNL d   1       4.013  -9.443  -1.324  0.00  0.00     0.352 A 
ATOM     12  O   UNL d   1       4.196  -8.628  -2.500  0.00  0.00    -0.323 OA
ATOM     13  C   UNL d   1       3.863  -6.226  -2.730  0.00  0.00     0.040 A 
ATOM     14  C   UNL d   1       3.503  -5.054  -2.056  0.00  0.00     0.012 A 
ENDBRANCH   5   6
ENDBRANCH   2   5
BRANCH   1  15
ATOM     15  C   UNL d   1       4.520  -0.476  -0.028  0.00  0.00     0.074 A 
ATOM     16  S   UNL d   1       6.154  -0.973  -0.046  0.00  0.00    -0.084 SA
ATOM     17  C   UNL d   1       6.744   0.644  -0.062  0.00  0.00     0.016 A 
ATOM     18  C   UNL d   1       8.091   1.058  -0.084  0.00  0.00     0.019 A 
ATOM     19  C   UNL d   1       5.698   1.567  -0.051  0.00  0.00    -0.018 A 
ATOM     20  C   UNL d   1       8.379   2.425  -0.098  0.00  0.00     0.001 A 
ATOM     21  C   UNL d   1       7.355   3.361  -0.091  0.00  0.00     0.001 A 
ATOM     22  C   UNL d   1       6.020   2.947  -0.067  0.00  0.00     0.013 A 
ATOM     23  C   UNL d   1       4.426   0.903  -0.027  0.00  0.00     0.037 A 
ENDBRANCH   1  15
TORSDOF 3
