REMARK  7 active torsions:
REMARK  status: ('A' for Active; 'I' for Inactive)
REMARK    1  A    between atoms: C_9  and  C_1 
REMARK    2  A    between atoms: N_7  and  C_2 
REMARK    3  A    between atoms: S_3  and  N_7 
REMARK    4  A    between atoms: C_10  and  S_3 
REMARK    5  A    between atoms: C_13  and  C_6 
REMARK    6  A    between atoms: C_8  and  C_14 
REMARK       I    between atoms: N_25  and  C_9 
REMARK    7  A    between atoms: O_29  and  C_26 
ROOT
ATOM      1  C   UNL d   1      -0.042   1.264   0.005  0.00  0.00     0.100 A 
ATOM      2  C   UNL d   1       1.286   0.873   0.006  0.00  0.00     0.066 A 
ATOM      3  S   UNL d   1      -1.088  -0.090  -0.041  0.00  0.00    -0.082 SA
ATOM      4  C   UNL d   1       1.416  -0.553   0.040  0.00  0.00     0.051 A 
ATOM      5  C   UNL d   1       0.201  -1.214   0.035  0.00  0.00     0.018 A 
ENDROOT
BRANCH   2   6
ATOM      6  N   UNL d   1       2.386   1.746   0.024  0.00  0.00    -0.279 N 
ATOM      7  H   UNL d   1       2.964   1.759   0.865  0.00  0.00     0.179 HD
BRANCH   6   8
ATOM      8  S   UNL d   1       3.393   1.935  -1.327  0.00  0.00     0.263 S 
ATOM      9  O   UNL d   1       4.577   2.625  -0.863  0.00  0.00    -0.200 OA
ATOM     10  O   UNL d   1       3.492   0.660  -2.010  0.00  0.00    -0.200 OA
BRANCH   8  11
ATOM     11  C   UNL d   1       2.496   3.063  -2.364  0.00  0.00     0.079 A 
ATOM     12  C   UNL d   1       2.045   4.278  -1.845  0.00  0.00     0.026 A 
ATOM     13  C   UNL d   1       1.304   5.142  -2.658  0.00  0.00     0.018 A 
ATOM     14  C   UNL d   1       1.024   4.807  -3.993  0.00  0.00     0.048 A 
ATOM     15  C   UNL d   1       1.509   3.593  -4.505  0.00  0.00     0.018 A 
ATOM     16  C   UNL d   1       2.240   2.721  -3.694  0.00  0.00     0.026 A 
BRANCH  14  17
ATOM     17  C   UNL d   1       0.203   5.742  -4.851  0.00  0.00     0.417 C 
ATOM     18  F   UNL d   1      -0.008   5.277  -6.114  0.00  0.00    -0.166 F 
ATOM     19  F   UNL d   1      -1.035   5.970  -4.330  0.00  0.00    -0.166 F 
ATOM     20  F   UNL d   1       0.781   6.966  -4.994  0.00  0.00    -0.166 F 
ENDBRANCH  14  17
ENDBRANCH   8  11
ENDBRANCH   6   8
ENDBRANCH   2   6
BRANCH   1  21
ATOM     21  C   UNL d   1      -0.595   2.606   0.067  0.00  0.00     0.258 C 
ATOM     22  O   UNL d   1       0.010   3.599   0.464  0.00  0.00    -0.267 OA
ATOM     23  N   UNL d   1      -1.891   2.749  -0.352  0.00  0.00    -0.365 N 
ATOM     24  H   UNL d   1      -2.436   1.964  -0.678  0.00  0.00     0.159 HD
ATOM     25  H   UNL d   1      -2.312   3.666  -0.303  0.00  0.00     0.159 HD
ENDBRANCH   1  21
BRANCH   5  26
ATOM     26  C   UNL d   1      -0.088  -2.659   0.044  0.00  0.00    -0.019 A 
ATOM     27  C   UNL d   1       0.753  -3.555  -0.632  0.00  0.00     0.015 A 
ATOM     28  C   UNL d   1       0.473  -4.929  -0.659  0.00  0.00     0.037 A 
ATOM     29  C   UNL d   1      -0.653  -5.429  -0.006  0.00  0.00     0.068 A 
ATOM     30  C   UNL d   1      -1.479  -4.553   0.693  0.00  0.00     0.037 A 
ATOM     31  C   UNL d   1      -1.203  -3.183   0.717  0.00  0.00     0.015 A 
BRANCH  29  32
ATOM     32  O   UNL d   1      -1.020  -6.744   0.053  0.00  0.00    -0.356 OA
ATOM     33  C   UNL d   1      -0.600  -7.554  -1.039  0.00  0.00     0.210 C 
ENDBRANCH  29  32
ENDBRANCH   5  26
TORSDOF 7
