REMARK  3 active torsions:
REMARK  status: ('A' for Active; 'I' for Inactive)
REMARK       I    between atoms: N_2  and  C_1 
REMARK    1  A    between atoms: C_9  and  C_1 
REMARK    2  A    between atoms: N_5  and  N_2 
REMARK    3  A    between atoms: C_8  and  N_5 
ROOT
ATOM      1  N   UNL d   1       0.720   2.123   1.173  0.00  0.00    -0.203 NA
ATOM      2  H   UNL d   1       1.746   2.067   1.212  0.00  0.00     0.153 HD
ENDROOT
BRANCH   1   3
ATOM      3  N   UNL d   1       0.149   0.855   0.989  0.00  0.00    -0.287 N 
ATOM      4  C   UNL d   1       1.025  -0.183   0.697  0.00  0.00     0.236 C 
ATOM      5  O   UNL d   1       2.246  -0.043   0.838  0.00  0.00    -0.272 OA
ATOM      6  H   UNL d   1      -0.798   0.856   0.629  0.00  0.00     0.184 HD
BRANCH   4   7
ATOM      7  C   UNL d   1       0.358  -1.486   0.187  0.00  0.00     0.079 C 
ATOM      8  C   UNL d   1       0.804  -1.992  -1.214  0.00  0.00     0.014 C 
ATOM      9  C   UNL d   1      -0.623  -2.537  -1.405  0.00  0.00     0.002 C 
ATOM     10  C   UNL d   1      -1.087  -1.478  -0.390  0.00  0.00     0.014 C 
ENDBRANCH   4   7
ENDBRANCH   1   3
BRANCH   1  11
ATOM     11  C   UNL d   1       0.190   2.876   2.250  0.00  0.00     0.029 A 
ATOM     12  C   UNL d   1       0.890   4.016   2.670  0.00  0.00     0.049 A 
ATOM     13  C   UNL d   1       0.356   4.878   3.635  0.00  0.00     0.041 A 
ATOM     14 CL   UNL d   1       1.292   6.259   4.090  0.00  0.00    -0.084 Cl
ATOM     15  C   UNL d   1      -0.904   4.633   4.196  0.00  0.00    -0.040 A 
ATOM     16  C   UNL d   1      -1.607   3.499   3.777  0.00  0.00     0.010 A 
ATOM     17  C   UNL d   1      -1.525   5.558   5.204  0.00  0.00     0.050 C 
ATOM     18  C   UNL d   1      -1.072   2.642   2.808  0.00  0.00     0.026 A 
ENDBRANCH   1  11
TORSDOF 3
