REMARK  3 active torsions:
REMARK  status: ('A' for Active; 'I' for Inactive)
REMARK    1  A    between atoms: C_3  and  C_1 
REMARK    2  A    between atoms: C_8  and  C_2 
REMARK    3  A    between atoms: C_4  and  C_3 
ROOT
ATOM      1  C   UNL d   1       3.489  -0.307  -0.233  0.00  0.00     0.235 C 
ATOM      2  O   UNL d   1       4.140   0.373   0.549  0.00  0.00    -0.278 OA
ENDROOT
BRANCH   1   3
ATOM      3  C   UNL d   1       2.046  -0.242  -0.195  0.00  0.00    -0.018 C 
ATOM      4  C   UNL d   1       0.844  -0.188  -0.157  0.00  0.00    -0.058 C 
BRANCH   4   5
ATOM      5  C   UNL d   1      -0.580  -0.083  -0.086  0.00  0.00     0.018 A 
ATOM      6  C   UNL d   1      -1.175   1.179  -0.140  0.00  0.00     0.020 A 
ATOM      7  C   UNL d   1      -2.562   1.303  -0.039  0.00  0.00     0.001 A 
ATOM      8  C   UNL d   1      -3.353   0.166   0.116  0.00  0.00     0.000 A 
ATOM      9  C   UNL d   1      -2.761  -1.097   0.166  0.00  0.00     0.001 A 
ATOM     10  C   UNL d   1      -1.374  -1.223   0.063  0.00  0.00     0.020 A 
ENDBRANCH   4   5
ENDBRANCH   1   3
BRANCH   1  11
ATOM     11  C   UNL d   1       4.132  -1.226  -1.208  0.00  0.00     0.023 A 
ATOM     12  C   UNL d   1       5.531  -1.310  -1.250  0.00  0.00     0.017 A 
ATOM     13  C   UNL d   1       6.154  -2.225  -2.104  0.00  0.00     0.007 A 
ATOM     14  C   UNL d   1       5.388  -3.059  -2.929  0.00  0.00    -0.062 A 
ATOM     15  C   UNL d   1       3.994  -2.950  -2.908  0.00  0.00     0.007 A 
ATOM     16  C   UNL d   1       6.061  -4.076  -3.802  0.00  0.00     0.048 C 
ATOM     17  C   UNL d   1       3.370  -2.039  -2.056  0.00  0.00     0.017 A 
ENDBRANCH   1  11
TORSDOF 3
