REMARK  7 active torsions:
REMARK  status: ('A' for Active; 'I' for Inactive)
REMARK    1  A    between atoms: C_3  and  N_6 
REMARK       I    between atoms: N_6  and  C_11 
REMARK    2  A    between atoms: O_14  and  C_7 
REMARK    3  A    between atoms: O_19  and  C_9 
REMARK    4  A    between atoms: C_11  and  C_18 
REMARK    5  A    between atoms: C_18  and  O_14 
REMARK    6  A    between atoms: C_26  and  C_15 
REMARK    7  A    between atoms: C_25  and  C_16 
ROOT
ATOM      1  O   UNL d   1       3.812  -2.016  -0.986  0.00  0.00    -0.339 OA
ENDROOT
BRANCH   1   2
ATOM      2  C   UNL d   1       3.691  -1.080   0.006  0.00  0.00     0.105 A 
ATOM      3  C   UNL d   1       3.585  -1.410   1.366  0.00  0.00     0.077 A 
ATOM      4  C   UNL d   1       3.446  -0.408   2.332  0.00  0.00     0.083 A 
ATOM      5  O   UNL d   1       3.231  -0.805   3.631  0.00  0.00    -0.336 OA
ATOM      6  C   UNL d   1       3.520   0.939   1.981  0.00  0.00    -0.000 A 
ATOM      7  C   UNL d   1       2.515   0.157   4.449  0.00  0.00     0.078 C 
ATOM      8  C   UNL d   1       1.009   0.031   4.158  0.00  0.00     0.051 C 
ATOM      9  C   UNL d   1       2.777  -0.231   5.907  0.00  0.00     0.051 C 
ATOM     10  C   UNL d   1       2.977   1.580   4.208  0.00  0.00     0.011 C 
ATOM     11  C   UNL d   1       3.465   1.958   3.021  0.00  0.00     0.013 C 
ATOM     12  C   UNL d   1       3.645   1.276   0.638  0.00  0.00     0.054 A 
ATOM     13  C   UNL d   1       3.702   0.284  -0.357  0.00  0.00     0.102 A 
BRANCH  13  14
ATOM     14  O   UNL d   1       3.748   0.846  -1.606  0.00  0.00    -0.353 OA
ATOM     15  C   UNL d   1       3.828   0.013  -2.747  0.00  0.00     0.210 C 
ENDBRANCH  13  14
ENDBRANCH   1   2
BRANCH   1  16
ATOM     16  C   UNL d   1       3.460  -3.372  -0.727  0.00  0.00     0.278 C 
BRANCH  16  17
ATOM     17  C   UNL d   1       4.687  -4.265  -0.538  0.00  0.00     0.246 C 
ATOM     18  N   UNL d   1       5.605  -4.122  -1.582  0.00  0.00    -0.324 N 
ATOM     19  H   UNL d   1       5.612  -3.167  -1.926  0.00  0.00     0.169 HD
ATOM     20  O   UNL d   1       4.800  -5.022   0.422  0.00  0.00    -0.271 OA
BRANCH  18  21
ATOM     21  C   UNL d   1       6.860  -4.771  -1.538  0.00  0.00     0.047 A 
ATOM     22  C   UNL d   1       6.967  -6.140  -1.876  0.00  0.00    -0.031 A 
ATOM     23  C   UNL d   1       8.240  -6.741  -1.884  0.00  0.00     0.009 A 
ATOM     24  C   UNL d   1       9.383  -6.003  -1.590  0.00  0.00     0.001 A 
ATOM     25  C   UNL d   1       9.273  -4.653  -1.282  0.00  0.00     0.009 A 
ATOM     26  C   UNL d   1       8.019  -4.013  -1.259  0.00  0.00    -0.031 A 
BRANCH  22  27
ATOM     27  C   UNL d   1       5.792  -6.993  -2.300  0.00  0.00     0.036 C 
ATOM     28  C   UNL d   1       5.327  -7.949  -1.211  0.00  0.00     0.010 C 
ENDBRANCH  22  27
BRANCH  26  29
ATOM     29  C   UNL d   1       7.978  -2.567  -0.819  0.00  0.00     0.036 C 
ATOM     30  C   UNL d   1       8.021  -2.437   0.696  0.00  0.00     0.010 C 
ENDBRANCH  26  29
ENDBRANCH  18  21
ENDBRANCH  16  17
ENDBRANCH   1  16
TORSDOF 7
