REMARK  4 active torsions:
REMARK  status: ('A' for Active; 'I' for Inactive)
REMARK    1  A    between atoms: N_6  and  C_4 
REMARK    2  A    between atoms: C_15  and  N_6 
REMARK    3  A    between atoms: C_9  and  C_19 
REMARK    4  A    between atoms: C_19  and  C_15 
ROOT
ATOM      1  C   UNL d   1      -0.389   0.278   0.068  0.00  0.00     0.109 A 
ATOM      2  C   UNL d   1      -1.815   0.186  -0.025  0.00  0.00     0.105 C 
ATOM      3  N   UNL d   1      -2.969   0.116  -0.119  0.00  0.00    -0.191 NA
ATOM      4  C   UNL d   1       0.334   1.492   0.096  0.00  0.00     0.052 A 
ATOM      5  C   UNL d   1       0.293  -0.948   0.098  0.00  0.00     0.139 A 
ATOM      6  F   UNL d   1      -0.393  -2.102   0.053  0.00  0.00    -0.204 F 
ATOM      7  C   UNL d   1       2.407   0.158   0.228  0.00  0.00     0.005 A 
ATOM      8  C   UNL d   1       1.742   1.390   0.197  0.00  0.00     0.031 A 
ATOM      9  C   UNL d   1       1.676  -1.018   0.177  0.00  0.00     0.044 A 
ENDROOT
BRANCH   4  10
ATOM     10  N   UNL d   1      -0.182   2.795   0.170  0.00  0.00    -0.388 N 
ATOM     11  H   UNL d   1       0.439   3.493  -0.233  0.00  0.00     0.159 HD
BRANCH  10  12
ATOM     12  C   UNL d   1      -1.603   3.096   0.006  0.00  0.00     0.124 C 
BRANCH  12  13
ATOM     13  C   UNL d   1      -1.879   4.604   0.031  0.00  0.00     0.058 C 
BRANCH  13  14
ATOM     14  C   UNL d   1      -3.367   4.862  -0.057  0.00  0.00    -0.057 A 
ATOM     15  C   UNL d   1      -4.144   4.926   1.109  0.00  0.00     0.009 A 
ATOM     16  C   UNL d   1      -5.529   5.089   1.030  0.00  0.00     0.024 A 
ATOM     17  C   UNL d   1      -6.144   5.186  -0.215  0.00  0.00     0.034 A 
ATOM     18  C   UNL d   1      -5.387   5.118  -1.383  0.00  0.00     0.024 A 
ATOM     19 CL   UNL d   1      -7.851   5.383  -0.313  0.00  0.00    -0.084 Cl
ATOM     20  C   UNL d   1      -4.001   4.955  -1.304  0.00  0.00     0.009 A 
ENDBRANCH  13  14
ENDBRANCH  12  13
ENDBRANCH  10  12
ENDBRANCH   4  10
TORSDOF 4
