REMARK  3 active torsions:
REMARK  status: ('A' for Active; 'I' for Inactive)
REMARK    1  A    between atoms: C_5  and  C_1 
REMARK       I    between atoms: C_2  and  N_3 
REMARK    2  A    between atoms: C_4  and  C_2 
REMARK    3  A    between atoms: N_3  and  C_9 
ROOT
ATOM      1  C   UNL d   1       3.069  -4.510  -1.049  0.00  0.00     0.256 C 
ATOM      2  N   UNL d   1       1.745  -4.518  -0.625  0.00  0.00    -0.323 N 
ATOM      3  O   UNL d   1       3.743  -5.486  -1.367  0.00  0.00    -0.267 OA
ATOM      4  H   UNL d   1       1.308  -3.628  -0.455  0.00  0.00     0.169 HD
ENDROOT
BRANCH   2   5
ATOM      5  C   UNL d   1       0.880  -5.630  -0.565  0.00  0.00     0.035 A 
ATOM      6  C   UNL d   1       1.246  -6.927  -0.924  0.00  0.00     0.045 A 
ATOM      7  C   UNL d   1       0.294  -7.962  -0.978  0.00  0.00     0.050 A 
ATOM      8  C   UNL d   1      -1.026  -7.700  -0.588  0.00  0.00     0.016 A 
ATOM      9  C   UNL d   1      -1.393  -6.421  -0.173  0.00  0.00     0.003 A 
ATOM     10  C   UNL d   1      -0.448  -5.390  -0.176  0.00  0.00     0.029 A 
BRANCH   7  11
ATOM     11  C   UNL d   1       0.666  -9.322  -1.517  0.00  0.00     0.417 C 
ATOM     12  F   UNL d   1       1.972  -9.437  -1.883  0.00  0.00    -0.166 F 
ATOM     13  F   UNL d   1      -0.059  -9.647  -2.626  0.00  0.00    -0.166 F 
ATOM     14  F   UNL d   1       0.439 -10.323  -0.620  0.00  0.00    -0.166 F 
ENDBRANCH   7  11
ENDBRANCH   2   5
BRANCH   1  15
ATOM     15  C   UNL d   1       3.693  -3.151  -1.176  0.00  0.00     0.033 A 
ATOM     16  C   UNL d   1       4.706  -2.978  -2.140  0.00  0.00     0.027 A 
ATOM     17  C   UNL d   1       5.240  -1.711  -2.323  0.00  0.00    -0.022 A 
ATOM     18  C   UNL d   1       6.249  -1.241  -3.297  0.00  0.00     0.068 C 
ATOM     19  C   UNL d   1       4.782  -0.639  -1.579  0.00  0.00     0.075 A 
ATOM     20  C   UNL d   1       6.456   0.186  -2.780  0.00  0.00     0.180 C 
ATOM     21  O   UNL d   1       5.354   0.557  -1.919  0.00  0.00    -0.350 OA
ATOM     22  C   UNL d   1       3.819  -0.784  -0.602  0.00  0.00     0.038 A 
ATOM     23  C   UNL d   1       3.285  -2.059  -0.386  0.00  0.00     0.020 A 
ENDBRANCH   1  15
TORSDOF 3
