REMARK  8 active torsions:
REMARK  status: ('A' for Active; 'I' for Inactive)
REMARK    1  A    between atoms: S_3  and  C_1 
REMARK    2  A    between atoms: N_8  and  C_2 
REMARK    3  A    between atoms: C_24  and  S_3 
REMARK    4  A    between atoms: C_7  and  C_4 
REMARK       I    between atoms: N_15  and  C_7 
REMARK    5  A    between atoms: C_9  and  C_11 
REMARK    6  A    between atoms: C_10  and  C_12 
REMARK    7  A    between atoms: C_13  and  C_14 
REMARK       I    between atoms: C_14  and  N_16 
REMARK    8  A    between atoms: N_16  and  N_15 
ROOT
ATOM      1  C   UNL d   1      -0.416   2.772   0.060  0.00  0.00     0.279 C 
ATOM      2  N   UNL d   1      -1.647   2.986  -0.550  0.00  0.00    -0.262 N 
ATOM      3  O   UNL d   1       0.115   3.734   0.620  0.00  0.00    -0.265 OA
ATOM      4  H   UNL d   1      -2.193   2.258  -1.009  0.00  0.00     0.190 HD
ENDROOT
BRANCH   2   5
ATOM      5  N   UNL d   1      -2.219   4.272  -0.443  0.00  0.00    -0.263 N 
ATOM      6  C   UNL d   1      -3.046   4.722  -1.455  0.00  0.00     0.270 C 
ATOM      7  O   UNL d   1      -3.405   4.021  -2.394  0.00  0.00    -0.266 OA
ATOM      8  H   UNL d   1      -1.679   4.927   0.123  0.00  0.00     0.190 HD
BRANCH   6   9
ATOM      9  C   UNL d   1      -3.511   6.138  -1.347  0.00  0.00     0.035 A 
ATOM     10  C   UNL d   1      -3.846   6.830  -2.521  0.00  0.00     0.033 A 
ATOM     11  C   UNL d   1      -4.379   8.131  -2.465  0.00  0.00     0.049 A 
ATOM     12  C   UNL d   1      -4.575   8.730  -1.210  0.00  0.00     0.032 A 
ATOM     13  C   UNL d   1      -4.258   8.049  -0.023  0.00  0.00     0.049 A 
ATOM     14  C   UNL d   1      -3.713   6.753  -0.103  0.00  0.00     0.033 A 
BRANCH  11  15
ATOM     15  C   UNL d   1      -4.761   8.853  -3.738  0.00  0.00     0.417 C 
ATOM     16  F   UNL d   1      -5.342  10.065  -3.515  0.00  0.00    -0.166 F 
ATOM     17  F   UNL d   1      -3.691   9.095  -4.542  0.00  0.00    -0.166 F 
ATOM     18  F   UNL d   1      -5.650   8.148  -4.489  0.00  0.00    -0.166 F 
ENDBRANCH  11  15
BRANCH  13  19
ATOM     19  C   UNL d   1      -4.541   8.668   1.328  0.00  0.00     0.417 C 
ATOM     20  F   UNL d   1      -5.133   9.891   1.253  0.00  0.00    -0.166 F 
ATOM     21  F   UNL d   1      -5.370   7.895   2.081  0.00  0.00    -0.166 F 
ATOM     22  F   UNL d   1      -3.411   8.839   2.066  0.00  0.00    -0.166 F 
ENDBRANCH  13  19
ENDBRANCH   6   9
ENDBRANCH   2   5
BRANCH   1  23
ATOM     23  C   UNL d   1       0.129   1.405   0.032  0.00  0.00     0.102 A 
ATOM     24  C   UNL d   1       1.445   0.902  -0.031  0.00  0.00     0.083 A 
ATOM     25  C   UNL d   1       1.451  -0.560  -0.032  0.00  0.00     0.094 A 
ATOM     26  C   UNL d   1       0.167  -1.067   0.002  0.00  0.00     0.076 A 
ATOM     27  S   UNL d   1      -1.027   0.125   0.062  0.00  0.00    -0.092 SA
BRANCH  24  28
ATOM     28  N   UNL d   1       2.607   1.753  -0.157  0.00  0.00    -0.330 N 
ATOM     29  C   UNL d   1       3.711   1.548  -0.960  0.00  0.00     0.097 C 
ATOM     30  C   UNL d   1       4.507   2.675  -0.957  0.00  0.00     0.019 C 
ATOM     31  C   UNL d   1       3.912   3.596  -0.081  0.00  0.00     0.019 C 
ATOM     32  C   UNL d   1       2.812   2.971   0.459  0.00  0.00     0.097 C 
ENDBRANCH  24  28
BRANCH  25  33
ATOM     33  S   UNL d   1       2.792  -1.700  -0.007  0.00  0.00     0.181 S 
ATOM     34  O   UNL d   1       2.169  -2.978   0.275  0.00  0.00    -0.222 OA
ATOM     35  O   UNL d   1       3.472  -1.487  -1.266  0.00  0.00    -0.222 OA
BRANCH  33  36
ATOM     36  C   UNL d   1       3.851  -1.280   1.380  0.00  0.00     0.105 C 
ATOM     37  C   UNL d   1       3.133  -1.492   2.711  0.00  0.00     0.026 C 
ATOM     38  C   UNL d   1       5.113  -2.147   1.338  0.00  0.00     0.026 C 
ENDBRANCH  33  36
ENDBRANCH  25  33
ENDBRANCH   1  23
TORSDOF 8
