REMARK  3 active torsions:
REMARK  status: ('A' for Active; 'I' for Inactive)
REMARK    1  A    between atoms: C_7  and  C_1 
REMARK    2  A    between atoms: C_15  and  C_7 
REMARK    3  A    between atoms: C_16  and  C_15 
ROOT
ATOM      1  C   UNL d   1       3.376   1.382  -0.022  0.00  0.00     0.086 A 
ATOM      2  C   UNL d   1       3.834  -0.033   0.038  0.00  0.00     0.302 A 
ATOM      3  C   UNL d   1       2.067   1.676  -0.089  0.00  0.00     0.035 A 
ATOM      4  O   UNL d   1       2.845  -1.015  -0.041  0.00  0.00    -0.274 OA
ATOM      5  C   UNL d   1       1.062   0.627  -0.068  0.00  0.00     0.000 A 
ATOM      6  C   UNL d   1       1.476  -0.699  -0.060  0.00  0.00     0.089 A 
ATOM      7  O   UNL d   1       5.005  -0.358   0.180  0.00  0.00    -0.259 OA
ATOM      8  C   UNL d   1      -0.308   0.906  -0.060  0.00  0.00     0.033 A 
ATOM      9  C   UNL d   1       0.568  -1.755  -0.050  0.00  0.00     0.039 A 
ATOM     10  C   UNL d   1      -1.228  -0.145  -0.044  0.00  0.00     0.011 A 
ATOM     11  C   UNL d   1      -0.799  -1.472  -0.041  0.00  0.00     0.022 A 
ATOM     12 BR   UNL d   1      -3.079   0.240  -0.021  0.00  0.00    -0.051 Br
ENDROOT
BRANCH   1  13
ATOM     13  C   UNL d   1       4.377   2.495  -0.041  0.00  0.00     0.165 C 
ATOM     14  O   UNL d   1       5.494   2.322  -0.530  0.00  0.00    -0.292 OA
BRANCH  13  15
ATOM     15  C   UNL d   1       4.004   3.879   0.480  0.00  0.00     0.084 C 
BRANCH  15  16
ATOM     16  C   UNL d   1       3.509   3.915   1.924  0.00  0.00     0.003 C 
ATOM     17  C   UNL d   1       4.553   3.432   2.918  0.00  0.00     0.005 C 
ENDBRANCH  15  16
ENDBRANCH  13  15
ENDBRANCH   1  13
TORSDOF 3
