REMARK  6 active torsions:
REMARK  status: ('A' for Active; 'I' for Inactive)
REMARK    1  A    between atoms: O_6  and  C_1 
REMARK    2  A    between atoms: C_5  and  C_2 
REMARK       I    between atoms: N_12  and  C_5 
REMARK    3  A    between atoms: C_17  and  O_6 
REMARK    4  A    between atoms: N_9  and  N_12 
REMARK    5  A    between atoms: N_14  and  C_11 
REMARK    6  A    between atoms: C_20  and  C_17 
ROOT
ATOM      1  C   UNL d   1      -0.182   0.670   0.010  0.00  0.00     0.112 A 
ATOM      2  C   UNL d   1       0.080  -2.173   0.023  0.00  0.00     0.037 A 
ATOM      3  C   UNL d   1      -1.318  -0.150   0.001  0.00  0.00     0.070 A 
ATOM      4  C   UNL d   1       1.077   0.036   0.005  0.00  0.00     0.070 A 
ATOM      5  C   UNL d   1      -1.180  -1.550   0.019  0.00  0.00     0.044 A 
ATOM      6  C   UNL d   1       1.213  -1.363   0.015  0.00  0.00     0.044 A 
ATOM      7 CL   UNL d   1      -2.940   0.438  -0.115  0.00  0.00    -0.081 Cl
ATOM      8 CL   UNL d   1       2.545   0.960  -0.015  0.00  0.00    -0.081 Cl
ENDROOT
BRANCH   2   9
ATOM      9  C   UNL d   1       0.116  -3.673   0.017  0.00  0.00     0.270 C 
ATOM     10  N   UNL d   1       1.354  -4.308   0.009  0.00  0.00    -0.265 N 
ATOM     11  H   UNL d   1       2.238  -3.817   0.007  0.00  0.00     0.190 HD
ATOM     12  O   UNL d   1      -0.960  -4.267   0.014  0.00  0.00    -0.266 OA
BRANCH  10  13
ATOM     13  N   UNL d   1       1.375  -5.670   0.007  0.00  0.00    -0.294 N 
ATOM     14  C   UNL d   1       2.522  -6.263   0.005  0.00  0.00     0.194 C 
ATOM     15  HN  UNL d   1       0.508  -6.207   0.008  1.00  0.00     0.187 HD
BRANCH  14  16
ATOM     16  N   UNL d   1       2.711  -7.623   0.001  0.00  0.00    -0.385 N 
ATOM     17  C   UNL d   1       1.583  -8.546   0.004  0.00  0.00     0.149 C 
ATOM     18  C   UNL d   1       4.024  -8.246   0.007  0.00  0.00     0.149 C 
ENDBRANCH  14  16
ENDBRANCH  10  13
ENDBRANCH   2   9
BRANCH   1  19
ATOM     19  O   UNL d   1      -0.148   2.040  -0.071  0.00  0.00    -0.343 OA
BRANCH  19  20
ATOM     20  C   UNL d   1      -1.133   2.803   0.628  0.00  0.00     0.214 C 
BRANCH  20  21
ATOM     21  C   UNL d   1      -0.576   4.122   1.139  0.00  0.00    -0.033 A 
ATOM     22  C   UNL d   1       0.780   4.470   1.033  0.00  0.00     0.033 A 
ATOM     23  C   UNL d   1       1.238   5.687   1.546  0.00  0.00     0.034 A 
ATOM     24 CL   UNL d   1       2.905   6.093   1.414  0.00  0.00    -0.084 Cl
ATOM     25  C   UNL d   1       0.361   6.572   2.166  0.00  0.00     0.024 A 
ATOM     26  C   UNL d   1      -0.989   6.243   2.275  0.00  0.00     0.002 A 
ATOM     27  C   UNL d   1      -1.452   5.026   1.765  0.00  0.00     0.009 A 
ENDBRANCH  20  21
ENDBRANCH  19  20
ENDBRANCH   1  19
TORSDOF 6
