REMARK  4 active torsions:
REMARK  status: ('A' for Active; 'I' for Inactive)
REMARK    1  A    between atoms: C_2  and  C_1 
REMARK    2  A    between atoms: S_7  and  C_2 
REMARK    3  A    between atoms: C_11  and  C_3 
REMARK    4  A    between atoms: C_10  and  S_7 
ROOT
ATOM      1  C   UNL d   1       0.200  -0.827  -0.221  0.00  0.00     0.082 A 
ATOM      2  C   UNL d   1      -0.855   0.070  -0.041  0.00  0.00     0.125 A 
ATOM      3  O   UNL d   1      -0.357   1.267   0.382  0.00  0.00    -0.236 OA
ATOM      4  N   UNL d   1       0.996   1.202   0.513  0.00  0.00    -0.264 N 
ATOM      5  HN  UNL d   1       1.619   1.952   0.812  1.00  0.00     0.194 HD
ATOM      6  C   UNL d   1       1.345  -0.040   0.170  0.00  0.00     0.046 A 
ATOM      7  C   UNL d   1       2.791  -0.351   0.277  0.00  0.00     0.071 C 
ENDROOT
BRANCH   1   8
ATOM      8  C   UNL d   1       0.031  -2.195  -0.681  0.00  0.00     0.229 C 
ATOM      9  O   UNL d   1      -1.069  -2.709  -0.820  0.00  0.00    -0.279 OA
BRANCH   8  10
ATOM     10  S   UNL d   1       1.432  -3.219  -0.940  0.00  0.00    -0.046 SA
BRANCH  10  11
ATOM     11  C   UNL d   1       2.450  -2.513  -2.233  0.00  0.00     0.032 A 
ATOM     12  C   UNL d   1       2.098  -1.597  -3.244  0.00  0.00     0.072 A 
ATOM     13  C   UNL d   1       3.108  -1.033  -4.051  0.00  0.00     0.057 A 
ATOM     14 CL   UNL d   1       0.445  -1.174  -3.551  0.00  0.00    -0.081 Cl
ATOM     15 CL   UNL d   1       2.782   0.190  -5.234  0.00  0.00    -0.083 Cl
ATOM     16  C   UNL d   1       4.442  -1.427  -3.912  0.00  0.00     0.026 A 
ATOM     17  C   UNL d   1       4.784  -2.398  -2.982  0.00  0.00     0.003 A 
ATOM     18  C   UNL d   1       3.799  -2.931  -2.152  0.00  0.00     0.021 A 
ENDBRANCH  10  11
ENDBRANCH   8  10
ENDBRANCH   1   8
BRANCH   2  19
ATOM     19  C   UNL d   1      -2.310   0.121  -0.201  0.00  0.00     0.001 A 
ATOM     20  C   UNL d   1      -3.071   0.870   0.718  0.00  0.00     0.016 A 
ATOM     21  C   UNL d   1      -4.433   1.107   0.514  0.00  0.00     0.024 A 
ATOM     22  C   UNL d   1      -5.059   0.576  -0.607  0.00  0.00     0.034 A 
ATOM     23  C   UNL d   1      -4.342  -0.217  -1.500  0.00  0.00     0.024 A 
ATOM     24 CL   UNL d   1      -6.715   0.932  -0.907  0.00  0.00    -0.084 Cl
ATOM     25  C   UNL d   1      -2.973  -0.443  -1.299  0.00  0.00     0.016 A 
ENDBRANCH   2  19
TORSDOF 4
