REMARK  5 active torsions:
REMARK  status: ('A' for Active; 'I' for Inactive)
REMARK    1  A    between atoms: N_4  and  C_1 
REMARK    2  A    between atoms: C_2  and  C_3 
REMARK       I    between atoms: N_6  and  C_2 
REMARK    3  A    between atoms: O_22  and  C_5 
REMARK       I    between atoms: C_7  and  N_6 
REMARK       I    between atoms: N_9  and  C_7 
REMARK    4  A    between atoms: C_8  and  N_9 
REMARK    5  A    between atoms: O_24  and  C_13 
ROOT
ATOM      1  C   UNL d   1      -2.208  -2.155   1.171  0.00  0.00     0.265 C 
ATOM      2  N   UNL d   1      -3.070  -1.103   1.411  0.00  0.00    -0.275 N 
ATOM      3  C   UNL d   1      -4.102  -1.106   2.336  0.00  0.00     0.327 C 
ATOM      4  N   UNL d   1      -4.838  -2.264   2.403  0.00  0.00    -0.308 N 
ATOM      5  O   UNL d   1      -2.612  -3.316   1.218  0.00  0.00    -0.267 OA
ATOM      6  O   UNL d   1      -4.226  -0.099   3.027  0.00  0.00    -0.247 OA
ATOM      7  H   UNL d   1      -2.651  -0.183   1.381  0.00  0.00     0.173 HD
ATOM      8  H   UNL d   1      -4.330  -3.061   2.022  0.00  0.00     0.170 HD
ENDROOT
BRANCH   1   9
ATOM      9  C   UNL d   1      -0.780  -1.816   0.771  0.00  0.00     0.101 C 
ATOM     10  C   UNL d   1      -0.401  -0.558   0.228  0.00  0.00     0.119 C 
ATOM     11  C   UNL d   1       0.894  -0.412  -0.315  0.00  0.00     0.137 C 
ATOM     12  C   UNL d   1       1.866  -1.407  -0.167  0.00  0.00     0.042 C 
ATOM     13  C   UNL d   1       1.528  -2.596   0.464  0.00  0.00     0.040 C 
ATOM     14  C   UNL d   1       0.218  -2.812   0.916  0.00  0.00     0.086 C 
BRANCH  10  15
ATOM     15  O   UNL d   1      -1.340   0.445   0.202  0.00  0.00    -0.352 OA
ATOM     16  C   UNL d   1      -0.927   1.697   0.771  0.00  0.00     0.210 C 
ENDBRANCH  10  15
BRANCH  11  17
ATOM     17  N   UNL d   1       1.258   0.730  -1.158  0.00  0.00    -0.113 N 
ATOM     18  O   UNL d   1       0.399   1.181  -1.926  0.00  0.00    -0.532 OA
ATOM     19  O   UNL d   1       2.416   1.157  -1.058  0.00  0.00    -0.532 OA
ENDBRANCH  11  17
BRANCH  14  20
ATOM     20  O   UNL d   1      -0.099  -4.061   1.387  0.00  0.00    -0.355 OA
ATOM     21  C   UNL d   1       0.613  -4.438   2.564  0.00  0.00     0.210 C 
ENDBRANCH  14  20
ENDBRANCH   1   9
BRANCH   4  22
ATOM     22  C   UNL d   1      -5.906  -2.531   3.308  0.00  0.00     0.048 C 
ATOM     23  C   UNL d   1      -6.798  -1.536   3.776  0.00  0.00    -0.033 C 
ATOM     24  C   UNL d   1      -7.644  -1.808   4.871  0.00  0.00     0.028 C 
ATOM     25  C   UNL d   1      -6.989  -0.187   3.132  0.00  0.00     0.050 C 
ATOM     26  C   UNL d   1      -7.686  -3.072   5.436  0.00  0.00     0.012 C 
ATOM     27  C   UNL d   1      -6.947  -4.100   4.871  0.00  0.00     0.028 C 
ATOM     28 BR   UNL d   1      -8.790  -3.406   6.932  0.00  0.00    -0.051 Br
ATOM     29  C   UNL d   1      -6.085  -3.856   3.779  0.00  0.00    -0.033 C 
ATOM     30  C   UNL d   1      -5.403  -5.073   3.208  0.00  0.00     0.050 C 
ENDBRANCH   4  22
TORSDOF 5
