REMARK  6 active torsions:
REMARK  status: ('A' for Active; 'I' for Inactive)
REMARK    1  A    between atoms: C_4  and  C_1 
REMARK    2  A    between atoms: C_15  and  N_5 
REMARK    3  A    between atoms: C_22  and  C_6 
REMARK    4  A    between atoms: C_14  and  C_9 
REMARK    5  A    between atoms: C_16  and  C_17 
REMARK    6  A    between atoms: C_28  and  C_22 
ROOT
ATOM      1  N   UNL d   1      -1.607   3.321   0.952  0.00  0.00    -0.318 N 
ATOM      2  HN  UNL d   1      -2.152   2.946   1.728  1.00  0.00     0.169 HD
ATOM      3  C   UNL d   1      -0.761   2.691   0.160  0.00  0.00     0.185 A 
ATOM      4  C   UNL d   1      -1.572   4.614   0.473  0.00  0.00     0.138 A 
ATOM      5  N   UNL d   1      -0.785   4.771  -0.601  0.00  0.00    -0.242 N 
ATOM      6  HN  UNL d   1      -0.624   5.619  -1.143  1.00  0.00     0.196 HD
ATOM      7  O   UNL d   1      -0.242   3.514  -0.803  0.00  0.00    -0.217 OA
ENDROOT
BRANCH   3   8
ATOM      8  C   UNL d   1      -0.373   1.260   0.264  0.00  0.00     0.059 A 
ATOM      9  C   UNL d   1      -0.862   0.277   1.109  0.00  0.00     0.050 A 
ATOM     10  N   UNL d   1      -0.162  -0.888   0.773  0.00  0.00    -0.260 N 
ATOM     11  N   UNL d   1       0.660  -0.672  -0.296  0.00  0.00    -0.304 N 
ATOM     12  C   UNL d   1       0.576   0.629  -0.546  0.00  0.00     0.125 A 
ATOM     13  HN  UNL d   1       1.220  -1.363  -0.795  1.00  0.00     0.186 HD
BRANCH   9  14
ATOM     14  C   UNL d   1      -2.002   0.371   2.074  0.00  0.00     0.060 C 
BRANCH  14  15
ATOM     15  C   UNL d   1      -1.590   0.973   3.420  0.00  0.00     0.002 C 
ATOM     16  C   UNL d   1      -2.783   1.082   4.357  0.00  0.00     0.005 C 
ENDBRANCH  14  15
ENDBRANCH   9  14
BRANCH  10  17
ATOM     17  C   UNL d   1      -0.150  -2.192   1.359  0.00  0.00     0.056 A 
ATOM     18  C   UNL d   1       0.306  -3.275   0.587  0.00  0.00     0.031 A 
ATOM     19  C   UNL d   1       0.413  -4.554   1.137  0.00  0.00     0.002 A 
ATOM     20  C   UNL d   1       0.087  -4.763   2.474  0.00  0.00     0.000 A 
ATOM     21  C   UNL d   1      -0.369  -3.701   3.248  0.00  0.00     0.002 A 
ATOM     22  C   UNL d   1      -0.500  -2.423   2.693  0.00  0.00     0.031 A 
ENDBRANCH  10  17
ENDBRANCH   3   8
BRANCH   4  23
ATOM     23  C   UNL d   1      -2.266   5.731   1.115  0.00  0.00     0.010 A 
ATOM     24  C   UNL d   1      -3.110   5.543   2.212  0.00  0.00     0.016 A 
ATOM     25  C   UNL d   1      -3.701   6.646   2.857  0.00  0.00     0.009 A 
ATOM     26  C   UNL d   1      -3.471   7.969   2.423  0.00  0.00    -0.051 A 
ATOM     27  C   UNL d   1      -2.642   8.131   1.303  0.00  0.00     0.009 A 
ATOM     28  C   UNL d   1      -2.056   7.037   0.660  0.00  0.00     0.016 A 
BRANCH  26  29
ATOM     29  C   UNL d   1      -4.100   9.168   3.152  0.00  0.00    -0.024 C 
ATOM     30  C   UNL d   1      -3.714  10.536   2.538  0.00  0.00     0.019 C 
ATOM     31  C   UNL d   1      -5.638   9.063   3.100  0.00  0.00     0.019 C 
ATOM     32  C   UNL d   1      -3.647   9.196   4.627  0.00  0.00     0.019 C 
ENDBRANCH  26  29
ENDBRANCH   4  23
TORSDOF 6
