REMARK  5 active torsions:
REMARK  status: ('A' for Active; 'I' for Inactive)
REMARK    1  A    between atoms: C_4  and  C_1 
REMARK    2  A    between atoms: N_6  and  C_5 
REMARK       I    between atoms: C_9  and  N_6 
REMARK    3  A    between atoms: O_16  and  C_9 
REMARK    4  A    between atoms: C_22  and  O_16 
REMARK    5  A    between atoms: C_17  and  C_22 
ROOT
ATOM      1  C   UNL d   1       0.284  -1.166  -0.015  0.00  0.00     0.087 A 
ATOM      2  N   UNL d   1       1.484  -0.655  -0.174  0.00  0.00    -0.336 N 
ATOM      3  HN  UNL d   1       2.330  -1.211  -0.302  1.00  0.00     0.168 HD
ATOM      4  C   UNL d   1       1.463   0.713  -0.147  0.00  0.00     0.117 A 
ATOM      5  S   UNL d   1      -0.968   0.016   0.099  0.00  0.00    -0.080 SA
ATOM      6  C   UNL d   1       0.203   1.264  -0.046  0.00  0.00     0.100 A 
ENDROOT
BRANCH   4   7
ATOM      7  N   UNL d   1       2.629   1.448  -0.184  0.00  0.00    -0.288 N 
ATOM      8  C   UNL d   1       3.880   0.902  -0.108  0.00  0.00     0.366 C 
ATOM      9  O   UNL d   1       4.199  -0.277  -0.147  0.00  0.00    -0.238 OA
ATOM     10  H   UNL d   1       2.573   2.451  -0.105  0.00  0.00     0.172 HD
BRANCH   8  11
ATOM     11  O   UNL d   1       4.780   1.907   0.103  0.00  0.00    -0.299 OA
BRANCH  11  12
ATOM     12  C   UNL d   1       6.031   1.475   0.654  0.00  0.00     0.219 C 
BRANCH  12  13
ATOM     13  C   UNL d   1       7.165   1.581  -0.333  0.00  0.00    -0.031 A 
ATOM     14  C   UNL d   1       7.909   2.766  -0.439  0.00  0.00     0.033 A 
ATOM     15  C   UNL d   1       9.020   2.827  -1.282  0.00  0.00     0.036 A 
ATOM     16 CL   UNL d   1       9.946   4.276  -1.363  0.00  0.00    -0.084 Cl
ATOM     17  C   UNL d   1       9.400   1.722  -2.039  0.00  0.00     0.047 A 
ATOM     18  C   UNL d   1       8.648   0.553  -1.957  0.00  0.00     0.036 A 
ATOM     19  C   UNL d   1       7.533   0.478  -1.118  0.00  0.00     0.033 A 
ATOM     20 CL   UNL d   1       9.118  -0.822  -2.881  0.00  0.00    -0.084 Cl
ENDBRANCH  12  13
ENDBRANCH  11  12
ENDBRANCH   8  11
ENDBRANCH   4   7
BRANCH   1  21
ATOM     21  C   UNL d   1       0.005  -2.614   0.050  0.00  0.00     0.021 A 
ATOM     22  C   UNL d   1       0.879  -3.516   0.703  0.00  0.00     0.068 A 
ATOM     23  C   UNL d   1       0.628  -4.900   0.648  0.00  0.00     0.056 A 
ATOM     24 CL   UNL d   1       2.235  -2.944   1.635  0.00  0.00    -0.082 Cl
ATOM     25 CL   UNL d   1       1.672  -6.072   1.383  0.00  0.00    -0.083 Cl
ATOM     26  C   UNL d   1      -0.495  -5.392  -0.020  0.00  0.00     0.026 A 
ATOM     27  C   UNL d   1      -1.378  -4.514  -0.638  0.00  0.00     0.003 A 
ATOM     28  C   UNL d   1      -1.126  -3.141  -0.610  0.00  0.00     0.016 A 
ENDBRANCH   1  21
TORSDOF 5
