REMARK  7 active torsions:
REMARK  status: ('A' for Active; 'I' for Inactive)
REMARK    1  A    between atoms: C_3  and  N_1 
REMARK    2  A    between atoms: C_4  and  C_6 
REMARK    3  A    between atoms: C_12  and  C_4 
REMARK    4  A    between atoms: N_14  and  C_9 
REMARK    5  A    between atoms: O_20  and  C_12 
REMARK    6  A    between atoms: C_19  and  N_14 
REMARK    7  A    between atoms: C_29  and  O_20 
ROOT
ATOM      1  C   UNL d   1      -1.311  -2.125  -1.269  0.00  0.00     0.048 C 
ATOM      2  C   UNL d   1      -0.702  -2.566  -2.404  0.00  0.00    -0.001 C 
ATOM      3  C   UNL d   1       0.810  -2.708  -2.501  0.00  0.00     0.062 C 
ENDROOT
BRANCH   1   4
ATOM      4  C   UNL d   1      -0.670  -1.330  -0.131  0.00  0.00     0.128 A 
ATOM      5  C   UNL d   1       0.543  -0.492  -0.484  0.00  0.00     0.241 A 
ATOM      6  N   UNL d   1       1.532  -0.759   0.435  0.00  0.00    -0.235 N 
ATOM      7  O   UNL d   1       0.556   0.272  -1.441  0.00  0.00    -0.272 OA
ATOM      8  C   UNL d   1       1.147  -1.671   1.381  0.00  0.00     0.233 A 
ATOM      9  C   UNL d   1      -0.236  -2.159   1.066  0.00  0.00     0.123 A 
ATOM     10  O   UNL d   1       1.773  -2.080   2.350  0.00  0.00    -0.273 OA
BRANCH   6  11
ATOM     11  C   UNL d   1       2.804  -0.190   0.382  0.00  0.00     0.140 A 
ATOM     12  N   UNL d   1       3.164   0.750  -0.504  0.00  0.00    -0.244 N 
ATOM     13  O   UNL d   1       4.494   1.030  -0.284  0.00  0.00    -0.241 OA
ATOM     14  HN  UNL d   1       2.564   1.178  -1.210  1.00  0.00     0.196 HD
ATOM     15  C   UNL d   1       4.955   0.257   0.729  0.00  0.00     0.076 A 
ATOM     16  C   UNL d   1       3.924  -0.514   1.202  0.00  0.00     0.085 A 
ATOM     17  C   UNL d   1       6.382   0.395   1.066  0.00  0.00     0.079 C 
ENDBRANCH   6  11
ENDBRANCH   1   4
BRANCH   1  18
ATOM     18  C   UNL d   1      -2.777  -2.350  -0.988  0.00  0.00     0.291 C 
ATOM     19  O   UNL d   1      -3.350  -1.810  -0.050  0.00  0.00    -0.260 OA
BRANCH  18  20
ATOM     20  O   UNL d   1      -3.308  -3.353  -1.739  0.00  0.00    -0.318 OA
BRANCH  20  21
ATOM     21  C   UNL d   1      -4.501  -3.955  -1.199  0.00  0.00     0.174 C 
ATOM     22  C   UNL d   1      -5.761  -3.197  -1.572  0.00  0.00     0.034 C 
ENDBRANCH  20  21
ENDBRANCH  18  20
ENDBRANCH   1  18
BRANCH   2  23
ATOM     23  N   UNL d   1      -1.370  -3.076  -3.522  0.00  0.00    -0.263 NA
ATOM     24  H   UNL d   1      -2.310  -3.405  -3.282  0.00  0.00     0.133 HD
BRANCH  23  25
ATOM     25  C   UNL d   1      -1.461  -2.391  -4.772  0.00  0.00     0.012 A 
ATOM     26  C   UNL d   1      -0.700  -1.261  -5.109  0.00  0.00     0.027 A 
ATOM     27  C   UNL d   1      -0.810  -0.668  -6.373  0.00  0.00     0.044 A 
ATOM     28  C   UNL d   1      -1.675  -1.203  -7.313  0.00  0.00     0.116 A 
ATOM     29  C   UNL d   1      -2.431  -2.334  -7.019  0.00  0.00     0.044 A 
ATOM     30  F   UNL d   1      -1.782  -0.633  -8.522  0.00  0.00    -0.206 F 
ATOM     31  C   UNL d   1      -2.309  -2.929  -5.756  0.00  0.00     0.027 A 
ENDBRANCH  23  25
ENDBRANCH   2  23
TORSDOF 7
