REMARK  4 active torsions:
REMARK  status: ('A' for Active; 'I' for Inactive)
REMARK    1  A    between atoms: C_2  and  S_1 
REMARK    2  A    between atoms: N_9  and  S_1 
REMARK    3  A    between atoms: C_15  and  C_7 
REMARK    4  A    between atoms: O_27  and  C_15 
ROOT
ATOM      1  C   UNL d   1      -2.872   1.550   3.865  0.00  0.00     0.147 A 
ATOM      2  N   UNL d   1      -3.743   1.131   4.757  0.00  0.00    -0.336 N 
ATOM      3  HN  UNL d   1      -3.560   0.391   5.434  1.00  0.00     0.168 HD
ATOM      4  S   UNL d   1      -3.505   2.759   2.795  0.00  0.00    -0.052 SA
ATOM      5  N   UNL d   1       0.255   0.080   1.582  0.00  0.00    -0.204 NA
ATOM      6  N   UNL d   1      -1.602   1.062   3.757  0.00  0.00    -0.360 N 
ATOM      7  C   UNL d   1      -5.011   2.740   3.616  0.00  0.00     0.036 A 
ATOM      8  C   UNL d   1      -4.940   1.822   4.661  0.00  0.00     0.051 A 
ATOM      9  C   UNL d   1      -0.152   1.522   1.778  0.00  0.00     0.127 C 
ATOM     10  C   UNL d   1      -6.169   3.493   3.358  0.00  0.00     0.045 A 
ATOM     11  C   UNL d   1      -0.489   1.859   3.237  0.00  0.00     0.140 C 
ATOM     12  C   UNL d   1      -6.058   1.674   5.509  0.00  0.00     0.032 A 
ATOM     13  C   UNL d   1      -7.263   3.321   4.209  0.00  0.00     0.035 A 
ATOM     14  C   UNL d   1      -0.975  -1.293   3.292  0.00  0.00     0.035 C 
ATOM     15  C   UNL d   1      -0.903  -0.846   1.834  0.00  0.00     0.109 C 
ATOM     16  C   UNL d   1      -1.253  -0.220   4.348  0.00  0.00     0.126 C 
ATOM     17  C   UNL d   1      -7.213   2.433   5.278  0.00  0.00     0.026 A 
ATOM     18 CL   UNL d   1      -8.697   4.233   3.929  0.00  0.00    -0.084 Cl
ENDROOT
BRANCH   5  19
ATOM     19  S   UNL d   1       0.940  -0.171   0.019  0.00  0.00     0.259 S 
ATOM     20  O   UNL d   1       1.282  -1.569  -0.129  0.00  0.00    -0.204 OA
ATOM     21  O   UNL d   1       0.105   0.514  -0.948  0.00  0.00    -0.204 OA
BRANCH  19  22
ATOM     22  C   UNL d   1       2.512   0.676  -0.043  0.00  0.00     0.146 A 
ATOM     23  N   UNL d   1       3.615   0.346   0.730  0.00  0.00    -0.336 N 
ATOM     24  C   UNL d   1       4.700   1.156   0.398  0.00  0.00     0.111 A 
ATOM     25  C   UNL d   1       3.676  -0.702   1.731  0.00  0.00     0.157 C 
ATOM     26  C   UNL d   1       4.259   2.011  -0.601  0.00  0.00     0.039 A 
ATOM     27  C   UNL d   1       2.909   1.719  -0.868  0.00  0.00     0.046 A 
BRANCH  24  28
ATOM     28  C   UNL d   1       6.028   1.089   0.987  0.00  0.00     0.309 C 
ATOM     29  O   UNL d   1       6.381   0.331   1.881  0.00  0.00    -0.258 OA
BRANCH  28  30
ATOM     30  O   UNL d   1       6.837   2.014   0.394  0.00  0.00    -0.321 OA
ATOM     31  C   UNL d   1       8.176   2.053   0.886  0.00  0.00     0.213 C 
ENDBRANCH  28  30
ENDBRANCH  24  28
ENDBRANCH  19  22
ENDBRANCH   5  19
TORSDOF 4
