REMARK  10 active torsions:
REMARK  status: ('A' for Active; 'I' for Inactive)
REMARK    1  A    between atoms: C_29  and  N_1 
REMARK    2  A    between atoms: S_15  and  C_2 
REMARK    3  A    between atoms: C_3  and  C_4 
REMARK    4  A    between atoms: O_27  and  C_5 
REMARK    5  A    between atoms: O_30  and  C_14 
REMARK    6  A    between atoms: C_28  and  S_15 
REMARK    7  A    between atoms: C_20  and  C_28 
REMARK    8  A    between atoms: C_31  and  C_29 
REMARK    9  A    between atoms: C_33  and  C_31 
REMARK   10  A    between atoms: C_32  and  C_33 
ROOT
ATOM      1  C   UNL d   1       6.280  -3.861   0.076  0.00  0.00     0.092 A 
ATOM      2  N   UNL d   1       6.361  -5.200   0.074  0.00  0.00    -0.326 N 
ATOM      3  HN  UNL d   1       7.253  -5.695   0.084  1.00  0.00     0.169 HD
ATOM      4  N   UNL d   1       5.118  -3.168   0.061  0.00  0.00    -0.348 N 
ATOM      5  HN  UNL d   1       5.118  -2.148   0.061  1.00  0.00     0.167 HD
ATOM      6  C   UNL d   1       5.189  -5.836   0.058  0.00  0.00     0.142 A 
ATOM      7  C   UNL d   1       3.957  -5.241   0.044  0.00  0.00     0.081 A 
ATOM      8  C   UNL d   1       3.959  -3.858   0.047  0.00  0.00     0.024 A 
ENDROOT
BRANCH   8   9
ATOM      9  C   UNL d   1       2.632  -3.121   0.042  0.00  0.00     0.139 C 
BRANCH   9  10
ATOM     10  S   UNL d   1       2.699  -1.288   0.049  0.00  0.00    -0.086 SA
BRANCH  10  11
ATOM     11  C   UNL d   1       0.999  -0.952   0.072  0.00  0.00     0.164 A 
ATOM     12  N   UNL d   1       0.424   0.295   0.074  0.00  0.00    -0.291 N 
ATOM     13  C   UNL d   1      -0.932   0.051   0.047  0.00  0.00     0.240 A 
ATOM     14  N   UNL d   1      -1.154  -1.242   0.060  0.00  0.00    -0.263 N 
ATOM     15  N   UNL d   1       0.062  -1.872   0.074  0.00  0.00    -0.277 N 
ATOM     16  HN  UNL d   1      -2.068  -1.696   0.059  1.00  0.00     0.190 HD
ATOM     17  HN  UNL d   1       0.214  -2.881   0.084  1.00  0.00     0.189 HD
BRANCH  12  18
ATOM     18  C   UNL d   1       1.047   1.598  -0.016  0.00  0.00     0.135 C 
BRANCH  18  19
ATOM     19  C   UNL d   1       0.907   2.463   1.241  0.00  0.00     0.020 C 
BRANCH  19  20
ATOM     20  C   UNL d   1       1.840   2.085   2.395  0.00  0.00     0.001 C 
BRANCH  20  21
ATOM     21  C   UNL d   1       1.607   3.044   3.570  0.00  0.00    -0.004 C 
ATOM     22  C   UNL d   1       2.497   2.758   4.767  0.00  0.00     0.005 C 
ENDBRANCH  20  21
ENDBRANCH  19  20
ENDBRANCH  18  19
ENDBRANCH  12  18
BRANCH  13  23
ATOM     23  O   UNL d   1      -1.904   0.944   0.003  0.00  0.00    -0.331 OA
ATOM     24  H   UNL d   1      -1.536   1.838  -0.007  0.00  0.00     0.221 HD
ENDBRANCH  13  23
ENDBRANCH  10  11
ENDBRANCH   9  10
ENDBRANCH   8   9
BRANCH   1  25
ATOM     25  C   UNL d   1       7.560  -3.042   0.124  0.00  0.00     0.019 C 
ATOM     26  C   UNL d   1       7.558  -2.184   1.417  0.00  0.00     0.022 C 
ATOM     27  C   UNL d   1       8.804  -1.287   1.474  0.00  0.00    -0.013 C 
ATOM     28  C   UNL d   1      10.060  -2.171   1.471  0.00  0.00     0.009 C 
ATOM     29  C   UNL d   1       8.818  -0.369   0.241  0.00  0.00     0.009 C 
ATOM     30  C   UNL d   1      10.103  -3.020   0.190  0.00  0.00    -0.013 C 
ATOM     31  C   UNL d   1       8.848  -3.911   0.130  0.00  0.00     0.022 C 
ATOM     32  C   UNL d   1      10.124  -2.092  -1.034  0.00  0.00     0.009 C 
ATOM     33  C   UNL d   1       8.867  -1.209  -1.046  0.00  0.00    -0.013 C 
ATOM     34  C   UNL d   1       7.621  -2.105  -1.109  0.00  0.00     0.022 C 
ENDBRANCH   1  25
BRANCH   6  35
ATOM     35  O   UNL d   1       5.300  -7.189   0.059  0.00  0.00    -0.346 OA
ATOM     36  H   UNL d   1       6.271  -7.286   0.073  0.00  0.00     0.219 HD
ENDBRANCH   6  35
TORSDOF 10
