REMARK  15 active torsions:
REMARK  status: ('A' for Active; 'I' for Inactive)
REMARK    1  A    between atoms: C_1  and  N_5 
REMARK    2  A    between atoms: C_2  and  O_7 
REMARK    3  A    between atoms: C_3  and  O_10 
REMARK    4  A    between atoms: C_4  and  O_9 
REMARK       I    between atoms: C_11  and  N_5 
REMARK    5  A    between atoms: C_12  and  O_7 
REMARK    6  A    between atoms: C_8  and  C_17 
REMARK    7  A    between atoms: C_13  and  O_9 
REMARK    8  A    between atoms: C_14  and  O_10 
REMARK    9  A    between atoms: C_22  and  C_11 
REMARK   10  A    between atoms: C_24  and  C_12 
REMARK   11  A    between atoms: C_23  and  C_13 
REMARK   12  A    between atoms: C_25  and  C_14 
REMARK   13  A    between atoms: C_15  and  O_16 
REMARK   14  A    between atoms: C_27  and  C_15 
REMARK   15  A    between atoms: O_16  and  C_17 
ROOT
ATOM      1  C   UNL d   1       0.790  -1.360  -0.169  0.00  0.00     0.172 C 
ATOM      2  C   UNL d   1       1.591  -0.038   0.034  0.00  0.00     0.192 C 
ATOM      3  C   UNL d   1      -0.623  -1.232   0.474  0.00  0.00     0.295 C 
ATOM      4  C   UNL d   1       0.758   1.241  -0.257  0.00  0.00     0.195 C 
ATOM      5  O   UNL d   1      -1.284  -0.029   0.061  0.00  0.00    -0.348 OA
ATOM      6  C   UNL d   1      -0.590   1.162   0.470  0.00  0.00     0.181 C 
ENDROOT
BRANCH   1   7
ATOM      7  N   UNL d   1       1.541  -2.540   0.332  0.00  0.00    -0.345 N 
ATOM      8  C   UNL d   1       2.431  -3.254  -0.439  0.00  0.00     0.252 C 
ATOM      9  O   UNL d   1       2.699  -2.987  -1.603  0.00  0.00    -0.268 OA
ATOM     10  H   UNL d   1       1.143  -3.057   1.108  0.00  0.00     0.163 HD
BRANCH   8  11
ATOM     11  C   UNL d   1       3.065  -4.436   0.215  0.00  0.00     0.032 A 
ATOM     12  C   UNL d   1       3.460  -5.514  -0.588  0.00  0.00     0.017 A 
ATOM     13  C   UNL d   1       4.142  -6.596  -0.028  0.00  0.00     0.001 A 
ATOM     14  C   UNL d   1       4.440  -6.604   1.334  0.00  0.00     0.000 A 
ATOM     15  C   UNL d   1       4.037  -5.541   2.143  0.00  0.00     0.001 A 
ATOM     16  C   UNL d   1       3.348  -4.458   1.588  0.00  0.00     0.017 A 
ENDBRANCH   8  11
ENDBRANCH   1   7
BRANCH   2  17
ATOM     17  O   UNL d   1       2.849  -0.016  -0.701  0.00  0.00    -0.307 OA
BRANCH  17  18
ATOM     18  C   UNL d   1       2.767  -0.073  -2.054  0.00  0.00     0.293 C 
ATOM     19  O   UNL d   1       1.725  -0.136  -2.696  0.00  0.00    -0.259 OA
BRANCH  18  20
ATOM     20  C   UNL d   1       4.091   0.020  -2.710  0.00  0.00     0.039 A 
ATOM     21  C   UNL d   1       4.117  -0.118  -4.105  0.00  0.00     0.017 A 
ATOM     22  C   UNL d   1       5.304   0.058  -4.812  0.00  0.00     0.001 A 
ATOM     23  C   UNL d   1       6.476   0.367  -4.127  0.00  0.00     0.000 A 
ATOM     24  C   UNL d   1       6.467   0.474  -2.734  0.00  0.00     0.001 A 
ATOM     25  C   UNL d   1       5.277   0.297  -2.020  0.00  0.00     0.017 A 
ENDBRANCH  18  20
ENDBRANCH  17  18
ENDBRANCH   2  17
BRANCH   3  26
ATOM     26  O   UNL d   1      -0.564  -1.241   1.908  0.00  0.00    -0.283 OA
BRANCH  26  27
ATOM     27  C   UNL d   1      -0.584  -2.451   2.502  0.00  0.00     0.295 C 
ATOM     28  O   UNL d   1      -0.618  -3.527   1.930  0.00  0.00    -0.259 OA
BRANCH  27  29
ATOM     29  C   UNL d   1      -0.348  -2.305   3.956  0.00  0.00     0.039 A 
ATOM     30  C   UNL d   1      -0.122  -3.468   4.702  0.00  0.00     0.017 A 
ATOM     31  C   UNL d   1       0.206  -3.374   6.054  0.00  0.00     0.001 A 
ATOM     32  C   UNL d   1       0.307  -2.122   6.660  0.00  0.00     0.000 A 
ATOM     33  C   UNL d   1       0.064  -0.962   5.925  0.00  0.00     0.001 A 
ATOM     34  C   UNL d   1      -0.269  -1.050   4.574  0.00  0.00     0.017 A 
ENDBRANCH  27  29
ENDBRANCH  26  27
ENDBRANCH   3  26
BRANCH   4  35
ATOM     35  O   UNL d   1       1.505   2.402   0.197  0.00  0.00    -0.307 OA
BRANCH  35  36
ATOM     36  C   UNL d   1       1.907   3.278  -0.764  0.00  0.00     0.293 C 
ATOM     37  O   UNL d   1       1.647   3.198  -1.954  0.00  0.00    -0.259 OA
BRANCH  36  38
ATOM     38  C   UNL d   1       2.724   4.390  -0.202  0.00  0.00     0.039 A 
ATOM     39  C   UNL d   1       3.308   5.299  -1.100  0.00  0.00     0.017 A 
ATOM     40  C   UNL d   1       4.082   6.363  -0.630  0.00  0.00     0.001 A 
ATOM     41  C   UNL d   1       4.276   6.527   0.740  0.00  0.00     0.000 A 
ATOM     42  C   UNL d   1       3.695   5.634   1.639  0.00  0.00     0.001 A 
ATOM     43  C   UNL d   1       2.920   4.566   1.173  0.00  0.00     0.017 A 
ENDBRANCH  36  38
ENDBRANCH  35  36
ENDBRANCH   4  35
BRANCH   6  44
ATOM     44  C   UNL d   1      -1.485   2.373   0.149  0.00  0.00     0.213 C 
BRANCH  44  45
ATOM     45  O   UNL d   1      -2.746   2.309   0.856  0.00  0.00    -0.315 OA
BRANCH  45  46
ATOM     46  C   UNL d   1      -2.719   2.652   2.167  0.00  0.00     0.293 C 
ATOM     47  O   UNL d   1      -1.720   2.964   2.797  0.00  0.00    -0.259 OA
BRANCH  46  48
ATOM     48  C   UNL d   1      -4.086   2.602   2.760  0.00  0.00     0.039 A 
ATOM     49  C   UNL d   1      -4.235   2.937   4.114  0.00  0.00     0.017 A 
ATOM     50  C   UNL d   1      -5.498   2.914   4.714  0.00  0.00     0.001 A 
ATOM     51  C   UNL d   1      -6.619   2.555   3.967  0.00  0.00     0.000 A 
ATOM     52  C   UNL d   1      -6.481   2.219   2.621  0.00  0.00     0.001 A 
ATOM     53  C   UNL d   1      -5.219   2.243   2.017  0.00  0.00     0.017 A 
ENDBRANCH  46  48
ENDBRANCH  45  46
ENDBRANCH  44  45
ENDBRANCH   6  44
TORSDOF 15
