REMARK  3 active torsions:
REMARK  status: ('A' for Active; 'I' for Inactive)
REMARK    1  A    between atoms: S_10  and  C_2 
REMARK    2  A    between atoms: C_9  and  C_5 
REMARK    3  A    between atoms: C_17  and  S_10 
ROOT
ATOM      1  C   UNL d   1      -2.771   4.408   0.956  0.00  0.00    -0.107 C 
ATOM      2  C   UNL d   1      -3.115   5.559   1.018  0.00  0.00     0.013 C 
ATOM      3  C   UNL d   1      -2.342   2.996   0.875  0.00  0.00     0.175 C 
ENDROOT
BRANCH   3   4
ATOM      4  S   UNL d   1      -0.672   2.874   0.165  0.00  0.00    -0.082 SA
BRANCH   4   5
ATOM      5  C   UNL d   1      -0.409   1.172   0.142  0.00  0.00     0.145 A 
ATOM      6  N   UNL d   1       0.866   0.697   0.037  0.00  0.00    -0.335 N 
ATOM      7  C   UNL d   1       0.820  -0.680   0.019  0.00  0.00     0.060 A 
ATOM      8  H   UNL d   1       1.690   1.277   0.008  0.00  0.00     0.168 HD
ATOM      9  C   UNL d   1      -0.538  -0.949   0.101  0.00  0.00     0.120 A 
ATOM     10  N   UNL d   1      -1.288   0.204   0.187  0.00  0.00    -0.344 N 
ATOM     11  HN  UNL d   1      -2.302   0.285   0.268  1.00  0.00     0.167 HD
BRANCH   7  12
ATOM     12  C   UNL d   1       1.995  -1.551  -0.050  0.00  0.00    -0.008 A 
ATOM     13  C   UNL d   1       1.962  -2.830   0.527  0.00  0.00     0.015 A 
ATOM     14  C   UNL d   1       3.078  -3.674   0.472  0.00  0.00     0.024 A 
ATOM     15  C   UNL d   1       4.238  -3.248  -0.166  0.00  0.00     0.034 A 
ATOM     16  C   UNL d   1       4.292  -1.984  -0.747  0.00  0.00     0.024 A 
ATOM     17 CL   UNL d   1       5.607  -4.286  -0.240  0.00  0.00    -0.084 Cl
ATOM     18  C   UNL d   1       3.176  -1.140  -0.689  0.00  0.00     0.015 A 
ENDBRANCH   7  12
ENDBRANCH   4   5
ENDBRANCH   3   4
TORSDOF 3
