REMARK  4 active torsions:
REMARK  status: ('A' for Active; 'I' for Inactive)
REMARK    1  A    between atoms: N_3  and  C_1 
REMARK    2  A    between atoms: C_10  and  N_2 
REMARK    3  A    between atoms: C_13  and  C_10 
REMARK    4  A    between atoms: O_12  and  C_13 
ROOT
ATOM      1  C   UNL d   1      -0.469  -1.082  -0.037  0.00  0.00     0.193 A 
ATOM      2  N   UNL d   1       0.861  -0.728  -0.009  0.00  0.00    -0.315 N 
ATOM      3  C   UNL d   1      -1.182   0.088  -0.021  0.00  0.00     0.144 A 
ATOM      4  N   UNL d   1      -0.333   1.159  -0.004  0.00  0.00    -0.352 N 
ATOM      5  HN  UNL d   1      -0.593   2.146   0.011  1.00  0.00     0.166 HD
ATOM      6  C   UNL d   1       0.889   0.662  -0.012  0.00  0.00     0.081 A 
ATOM      7  C   UNL d   1       2.119   1.502  -0.026  0.00  0.00     0.089 C 
ENDROOT
BRANCH   2   8
ATOM      8  C   UNL d   1       2.027  -1.593   0.079  0.00  0.00     0.158 C 
BRANCH   8   9
ATOM      9  C   UNL d   1       2.555  -2.021  -1.288  0.00  0.00     0.184 C 
BRANCH   9  10
ATOM     10  O   UNL d   1       3.122  -0.907  -1.972  0.00  0.00    -0.399 OA
ATOM     11  H   UNL d   1       3.376  -1.213  -2.862  0.00  0.00     0.209 HD
ENDBRANCH   9  10
ENDBRANCH   8   9
ENDBRANCH   2   8
BRANCH   1  12
ATOM     12  N   UNL d   1      -0.987  -2.405  -0.082  0.00  0.00    -0.096 N 
ATOM     13  O   UNL d   1      -0.200  -3.330  -0.305  0.00  0.00    -0.530 OA
ATOM     14  O   UNL d   1      -2.206  -2.525   0.092  0.00  0.00    -0.530 OA
ENDBRANCH   1  12
TORSDOF 4
