REMARK  4 active torsions:
REMARK  status: ('A' for Active; 'I' for Inactive)
REMARK    1  A    between atoms: C_3  and  S_1 
REMARK    2  A    between atoms: N_4  and  S_1 
REMARK    3  A    between atoms: C_11  and  C_2 
REMARK    4  A    between atoms: C_9  and  C_12 
ROOT
ATOM      1  C   UNL d   1       0.432  -1.786   0.082  0.00  0.00     0.121 A 
ATOM      2  S   UNL d   1      -1.215  -2.180   0.327  0.00  0.00    -0.074 SA
ATOM      3  C   UNL d   1      -0.880  -3.853   0.426  0.00  0.00     0.034 A 
ATOM      4  C   UNL d   1       1.215  -2.923   0.016  0.00  0.00     0.034 A 
ATOM      5  C   UNL d   1       0.459  -4.115   0.222  0.00  0.00     0.023 A 
ENDROOT
BRANCH   3   6
ATOM      6  C   UNL d   1      -1.899  -4.911   0.735  0.00  0.00     0.067 A 
ATOM      7  C   UNL d   1      -3.292  -4.730   0.871  0.00  0.00     0.068 A 
ATOM      8  C   UNL d   1      -3.798  -5.970   1.214  0.00  0.00     0.136 A 
ATOM      9  N   UNL d   1      -2.709  -6.791   1.310  0.00  0.00    -0.292 N 
ATOM     10  N   UNL d   1      -1.556  -6.185   0.960  0.00  0.00    -0.297 N 
ATOM     11  C   UNL d   1      -2.653  -8.147   1.812  0.00  0.00     0.178 C 
ATOM     12  HN  UNL d   1      -0.629  -6.604   0.885  1.00  0.00     0.187 HD
BRANCH   8  13
ATOM     13  C   UNL d   1      -5.186  -6.395   1.478  0.00  0.00     0.434 C 
ATOM     14  F   UNL d   1      -5.301  -7.712   1.778  0.00  0.00    -0.165 F 
ATOM     15  F   UNL d   1      -5.721  -5.710   2.518  0.00  0.00    -0.165 F 
ATOM     16  F   UNL d   1      -5.983  -6.169   0.404  0.00  0.00    -0.165 F 
ENDBRANCH   8  13
ENDBRANCH   3   6
BRANCH   1  17
ATOM     17  S   UNL d   1       0.843  -0.061  -0.051  0.00  0.00     0.276 S 
ATOM     18  O   UNL d   1      -0.323   0.639  -0.544  0.00  0.00    -0.199 OA
ATOM     19  O   UNL d   1       2.122  -0.030  -0.738  0.00  0.00    -0.199 OA
BRANCH  17  20
ATOM     20  N   UNL d   1       1.141   0.557   1.483  0.00  0.00    -0.241 N 
ATOM     21  C   UNL d   1       2.364   0.573   2.076  0.00  0.00     0.199 A 
ATOM     22  N   UNL d   1       2.278   1.041   3.303  0.00  0.00    -0.360 N 
ATOM     23  C   UNL d   1       0.942   1.312   3.499  0.00  0.00     0.107 A 
ATOM     24  HN  UNL d   1       3.040   1.176   3.968  1.00  0.00     0.166 HD
ATOM     25  C   UNL d   1       0.205   0.980   2.384  0.00  0.00     0.127 A 
ENDBRANCH  17  20
ENDBRANCH   1  17
TORSDOF 4
