REMARK  2 active torsions:
REMARK  status: ('A' for Active; 'I' for Inactive)
REMARK    1  A    between atoms: C_10  and  C_2 
REMARK    2  A    between atoms: N_14  and  C_10 
ROOT
ATOM      1  C   UNL d   1       0.118  -0.733   0.001  0.00  0.00     0.086 A 
ATOM      2  C   UNL d   1      -2.262  -0.681  -0.002  0.00  0.00     0.004 A 
ATOM      3  C   UNL d   1       0.151   0.722  -0.008  0.00  0.00     0.085 A 
ATOM      4  C   UNL d   1      -1.085  -1.465   0.008  0.00  0.00     0.048 A 
ATOM      5  O   UNL d   1       2.181  -0.051   0.001  0.00  0.00    -0.156 OA
ATOM      6  N   UNL d   1       1.379  -1.181   0.006  0.00  0.00    -0.240 N 
ATOM      7  HN  UNL d   1       1.686  -2.154   0.012  1.00  0.00     0.197 HD
ATOM      8  N   UNL d   1       1.430   1.113  -0.009  0.00  0.00    -0.240 N 
ATOM      9  HN  UNL d   1       1.781   2.071  -0.016  1.00  0.00     0.197 HD
ATOM     10  C   UNL d   1      -2.216   0.750  -0.013  0.00  0.00     0.017 A 
ATOM     11  C   UNL d   1      -1.019   1.498  -0.014  0.00  0.00     0.035 A 
ENDROOT
BRANCH   2  12
ATOM     12  C   UNL d   1      -3.584  -1.380   0.017  0.00  0.00     0.104 C 
ATOM     13  S   UNL d   1      -4.983  -0.796   0.724  0.00  0.00    -0.060 SA
BRANCH  12  14
ATOM     14  N   UNL d   1      -3.651  -2.606  -0.597  0.00  0.00    -0.390 N 
ATOM     15  H   UNL d   1      -2.900  -3.023  -1.131  0.00  0.00     0.157 HD
ATOM     16  H   UNL d   1      -4.545  -3.084  -0.615  0.00  0.00     0.157 HD
ENDBRANCH  12  14
ENDBRANCH   2  12
TORSDOF 2
