REMARK  5 active torsions:
REMARK  status: ('A' for Active; 'I' for Inactive)
REMARK    1  A    between atoms: C_2  and  C_1 
REMARK       I    between atoms: N_6  and  C_1 
REMARK    2  A    between atoms: C_3  and  C_9 
REMARK       I    between atoms: C_4  and  N_5 
REMARK    3  A    between atoms: C_10  and  C_4 
REMARK    4  A    between atoms: N_5  and  C_7 
REMARK    5  A    between atoms: C_11  and  N_6 
ROOT
ATOM      1  C   UNL d   1      -0.080   0.672   1.489  0.00  0.00     0.058 A 
ATOM      2  C   UNL d   1       0.487   1.948   1.329  0.00  0.00     0.050 A 
ATOM      3  C   UNL d   1      -1.225   0.486   2.280  0.00  0.00     0.019 A 
ATOM      4  C   UNL d   1      -0.145   3.036   1.942  0.00  0.00     0.030 A 
ATOM      5  C   UNL d   1      -1.833   1.576   2.892  0.00  0.00     0.001 A 
ATOM      6  C   UNL d   1      -1.299   2.849   2.716  0.00  0.00     0.002 A 
ENDROOT
BRANCH   2   7
ATOM      7  N   UNL d   1       1.705   2.107   0.624  0.00  0.00    -0.322 N 
ATOM      8  C   UNL d   1       2.131   3.258  -0.005  0.00  0.00     0.256 C 
ATOM      9  O   UNL d   1       1.467   4.263  -0.227  0.00  0.00    -0.267 OA
ATOM     10  H   UNL d   1       2.251   1.265   0.450  0.00  0.00     0.169 HD
BRANCH   8  11
ATOM     11  C   UNL d   1       3.524   3.193  -0.496  0.00  0.00     0.033 A 
ATOM     12  C   UNL d   1       3.787   3.324  -1.863  0.00  0.00     0.033 A 
ATOM     13  C   UNL d   1       5.111   3.274  -2.328  0.00  0.00     0.048 A 
ATOM     14  C   UNL d   1       6.155   3.130  -1.396  0.00  0.00     0.016 A 
ATOM     15  C   UNL d   1       5.885   3.014  -0.030  0.00  0.00     0.002 A 
ATOM     16  C   UNL d   1       4.567   3.037   0.422  0.00  0.00     0.017 A 
BRANCH  13  17
ATOM     17  C   UNL d   1       5.431   3.379  -3.799  0.00  0.00     0.417 C 
ATOM     18  F   UNL d   1       4.335   3.392  -4.604  0.00  0.00    -0.166 F 
ATOM     19  F   UNL d   1       6.129   4.510  -4.098  0.00  0.00    -0.166 F 
ATOM     20  F   UNL d   1       6.204   2.343  -4.236  0.00  0.00    -0.166 F 
ENDBRANCH  13  17
ENDBRANCH   8  11
ENDBRANCH   2   7
BRANCH   1  21
ATOM     21  C   UNL d   1       0.374  -0.517   0.730  0.00  0.00     0.254 C 
ATOM     22  N   UNL d   1       0.699  -0.286  -0.590  0.00  0.00    -0.344 N 
ATOM     23  H   UNL d   1       0.605   0.647  -0.979  0.00  0.00     0.163 HD
ATOM     24  O   UNL d   1       0.358  -1.629   1.242  0.00  0.00    -0.268 OA
BRANCH  22  25
ATOM     25  C   UNL d   1       0.776  -1.388  -1.536  0.00  0.00     0.177 C 
ATOM     26  C   UNL d   1       1.822  -1.071  -2.613  0.00  0.00     0.240 C 
ATOM     27  N   UNL d   1       2.114  -2.075  -3.498  0.00  0.00    -0.359 N 
ATOM     28  O   UNL d   1       2.368   0.027  -2.719  0.00  0.00    -0.271 OA
ATOM     29  C   UNL d   1       1.607  -3.430  -3.445  0.00  0.00     0.122 C 
ATOM     30  H   UNL d   1       2.810  -1.833  -4.194  0.00  0.00     0.162 HD
ATOM     31  C   UNL d   1       0.121  -3.517  -3.772  0.00  0.00     0.020 C 
ATOM     32  C   UNL d   1      -0.805  -3.058  -2.643  0.00  0.00     0.004 C 
ATOM     33  C   UNL d   1      -0.596  -1.616  -2.185  0.00  0.00     0.035 C 
ENDBRANCH  22  25
ENDBRANCH   1  21
TORSDOF 5
