REMARK  4 active torsions:
REMARK  status: ('A' for Active; 'I' for Inactive)
REMARK    1  A    between atoms: C_11  and  C_1 
REMARK    2  A    between atoms: O_12  and  C_1 
REMARK    3  A    between atoms: N_3  and  O_12 
REMARK    4  A    between atoms: C_15  and  C_14 
ROOT
ATOM      1  N   UNL d   1       2.893  -0.042   1.287  0.00  0.00    -0.268 N 
ATOM      2  HN  UNL d   1       2.366  -0.180   2.149  1.00  0.00     0.194 HD
ATOM      3  C   UNL d   1       4.169   0.154   1.232  0.00  0.00     0.126 C 
ENDROOT
BRANCH   1   4
ATOM      4  O   UNL d   1       2.329  -0.040  -0.003  0.00  0.00    -0.195 OA
BRANCH   4   5
ATOM      5  C   UNL d   1       0.995  -0.338   0.097  0.00  0.00     0.315 C 
ATOM      6  O   UNL d   1       0.358  -0.598   1.109  0.00  0.00    -0.257 OA
BRANCH   5   7
ATOM      7  C   UNL d   1       0.379  -0.381  -1.252  0.00  0.00     0.041 A 
ATOM      8  C   UNL d   1       0.843   0.403  -2.315  0.00  0.00     0.017 A 
ATOM      9  C   UNL d   1       0.213   0.325  -3.560  0.00  0.00     0.001 A 
ATOM     10  C   UNL d   1      -0.875  -0.531  -3.745  0.00  0.00     0.000 A 
ATOM     11  C   UNL d   1      -1.347  -1.302  -2.683  0.00  0.00     0.001 A 
ATOM     12  C   UNL d   1      -0.727  -1.221  -1.438  0.00  0.00     0.017 A 
ENDBRANCH   5   7
ENDBRANCH   4   5
ENDBRANCH   1   4
BRANCH   3  13
ATOM     13  C   UNL d   1       4.975   0.214   2.469  0.00  0.00    -0.016 A 
ATOM     14  C   UNL d   1       6.345   0.486   2.385  0.00  0.00     0.052 A 
ATOM     15  C   UNL d   1       7.044   0.579   3.573  0.00  0.00     0.105 A 
ATOM     16  O   UNL d   1       8.370   0.860   3.695  0.00  0.00    -0.323 OA
ATOM     17  C   UNL d   1       6.436   0.401   4.796  0.00  0.00     0.105 A 
ATOM     18  C   UNL d   1       8.511   0.895   5.132  0.00  0.00     0.352 A 
ATOM     19  O   UNL d   1       7.301   0.549   5.834  0.00  0.00    -0.323 OA
ATOM     20  C   UNL d   1       5.093   0.114   4.905  0.00  0.00     0.040 A 
ATOM     21  C   UNL d   1       4.354   0.023   3.723  0.00  0.00     0.016 A 
ENDBRANCH   3  13
TORSDOF 4
