REMARK  5 active torsions:
REMARK  status: ('A' for Active; 'I' for Inactive)
REMARK    1  A    between atoms: C_16  and  N_1 
REMARK    2  A    between atoms: C_8  and  C_5 
REMARK    3  A    between atoms: C_9  and  C_11 
REMARK    4  A    between atoms: C_18  and  C_10 
REMARK       I    between atoms: C_11  and  N_15 
REMARK    5  A    between atoms: N_15  and  C_30 
ROOT
ATOM      1  C   UNL d   1       2.057  -1.364   0.046  0.00  0.00     0.057 A 
ATOM      2  C   UNL d   1       2.141  -2.474  -0.800  0.00  0.00     0.034 A 
ATOM      3  C   UNL d   1       3.172  -0.983   0.801  0.00  0.00     0.034 A 
ATOM      4  C   UNL d   1       4.425  -2.873  -0.064  0.00  0.00     0.035 A 
ATOM      5  C   UNL d   1       4.341  -1.752   0.762  0.00  0.00     0.032 A 
ATOM      6  C   UNL d   1       3.321  -3.220  -0.853  0.00  0.00     0.032 A 
ENDROOT
BRANCH   4   7
ATOM      7  N   UNL d   1       5.570  -3.678  -0.191  0.00  0.00    -0.323 N 
ATOM      8  C   UNL d   1       6.788  -3.560   0.458  0.00  0.00     0.263 C 
ATOM      9  O   UNL d   1       7.018  -2.772   1.369  0.00  0.00    -0.267 OA
ATOM     10  H   UNL d   1       5.521  -4.422  -0.876  0.00  0.00     0.169 HD
BRANCH   8  11
ATOM     11  C   UNL d   1       7.822  -4.462  -0.050  0.00  0.00     0.073 A 
ATOM     12  S   UNL d   1       7.505  -5.600  -1.289  0.00  0.00    -0.083 SA
ATOM     13  C   UNL d   1       9.136  -6.123  -1.364  0.00  0.00     0.032 A 
ATOM     14  C   UNL d   1       9.893  -5.477  -0.402  0.00  0.00     0.023 A 
ATOM     15  C   UNL d   1       9.143  -4.524   0.348  0.00  0.00     0.026 A 
BRANCH  13  16
ATOM     16  C   UNL d   1       9.560  -7.147  -2.329  0.00  0.00     0.049 A 
ATOM     17  N   UNL d   1      10.676  -7.829  -1.966  0.00  0.00    -0.365 N 
ATOM     18  C   UNL d   1      11.114  -8.795  -2.805  0.00  0.00     0.088 A 
ATOM     19  HN  UNL d   1      11.165  -7.621  -1.096  1.00  0.00     0.165 HD
ATOM     20  C   UNL d   1      10.500  -9.116  -4.001  0.00  0.00     0.017 A 
ATOM     21  C   UNL d   1       9.368  -8.400  -4.370  0.00  0.00     0.004 A 
ATOM     22  C   UNL d   1       8.892  -7.400  -3.527  0.00  0.00     0.031 A 
ENDBRANCH  13  16
ENDBRANCH   8  11
ENDBRANCH   4   7
BRANCH   1  23
ATOM     23  N   UNL d   1       0.855  -0.612   0.146  0.00  0.00    -0.255 N 
ATOM     24  C   UNL d   1      -0.459  -1.046   0.009  0.00  0.00     0.076 C 
ATOM     25  C   UNL d   1      -1.219   0.102  -0.091  0.00  0.00     0.069 C 
ATOM     26  C   UNL d   1      -0.910  -2.409   0.100  0.00  0.00     0.033 A 
ATOM     27  C   UNL d   1      -0.337   1.174   0.195  0.00  0.00     0.135 C 
ATOM     28  N   UNL d   1       0.912   0.720   0.410  0.00  0.00    -0.289 N 
ATOM     29  HN  UNL d   1       1.725   1.259   0.707  1.00  0.00     0.187 HD
ATOM     30  S   UNL d   1      -2.195  -3.007  -0.863  0.00  0.00    -0.100 SA
ATOM     31  C   UNL d   1      -0.443  -3.382   0.966  0.00  0.00     0.021 A 
ATOM     32  C   UNL d   1      -2.107  -4.555  -0.141  0.00  0.00     0.050 A 
ATOM     33  C   UNL d   1      -1.123  -4.624   0.817  0.00  0.00     0.008 A 
BRANCH  27  34
ATOM     34  C   UNL d   1      -0.725   2.624   0.316  0.00  0.00     0.434 C 
ATOM     35  F   UNL d   1       0.288   3.433   0.719  0.00  0.00    -0.165 F 
ATOM     36  F   UNL d   1      -1.178   3.120  -0.868  0.00  0.00    -0.165 F 
ATOM     37  F   UNL d   1      -1.738   2.791   1.211  0.00  0.00    -0.165 F 
ENDBRANCH  27  34
ENDBRANCH   1  23
TORSDOF 5
