REMARK  2 active torsions:
REMARK  status: ('A' for Active; 'I' for Inactive)
REMARK    1  A    between atoms: C_2  and  C_1 
REMARK       I    between atoms: N_3  and  C_2 
REMARK       I    between atoms: C_4  and  N_3 
REMARK       I    between atoms: N_8  and  C_4 
REMARK    2  A    between atoms: C_17  and  N_8 
ROOT
ATOM      1  C   UNL d   1      -3.351   0.500  -0.330  0.00  0.00     0.234 C 
ATOM      2  N   UNL d   1      -3.703   1.801  -0.006  0.00  0.00    -0.278 N 
ATOM      3  C   UNL d   1      -4.941   2.362   0.203  0.00  0.00     0.327 C 
ATOM      4  N   UNL d   1      -6.008   1.726  -0.374  0.00  0.00    -0.309 N 
ATOM      5  O   UNL d   1      -4.982   3.413   0.843  0.00  0.00    -0.247 OA
ATOM      6  O   UNL d   1      -4.169  -0.308  -0.770  0.00  0.00    -0.272 OA
ATOM      7  H   UNL d   1      -2.992   2.400   0.390  0.00  0.00     0.173 HD
ATOM      8  H   UNL d   1      -5.758   1.018  -1.059  0.00  0.00     0.170 HD
ENDROOT
BRANCH   1   9
ATOM      9  C   UNL d   1      -1.829   0.203  -0.273  0.00  0.00     0.042 C 
ATOM     10  C   UNL d   1      -1.145   0.755   1.008  0.00  0.00     0.024 C 
ATOM     11  C   UNL d   1       0.364   0.444   1.006  0.00  0.00    -0.013 C 
ATOM     12  C   UNL d   1       0.567  -1.076   0.960  0.00  0.00     0.009 C 
ATOM     13  C   UNL d   1       1.012   1.082  -0.235  0.00  0.00     0.009 C 
ATOM     14  C   UNL d   1      -0.075  -1.649  -0.313  0.00  0.00    -0.013 C 
ATOM     15  C   UNL d   1      -1.582  -1.329  -0.316  0.00  0.00     0.024 C 
ATOM     16  C   UNL d   1       0.578  -1.003  -1.546  0.00  0.00     0.009 C 
ATOM     17  C   UNL d   1       0.369   0.520  -1.513  0.00  0.00    -0.013 C 
ATOM     18  C   UNL d   1      -1.138   0.837  -1.506  0.00  0.00     0.024 C 
ENDBRANCH   1   9
BRANCH   4  19
ATOM     19  C   UNL d   1      -7.280   2.331  -0.479  0.00  0.00     0.036 A 
ATOM     20  C   UNL d   1      -7.859   3.042   0.580  0.00  0.00     0.031 A 
ATOM     21  C   UNL d   1      -9.073   3.715   0.402  0.00  0.00     0.026 A 
ATOM     22  C   UNL d   1      -9.696   3.696  -0.843  0.00  0.00     0.034 A 
ATOM     23  C   UNL d   1      -9.143   2.968  -1.894  0.00  0.00     0.026 A 
ATOM     24 CL   UNL d   1     -11.145   4.591  -1.089  0.00  0.00    -0.084 Cl
ATOM     25  C   UNL d   1      -7.952   2.258  -1.702  0.00  0.00     0.031 A 
ENDBRANCH   4  19
TORSDOF 2
