REMARK  4 active torsions:
REMARK  status: ('A' for Active; 'I' for Inactive)
REMARK    1  A    between atoms: C_11  and  N_1 
REMARK    2  A    between atoms: C_6  and  N_2 
REMARK    3  A    between atoms: N_7  and  C_9 
REMARK    4  A    between atoms: C_14  and  C_11 
ROOT
ATOM      1  N   UNL d   1      -0.205  -1.180   0.037  0.00  0.00    -0.258 N 
ATOM      2  N   UNL d   1       1.005   0.761  -0.110  0.00  0.00    -0.227 N 
ATOM      3  C   UNL d   1       1.070  -0.633   0.030  0.00  0.00     0.343 A 
ATOM      4  C   UNL d   1      -1.240  -0.289   0.040  0.00  0.00     0.311 A 
ATOM      5  S   UNL d   1      -0.589   1.343  -0.024  0.00  0.00     0.060 SA
ATOM      6  O   UNL d   1       2.096  -1.283   0.208  0.00  0.00    -0.245 OA
ATOM      7  O   UNL d   1      -2.436  -0.524   0.112  0.00  0.00    -0.258 OA
ENDROOT
BRANCH   2   8
ATOM      8  C   UNL d   1       2.137   1.608  -0.132  0.00  0.00     0.073 A 
ATOM      9  C   UNL d   1       3.223   1.381  -1.003  0.00  0.00     0.064 A 
ATOM     10  C   UNL d   1       4.356   2.202  -0.968  0.00  0.00     0.062 A 
ATOM     11 CL   UNL d   1       3.159   0.210  -2.280  0.00  0.00    -0.082 Cl
ATOM     12  C   UNL d   1       4.412   3.264  -0.061  0.00  0.00     0.104 A 
ATOM     13  C   UNL d   1       3.334   3.528   0.791  0.00  0.00     0.038 A 
ATOM     14  C   UNL d   1       2.199   2.710   0.743  0.00  0.00     0.035 A 
BRANCH  12  15
ATOM     15  N   UNL d   1       5.602   4.119  -0.017  0.00  0.00    -0.116 N 
ATOM     16  O   UNL d   1       6.498   3.905  -0.845  0.00  0.00    -0.532 OA
ATOM     17  O   UNL d   1       5.641   5.007   0.848  0.00  0.00    -0.532 OA
ENDBRANCH  12  15
ENDBRANCH   2   8
BRANCH   1  18
ATOM     18  C   UNL d   1      -0.429  -2.598   0.219  0.00  0.00     0.142 C 
BRANCH  18  19
ATOM     19  C   UNL d   1      -0.618  -3.372  -1.056  0.00  0.00     0.004 A 
ATOM     20  C   UNL d   1       0.362  -3.283  -2.201  0.00  0.00     0.007 A 
ATOM     21  C   UNL d   1      -1.039  -2.761  -2.372  0.00  0.00     0.007 A 
ENDBRANCH  18  19
ENDBRANCH   1  18
TORSDOF 4
