REMARK  4 active torsions:
REMARK  status: ('A' for Active; 'I' for Inactive)
REMARK    1  A    between atoms: N_10  and  C_1 
REMARK    2  A    between atoms: O_7  and  C_6 
REMARK    3  A    between atoms: C_13  and  O_7 
REMARK    4  A    between atoms: C_11  and  C_13 
ROOT
ATOM      1  C   UNL d   1       0.972  -0.013   0.007  0.00  0.00     0.111 A 
ATOM      2  N   UNL d   1       0.318   1.169   0.024  0.00  0.00    -0.355 N 
ATOM      3  HN  UNL d   1       0.827   2.052   0.055  1.00  0.00     0.166 HD
ATOM      4  C   UNL d   1       0.314  -1.249  -0.018  0.00  0.00     0.107 A 
ATOM      5  C   UNL d   1      -1.031   1.143  -0.002  0.00  0.00     0.089 A 
ATOM      6  C   UNL d   1      -1.086  -1.229  -0.042  0.00  0.00     0.041 A 
ATOM      7  C   UNL d   1      -1.774  -0.020  -0.039  0.00  0.00     0.020 A 
ENDROOT
BRANCH   4   8
ATOM      8  O   UNL d   1       0.837  -2.514  -0.027  0.00  0.00    -0.343 OA
BRANCH   8   9
ATOM      9  C   UNL d   1       2.224  -2.665   0.258  0.00  0.00     0.214 C 
BRANCH   9  10
ATOM     10  C   UNL d   1       2.553  -4.136   0.406  0.00  0.00    -0.032 A 
ATOM     11  C   UNL d   1       3.261  -4.594   1.528  0.00  0.00     0.035 A 
ATOM     12  C   UNL d   1       3.631  -5.940   1.640  0.00  0.00     0.056 A 
ATOM     13 CL   UNL d   1       4.511  -6.416   3.049  0.00  0.00    -0.083 Cl
ATOM     14  C   UNL d   1       3.297  -6.842   0.624  0.00  0.00     0.055 A 
ATOM     15  C   UNL d   1       2.589  -6.394  -0.494  0.00  0.00     0.026 A 
ATOM     16 CL   UNL d   1       3.739  -8.510   0.683  0.00  0.00    -0.083 Cl
ATOM     17  C   UNL d   1       2.220  -5.050  -0.604  0.00  0.00     0.011 A 
ENDBRANCH   9  10
ENDBRANCH   8   9
ENDBRANCH   4   8
BRANCH   1  18
ATOM     18  N   UNL d   1       2.358   0.141  -0.039  0.00  0.00    -0.286 NA
ATOM     19  H   UNL d   1       2.510   1.147   0.011  0.00  0.00     0.125 HD
ATOM     20  H   UNL d   1       2.707  -0.204  -0.927  0.00  0.00     0.125 HD
ENDBRANCH   1  18
TORSDOF 4
