REMARK  6 active torsions:
REMARK  status: ('A' for Active; 'I' for Inactive)
REMARK    1  A    between atoms: C_2  and  C_1 
REMARK    2  A    between atoms: S_5  and  C_3 
REMARK    3  A    between atoms: C_4  and  S_5 
REMARK    4  A    between atoms: C_18  and  C_4 
REMARK    5  A    between atoms: C_8  and  C_16 
REMARK    6  A    between atoms: C_16  and  C_9 
ROOT
ATOM      1  C   UNL d   1       0.406   3.945  -1.317  0.00  0.00     0.124 C 
ATOM      2  N   UNL d   1      -1.102   5.768  -0.294  0.00  0.00    -0.191 NA
ATOM      3  N   UNL d   1       1.477   2.177   0.235  0.00  0.00    -0.191 NA
ATOM      4  C   UNL d   1       0.994   2.974  -0.446  0.00  0.00     0.110 C 
ATOM      5  C   UNL d   1      -0.414   4.951  -0.751  0.00  0.00     0.110 C 
ENDROOT
BRANCH   1   6
ATOM      6  C   UNL d   1       0.598   3.830  -2.644  0.00  0.00     0.035 C 
BRANCH   6   7
ATOM      7  C   UNL d   1       0.127   4.705  -3.719  0.00  0.00     0.022 C 
ATOM      8  C   UNL d   1      -0.122   4.275  -4.980  0.00  0.00     0.017 C 
BRANCH   8   9
ATOM      9  S   UNL d   1      -0.322   5.377  -6.305  0.00  0.00    -0.070 SA
BRANCH   9  10
ATOM     10  C   UNL d   1       1.151   6.379  -6.527  0.00  0.00     0.096 A 
ATOM     11  N   UNL d   1       0.914   7.338  -7.474  0.00  0.00    -0.358 N 
ATOM     12  C   UNL d   1       1.876   8.244  -7.793  0.00  0.00     0.105 A 
ATOM     13  HN  UNL d   1       0.010   7.374  -7.944  1.00  0.00     0.166 HD
ATOM     14  C   UNL d   1       3.108   8.300  -7.176  0.00  0.00     0.065 A 
ATOM     15  C   UNL d   1       3.371   7.312  -6.229  0.00  0.00     0.044 A 
ATOM     16  C   UNL d   1       2.416   6.317  -5.928  0.00  0.00     0.068 A 
ATOM     17 CL   UNL d   1       2.991   5.069  -4.891  0.00  0.00    -0.081 Cl
BRANCH  14  18
ATOM     18  C   UNL d   1       4.096   9.367  -7.549  0.00  0.00     0.418 C 
ATOM     19  F   UNL d   1       5.231   9.335  -6.793  0.00  0.00    -0.166 F 
ATOM     20  F   UNL d   1       3.591  10.619  -7.407  0.00  0.00    -0.166 F 
ATOM     21  F   UNL d   1       4.506   9.270  -8.841  0.00  0.00    -0.166 F 
ENDBRANCH  14  18
ENDBRANCH   9  10
ENDBRANCH   8   9
BRANCH   8  22
ATOM     22  C   UNL d   1      -0.404   2.826  -5.267  0.00  0.00    -0.019 C 
ATOM     23  C   UNL d   1      -1.115   2.050  -4.321  0.00  0.00     0.014 C 
ATOM     24  C   UNL d   1      -1.216   0.661  -4.433  0.00  0.00     0.024 C 
ATOM     25  C   UNL d   1      -0.700   0.030  -5.555  0.00  0.00     0.034 C 
ATOM     26  C   UNL d   1      -0.130   0.785  -6.577  0.00  0.00     0.024 C 
ATOM     27 CL   UNL d   1      -0.754  -1.684  -5.669  0.00  0.00    -0.084 Cl
ATOM     28  C   UNL d   1       0.023   2.173  -6.432  0.00  0.00     0.014 C 
ENDBRANCH   8  22
ENDBRANCH   6   7
ENDBRANCH   1   6
TORSDOF 6
