REMARK  10 active torsions:
REMARK  status: ('A' for Active; 'I' for Inactive)
REMARK    1  A    between atoms: N_3  and  C_1 
REMARK    2  A    between atoms: N_4  and  C_2 
REMARK    3  A    between atoms: C_5  and  C_14 
REMARK    4  A    between atoms: C_6  and  C_13 
REMARK    5  A    between atoms: O_17  and  C_9 
REMARK    6  A    between atoms: C_10  and  O_18 
REMARK    7  A    between atoms: C_16  and  N_11 
REMARK    8  A    between atoms: N_12  and  C_15 
REMARK    9  A    between atoms: C_30  and  O_17 
REMARK   10  A    between atoms: O_18  and  C_29 
ROOT
ATOM      1  N   UNL d   1       4.896  -2.385  -4.226  0.00  0.00    -0.378 N 
ATOM      2  N   UNL d   1       5.292  -0.046  -2.595  0.00  0.00    -0.378 N 
ATOM      3  C   UNL d   1       5.950  -1.304  -2.196  0.00  0.00     0.143 C 
ATOM      4  C   UNL d   1       5.124   0.077  -4.057  0.00  0.00     0.143 C 
ATOM      5  C   UNL d   1       5.175  -2.524  -2.777  0.00  0.00     0.143 C 
ATOM      6  C   UNL d   1       4.278  -1.096  -4.599  0.00  0.00     0.143 C 
ENDROOT
BRANCH   1   7
ATOM      7  C   UNL d   1       5.256  -3.316  -5.183  0.00  0.00     0.032 A 
ATOM      8  C   UNL d   1       4.551  -3.449  -6.396  0.00  0.00     0.066 A 
ATOM      9  C   UNL d   1       4.938  -4.361  -7.389  0.00  0.00     0.078 A 
ATOM     10  C   UNL d   1       6.083  -5.134  -7.211  0.00  0.00     0.037 A 
ATOM     11  C   UNL d   1       6.765  -5.068  -6.003  0.00  0.00     0.005 A 
ATOM     12  C   UNL d   1       6.350  -4.176  -5.007  0.00  0.00     0.029 A 
BRANCH   9  13
ATOM     13  O   UNL d   1       4.156  -4.418  -8.527  0.00  0.00    -0.308 OA
BRANCH  13  14
ATOM     14  C   UNL d   1       4.010  -5.631  -9.171  0.00  0.00     0.109 A 
ATOM     15  C   UNL d   1       4.027  -5.724 -10.568  0.00  0.00     0.137 A 
ATOM     16  C   UNL d   1       3.840  -6.975 -11.197  0.00  0.00     0.055 A 
ATOM     17  C   UNL d   1       3.631  -8.137 -10.440  0.00  0.00     0.050 A 
ATOM     18  C   UNL d   1       3.610  -8.035  -9.044  0.00  0.00     0.019 A 
ATOM     19  C   UNL d   1       3.765  -6.795  -8.420  0.00  0.00     0.040 A 
BRANCH  15  20
ATOM     20  N   UNL d   1       4.245  -4.550 -11.430  0.00  0.00    -0.113 N 
ATOM     21  O   UNL d   1       4.089  -4.707 -12.648  0.00  0.00    -0.532 OA
ATOM     22  O   UNL d   1       4.585  -3.478 -10.914  0.00  0.00    -0.532 OA
ENDBRANCH  15  20
BRANCH  17  23
ATOM     23  C   UNL d   1       3.413  -9.480 -11.100  0.00  0.00     0.417 C 
ATOM     24  F   UNL d   1       3.350  -9.413 -12.457  0.00  0.00    -0.166 F 
ATOM     25  F   UNL d   1       4.405 -10.366 -10.811  0.00  0.00    -0.166 F 
ATOM     26  F   UNL d   1       2.254 -10.068 -10.698  0.00  0.00    -0.166 F 
ENDBRANCH  17  23
ENDBRANCH  13  14
ENDBRANCH   9  13
ENDBRANCH   1   7
BRANCH   2  27
ATOM     27  C   UNL d   1       4.935   0.970  -1.732  0.00  0.00     0.032 A 
ATOM     28  C   UNL d   1       5.584   1.208  -0.509  0.00  0.00     0.066 A 
ATOM     29  C   UNL d   1       5.207   2.277   0.324  0.00  0.00     0.078 A 
ATOM     30  C   UNL d   1       4.204   3.162  -0.076  0.00  0.00     0.037 A 
ATOM     31  C   UNL d   1       3.508   2.915  -1.246  0.00  0.00     0.005 A 
ATOM     32  C   UNL d   1       3.868   1.831  -2.049  0.00  0.00     0.029 A 
BRANCH  29  33
ATOM     33  O   UNL d   1       5.883   2.423   1.521  0.00  0.00    -0.308 OA
BRANCH  33  34
ATOM     34  C   UNL d   1       5.164   2.870   2.611  0.00  0.00     0.109 A 
ATOM     35  C   UNL d   1       5.721   3.805   3.489  0.00  0.00     0.137 A 
ATOM     36  C   UNL d   1       5.025   4.253   4.626  0.00  0.00     0.055 A 
ATOM     37  C   UNL d   1       3.731   3.774   4.884  0.00  0.00     0.050 A 
ATOM     38  C   UNL d   1       3.170   2.834   4.004  0.00  0.00     0.019 A 
ATOM     39  C   UNL d   1       3.890   2.364   2.902  0.00  0.00     0.040 A 
BRANCH  35  40
ATOM     40  N   UNL d   1       7.027   4.375   3.217  0.00  0.00    -0.113 N 
ATOM     41  O   UNL d   1       7.857   4.336   4.137  0.00  0.00    -0.532 OA
ATOM     42  O   UNL d   1       7.199   4.914   2.116  0.00  0.00    -0.532 OA
ENDBRANCH  35  40
BRANCH  37  43
ATOM     43  C   UNL d   1       2.931   4.244   6.077  0.00  0.00     0.417 C 
ATOM     44  F   UNL d   1       3.615   5.091   6.890  0.00  0.00    -0.166 F 
ATOM     45  F   UNL d   1       1.799   4.907   5.708  0.00  0.00    -0.166 F 
ATOM     46  F   UNL d   1       2.521   3.212   6.863  0.00  0.00    -0.166 F 
ENDBRANCH  37  43
ENDBRANCH  33  34
ENDBRANCH  29  33
ENDBRANCH   2  27
TORSDOF 10
