REMARK  5 active torsions:
REMARK  status: ('A' for Active; 'I' for Inactive)
REMARK    1  A    between atoms: C_2  and  C_1 
REMARK    2  A    between atoms: O_4  and  C_1 
REMARK    3  A    between atoms: N_5  and  O_4 
REMARK    4  A    between atoms: C_7  and  C_12 
REMARK    5  A    between atoms: C_14  and  C_8 
ROOT
ATOM      1  N   UNL d   1      -0.988   1.177  -0.465  0.00  0.00    -0.262 N 
ATOM      2  HN  UNL d   1       0.031   1.150  -0.500  1.00  0.00     0.194 HD
ATOM      3  C   UNL d   1      -1.700   2.187  -0.869  0.00  0.00     0.029 C 
ATOM      4  C   UNL d   1      -3.211   2.200  -0.847  0.00  0.00     0.070 C 
ENDROOT
BRANCH   1   5
ATOM      5  O   UNL d   1      -1.787   0.120   0.029  0.00  0.00    -0.194 OA
BRANCH   5   6
ATOM      6  C   UNL d   1      -0.986  -0.943   0.399  0.00  0.00     0.322 C 
ATOM      7  O   UNL d   1       0.231  -0.997   0.248  0.00  0.00    -0.257 OA
BRANCH   6   8
ATOM      8  C   UNL d   1      -1.763  -2.019   1.001  0.00  0.00     0.082 A 
ATOM      9  S   UNL d   1      -3.447  -1.920   1.300  0.00  0.00    -0.096 SA
ATOM     10  C   UNL d   1      -3.493  -3.485   1.992  0.00  0.00     0.050 A 
ATOM     11  C   UNL d   1      -2.254  -4.083   1.993  0.00  0.00     0.009 A 
ATOM     12  C   UNL d   1      -1.259  -3.240   1.422  0.00  0.00     0.026 A 
ENDBRANCH   6   8
ENDBRANCH   5   6
ENDBRANCH   1   5
BRANCH   3  13
ATOM     13  C   UNL d   1      -1.041   3.420  -1.395  0.00  0.00     0.027 C 
ATOM     14  C   UNL d   1       0.168   3.795  -0.951  0.00  0.00     0.013 C 
BRANCH  14  15
ATOM     15  C   UNL d   1       0.838   5.051  -1.329  0.00  0.00    -0.036 A 
ATOM     16  C   UNL d   1       0.121   6.222  -1.616  0.00  0.00     0.011 A 
ATOM     17  C   UNL d   1       0.788   7.416  -1.905  0.00  0.00     0.001 A 
ATOM     18  C   UNL d   1       2.180   7.457  -1.900  0.00  0.00     0.000 A 
ATOM     19  C   UNL d   1       2.905   6.305  -1.605  0.00  0.00     0.001 A 
ATOM     20  C   UNL d   1       2.238   5.110  -1.317  0.00  0.00     0.011 A 
ENDBRANCH  14  15
ENDBRANCH   3  13
TORSDOF 5
