REMARK  4 active torsions:
REMARK  status: ('A' for Active; 'I' for Inactive)
REMARK    1  A    between atoms: C_2  and  C_1 
REMARK    2  A    between atoms: S_6  and  C_2 
REMARK    3  A    between atoms: C_5  and  C_9 
REMARK    4  A    between atoms: C_13  and  S_6 
ROOT
ATOM      1  C   UNL d   1      -5.739   2.290  -1.265  0.00  0.00     0.063 A 
ATOM      2  N   UNL d   1      -3.817   1.424  -0.089  0.00  0.00    -0.359 N 
ATOM      3  HN  UNL d   1      -3.367   0.657   0.412  1.00  0.00     0.166 HD
ATOM      4  C   UNL d   1      -3.178   2.599  -0.276  0.00  0.00     0.077 A 
ATOM      5  C   UNL d   1      -5.068   1.290  -0.584  0.00  0.00     0.105 A 
ATOM      6  C   UNL d   1      -5.056   3.494  -1.466  0.00  0.00     0.020 A 
ATOM      7  C   UNL d   1      -3.760   3.654  -0.964  0.00  0.00     0.038 A 
ENDROOT
BRANCH   4   8
ATOM      8  S   UNL d   1      -1.624   2.771   0.554  0.00  0.00    -0.029 SA
BRANCH   8   9
ATOM      9  C   UNL d   1      -0.567   1.984  -0.601  0.00  0.00     0.229 C 
ATOM     10  O   UNL d   1      -0.276   2.519  -1.663  0.00  0.00    -0.279 OA
BRANCH   9  11
ATOM     11  C   UNL d   1       0.063   0.777  -0.116  0.00  0.00     0.077 A 
ATOM     12  C   UNL d   1       1.425   0.561  -0.038  0.00  0.00     0.089 A 
ATOM     13  O   UNL d   1       1.662  -0.680   0.457  0.00  0.00    -0.242 OA
ATOM     14  C   UNL d   1       2.625   1.370  -0.327  0.00  0.00     0.080 C 
ATOM     15  N   UNL d   1       0.467  -1.321   0.691  0.00  0.00    -0.265 N 
ATOM     16  C   UNL d   1      -0.490  -0.456   0.335  0.00  0.00     0.046 A 
ATOM     17  HN  UNL d   1       0.337  -2.263   1.060  1.00  0.00     0.194 HD
ATOM     18  C   UNL d   1      -1.905  -0.887   0.409  0.00  0.00     0.071 C 
ENDBRANCH   9  11
ENDBRANCH   8   9
ENDBRANCH   4   8
BRANCH   1  19
ATOM     19  C   UNL d   1      -7.150   2.081  -1.722  0.00  0.00     0.418 C 
ATOM     20  F   UNL d   1      -7.613   0.821  -1.495  0.00  0.00    -0.166 F 
ATOM     21  F   UNL d   1      -8.024   2.915  -1.095  0.00  0.00    -0.166 F 
ATOM     22  F   UNL d   1      -7.309   2.303  -3.055  0.00  0.00    -0.166 F 
ENDBRANCH   1  19
TORSDOF 4
