REMARK  7 active torsions:
REMARK  status: ('A' for Active; 'I' for Inactive)
REMARK    1  A    between atoms: S_11  and  C_4 
REMARK    2  A    between atoms: C_15  and  C_7 
REMARK    3  A    between atoms: C_10  and  O_19 
REMARK    4  A    between atoms: S_17  and  C_15 
REMARK    5  A    between atoms: C_20  and  S_17 
REMARK    6  A    between atoms: O_19  and  C_21 
REMARK    7  A    between atoms: C_21  and  C_20 
ROOT
ATOM      1  S   UNL d   1       4.507  -0.226  -0.311  0.00  0.00    -0.159 SA
ENDROOT
BRANCH   1   2
ATOM      2  C   UNL d   1       3.195  -1.487  -0.322  0.00  0.00     0.160 C 
BRANCH   2   3
ATOM      3  C   UNL d   1       3.323  -2.446  -1.440  0.00  0.00     0.150 A 
ATOM      4  N   UNL d   1       3.823  -3.665  -1.438  0.00  0.00    -0.280 N 
ATOM      5  N   UNL d   1       3.704  -4.131  -2.729  0.00  0.00    -0.272 N 
ATOM      6  HN  UNL d   1       4.218  -4.163  -0.640  1.00  0.00     0.189 HD
ATOM      7  C   UNL d   1       3.139  -3.170  -3.429  0.00  0.00     0.200 A 
ATOM      8  HN  UNL d   1       3.996  -5.045  -3.075  1.00  0.00     0.189 HD
ATOM      9  O   UNL d   1       2.861  -2.064  -2.671  0.00  0.00    -0.272 OA
BRANCH   7  10
ATOM     10  S   UNL d   1       2.779  -3.290  -5.117  0.00  0.00    -0.098 SA
ATOM     11  H   UNL d   1       3.259  -4.531  -5.275  0.00  0.00     0.110 HD
ENDBRANCH   7  10
ENDBRANCH   2   3
ENDBRANCH   1   2
BRANCH   1  12
ATOM     12  C   UNL d   1       5.979  -1.275  -0.006  0.00  0.00     0.101 C 
BRANCH  12  13
ATOM     13  C   UNL d   1       7.216  -0.380  -0.091  0.00  0.00     0.186 C 
BRANCH  13  14
ATOM     14  O   UNL d   1       8.408  -1.157   0.078  0.00  0.00    -0.349 OA
BRANCH  14  15
ATOM     15  C   UNL d   1       9.578  -0.432   0.036  0.00  0.00     0.090 A 
ATOM     16  C   UNL d   1      10.657  -0.864   0.823  0.00  0.00     0.069 A 
ATOM     17  C   UNL d   1      11.872  -0.171   0.811  0.00  0.00     0.050 A 
ATOM     18 CL   UNL d   1      10.522  -2.247   1.853  0.00  0.00    -0.081 Cl
ATOM     19  C   UNL d   1      12.020   0.949  -0.000  0.00  0.00     0.035 A 
ATOM     20  C   UNL d   1      10.971   1.375  -0.806  0.00  0.00     0.026 A 
ATOM     21 CL   UNL d   1      13.509   1.811  -0.016  0.00  0.00    -0.084 Cl
ATOM     22  C   UNL d   1       9.757   0.683  -0.794  0.00  0.00     0.040 A 
ENDBRANCH  14  15
ENDBRANCH  13  14
ENDBRANCH  12  13
ENDBRANCH   1  12
TORSDOF 7
