REMARK  6 active torsions:
REMARK  status: ('A' for Active; 'I' for Inactive)
REMARK    1  A    between atoms: O_2  and  C_1 
REMARK    2  A    between atoms: C_5  and  O_2 
REMARK    3  A    between atoms: C_6  and  C_5 
REMARK    4  A    between atoms: O_10  and  C_6 
REMARK    5  A    between atoms: C_14  and  C_6 
REMARK    6  A    between atoms: N_9  and  C_14 
ROOT
ATOM      1  O   UNL d   1      -0.114   2.003   0.120  0.00  0.00    -0.345 OA
ENDROOT
BRANCH   1   2
ATOM      2  C   UNL d   1      -0.060   0.796  -0.532  0.00  0.00     0.112 A 
ATOM      3  C   UNL d   1       1.203   0.438  -1.047  0.00  0.00     0.069 A 
ATOM      4 CL   UNL d   1       2.570   1.490  -0.890  0.00  0.00    -0.081 Cl
ATOM      5  C   UNL d   1       1.403  -0.780  -1.705  0.00  0.00     0.027 A 
ATOM      6  C   UNL d   1       0.346  -1.671  -1.853  0.00  0.00     0.003 A 
ATOM      7  C   UNL d   1      -0.902  -1.349  -1.325  0.00  0.00     0.027 A 
ATOM      8  C   UNL d   1      -1.106  -0.133  -0.653  0.00  0.00     0.069 A 
ATOM      9 CL   UNL d   1      -2.668   0.073   0.061  0.00  0.00    -0.081 Cl
ENDBRANCH   1   2
BRANCH   1  10
ATOM     10  C   UNL d   1      -1.276   2.817  -0.090  0.00  0.00     0.209 C 
BRANCH  10  11
ATOM     11  C   UNL d   1      -0.861   4.296  -0.111  0.00  0.00     0.170 C 
BRANCH  11  12
ATOM     12  O   UNL d   1      -0.144   4.618   1.093  0.00  0.00    -0.392 OA
ATOM     13  H   UNL d   1       0.530   3.920   1.200  0.00  0.00     0.210 HD
ENDBRANCH  11  12
BRANCH  11  14
ATOM     14  C   UNL d   1       0.022   4.629  -1.327  0.00  0.00     0.300 C 
BRANCH  14  15
ATOM     15  N   UNL d   1       0.294   6.068  -1.395  0.00  0.00     0.080 N 
ATOM     16  H   UNL d   1       1.093   6.235  -2.005  0.00  0.00     0.312 HD
ATOM     17  H   UNL d   1       0.573   6.378  -0.460  0.00  0.00     0.312 HD
ENDBRANCH  14  15
ENDBRANCH  11  14
ENDBRANCH  10  11
ENDBRANCH   1  10
TORSDOF 6
