REMARK  3 active torsions:
REMARK  status: ('A' for Active; 'I' for Inactive)
REMARK    1  A    between atoms: C_2  and  N_1 
REMARK    2  A    between atoms: C_14  and  C_8 
REMARK    3  A    between atoms: O_11  and  C_14 
ROOT
ATOM      1  C   UNL d   1      -2.607   0.013  -0.897  0.00  0.00     0.030 A 
ATOM      2  C   UNL d   1      -2.616   0.683  -2.124  0.00  0.00     0.030 A 
ATOM      3  C   UNL d   1      -3.771  -0.691  -0.552  0.00  0.00     0.030 A 
ATOM      4  C   UNL d   1      -4.899  -0.711  -1.381  0.00  0.00     0.011 A 
ATOM      5  C   UNL d   1      -3.737   0.658  -2.969  0.00  0.00     0.011 A 
ATOM      6  C   UNL d   1      -4.901  -0.021  -2.596  0.00  0.00    -0.035 A 
ENDROOT
BRANCH   1   7
ATOM      7  N   UNL d   1      -1.538   0.050  -0.022  0.00  0.00    -0.377 N 
ATOM      8  C   UNL d   1      -0.615   1.191   0.055  0.00  0.00     0.149 C 
ATOM      9  C   UNL d   1       0.771   0.818  -0.490  0.00  0.00     0.187 C 
ATOM     10  O   UNL d   1       1.291  -0.362   0.147  0.00  0.00    -0.388 OA
ATOM     11  C   UNL d   1       0.405  -1.473  -0.072  0.00  0.00     0.187 C 
ATOM     12  C   UNL d   1      -0.994  -1.210   0.512  0.00  0.00     0.149 C 
ENDBRANCH   1   7
BRANCH   6  13
ATOM     13  C   UNL d   1      -6.117  -0.070  -3.484  0.00  0.00     0.202 C 
BRANCH  13  14
ATOM     14  O   UNL d   1      -6.218   1.099  -4.287  0.00  0.00    -0.396 OA
ATOM     15  H   UNL d   1      -7.069   1.043  -4.751  0.00  0.00     0.209 HD
ENDBRANCH  13  14
ENDBRANCH   6  13
TORSDOF 3
