REMARK  2 active torsions:
REMARK  status: ('A' for Active; 'I' for Inactive)
REMARK    1  A    between atoms: C_12  and  C_10 
REMARK    2  A    between atoms: C_15  and  C_14 
ROOT
ATOM      1  C   UNL d   1      -0.359  -0.631  -0.001  0.00  0.00     0.139 A 
ATOM      2  C   UNL d   1      -0.507   0.773  -0.013  0.00  0.00     0.058 A 
ATOM      3  C   UNL d   1       0.937  -1.281  -0.016  0.00  0.00     0.291 A 
ATOM      4  N   UNL d   1      -1.536  -1.254   0.025  0.00  0.00    -0.254 N 
ATOM      5  HN  UNL d   1      -1.705  -2.259   0.038  1.00  0.00     0.195 HD
ATOM      6  N   UNL d   1       1.857   1.022  -0.058  0.00  0.00    -0.300 N 
ATOM      7  HN  UNL d   1       2.692   1.606  -0.079  1.00  0.00     0.187 HD
ATOM      8  N   UNL d   1       1.999  -0.362  -0.045  0.00  0.00    -0.260 N 
ATOM      9  C   UNL d   1       0.682   1.595  -0.043  0.00  0.00     0.037 A 
ATOM     10  C   UNL d   1      -1.883   1.004   0.008  0.00  0.00     0.113 A 
ATOM     11  O   UNL d   1      -2.476  -0.248   0.029  0.00  0.00    -0.236 OA
ATOM     12  O   UNL d   1       1.095  -2.501  -0.005  0.00  0.00    -0.264 OA
ATOM     13  C   UNL d   1       3.359  -0.868  -0.062  0.00  0.00     0.181 C 
ATOM     14  C   UNL d   1       0.697   3.097  -0.060  0.00  0.00     0.070 C 
ENDROOT
BRANCH  10  15
ATOM     15  C   UNL d   1      -2.666   2.199   0.009  0.00  0.00     0.041 C 
ATOM     16  C   UNL d   1      -4.012   2.180   0.017  0.00  0.00     0.014 C 
BRANCH  16  17
ATOM     17  C   UNL d   1      -4.849   3.400   0.018  0.00  0.00    -0.036 A 
ATOM     18  C   UNL d   1      -4.440   4.594  -0.592  0.00  0.00     0.012 A 
ATOM     19  C   UNL d   1      -5.255   5.732  -0.573  0.00  0.00     0.007 A 
ATOM     20  C   UNL d   1      -6.509   5.698   0.044  0.00  0.00    -0.062 A 
ATOM     21  C   UNL d   1      -6.940   4.502   0.625  0.00  0.00     0.007 A 
ATOM     22  C   UNL d   1      -7.365   6.932   0.069  0.00  0.00     0.048 C 
ATOM     23  C   UNL d   1      -6.121   3.364   0.607  0.00  0.00     0.012 A 
ENDBRANCH  16  17
ENDBRANCH  10  15
TORSDOF 2
