REMARK  4 active torsions:
REMARK  status: ('A' for Active; 'I' for Inactive)
REMARK    1  A    between atoms: N_4  and  S_1 
REMARK    2  A    between atoms: C_2  and  C_3 
REMARK       I    between atoms: C_3  and  N_7 
REMARK    3  A    between atoms: C_6  and  N_4 
REMARK    4  A    between atoms: N_7  and  C_13 
ROOT
ATOM      1  C   UNL d   1       1.088  -0.476   2.731  0.00  0.00     0.030 A 
ATOM      2  C   UNL d   1      -0.025  -0.711   3.558  0.00  0.00     0.054 A 
ATOM      3  C   UNL d   1       0.037  -1.666   4.577  0.00  0.00     0.036 A 
ATOM      4  C   UNL d   1       2.286  -1.172   2.935  0.00  0.00    -0.040 A 
ATOM      5  C   UNL d   1       2.334  -2.141   3.947  0.00  0.00     0.011 A 
ATOM      6  C   UNL d   1       1.224  -2.384   4.756  0.00  0.00     0.030 A 
ATOM      7  C   UNL d   1       3.531  -0.927   2.133  0.00  0.00     0.050 C 
ENDROOT
BRANCH   3   8
ATOM      8  N   UNL d   1      -1.028  -1.996   5.444  0.00  0.00    -0.323 N 
ATOM      9  C   UNL d   1      -2.290  -1.431   5.497  0.00  0.00     0.259 C 
ATOM     10  O   UNL d   1      -2.659  -0.454   4.859  0.00  0.00    -0.267 OA
ATOM     11  H   UNL d   1      -0.842  -2.759   6.084  0.00  0.00     0.169 HD
BRANCH   9  12
ATOM     12  C   UNL d   1      -3.280  -2.106   6.397  0.00  0.00     0.071 A 
ATOM     13  C   UNL d   1      -2.955  -3.186   7.231  0.00  0.00     0.135 A 
ATOM     14  C   UNL d   1      -3.930  -3.852   7.971  0.00  0.00     0.085 A 
ATOM     15  F   UNL d   1      -1.690  -3.620   7.331  0.00  0.00    -0.205 F 
ATOM     16  C   UNL d   1      -5.248  -3.427   7.890  0.00  0.00     0.119 A 
ATOM     17  C   UNL d   1      -5.599  -2.334   7.107  0.00  0.00     0.043 A 
ATOM     18  F   UNL d   1      -6.196  -4.085   8.570  0.00  0.00    -0.206 F 
ATOM     19  C   UNL d   1      -4.617  -1.672   6.364  0.00  0.00     0.023 A 
ENDBRANCH   9  12
ENDBRANCH   3   8
BRANCH   1  20
ATOM     20  N   UNL d   1       0.984   0.495   1.679  0.00  0.00    -0.185 NA
ATOM     21  H   UNL d   1       0.530   1.363   1.976  0.00  0.00     0.146 HD
BRANCH  20  22
ATOM     22  S   UNL d   1       0.261   0.029   0.220  0.00  0.00     0.210 S 
ATOM     23  O   UNL d   1      -0.422   1.220  -0.248  0.00  0.00    -0.211 OA
ATOM     24  O   UNL d   1      -0.438  -1.225   0.368  0.00  0.00    -0.211 OA
ATOM     25  C   UNL d   1       1.667  -0.217  -0.848  0.00  0.00     0.180 C 
ENDBRANCH  20  22
ENDBRANCH   1  20
TORSDOF 4
