REMARK  1 active torsions:
REMARK  status: ('A' for Active; 'I' for Inactive)
REMARK    1  A    between atoms: C_8  and  C_2 
ROOT
ATOM      1  C   UNL d   1      -0.431   1.129   0.207  0.00  0.00     0.094 C 
ATOM      2  C   UNL d   1      -0.739   2.403   0.542  0.00  0.00     0.123 C 
ATOM      3  N   UNL d   1       0.887   0.716   0.098  0.00  0.00    -0.356 N 
ATOM      4  HN  UNL d   1       1.696   1.337   0.107  1.00  0.00     0.166 HD
ATOM      5  S   UNL d   1      -1.615  -0.132  -0.105  0.00  0.00    -0.105 SA
ATOM      6  C   UNL d   1       0.320   3.334   0.767  0.00  0.00     0.106 C 
ATOM      7  N   UNL d   1       1.138   4.134   0.958  0.00  0.00    -0.191 NA
ATOM      8  C   UNL d   1       0.943  -0.579  -0.018  0.00  0.00    -0.007 C 
ATOM      9  C   UNL d   1      -0.327  -1.391   0.030  0.00  0.00     0.133 C 
ATOM     10  C   UNL d   1       2.255  -1.292  -0.154  0.00  0.00     0.064 C 
ENDROOT
BRANCH   2  11
ATOM     11  C   UNL d   1      -2.139   2.910   0.735  0.00  0.00     0.169 C 
ATOM     12  O   UNL d   1      -3.068   2.171   1.061  0.00  0.00    -0.292 OA
ATOM     13  C   UNL d   1      -2.426   4.386   0.565  0.00  0.00     0.097 C 
ENDBRANCH   2  11
TORSDOF 1
