REMARK  4 active torsions:
REMARK  status: ('A' for Active; 'I' for Inactive)
REMARK    1  A    between atoms: C_8  and  C_1 
REMARK    2  A    between atoms: S_6  and  C_3 
REMARK    3  A    between atoms: C_7  and  S_6 
REMARK    4  A    between atoms: C_12  and  C_11 
ROOT
ATOM      1  C   UNL d   1       0.170  -6.220   1.255  0.00  0.00     0.207 A 
ATOM      2  N   UNL d   1      -0.232  -4.935   1.515  0.00  0.00    -0.317 N 
ATOM      3  C   UNL d   1      -0.438  -4.356   0.304  0.00  0.00     0.167 A 
ATOM      4  N   UNL d   1       0.148  -6.411  -0.053  0.00  0.00    -0.280 N 
ATOM      5  HN  UNL d   1       0.371  -7.282  -0.535  1.00  0.00     0.188 HD
ATOM      6  N   UNL d   1      -0.231  -5.226  -0.652  0.00  0.00    -0.278 N 
ATOM      7  HN  UNL d   1      -0.332  -5.060  -1.654  1.00  0.00     0.189 HD
ATOM      8  H   UNL d   1      -0.331  -4.490   2.418  0.00  0.00     0.169 HD
ENDROOT
BRANCH   3   9
ATOM      9  S   UNL d   1      -0.810  -2.685   0.171  0.00  0.00    -0.034 SA
BRANCH   9  10
ATOM     10  C   UNL d   1      -2.575  -2.833  -0.013  0.00  0.00     0.092 A 
ATOM     11  C   UNL d   1      -3.286  -2.383  -1.122  0.00  0.00     0.081 A 
ATOM     12  C   UNL d   1      -4.691  -2.500  -1.081  0.00  0.00     0.020 A 
ATOM     13  C   UNL d   1      -5.325  -3.048   0.026  0.00  0.00     0.018 A 
ATOM     14  C   UNL d   1      -4.536  -3.468   1.075  0.00  0.00     0.089 A 
ATOM     15  N   UNL d   1      -3.190  -3.367   1.082  0.00  0.00    -0.360 N 
ATOM     16  HN  UNL d   1      -2.646  -3.682   1.886  1.00  0.00     0.166 HD
BRANCH  11  17
ATOM     17  C   UNL d   1      -2.677  -1.764  -2.346  0.00  0.00     0.420 C 
ATOM     18  F   UNL d   1      -1.323  -1.720  -2.406  0.00  0.00    -0.166 F 
ATOM     19  F   UNL d   1      -3.071  -2.404  -3.486  0.00  0.00    -0.166 F 
ATOM     20  F   UNL d   1      -3.088  -0.471  -2.506  0.00  0.00    -0.166 F 
ENDBRANCH  11  17
ENDBRANCH   9  10
ENDBRANCH   3   9
BRANCH   1  21
ATOM     21  C   UNL d   1       0.570  -7.152   2.332  0.00  0.00     0.450 C 
ATOM     22  F   UNL d   1       0.373  -6.592   3.559  0.00  0.00    -0.163 F 
ATOM     23  F   UNL d   1      -0.134  -8.310   2.320  0.00  0.00    -0.163 F 
ATOM     24  F   UNL d   1       1.887  -7.477   2.272  0.00  0.00    -0.163 F 
ENDBRANCH   1  21
TORSDOF 4
