REMARK  8 active torsions:
REMARK  status: ('A' for Active; 'I' for Inactive)
REMARK    1  A    between atoms: C_6  and  S_1 
REMARK    2  A    between atoms: N_12  and  S_1 
REMARK    3  A    between atoms: S_21  and  C_8 
REMARK    4  A    between atoms: C_13  and  N_12 
REMARK    5  A    between atoms: C_16  and  C_13 
REMARK    6  A    between atoms: C_19  and  C_13 
REMARK    7  A    between atoms: O_23  and  C_16 
REMARK    8  A    between atoms: C_24  and  C_19 
ROOT
ATOM      1  C   UNL d   1      -1.205  -4.262  -3.149  0.00  0.00     0.141 A 
ATOM      2  N   UNL d   1      -1.656  -3.940  -4.410  0.00  0.00    -0.315 N 
ATOM      3  N   UNL d   1      -1.639  -5.470  -2.842  0.00  0.00    -0.282 N 
ATOM      4  HN  UNL d   1      -1.399  -5.996  -2.001  1.00  0.00     0.188 HD
ATOM      5  C   UNL d   1       0.554  -1.645  -0.886  0.00  0.00     0.116 A 
ATOM      6  C   UNL d   1      -0.407  -3.462  -2.264  0.00  0.00     0.052 A 
ATOM      7  C   UNL d   1      -2.496  -4.959  -4.768  0.00  0.00     0.162 A 
ATOM      8  N   UNL d   1      -2.472  -5.898  -3.852  0.00  0.00    -0.278 N 
ATOM      9  HN  UNL d   1      -2.978  -6.783  -3.882  1.00  0.00     0.189 HD
ATOM     10  S   UNL d   1      -0.647  -1.778  -2.084  0.00  0.00    -0.073 SA
ATOM     11  C   UNL d   1       1.135  -2.870  -0.614  0.00  0.00     0.034 A 
ATOM     12  C   UNL d   1       0.564  -3.920  -1.393  0.00  0.00     0.025 A 
ATOM     13  C   UNL d   1      -1.286  -2.813  -5.227  0.00  0.00     0.160 C 
ENDROOT
BRANCH   5  14
ATOM     14  S   UNL d   1       0.844  -0.036  -0.211  0.00  0.00     0.248 S 
ATOM     15  O   UNL d   1      -0.061   0.904  -0.835  0.00  0.00    -0.205 OA
ATOM     16  O   UNL d   1       2.278   0.133  -0.285  0.00  0.00    -0.205 OA
BRANCH  14  17
ATOM     17  N   UNL d   1       0.490  -0.094   1.440  0.00  0.00    -0.201 NA
ATOM     18  H   UNL d   1       1.217   0.419   1.941  0.00  0.00     0.141 HD
BRANCH  17  19
ATOM     19  C   UNL d   1      -0.906   0.234   1.835  0.00  0.00     0.171 C 
BRANCH  19  20
ATOM     20  C   UNL d   1      -1.922  -0.733   1.227  0.00  0.00     0.277 C 
ATOM     21  O   UNL d   1      -1.881  -1.948   1.362  0.00  0.00    -0.263 OA
BRANCH  20  22
ATOM     22  O   UNL d   1      -2.857  -0.051   0.510  0.00  0.00    -0.325 OA
ATOM     23  C   UNL d   1      -3.818  -0.836  -0.205  0.00  0.00     0.213 C 
ENDBRANCH  20  22
ENDBRANCH  19  20
BRANCH  19  24
ATOM     24  C   UNL d   1      -1.027   0.173   3.369  0.00  0.00     0.034 C 
BRANCH  24  25
ATOM     25  C   UNL d   1      -0.146   1.182   4.141  0.00  0.00    -0.021 C 
ATOM     26  C   UNL d   1      -0.441   2.634   3.763  0.00  0.00     0.009 C 
ATOM     27  C   UNL d   1      -0.331   0.992   5.649  0.00  0.00     0.009 C 
ENDBRANCH  24  25
ENDBRANCH  19  24
ENDBRANCH  17  19
ENDBRANCH  14  17
ENDBRANCH   5  14
BRANCH   7  28
ATOM     28  S   UNL d   1      -3.441  -4.949  -6.216  0.00  0.00    -0.097 SA
ATOM     29  C   UNL d   1      -4.381  -6.479  -6.024  0.00  0.00     0.099 C 
ENDBRANCH   7  28
TORSDOF 8
