REMARK  6 active torsions:
REMARK  status: ('A' for Active; 'I' for Inactive)
REMARK    1  A    between atoms: C_2  and  C_1 
REMARK    2  A    between atoms: C_4  and  C_1 
REMARK    3  A    between atoms: C_7  and  C_2 
REMARK    4  A    between atoms: C_3  and  C_6 
REMARK    5  A    between atoms: O_18  and  C_4 
REMARK    6  A    between atoms: N_17  and  C_5 
ROOT
ATOM      1  C   UNL d   1       0.067   0.602   1.129  0.00  0.00     0.200 C 
ATOM      2  O   UNL d   1       0.436   1.649   1.663  0.00  0.00    -0.286 OA
ENDROOT
BRANCH   1   3
ATOM      3  C   UNL d   1       0.903  -0.116   0.097  0.00  0.00     0.112 C 
ATOM      4  C   UNL d   1       2.261   0.031   0.109  0.00  0.00     0.021 C 
ATOM      5  C   UNL d   1       3.164  -0.627  -0.925  0.00  0.00     0.069 C 
BRANCH   3   6
ATOM      6  C   UNL d   1       0.253  -1.020  -0.893  0.00  0.00     0.298 C 
ATOM      7  O   UNL d   1       0.685  -2.125  -1.196  0.00  0.00    -0.259 OA
BRANCH   6   8
ATOM      8  O   UNL d   1      -0.918  -0.493  -1.327  0.00  0.00    -0.322 OA
ATOM      9  C   UNL d   1      -1.748  -1.368  -2.103  0.00  0.00     0.213 C 
ENDBRANCH   6   8
ENDBRANCH   3   6
BRANCH   4  10
ATOM     10  N   UNL d   1       2.942   0.781   1.073  0.00  0.00    -0.397 N 
ATOM     11  C   UNL d   1       4.357   1.078   1.141  0.00  0.00     0.146 C 
ATOM     12  H   UNL d   1       2.339   1.425   1.601  0.00  0.00     0.158 HD
ENDBRANCH   4  10
ENDBRANCH   1   3
BRANCH   1  13
ATOM     13  C   UNL d   1      -1.270   0.053   1.506  0.00  0.00     0.015 A 
ATOM     14  C   UNL d   1      -1.524  -1.323   1.581  0.00  0.00     0.016 A 
ATOM     15  C   UNL d   1      -2.818  -1.786   1.841  0.00  0.00     0.017 A 
ATOM     16  C   UNL d   1      -3.869  -0.886   2.075  0.00  0.00     0.048 A 
ATOM     17  C   UNL d   1      -3.594   0.490   2.064  0.00  0.00     0.017 A 
ATOM     18  C   UNL d   1      -2.306   0.956   1.784  0.00  0.00     0.016 A 
BRANCH  16  19
ATOM     19  C   UNL d   1      -5.274  -1.379   2.341  0.00  0.00     0.417 C 
ATOM     20  F   UNL d   1      -5.397  -2.734   2.257  0.00  0.00    -0.166 F 
ATOM     21  F   UNL d   1      -5.721  -1.040   3.580  0.00  0.00    -0.166 F 
ATOM     22  F   UNL d   1      -6.179  -0.868   1.461  0.00  0.00    -0.166 F 
ENDBRANCH  16  19
ENDBRANCH   1  13
TORSDOF 6
