REMARK  6 active torsions:
REMARK  status: ('A' for Active; 'I' for Inactive)
REMARK    1  A    between atoms: C_8  and  N_1 
REMARK    2  A    between atoms: C_14  and  C_2 
REMARK    3  A    between atoms: S_11  and  C_5 
REMARK    4  A    between atoms: C_23  and  S_11 
REMARK    5  A    between atoms: C_13  and  C_23 
REMARK    6  A    between atoms: C_19  and  C_20 
ROOT
ATOM      1  N   UNL d   1      -0.383  -1.301  -0.014  0.00  0.00    -0.275 N 
ATOM      2  C   UNL d   1       0.874  -0.666  -0.038  0.00  0.00     0.139 A 
ATOM      3  N   UNL d   1       0.687   0.644  -0.042  0.00  0.00    -0.282 N 
ATOM      4  HN  UNL d   1       1.425   1.347  -0.002  1.00  0.00     0.188 HD
ATOM      5  C   UNL d   1      -1.286  -0.243  -0.107  0.00  0.00     0.168 A 
ATOM      6  N   UNL d   1      -0.649   0.904  -0.109  0.00  0.00    -0.278 N 
ATOM      7  HN  UNL d   1      -1.079   1.828  -0.154  1.00  0.00     0.189 HD
ENDROOT
BRANCH   2   8
ATOM      8  C   UNL d   1       2.213  -1.278  -0.116  0.00  0.00     0.010 A 
ATOM      9  C   UNL d   1       2.494  -2.393  -0.912  0.00  0.00     0.016 A 
ATOM     10  C   UNL d   1       3.766  -2.986  -0.903  0.00  0.00     0.009 A 
ATOM     11  C   UNL d   1       4.825  -2.454  -0.145  0.00  0.00    -0.051 A 
ATOM     12  C   UNL d   1       4.554  -1.290   0.589  0.00  0.00     0.009 A 
ATOM     13  C   UNL d   1       3.273  -0.714   0.605  0.00  0.00     0.016 A 
BRANCH  11  14
ATOM     14  C   UNL d   1       6.200  -3.149  -0.140  0.00  0.00    -0.024 C 
ATOM     15  C   UNL d   1       7.274  -2.399   0.682  0.00  0.00     0.019 C 
ATOM     16  C   UNL d   1       6.061  -4.561   0.471  0.00  0.00     0.019 C 
ATOM     17  C   UNL d   1       6.742  -3.277  -1.581  0.00  0.00     0.019 C 
ENDBRANCH  11  14
ENDBRANCH   2   8
BRANCH   1  18
ATOM     18  C   UNL d   1      -0.646  -2.706   0.072  0.00  0.00     0.046 A 
ATOM     19  C   UNL d   1       0.205  -3.537   0.822  0.00  0.00     0.069 A 
ATOM     20  C   UNL d   1      -0.006  -4.901   0.775  0.00  0.00     0.107 A 
ATOM     21  O   UNL d   1       0.765  -5.843   1.381  0.00  0.00    -0.323 OA
ATOM     22  C   UNL d   1      -1.044  -5.451   0.065  0.00  0.00     0.105 A 
ATOM     23  C   UNL d   1       0.093  -7.052   0.967  0.00  0.00     0.352 A 
ATOM     24  O   UNL d   1      -1.062  -6.808   0.137  0.00  0.00    -0.323 OA
ATOM     25  C   UNL d   1      -1.929  -4.668  -0.639  0.00  0.00     0.042 A 
ATOM     26  C   UNL d   1      -1.720  -3.283  -0.644  0.00  0.00     0.033 A 
ENDBRANCH   1  18
BRANCH   5  27
ATOM     27  S   UNL d   1      -3.022  -0.350  -0.013  0.00  0.00    -0.087 SA
BRANCH  27  28
ATOM     28  C   UNL d   1      -3.503   1.139  -0.947  0.00  0.00     0.124 C 
BRANCH  28  29
ATOM     29  C   UNL d   1      -4.999   1.243  -1.117  0.00  0.00    -0.010 A 
ATOM     30  C   UNL d   1      -5.641   0.619  -2.193  0.00  0.00     0.125 A 
ATOM     31  C   UNL d   1      -7.019   0.704  -2.377  0.00  0.00     0.066 A 
ATOM     32  F   UNL d   1      -4.919  -0.079  -3.083  0.00  0.00    -0.205 F 
ATOM     33  C   UNL d   1      -7.778   1.427  -1.464  0.00  0.00     0.036 A 
ATOM     34  C   UNL d   1      -7.170   2.054  -0.378  0.00  0.00     0.024 A 
ATOM     35 CL   UNL d   1      -9.483   1.548  -1.675  0.00  0.00    -0.084 Cl
ATOM     36  C   UNL d   1      -5.785   1.961  -0.201  0.00  0.00     0.012 A 
ENDBRANCH  28  29
ENDBRANCH  27  28
ENDBRANCH   5  27
TORSDOF 6
