REMARK  3 active torsions:
REMARK  status: ('A' for Active; 'I' for Inactive)
REMARK    1  A    between atoms: C_9  and  N_3 
REMARK    2  A    between atoms: O_10  and  C_4 
REMARK    3  A    between atoms: C_11  and  O_10 
ROOT
ATOM      1  C   UNL d   1       0.045  -3.250   1.039  0.00  0.00    -0.098 C 
ATOM      2  C   UNL d   1      -0.259  -3.890   2.008  0.00  0.00     0.014 C 
ATOM      3  C   UNL d   1       0.414  -2.461  -0.142  0.00  0.00     0.219 C 
ENDROOT
BRANCH   3   4
ATOM      4  N   UNL d   1      -0.093  -1.110  -0.045  0.00  0.00    -0.332 N 
ATOM      5  C   UNL d   1       0.698   0.016  -0.084  0.00  0.00     0.246 A 
ATOM      6  C   UNL d   1      -0.196   1.178  -0.020  0.00  0.00     0.108 A 
ATOM      7  O   UNL d   1       1.909   0.085  -0.176  0.00  0.00    -0.268 OA
ATOM      8  C   UNL d   1      -1.442   0.699   0.045  0.00  0.00     0.069 A 
ATOM      9  C   UNL d   1      -1.496  -0.796   0.032  0.00  0.00     0.191 A 
BRANCH   8  10
ATOM     10  O   UNL d   1      -2.549   1.509   0.031  0.00  0.00    -0.354 OA
BRANCH  10  11
ATOM     11  C   UNL d   1      -3.684   1.010   0.741  0.00  0.00     0.171 C 
ATOM     12  C   UNL d   1      -4.771   2.069   0.683  0.00  0.00     0.034 C 
ENDBRANCH  10  11
ENDBRANCH   8  10
ENDBRANCH   3   4
TORSDOF 3
