REMARK  3 active torsions:
REMARK  status: ('A' for Active; 'I' for Inactive)
REMARK    1  A    between atoms: N_2  and  C_1 
REMARK    2  A    between atoms: S_6  and  C_3 
REMARK    3  A    between atoms: C_4  and  C_7 
ROOT
ATOM      1  C   UNL d   1       1.455  -0.217   0.102  0.00  0.00     0.122 A 
ATOM      2  C   UNL d   1       0.654  -1.361   0.006  0.00  0.00     0.064 A 
ATOM      3  C   UNL d   1       0.915   1.085   0.137  0.00  0.00     0.053 A 
ATOM      4  C   UNL d   1      -0.473   1.272   0.099  0.00  0.00     0.050 A 
ATOM      5  C   UNL d   1      -0.736  -1.145  -0.064  0.00  0.00     0.024 A 
ATOM      6  C   UNL d   1      -1.292   0.142  -0.017  0.00  0.00     0.018 A 
ENDROOT
BRANCH   4   7
ATOM      7  C   UNL d   1      -1.094   2.645   0.222  0.00  0.00     0.417 C 
ATOM      8  F   UNL d   1      -0.174   3.641   0.344  0.00  0.00    -0.166 F 
ATOM      9  F   UNL d   1      -1.863   2.970  -0.851  0.00  0.00    -0.166 F 
ATOM     10  F   UNL d   1      -1.902   2.747   1.313  0.00  0.00    -0.166 F 
ENDBRANCH   4   7
BRANCH   1  11
ATOM     11  N   UNL d   1       2.890  -0.307   0.226  0.00  0.00    -0.114 N 
ATOM     12  O   UNL d   1       3.334  -0.815   1.263  0.00  0.00    -0.532 OA
ATOM     13  O   UNL d   1       3.562   0.137  -0.712  0.00  0.00    -0.532 OA
ENDBRANCH   1  11
BRANCH   2  14
ATOM     14  S   UNL d   1       1.196  -3.094   0.127  0.00  0.00     0.048 S 
ATOM     15  O   UNL d   1       0.128  -3.880  -0.577  0.00  0.00    -0.253 OA
ATOM     16  C   UNL d   1       2.672  -3.169  -0.900  0.00  0.00     0.133 C 
ENDBRANCH   2  14
TORSDOF 3
