REMARK  4 active torsions:
REMARK  status: ('A' for Active; 'I' for Inactive)
REMARK    1  A    between atoms: C_2  and  S_1 
REMARK    2  A    between atoms: C_3  and  S_1 
REMARK    3  A    between atoms: N_13  and  C_4 
REMARK    4  A    between atoms: N_12  and  C_5 
ROOT
ATOM      1  C   UNL d   1      -2.300  -4.479  -1.042  0.00  0.00     0.160 C 
ATOM      2  C   UNL d   1      -2.601  -5.614  -1.699  0.00  0.00     0.120 C 
ATOM      3  C   UNL d   1      -2.538  -3.174  -1.530  0.00  0.00     0.113 C 
ATOM      4  N   UNL d   1      -2.725  -2.107  -1.948  0.00  0.00    -0.191 NA
ENDROOT
BRANCH   1   5
ATOM      5  S   UNL d   1      -1.655  -4.587   0.581  0.00  0.00     0.229 S 
ATOM      6  O   UNL d   1      -1.998  -5.886   1.146  0.00  0.00    -0.216 OA
ATOM      7  O   UNL d   1      -2.066  -3.405   1.323  0.00  0.00    -0.216 OA
BRANCH   5   8
ATOM      8  C   UNL d   1       0.074  -4.531   0.320  0.00  0.00     0.160 C 
ATOM      9  C   UNL d   1       0.714  -3.353   0.443  0.00  0.00     0.120 C 
ATOM     10  C   UNL d   1       0.704  -5.770   0.069  0.00  0.00     0.113 C 
ATOM     11  N   UNL d   1       1.232  -6.781  -0.151  0.00  0.00    -0.191 NA
BRANCH   9  12
ATOM     12  N   UNL d   1       2.050  -2.967   0.315  0.00  0.00    -0.397 N 
ATOM     13  C   UNL d   1       3.125  -3.805  -0.224  0.00  0.00     0.148 C 
ATOM     14  C   UNL d   1       2.544  -1.747   0.974  0.00  0.00     0.148 C 
ENDBRANCH   9  12
ENDBRANCH   5   8
ENDBRANCH   1   5
BRANCH   2  15
ATOM     15  N   UNL d   1      -3.120  -5.884  -2.967  0.00  0.00    -0.397 N 
ATOM     16  C   UNL d   1      -3.278  -4.910  -4.048  0.00  0.00     0.148 C 
ATOM     17  C   UNL d   1      -3.774  -7.173  -3.250  0.00  0.00     0.148 C 
ENDBRANCH   2  15
TORSDOF 4
