REMARK  5 active torsions:
REMARK  status: ('A' for Active; 'I' for Inactive)
REMARK    1  A    between atoms: C_5  and  C_1 
REMARK    2  A    between atoms: C_8  and  C_2 
REMARK       I    between atoms: N_12  and  C_8 
REMARK    3  A    between atoms: C_20  and  N_12 
REMARK    4  A    between atoms: S_15  and  C_21 
REMARK    5  A    between atoms: C_21  and  C_20 
ROOT
ATOM      1  C   UNL d   1      -1.260  -0.888   0.203  0.00  0.00     0.086 A 
ATOM      2  C   UNL d   1       0.070  -1.339  -0.079  0.00  0.00     0.092 A 
ATOM      3  N   UNL d   1      -1.233   0.391   0.614  0.00  0.00    -0.259 N 
ATOM      4  HN  UNL d   1      -2.029   0.946   0.928  1.00  0.00     0.195 HD
ATOM      5  O   UNL d   1       0.073   0.806   0.531  0.00  0.00    -0.241 OA
ATOM      6  C   UNL d   1       0.856  -0.222   0.119  0.00  0.00     0.090 A 
ATOM      7  C   UNL d   1       2.286   0.103  -0.044  0.00  0.00     0.080 C 
ENDROOT
BRANCH   1   8
ATOM      8  C   UNL d   1      -2.534  -1.616   0.157  0.00  0.00     0.037 A 
ATOM      9  C   UNL d   1      -2.723  -2.823   0.861  0.00  0.00     0.048 A 
ATOM     10 CL   UNL d   1      -1.517  -3.521   1.894  0.00  0.00    -0.083 Cl
ATOM     11  C   UNL d   1      -3.951  -3.501   0.817  0.00  0.00     0.025 A 
ATOM     12  C   UNL d   1      -5.028  -2.969   0.117  0.00  0.00     0.003 A 
ATOM     13  C   UNL d   1      -4.874  -1.764  -0.559  0.00  0.00     0.025 A 
ATOM     14  C   UNL d   1      -3.638  -1.099  -0.556  0.00  0.00     0.048 A 
ATOM     15 CL   UNL d   1      -3.567   0.360  -1.492  0.00  0.00    -0.083 Cl
ENDBRANCH   1   8
BRANCH   2  16
ATOM     16  C   UNL d   1       0.516  -2.650  -0.493  0.00  0.00     0.256 C 
ATOM     17  O   UNL d   1      -0.085  -3.317  -1.331  0.00  0.00    -0.267 OA
ATOM     18  N   UNL d   1       1.619  -3.108   0.197  0.00  0.00    -0.356 N 
ATOM     19  H   UNL d   1       1.825  -2.639   1.074  0.00  0.00     0.162 HD
BRANCH  18  20
ATOM     20  C   UNL d   1       2.001  -4.508   0.141  0.00  0.00     0.133 C 
BRANCH  20  21
ATOM     21  C   UNL d   1       3.336  -4.783   0.838  0.00  0.00     0.093 C 
BRANCH  21  22
ATOM     22  S   UNL d   1       3.281  -4.288   2.600  0.00  0.00    -0.172 SA
ATOM     23  C   UNL d   1       4.939  -4.825   3.089  0.00  0.00     0.089 C 
ENDBRANCH  21  22
ENDBRANCH  20  21
ENDBRANCH  18  20
ENDBRANCH   2  16
TORSDOF 5
