REMARK  3 active torsions:
REMARK  status: ('A' for Active; 'I' for Inactive)
REMARK       I    between atoms: N_3  and  C_1 
REMARK       I    between atoms: N_4  and  C_1 
REMARK    1  A    between atoms: C_12  and  N_3 
REMARK    2  A    between atoms: C_6  and  C_13 
REMARK    3  A    between atoms: C_13  and  C_12 
ROOT
ATOM      1  C   UNL d   1      -1.140  -1.206   0.034  0.00  0.00     0.129 C 
ENDROOT
BRANCH   1   2
ATOM      2  N   UNL d   1       0.310  -1.241  -0.038  0.00  0.00    -0.343 N 
ATOM      3  C   UNL d   1       0.940  -1.188  -1.258  0.00  0.00     0.315 C 
ATOM      4  O   UNL d   1       0.352  -1.237  -2.331  0.00  0.00    -0.247 OA
ATOM      5  N   UNL d   1       2.294  -1.055  -1.120  0.00  0.00    -0.347 N 
ATOM      6  C   UNL d   1       3.174  -0.987  -2.262  0.00  0.00     0.151 C 
ATOM      7  H   UNL d   1       2.699  -1.274  -0.224  0.00  0.00     0.163 HD
ATOM      8  H   UNL d   1       0.821  -0.863   0.745  0.00  0.00     0.164 HD
ENDBRANCH   1   2
BRANCH   1   9
ATOM      9  C   UNL d   1      -1.773  -2.592  -0.141  0.00  0.00     0.058 C 
BRANCH   9  10
ATOM     10  C   UNL d   1      -3.287  -2.619  -0.090  0.00  0.00    -0.057 A 
ATOM     11  C   UNL d   1      -4.070  -1.604  -0.662  0.00  0.00     0.009 A 
ATOM     12  C   UNL d   1      -5.466  -1.674  -0.635  0.00  0.00     0.024 A 
ATOM     13  C   UNL d   1      -6.093  -2.773  -0.056  0.00  0.00     0.034 A 
ATOM     14  C   UNL d   1      -5.336  -3.804   0.493  0.00  0.00     0.024 A 
ATOM     15 CL   UNL d   1      -7.811  -2.863  -0.033  0.00  0.00    -0.084 Cl
ATOM     16  C   UNL d   1      -3.939  -3.728   0.472  0.00  0.00     0.009 A 
ENDBRANCH   9  10
ENDBRANCH   1   9
TORSDOF 3
