REMARK  6 active torsions:
REMARK  status: ('A' for Active; 'I' for Inactive)
REMARK    1  A    between atoms: O_4  and  C_1 
REMARK       I    between atoms: N_11  and  C_1 
REMARK    2  A    between atoms: C_2  and  C_3 
REMARK    3  A    between atoms: C_3  and  O_4 
REMARK    4  A    between atoms: O_14  and  C_8 
REMARK    5  A    between atoms: O_13  and  C_9 
REMARK    6  A    between atoms: N_12  and  N_11 
ROOT
ATOM      1  C   UNL d   1       1.039   1.864   1.516  0.00  0.00     0.092 C 
ATOM      2  C   UNL d   1       1.638   3.204   1.043  0.00  0.00     0.052 C 
ATOM      3  C   UNL d   1      -0.371   2.172   2.065  0.00  0.00     0.052 C 
ENDROOT
BRANCH   1   4
ATOM      4  C   UNL d   1       1.800   1.142   2.637  0.00  0.00    -0.019 A 
ATOM      5  C   UNL d   1       2.633   1.826   3.540  0.00  0.00     0.047 A 
ATOM      6  C   UNL d   1       3.272   1.150   4.584  0.00  0.00     0.071 A 
ATOM      7  C   UNL d   1       3.095  -0.229   4.730  0.00  0.00     0.073 A 
ATOM      8  C   UNL d   1       2.268  -0.931   3.859  0.00  0.00     0.071 A 
ATOM      9  C   UNL d   1       1.619  -0.242   2.830  0.00  0.00     0.047 A 
BRANCH   6  10
ATOM     10  O   UNL d   1       4.083   1.717   5.532  0.00  0.00    -0.356 OA
ATOM     11  C   UNL d   1       4.231   3.130   5.497  0.00  0.00     0.210 C 
ENDBRANCH   6  10
BRANCH   8  12
ATOM     12  O   UNL d   1       1.995  -2.271   3.910  0.00  0.00    -0.356 OA
ATOM     13  C   UNL d   1       2.687  -3.027   4.896  0.00  0.00     0.210 C 
ENDBRANCH   8  12
ENDBRANCH   1   4
BRANCH   1  14
ATOM     14  O   UNL d   1       0.818   1.010   0.357  0.00  0.00    -0.288 OA
BRANCH  14  15
ATOM     15  C   UNL d   1       1.896   0.582  -0.356  0.00  0.00     0.376 C 
ATOM     16  O   UNL d   1       3.068   0.834  -0.110  0.00  0.00    -0.237 OA
ATOM     17  N   UNL d   1       1.540  -0.200  -1.441  0.00  0.00    -0.269 N 
ATOM     18  H   UNL d   1       2.306  -0.491  -2.042  0.00  0.00     0.185 HD
BRANCH  17  19
ATOM     19  N   UNL d   1       0.204  -0.417  -1.843  0.00  0.00    -0.245 NA
ATOM     20  H   UNL d   1      -0.383   0.262  -1.349  0.00  0.00     0.143 HD
ATOM     21  H   UNL d   1      -0.086  -1.329  -1.478  0.00  0.00     0.143 HD
ENDBRANCH  17  19
ENDBRANCH  14  15
ENDBRANCH   1  14
TORSDOF 6
