REMARK  8 active torsions:
REMARK  status: ('A' for Active; 'I' for Inactive)
REMARK    1  A    between atoms: C_8  and  N_1 
REMARK    2  A    between atoms: C_10  and  C_2 
REMARK    3  A    between atoms: S_9  and  C_5 
REMARK    4  A    between atoms: C_11  and  C_8 
REMARK    5  A    between atoms: C_12  and  S_9 
REMARK    6  A    between atoms: O_14  and  C_11 
REMARK    7  A    between atoms: O_15  and  C_11 
REMARK    8  A    between atoms: C_13  and  C_12 
ROOT
ATOM      1  N   UNL d   1      -0.283  -1.089  -0.350  0.00  0.00    -0.306 N 
ATOM      2  C   UNL d   1       0.941  -0.428  -0.488  0.00  0.00     0.134 A 
ATOM      3  N   UNL d   1       0.693   0.872  -0.542  0.00  0.00    -0.283 N 
ATOM      4  HN  UNL d   1       1.393   1.604  -0.665  1.00  0.00     0.188 HD
ATOM      5  C   UNL d   1      -1.226  -0.092  -0.279  0.00  0.00     0.163 A 
ATOM      6  N   UNL d   1      -0.654   1.077  -0.406  0.00  0.00    -0.278 N 
ATOM      7  HN  UNL d   1      -1.127   1.981  -0.404  1.00  0.00     0.189 HD
ENDROOT
BRANCH   5   8
ATOM      8  S   UNL d   1      -2.917  -0.309   0.022  0.00  0.00    -0.088 SA
BRANCH   8   9
ATOM      9  C   UNL d   1      -3.615   1.171  -0.776  0.00  0.00     0.121 C 
BRANCH   9  10
ATOM     10  C   UNL d   1      -5.127   1.188  -0.689  0.00  0.00    -0.049 A 
ATOM     11  C   UNL d   1      -5.766   1.717   0.445  0.00  0.00     0.008 A 
ATOM     12  C   UNL d   1      -7.160   1.742   0.530  0.00  0.00     0.001 A 
ATOM     13  C   UNL d   1      -7.934   1.238  -0.512  0.00  0.00     0.000 A 
ATOM     14  C   UNL d   1      -7.313   0.702  -1.641  0.00  0.00     0.001 A 
ATOM     15  C   UNL d   1      -5.918   0.674  -1.727  0.00  0.00     0.008 A 
ENDBRANCH   9  10
ENDBRANCH   8   9
ENDBRANCH   5   8
BRANCH   1  16
ATOM     16  C   UNL d   1      -0.423  -2.524  -0.217  0.00  0.00     0.193 C 
BRANCH  16  17
ATOM     17  C   UNL d   1      -1.695  -3.259  -0.665  0.00  0.00     0.276 C 
BRANCH  17  18
ATOM     18  O   UNL d   1      -1.846  -3.051  -2.071  0.00  0.00    -0.364 OA
ATOM     19  C   UNL d   1      -3.082  -3.555  -2.558  0.00  0.00     0.204 C 
ENDBRANCH  17  18
BRANCH  17  20
ATOM     20  O   UNL d   1      -1.559  -4.669  -0.413  0.00  0.00    -0.364 OA
ATOM     21  C   UNL d   1      -1.549  -5.009   0.968  0.00  0.00     0.204 C 
ENDBRANCH  17  20
ENDBRANCH  16  17
ENDBRANCH   1  16
BRANCH   2  22
ATOM     22  C   UNL d   1       2.291  -1.009  -0.637  0.00  0.00     0.009 A 
ATOM     23  C   UNL d   1       3.223  -0.332  -1.440  0.00  0.00     0.015 A 
ATOM     24  C   UNL d   1       4.493  -0.864  -1.690  0.00  0.00     0.001 A 
ATOM     25  C   UNL d   1       4.856  -2.087  -1.136  0.00  0.00     0.000 A 
ATOM     26  C   UNL d   1       3.970  -2.749  -0.292  0.00  0.00     0.001 A 
ATOM     27  C   UNL d   1       2.711  -2.199  -0.022  0.00  0.00     0.015 A 
ENDBRANCH   2  22
TORSDOF 8
