REMARK  3 active torsions:
REMARK  status: ('A' for Active; 'I' for Inactive)
REMARK    1  A    between atoms: C_6  and  C_1 
REMARK    2  A    between atoms: C_5  and  C_4 
REMARK       I    between atoms: N_11  and  C_6 
REMARK    3  A    between atoms: C_16  and  N_11 
ROOT
ATOM      1  C   UNL d   1       1.827   0.996   0.190  0.00  0.00     0.104 A 
ATOM      2  N   UNL d   1       2.292  -0.780   0.422  0.00  0.00    -0.369 N 
ATOM      3  HN  UNL d   1       3.217  -1.073   0.736  1.00  0.00     0.161 HD
ATOM      4  C   UNL d   1       1.102  -1.833   0.082  0.00  0.00     0.180 A 
ATOM      5  S   UNL d   1      -0.899  -0.728  -0.746  0.00  0.00    -0.111 SA
ATOM      6  C   UNL d   1       0.230   1.259  -0.440  0.00  0.00     0.082 A 
ENDROOT
BRANCH   1   7
ATOM      7  C   UNL d   1       2.842   2.005   0.493  0.00  0.00     0.273 C 
ATOM      8  N   UNL d   1       2.655   3.218  -0.155  0.00  0.00    -0.322 N 
ATOM      9  H   UNL d   1       1.749   3.398  -0.557  0.00  0.00     0.169 HD
ATOM     10  O   UNL d   1       3.791   1.739   1.223  0.00  0.00    -0.266 OA
BRANCH   8  11
ATOM     11  C   UNL d   1       3.657   4.188  -0.379  0.00  0.00     0.035 A 
ATOM     12  C   UNL d   1       5.012   3.967  -0.108  0.00  0.00     0.031 A 
ATOM     13  C   UNL d   1       5.970   4.943  -0.397  0.00  0.00     0.026 A 
ATOM     14  C   UNL d   1       5.576   6.150  -0.961  0.00  0.00     0.034 A 
ATOM     15  C   UNL d   1       4.233   6.385  -1.246  0.00  0.00     0.026 A 
ATOM     16 CL   UNL d   1       6.754   7.351  -1.316  0.00  0.00    -0.084 Cl
ATOM     17  C   UNL d   1       3.276   5.403  -0.963  0.00  0.00     0.031 A 
ENDBRANCH   8  11
ENDBRANCH   1   7
BRANCH   4  18
ATOM     18  C   UNL d   1       0.671  -3.099   0.266  0.00  0.00     0.186 C 
ATOM     19  O   UNL d   1       0.498  -3.180  -1.236  0.00  0.00    -0.338 OA
ATOM     20  C   UNL d   1       1.078  -2.083  -2.022  0.00  0.00     0.102 A 
ATOM     21  C   UNL d   1       1.484  -2.387  -3.304  0.00  0.00     0.039 A 
ATOM     22  C   UNL d   1       1.236  -0.589  -1.402  0.00  0.00     0.102 A 
ATOM     23  C   UNL d   1       2.042  -1.351  -4.059  0.00  0.00     0.003 A 
ATOM     24  C   UNL d   1       2.166  -0.020  -3.581  0.00  0.00     0.003 A 
ATOM     25  C   UNL d   1       1.768   0.397  -2.293  0.00  0.00     0.039 A 
ATOM     26  O   UNL d   1       0.545  -0.303   0.462  0.00  0.00    -0.346 OA
ATOM     27  C   UNL d   1       0.133  -1.867   1.292  0.00  0.00     0.211 C 
ENDBRANCH   4  18
TORSDOF 3
