REMARK  1 active torsions:
REMARK  status: ('A' for Active; 'I' for Inactive)
REMARK    1  A    between atoms: C_7  and  C_1 
ROOT
ATOM      1  C   UNL d   1      -2.598   0.759  -0.029  0.00  0.00     0.073 A 
ATOM      2  S   UNL d   1      -1.246   1.865  -0.139  0.00  0.00    -0.083 SA
ATOM      3  C   UNL d   1      -2.436  -0.593   0.008  0.00  0.00     0.026 A 
ATOM      4  N   UNL d   1      -1.200  -1.229  -0.012  0.00  0.00    -0.358 N 
ATOM      5  C   UNL d   1       0.168   0.794  -0.050  0.00  0.00     0.032 A 
ATOM      6  C   UNL d   1       0.050  -0.601  -0.020  0.00  0.00     0.049 A 
ATOM      7  C   UNL d   1      -3.574  -1.595   0.081  0.00  0.00     0.070 C 
ATOM      8  C   UNL d   1       1.438   1.389  -0.030  0.00  0.00     0.021 A 
ATOM      9  C   UNL d   1       1.216  -1.380   0.011  0.00  0.00     0.031 A 
ATOM     10  C   UNL d   1       2.589   0.604   0.003  0.00  0.00     0.002 A 
ATOM     11  C   UNL d   1       2.478  -0.782   0.019  0.00  0.00     0.002 A 
ATOM     12  H   UNL d   1      -1.203  -2.244   0.003  0.00  0.00     0.166 HD
ENDROOT
BRANCH   1  13
ATOM     13  C   UNL d   1      -3.958   1.435  -0.046  0.00  0.00     0.164 C 
ATOM     14  O   UNL d   1      -4.958   0.863  -0.477  0.00  0.00    -0.292 OA
ATOM     15  C   UNL d   1      -4.107   2.867   0.435  0.00  0.00     0.097 C 
ENDBRANCH   1  13
TORSDOF 1
