REMARK  7 active torsions:
REMARK  status: ('A' for Active; 'I' for Inactive)
REMARK    1  A    between atoms: N_2  and  C_1 
REMARK    2  A    between atoms: C_7  and  C_12 
REMARK       I    between atoms: N_9  and  C_7 
REMARK    3  A    between atoms: C_12  and  N_8 
REMARK    4  A    between atoms: C_22  and  N_9 
REMARK    5  A    between atoms: C_23  and  C_13 
REMARK    6  A    between atoms: C_26  and  C_15 
REMARK    7  A    between atoms: C_29  and  C_26 
ROOT
ATOM      1  N   UNL d   1       0.592   2.654  -0.219  0.00  0.00    -0.214 N 
ATOM      2  N   UNL d   1       1.025   5.582   0.025  0.00  0.00     0.100 N 
ATOM      3  C   UNL d   1      -0.092   3.393   0.842  0.00  0.00     0.171 C 
ATOM      4  C   UNL d   1       1.879   3.217  -0.630  0.00  0.00     0.171 C 
ATOM      5  C   UNL d   1      -0.228   4.887   0.438  0.00  0.00     0.293 C 
ATOM      6  C   UNL d   1       1.718   4.722  -0.975  0.00  0.00     0.293 C 
ENDROOT
BRANCH   2   7
ATOM      7  C   UNL d   1       1.860   5.857   1.216  0.00  0.00     0.375 C 
BRANCH   7   8
ATOM      8  C   UNL d   1       3.128   6.659   0.893  0.00  0.00     0.250 C 
ATOM      9  N   UNL d   1       2.930   7.707   0.007  0.00  0.00    -0.326 N 
ATOM     10  H   UNL d   1       1.997   7.756  -0.394  0.00  0.00     0.169 HD
ATOM     11  O   UNL d   1       4.182   6.367   1.450  0.00  0.00    -0.271 OA
BRANCH   9  12
ATOM     12  C   UNL d   1       3.917   8.574  -0.518  0.00  0.00     0.034 A 
ATOM     13  C   UNL d   1       5.256   8.544  -0.126  0.00  0.00     0.030 A 
ATOM     14  C   UNL d   1       6.216   9.339  -0.767  0.00  0.00     0.010 A 
ATOM     15  C   UNL d   1       5.864  10.179  -1.827  0.00  0.00    -0.055 A 
ATOM     16  C   UNL d   1       4.505  10.279  -2.159  0.00  0.00     0.010 A 
ATOM     17  C   UNL d   1       3.543   9.484  -1.513  0.00  0.00     0.030 A 
BRANCH  15  18
ATOM     18  C   UNL d   1       6.908  10.937  -2.634  0.00  0.00     0.010 C 
ATOM     19  C   UNL d   1       7.315  12.245  -1.957  0.00  0.00     0.015 C 
ATOM     20  C   UNL d   1       8.151  10.087  -2.937  0.00  0.00     0.015 C 
ENDBRANCH  15  18
ENDBRANCH   9  12
ENDBRANCH   7   8
ENDBRANCH   2   7
BRANCH   1  21
ATOM     21  C   UNL d   1       0.516   1.267  -0.159  0.00  0.00     0.679 A 
ATOM     22  N   UNL d   1      -0.457   0.699   0.571  0.00  0.00    -0.201 N 
ATOM     23  C   UNL d   1      -0.571  -0.648   0.542  0.00  0.00     0.114 A 
ATOM     24  HN  UNL d   1      -1.091   1.267   1.132  1.00  0.00     0.183 HD
ATOM     25  C   UNL d   1       0.252  -1.472  -0.187  0.00  0.00    -0.026 A 
ATOM     26  C   UNL d   1       1.223  -0.806  -0.896  0.00  0.00     0.114 A 
ATOM     27  N   UNL d   1       1.370   0.536  -0.895  0.00  0.00    -0.201 N 
ATOM     28  HN  UNL d   1       2.109   0.983  -1.439  1.00  0.00     0.183 HD
BRANCH  25  29
ATOM     29  C   UNL d   1       0.093  -2.963  -0.214  0.00  0.00     0.041 C 
BRANCH  29  30
ATOM     30  C   UNL d   1       1.288  -3.693   0.407  0.00  0.00     0.000 C 
ATOM     31  C   UNL d   1       1.069  -5.197   0.451  0.00  0.00     0.005 C 
ENDBRANCH  29  30
ENDBRANCH  25  29
ENDBRANCH   1  21
TORSDOF 7
