REMARK  6 active torsions:
REMARK  status: ('A' for Active; 'I' for Inactive)
REMARK    1  A    between atoms: C_3  and  C_1 
REMARK    2  A    between atoms: C_2  and  O_9 
REMARK    3  A    between atoms: C_7  and  C_3 
REMARK    4  A    between atoms: N_8  and  C_4 
REMARK    5  A    between atoms: C_16  and  N_8 
REMARK    6  A    between atoms: O_9  and  C_17 
ROOT
ATOM      1  C   UNL d   1       1.061   0.008   0.060  0.00  0.00     0.110 C 
ATOM      2  C   UNL d   1       0.399  -0.743  -0.841  0.00  0.00     0.115 C 
ATOM      3  C   UNL d   1       0.357   0.796   1.014  0.00  0.00     0.105 C 
ATOM      4  N   UNL d   1      -0.241   1.453   1.757  0.00  0.00    -0.191 NA
ENDROOT
BRANCH   1   5
ATOM      5  C   UNL d   1       2.555  -0.018   0.038  0.00  0.00     0.204 C 
ATOM      6  O   UNL d   1       3.181  -0.982  -0.397  0.00  0.00    -0.286 OA
BRANCH   5   7
ATOM      7  C   UNL d   1       3.306   1.155   0.568  0.00  0.00     0.016 A 
ATOM      8  C   UNL d   1       4.499   0.943   1.270  0.00  0.00     0.018 A 
ATOM      9  C   UNL d   1       5.202   2.026   1.821  0.00  0.00     0.038 A 
ATOM     10  C   UNL d   1       4.736   3.327   1.638  0.00  0.00     0.078 A 
ATOM     11  C   UNL d   1       3.552   3.534   0.925  0.00  0.00     0.038 A 
ATOM     12  C   UNL d   1       2.853   2.462   0.369  0.00  0.00     0.018 A 
BRANCH  10  13
ATOM     13  O   UNL d   1       5.291   4.469   2.126  0.00  0.00    -0.255 OA
BRANCH  13  14
ATOM     14  C   UNL d   1       6.693   4.548   2.322  0.00  0.00     0.530 C 
ATOM     15  F   UNL d   1       7.386   3.550   1.738  0.00  0.00    -0.144 F 
ATOM     16  F   UNL d   1       7.128   5.715   1.796  0.00  0.00    -0.144 F 
ATOM     17  F   UNL d   1       6.962   4.556   3.645  0.00  0.00    -0.144 F 
ENDBRANCH  13  14
ENDBRANCH  10  13
ENDBRANCH   5   7
ENDBRANCH   1   5
BRANCH   2  18
ATOM     18  N   UNL d   1      -0.961  -0.793  -1.062  0.00  0.00    -0.364 N 
ATOM     19  H   UNL d   1      -1.537  -0.105  -0.581  0.00  0.00     0.165 HD
BRANCH  18  20
ATOM     20  C   UNL d   1      -1.670  -1.635  -1.933  0.00  0.00     0.032 A 
ATOM     21  C   UNL d   1      -1.223  -2.912  -2.292  0.00  0.00     0.031 A 
ATOM     22  C   UNL d   1      -1.940  -3.691  -3.208  0.00  0.00     0.026 A 
ATOM     23  C   UNL d   1      -3.095  -3.184  -3.796  0.00  0.00     0.034 A 
ATOM     24  C   UNL d   1      -3.550  -1.912  -3.464  0.00  0.00     0.026 A 
ATOM     25 CL   UNL d   1      -3.959  -4.128  -4.946  0.00  0.00    -0.084 Cl
ATOM     26  C   UNL d   1      -2.841  -1.146  -2.535  0.00  0.00     0.031 A 
ENDBRANCH  18  20
ENDBRANCH   2  18
TORSDOF 6
