REMARK  4 active torsions:
REMARK  status: ('A' for Active; 'I' for Inactive)
REMARK    1  A    between atoms: C_7  and  C_1 
REMARK    2  A    between atoms: C_9  and  C_5 
REMARK    3  A    between atoms: S_8  and  C_7 
REMARK    4  A    between atoms: C_11  and  S_8 
ROOT
ATOM      1  C   UNL d   1      -0.190  -1.077   0.385  0.00  0.00     0.086 A 
ATOM      2  S   UNL d   1       1.260  -0.213   0.698  0.00  0.00    -0.065 SA
ATOM      3  N   UNL d   1      -0.778   1.170   0.046  0.00  0.00    -0.352 N 
ATOM      4  HN  UNL d   1      -1.394   1.960  -0.144  1.00  0.00     0.166 HD
ATOM      5  C   UNL d   1       0.517   1.270   0.268  0.00  0.00     0.085 A 
ATOM      6  C   UNL d   1      -1.194  -0.157   0.105  0.00  0.00     0.028 A 
ATOM      7  C   UNL d   1      -2.629  -0.444  -0.174  0.00  0.00     0.070 C 
ENDROOT
BRANCH   1   8
ATOM      8  C   UNL d   1      -0.296  -2.534   0.418  0.00  0.00     0.232 C 
ATOM      9  O   UNL d   1      -1.339  -3.134   0.191  0.00  0.00    -0.279 OA
BRANCH   8  10
ATOM     10  S   UNL d   1       1.218  -3.392   0.739  0.00  0.00    -0.047 SA
BRANCH  10  11
ATOM     11  C   UNL d   1       0.836  -5.091   1.079  0.00  0.00     0.008 A 
ATOM     12  C   UNL d   1      -0.373  -5.552   1.598  0.00  0.00     0.019 A 
ATOM     13  C   UNL d   1      -0.564  -6.911   1.868  0.00  0.00     0.008 A 
ATOM     14  C   UNL d   1       0.468  -7.832   1.656  0.00  0.00    -0.062 A 
ATOM     15  C   UNL d   1       1.689  -7.374   1.158  0.00  0.00     0.008 A 
ATOM     16  C   UNL d   1       0.239  -9.291   1.911  0.00  0.00     0.048 C 
ATOM     17  C   UNL d   1       1.869  -6.018   0.875  0.00  0.00     0.019 A 
ENDBRANCH  10  11
ENDBRANCH   8  10
ENDBRANCH   1   8
BRANCH   5  18
ATOM     18  C   UNL d   1       1.299   2.518   0.155  0.00  0.00    -0.002 A 
ATOM     19  C   UNL d   1       2.706   2.545   0.186  0.00  0.00     0.014 A 
ATOM     20  C   UNL d   1       3.412   3.741   0.024  0.00  0.00     0.001 A 
ATOM     21  C   UNL d   1       2.723   4.934  -0.172  0.00  0.00     0.000 A 
ATOM     22  C   UNL d   1       1.331   4.932  -0.201  0.00  0.00     0.001 A 
ATOM     23  C   UNL d   1       0.626   3.735  -0.040  0.00  0.00     0.014 A 
ENDBRANCH   5  18
TORSDOF 4
