REMARK  4 active torsions:
REMARK  status: ('A' for Active; 'I' for Inactive)
REMARK    1  A    between atoms: C_4  and  C_3 
REMARK    2  A    between atoms: C_6  and  C_5 
REMARK    3  A    between atoms: C_21  and  C_7 
REMARK    4  A    between atoms: C_17  and  C_22 
ROOT
ATOM      1  N   UNL d   1       1.179   0.109   0.248  0.00  0.00    -0.317 N 
ATOM      2  HN  UNL d   1       2.150   0.225   0.539  1.00  0.00     0.169 HD
ATOM      3  C   UNL d   1       0.519  -1.010   0.018  0.00  0.00     0.200 A 
ATOM      4  C   UNL d   1       0.235   1.082  -0.001  0.00  0.00     0.138 A 
ATOM      5  N   UNL d   1      -0.976   0.597  -0.313  0.00  0.00    -0.242 N 
ATOM      6  HN  UNL d   1      -1.832   1.117  -0.506  1.00  0.00     0.196 HD
ATOM      7  O   UNL d   1      -0.791  -0.781  -0.310  0.00  0.00    -0.215 OA
ENDROOT
BRANCH   3   8
ATOM      8  C   UNL d   1       1.126  -2.371   0.067  0.00  0.00     0.111 A 
ATOM      9  C   UNL d   1       2.447  -2.680   0.453  0.00  0.00     0.077 A 
ATOM     10  C   UNL d   1       2.542  -4.042   0.294  0.00  0.00     0.128 A 
ATOM     11  O   UNL d   1       1.348  -4.514  -0.164  0.00  0.00    -0.235 OA
ATOM     12  N   UNL d   1       0.450  -3.468  -0.290  0.00  0.00    -0.256 N 
ATOM     13  HN  UNL d   1      -0.523  -3.522  -0.592  1.00  0.00     0.195 HD
BRANCH  10  14
ATOM     14  C   UNL d   1       3.734  -4.882   0.580  0.00  0.00     0.075 A 
ATOM     15  N   UNL d   1       4.879  -4.354   1.148  0.00  0.00    -0.352 N 
ATOM     16  C   UNL d   1       5.756  -5.317   1.347  0.00  0.00     0.047 A 
ATOM     17  HN  UNL d   1       5.023  -3.371   1.378  1.00  0.00     0.166 HD
ATOM     18  C   UNL d   1       7.079  -5.130   2.002  0.00  0.00     0.076 C 
ATOM     19  S   UNL d   1       5.281  -6.878   0.805  0.00  0.00    -0.087 SA
ATOM     20  C   UNL d   1       3.770  -6.235   0.316  0.00  0.00     0.084 A 
ENDBRANCH  10  14
ENDBRANCH   3   8
BRANCH   4  21
ATOM     21  C   UNL d   1       0.557   2.506   0.013  0.00  0.00     0.010 A 
ATOM     22  C   UNL d   1       1.855   2.938   0.319  0.00  0.00     0.016 A 
ATOM     23  C   UNL d   1       2.185   4.298   0.277  0.00  0.00     0.017 A 
ATOM     24  C   UNL d   1       1.220   5.255  -0.071  0.00  0.00     0.048 A 
ATOM     25  C   UNL d   1      -0.082   4.825  -0.362  0.00  0.00     0.017 A 
ATOM     26  C   UNL d   1      -0.410   3.466  -0.319  0.00  0.00     0.016 A 
BRANCH  24  27
ATOM     27  C   UNL d   1       1.562   6.723  -0.145  0.00  0.00     0.417 C 
ATOM     28  F   UNL d   1       2.861   6.998   0.161  0.00  0.00    -0.166 F 
ATOM     29  F   UNL d   1       1.355   7.241  -1.388  0.00  0.00    -0.166 F 
ATOM     30  F   UNL d   1       0.810   7.476   0.704  0.00  0.00    -0.166 F 
ENDBRANCH  24  27
ENDBRANCH   4  21
TORSDOF 4
