REMARK  3 active torsions:
REMARK  status: ('A' for Active; 'I' for Inactive)
REMARK    1  A    between atoms: C_3  and  C_1 
REMARK    2  A    between atoms: O_16  and  C_2 
REMARK       I    between atoms: N_7  and  C_3 
REMARK    3  A    between atoms: C_8  and  N_7 
ROOT
ATOM      1  C   UNL d   1      -2.630   2.277  -0.535  0.00  0.00     0.259 C 
ATOM      2  N   UNL d   1      -3.869   2.010   0.018  0.00  0.00    -0.321 N 
ATOM      3  O   UNL d   1      -2.325   3.293  -1.146  0.00  0.00    -0.267 OA
ATOM      4  H   UNL d   1      -3.901   1.296   0.741  0.00  0.00     0.169 HD
ENDROOT
BRANCH   2   5
ATOM      5  C   UNL d   1      -5.065   2.733  -0.203  0.00  0.00     0.058 A 
ATOM      6  C   UNL d   1      -5.233   3.575  -1.306  0.00  0.00     0.057 A 
ATOM      7  C   UNL d   1      -6.452   4.230  -1.526  0.00  0.00     0.058 A 
ATOM      8 CL   UNL d   1      -6.593   5.210  -2.943  0.00  0.00    -0.082 Cl
ATOM      9  C   UNL d   1      -7.512   4.059  -0.630  0.00  0.00     0.057 A 
ATOM     10  C   UNL d   1      -7.356   3.223   0.476  0.00  0.00     0.051 A 
ATOM     11 CL   UNL d   1      -9.038   4.839  -0.837  0.00  0.00    -0.082 Cl
ATOM     12  C   UNL d   1      -6.145   2.553   0.678  0.00  0.00     0.062 A 
ATOM     13 CL   UNL d   1      -6.007   1.512   2.054  0.00  0.00    -0.082 Cl
ENDBRANCH   2   5
BRANCH   1  14
ATOM     14  C   UNL d   1      -1.673   1.196  -0.338  0.00  0.00     0.074 A 
ATOM     15  C   UNL d   1      -0.401   1.291   0.320  0.00  0.00     0.113 A 
ATOM     16  C   UNL d   1       0.278   0.092   0.282  0.00  0.00     0.108 A 
ATOM     17 CL   UNL d   1       1.790  -0.340   0.980  0.00  0.00    -0.073 Cl
ATOM     18  S   UNL d   1      -0.562  -1.120  -0.562  0.00  0.00    -0.086 SA
ATOM     19  C   UNL d   1      -1.879  -0.072  -0.856  0.00  0.00     0.071 A 
BRANCH  15  20
ATOM     20  O   UNL d   1      -0.021   2.410   0.991  0.00  0.00    -0.353 OA
ATOM     21  C   UNL d   1       1.293   2.863   0.683  0.00  0.00     0.210 C 
ENDBRANCH  15  20
ENDBRANCH   1  14
TORSDOF 3
