REMARK  5 active torsions:
REMARK  status: ('A' for Active; 'I' for Inactive)
REMARK    1  A    between atoms: C_2  and  C_1 
REMARK    2  A    between atoms: C_10  and  C_2 
REMARK    3  A    between atoms: C_13  and  N_3 
REMARK    4  A    between atoms: C_12  and  C_10 
REMARK    5  A    between atoms: N_16  and  C_11 
ROOT
ATOM      1  C   UNL d   1      -0.072  -1.441   0.460  0.00  0.00     0.160 A 
ATOM      2  N   UNL d   1      -0.118  -0.715   1.650  0.00  0.00    -0.222 N 
ATOM      3  N   UNL d   1       0.372   0.526   1.371  0.00  0.00    -0.219 N 
ATOM      4  HN  UNL d   1       0.427   1.315   2.014  1.00  0.00     0.210 HD
ATOM      5  N   UNL d   1       0.761   0.513   0.111  0.00  0.00    -0.226 N 
ATOM      6  HN  UNL d   1       1.189   1.304  -0.370  1.00  0.00     0.210 HD
ATOM      7  N   UNL d   1       0.517  -0.692  -0.459  0.00  0.00    -0.267 N 
ATOM      8  HN  UNL d   1       0.744  -0.969  -1.414  1.00  0.00     0.190 HD
ENDROOT
BRANCH   1   9
ATOM      9  C   UNL d   1      -0.550  -2.768   0.288  0.00  0.00     0.077 C 
ATOM     10  C   UNL d   1       0.389  -3.739   0.234  0.00  0.00     0.104 C 
BRANCH   9  11
ATOM     11  C   UNL d   1      -2.027  -3.062   0.203  0.00  0.00     0.198 C 
ATOM     12  O   UNL d   1      -2.480  -4.117   0.630  0.00  0.00    -0.286 OA
BRANCH  11  13
ATOM     13  C   UNL d   1      -2.981  -2.036  -0.326  0.00  0.00     0.021 A 
ATOM     14  C   UNL d   1      -4.308  -1.948   0.160  0.00  0.00    -0.048 A 
ATOM     15  C   UNL d   1      -4.865  -2.837   1.241  0.00  0.00     0.049 C 
ATOM     16  C   UNL d   1      -5.190  -1.018  -0.425  0.00  0.00     0.007 A 
ATOM     17  C   UNL d   1      -4.764  -0.159  -1.435  0.00  0.00     0.001 A 
ATOM     18  C   UNL d   1      -3.458  -0.237  -1.902  0.00  0.00     0.001 A 
ATOM     19  C   UNL d   1      -2.583  -1.187  -1.373  0.00  0.00     0.016 A 
ENDBRANCH  11  13
ENDBRANCH   9  11
BRANCH  10  20
ATOM     20  N   UNL d   1       0.361  -5.100  -0.031  0.00  0.00    -0.398 N 
ATOM     21  C   UNL d   1      -0.580  -5.722  -0.961  0.00  0.00     0.148 C 
ATOM     22  C   UNL d   1       1.107  -6.043   0.801  0.00  0.00     0.148 C 
ENDBRANCH  10  20
ENDBRANCH   1   9
BRANCH   2  23
ATOM     23  C   UNL d   1      -0.516  -1.018   2.987  0.00  0.00     0.060 A 
ATOM     24  C   UNL d   1      -0.985  -2.273   3.384  0.00  0.00     0.031 A 
ATOM     25  C   UNL d   1      -1.368  -2.496   4.713  0.00  0.00     0.002 A 
ATOM     26  C   UNL d   1      -1.267  -1.480   5.661  0.00  0.00     0.000 A 
ATOM     27  C   UNL d   1      -0.778  -0.236   5.287  0.00  0.00     0.002 A 
ATOM     28  C   UNL d   1      -0.405  -0.004   3.961  0.00  0.00     0.031 A 
ENDBRANCH   2  23
TORSDOF 5
