REMARK  4 active torsions:
REMARK  status: ('A' for Active; 'I' for Inactive)
REMARK    1  A    between atoms: N_2  and  S_1 
REMARK    2  A    between atoms: C_3  and  S_1 
REMARK    3  A    between atoms: C_4  and  C_7 
REMARK    4  A    between atoms: N_16  and  C_4 
ROOT
ATOM      1  C   UNL d   1       0.527   1.547   0.715  0.00  0.00     0.074 A 
ATOM      2  C   UNL d   1      -0.391   4.038   1.633  0.00  0.00     0.001 A 
ATOM      3  C   UNL d   1       1.120   2.137   1.835  0.00  0.00     0.026 A 
ATOM      4  C   UNL d   1      -0.500   2.205   0.033  0.00  0.00     0.026 A 
ATOM      5  C   UNL d   1      -0.963   3.439   0.499  0.00  0.00     0.016 A 
ATOM      6  C   UNL d   1       0.657   3.376   2.295  0.00  0.00     0.016 A 
ENDROOT
BRANCH   1   7
ATOM      7  S   UNL d   1       1.181   0.024   0.065  0.00  0.00     0.243 S 
ATOM      8  O   UNL d   1       0.866  -0.022  -1.345  0.00  0.00    -0.206 OA
ATOM      9  O   UNL d   1       2.555  -0.075   0.514  0.00  0.00    -0.206 OA
BRANCH   7  10
ATOM     10  N   UNL d   1       0.283  -1.186   0.863  0.00  0.00    -0.202 NA
ATOM     11  C   UNL d   1      -1.182  -1.279   0.560  0.00  0.00     0.134 C 
ATOM     12  C   UNL d   1      -1.452  -2.026  -0.754  0.00  0.00     0.183 C 
ATOM     13  O   UNL d   1      -0.842  -3.325  -0.756  0.00  0.00    -0.389 OA
ATOM     14  C   UNL d   1       0.577  -3.221  -0.562  0.00  0.00     0.183 C 
ATOM     15  C   UNL d   1       0.890  -2.555   0.782  0.00  0.00     0.134 C 
ENDBRANCH   7  10
ENDBRANCH   1   7
BRANCH   2  16
ATOM     16  C   UNL d   1      -0.886   5.356   2.129  0.00  0.00     0.104 C 
ATOM     17  S   UNL d   1      -2.458   5.915   1.994  0.00  0.00    -0.060 SA
BRANCH  16  18
ATOM     18  N   UNL d   1       0.029   6.176   2.741  0.00  0.00    -0.390 N 
ATOM     19  H   UNL d   1       1.022   5.989   2.778  0.00  0.00     0.157 HD
ATOM     20  H   UNL d   1      -0.280   7.094   3.044  0.00  0.00     0.157 HD
ENDBRANCH  16  18
ENDBRANCH   2  16
TORSDOF 4
