REMARK  5 active torsions:
REMARK  status: ('A' for Active; 'I' for Inactive)
REMARK    1  A    between atoms: S_6  and  C_1 
REMARK    2  A    between atoms: C_8  and  C_5 
REMARK    3  A    between atoms: O_14  and  C_8 
REMARK    4  A    between atoms: C_18  and  O_14 
REMARK    5  A    between atoms: C_19  and  C_18 
ROOT
ATOM      1  C   UNL d   1       1.121  -1.686   0.106  0.00  0.00     0.114 A 
ATOM      2  C   UNL d   1       0.018  -0.857   0.045  0.00  0.00     0.046 A 
ATOM      3  C   UNL d   1       0.367   0.552   0.002  0.00  0.00    -0.018 A 
ATOM      4  S   UNL d   1       2.557  -0.775   0.124  0.00  0.00    -0.071 SA
ATOM      5  C   UNL d   1       1.746   0.729  -0.063  0.00  0.00     0.088 A 
ATOM      6  C   UNL d   1      -1.368  -1.310   0.009  0.00  0.00     0.162 C 
ATOM      7  C   UNL d   1      -0.711   1.622  -0.046  0.00  0.00     0.050 C 
ATOM      8  C   UNL d   1      -2.125   1.076   0.341  0.00  0.00    -0.037 C 
ATOM      9  C   UNL d   1      -2.390  -0.265  -0.381  0.00  0.00     0.093 C 
ATOM     10  O   UNL d   1      -1.698  -2.460   0.282  0.00  0.00    -0.292 OA
ATOM     11  C   UNL d   1      -3.220   2.070  -0.089  0.00  0.00     0.015 C 
ATOM     12  C   UNL d   1      -2.242   0.891   1.871  0.00  0.00     0.015 C 
ENDROOT
BRANCH   5  13
ATOM     13  C   UNL d   1       2.528   1.954  -0.268  0.00  0.00     0.301 C 
ATOM     14  O   UNL d   1       2.065   3.083  -0.335  0.00  0.00    -0.259 OA
BRANCH  13  15
ATOM     15  O   UNL d   1       3.848   1.646  -0.412  0.00  0.00    -0.312 OA
BRANCH  15  16
ATOM     16  C   UNL d   1       4.770   2.683  -0.770  0.00  0.00     0.217 C 
BRANCH  16  17
ATOM     17  C   UNL d   1       5.092   2.644  -2.247  0.00  0.00    -0.034 A 
ATOM     18  C   UNL d   1       5.487   3.820  -2.903  0.00  0.00     0.009 A 
ATOM     19  C   UNL d   1       5.814   3.804  -4.261  0.00  0.00     0.001 A 
ATOM     20  C   UNL d   1       5.761   2.612  -4.980  0.00  0.00     0.000 A 
ATOM     21  C   UNL d   1       5.397   1.432  -4.337  0.00  0.00     0.001 A 
ATOM     22  C   UNL d   1       5.075   1.445  -2.977  0.00  0.00     0.009 A 
ENDBRANCH  16  17
ENDBRANCH  15  16
ENDBRANCH  13  15
ENDBRANCH   5  13
BRANCH   1  23
ATOM     23  S   UNL d   1       1.325  -3.465   0.087  0.00  0.00     0.179 S 
ATOM     24  O   UNL d   1       0.515  -3.918  -1.025  0.00  0.00    -0.222 OA
ATOM     25  O   UNL d   1       2.752  -3.726   0.122  0.00  0.00    -0.222 OA
ATOM     26  C   UNL d   1       0.644  -4.032   1.620  0.00  0.00     0.167 C 
ENDBRANCH   1  23
TORSDOF 5
