REMARK  8 active torsions:
REMARK  status: ('A' for Active; 'I' for Inactive)
REMARK    1  A    between atoms: C_4  and  N_1 
REMARK       I    between atoms: C1_19  and  N_2 
REMARK    2  A    between atoms: N_2  and  C_3 
REMARK    3  A    between atoms: C_3  and  C_6 
REMARK    4  A    between atoms: C_14  and  C_3 
REMARK    5  A    between atoms: C_6  and  C_8 
REMARK    6  A    between atoms: O_13  and  C_6 
REMARK    7  A    between atoms: O_15  and  C_14 
REMARK    8  A    between atoms: C4_20  and  C1_19 
ROOT
ATOM      1  C   UNK d   1      -2.145   1.674   4.254  0.00  0.00     0.176 C 
ENDROOT
BRANCH   1   2
ATOM      2  C   UNK d   1      -2.126   0.667   5.442  0.00  0.00     0.141 C 
BRANCH   2   3
ATOM      3  N   UNK d   1      -0.762   0.520   5.980  0.00  0.00    -0.349 N 
ATOM      4  C1  <1> d   1      -0.275  -0.672   6.475  0.00  0.00     0.251 C 
ATOM      5  O3  <1> d   1      -0.947  -1.705   6.410  0.00  0.00    -0.271 OA
ATOM      6  H   UNK d   1      -0.241   1.363   6.196  0.00  0.00     0.163 HD
BRANCH   4   7
ATOM      7  C4  <1> d   1       1.142  -0.651   7.072  0.00  0.00     0.269 C 
ATOM      8 Cl1  <1> d   1       2.176  -1.753   6.136  0.00  0.00    -0.098 Cl
ATOM      9 Cl2  <1> d   1       1.854   0.987   7.055  0.00  0.00    -0.098 Cl
ENDBRANCH   4   7
ENDBRANCH   2   3
BRANCH   2  10
ATOM     10  C   UNK d   1      -3.103   1.091   6.557  0.00  0.00     0.192 C 
BRANCH  10  11
ATOM     11  O   UNK d   1      -3.218   0.087   7.567  0.00  0.00    -0.399 OA
ATOM     12  H   UNK d   1      -3.326  -0.778   7.128  0.00  0.00     0.209 HD
ENDBRANCH  10  11
ENDBRANCH   2  10
ENDBRANCH   1   2
BRANCH   1  13
ATOM     13  C   UNK d   1      -1.252   1.282   3.076  0.00  0.00    -0.028 A 
ATOM     14  C   UNK d   1      -1.051  -0.068   2.735  0.00  0.00     0.012 A 
ATOM     15  C   UNK d   1      -0.207  -0.436   1.685  0.00  0.00     0.037 A 
ATOM     16  C   UNK d   1       0.431   0.553   0.937  0.00  0.00     0.102 A 
ATOM     17  C   UNK d   1       0.207   1.906   1.216  0.00  0.00     0.037 A 
ATOM     18  C   UNK d   1      -0.641   2.263   2.271  0.00  0.00     0.012 A 
BRANCH  16  19
ATOM     19  N   UNK d   1       1.340   0.168  -0.147  0.00  0.00    -0.116 N 
ATOM     20  O   UNK d   1       1.869   1.071  -0.806  0.00  0.00    -0.532 OA
ATOM     21  O   UNK d   1       1.528  -1.046  -0.339  0.00  0.00    -0.532 OA
ENDBRANCH  16  19
ENDBRANCH   1  13
BRANCH   1  22
ATOM     22  O   UNK d   1      -1.773   2.963   4.764  0.00  0.00    -0.389 OA
ATOM     23  H   UNK d   1      -0.802   3.015   4.755  0.00  0.00     0.210 HD
ENDBRANCH   1  22
TORSDOF 8
