REMARK  5 active torsions:
REMARK  status: ('A' for Active; 'I' for Inactive)
REMARK    1  A    between atoms: S_3  and  C_1 
REMARK    2  A    between atoms: C_14  and  N_2 
REMARK    3  A    between atoms: C_9  and  S_3 
REMARK    4  A    between atoms: O_18  and  C_6 
REMARK    5  A    between atoms: C_11  and  C_10 
ROOT
ATOM      1  C   UNL d   1      -0.194  -1.481   0.560  0.00  0.00     0.171 A 
ATOM      2  N   UNL d   1       0.869  -0.671   0.246  0.00  0.00    -0.286 N 
ATOM      3  N   UNL d   1      -1.153  -0.773   1.119  0.00  0.00    -0.276 N 
ATOM      4  HN  UNL d   1      -2.056  -1.130   1.432  1.00  0.00     0.189 HD
ATOM      5  C   UNL d   1       0.485   0.572   0.716  0.00  0.00     0.240 A 
ATOM      6  N   UNL d   1      -0.727   0.525   1.208  0.00  0.00    -0.263 N 
ATOM      7  HN  UNL d   1      -1.256   1.310   1.587  1.00  0.00     0.190 HD
ENDROOT
BRANCH   1   8
ATOM      8  S   UNL d   1      -0.372  -3.138   0.132  0.00  0.00    -0.034 SA
BRANCH   8   9
ATOM      9  C   UNL d   1      -0.343  -3.950   1.723  0.00  0.00     0.092 A 
ATOM     10  C   UNL d   1      -0.833  -5.243   1.911  0.00  0.00     0.081 A 
ATOM     11  C   UNL d   1      -0.717  -5.807   3.198  0.00  0.00     0.020 A 
ATOM     12  C   UNL d   1      -0.136  -5.093   4.236  0.00  0.00     0.018 A 
ATOM     13  C   UNL d   1       0.338  -3.831   3.953  0.00  0.00     0.089 A 
ATOM     14  N   UNL d   1       0.268  -3.267   2.727  0.00  0.00    -0.360 N 
ATOM     15  HN  UNL d   1       0.667  -2.343   2.558  1.00  0.00     0.166 HD
BRANCH  10  16
ATOM     16  C   UNL d   1      -1.420  -6.110   0.833  0.00  0.00     0.420 C 
ATOM     17  F   UNL d   1      -1.719  -5.514  -0.348  0.00  0.00    -0.166 F 
ATOM     18  F   UNL d   1      -0.582  -7.142   0.516  0.00  0.00    -0.166 F 
ATOM     19  F   UNL d   1      -2.580  -6.707   1.235  0.00  0.00    -0.166 F 
ENDBRANCH  10  16
ENDBRANCH   8   9
ENDBRANCH   1   8
BRANCH   2  20
ATOM     20  C   UNL d   1       2.130  -0.930  -0.446  0.00  0.00     0.095 C 
ATOM     21  C   UNL d   1       2.045  -1.462  -1.889  0.00  0.00     0.026 C 
ATOM     22  C   UNL d   1       2.240  -2.964  -2.078  0.00  0.00     0.002 C 
ATOM     23  C   UNL d   1       3.329  -3.567  -1.200  0.00  0.00     0.000 C 
ATOM     24  C   UNL d   1       3.242  -3.140   0.259  0.00  0.00     0.002 C 
ATOM     25  C   UNL d   1       3.190  -1.627   0.417  0.00  0.00     0.026 C 
ENDBRANCH   2  20
BRANCH   5  26
ATOM     26  O   UNL d   1       1.194   1.689   0.666  0.00  0.00    -0.331 OA
ATOM     27  H   UNL d   1       2.115   1.472   0.871  0.00  0.00     0.221 HD
ENDBRANCH   5  26
TORSDOF 5
