REMARK  3 active torsions:
REMARK  status: ('A' for Active; 'I' for Inactive)
REMARK    1  A    between atoms: N_6  and  C_1 
REMARK       I    between atoms: C_7  and  N_6 
REMARK       I    between atoms: N_9  and  C_7 
REMARK    2  A    between atoms: C_10  and  N_9 
REMARK    3  A    between atoms: O_22  and  C_13 
ROOT
ATOM      1  N   UNL d   1      -1.056   3.045  -0.279  0.00  0.00    -0.293 N 
ATOM      2  C   UNL d   1      -2.046   3.855  -0.723  0.00  0.00     0.326 C 
ATOM      3  N   UNL d   1      -3.144   3.268  -1.280  0.00  0.00    -0.307 N 
ATOM      4  O   UNL d   1      -1.876   5.073  -0.611  0.00  0.00    -0.247 OA
ATOM      5  H   UNL d   1      -0.270   3.546   0.113  0.00  0.00     0.172 HD
ATOM      6  H   UNL d   1      -3.311   2.309  -0.978  0.00  0.00     0.170 HD
ENDROOT
BRANCH   1   7
ATOM      7  C   UNL d   1      -0.889   1.690  -0.426  0.00  0.00     0.139 A 
ATOM      8  N   UNL d   1      -1.841   0.827  -0.792  0.00  0.00    -0.282 N 
ATOM      9  N   UNL d   1      -1.212  -0.371  -0.770  0.00  0.00    -0.294 N 
ATOM     10  HN  UNL d   1      -2.812   1.024  -1.032  1.00  0.00     0.189 HD
ATOM     11  C   UNL d   1      -1.949  -1.571  -1.093  0.00  0.00     0.178 C 
ATOM     12  C   UNL d   1       0.116  -0.306  -0.425  0.00  0.00     0.067 A 
ATOM     13  C   UNL d   1       0.362   1.047  -0.214  0.00  0.00     0.071 A 
ATOM     14  C   UNL d   1       1.112  -1.283  -0.277  0.00  0.00     0.032 A 
ATOM     15  C   UNL d   1       1.671   1.460   0.111  0.00  0.00     0.084 A 
ATOM     16  C   UNL d   1       2.672   0.500   0.289  0.00  0.00     0.038 A 
ATOM     17  C   UNL d   1       2.392  -0.852   0.094  0.00  0.00     0.005 A 
BRANCH  15  18
ATOM     18  O   UNL d   1       1.990   2.784   0.327  0.00  0.00    -0.355 OA
ATOM     19  C   UNL d   1       2.220   3.466  -0.910  0.00  0.00     0.210 C 
ENDBRANCH  15  18
ENDBRANCH   1   7
BRANCH   3  20
ATOM     20  C   UNL d   1      -4.186   3.964  -1.930  0.00  0.00     0.058 A 
ATOM     21  C   UNL d   1      -5.497   3.467  -1.902  0.00  0.00     0.062 A 
ATOM     22  C   UNL d   1      -6.536   4.165  -2.528  0.00  0.00     0.050 A 
ATOM     23 CL   UNL d   1      -5.889   2.018  -1.043  0.00  0.00    -0.082 Cl
ATOM     24  C   UNL d   1      -6.257   5.342  -3.219  0.00  0.00     0.035 A 
ATOM     25  C   UNL d   1      -4.955   5.828  -3.291  0.00  0.00     0.026 A 
ATOM     26 CL   UNL d   1      -7.529   6.201  -3.996  0.00  0.00    -0.084 Cl
ATOM     27  C   UNL d   1      -3.926   5.143  -2.642  0.00  0.00     0.033 A 
ENDBRANCH   3  20
TORSDOF 3
