REMARK  1 active torsions:
REMARK  status: ('A' for Active; 'I' for Inactive)
REMARK    1  A    between atoms: C_8  and  C_4 
ROOT
ATOM      1  N   UNL d   1      -0.258   1.360  -0.056  0.00  0.00    -0.269 N 
ATOM      2  C   UNL d   1       1.002   1.196   0.448  0.00  0.00     0.372 A 
ATOM      3  C   UNL d   1      -0.488  -0.968  -0.551  0.00  0.00     0.112 A 
ATOM      4  C   UNL d   1       0.755  -1.138  -0.086  0.00  0.00     0.096 A 
ATOM      5  C   UNL d   1      -1.056   0.380  -0.549  0.00  0.00     0.252 A 
ATOM      6  O   UNL d   1       1.521  -0.072   0.429  0.00  0.00    -0.260 OA
ATOM      7  O   UNL d   1       1.633   2.146   0.899  0.00  0.00    -0.238 OA
ATOM      8  O   UNL d   1      -2.186   0.590  -0.973  0.00  0.00    -0.268 OA
ATOM      9  H   UNL d   1      -0.632   2.296  -0.038  0.00  0.00     0.174 HD
ENDROOT
BRANCH   4  10
ATOM     10  C   UNL d   1       1.424  -2.455  -0.043  0.00  0.00    -0.002 A 
ATOM     11  C   UNL d   1       1.188  -3.433  -1.024  0.00  0.00     0.014 A 
ATOM     12  C   UNL d   1       1.825  -4.676  -0.968  0.00  0.00     0.001 A 
ATOM     13  C   UNL d   1       2.715  -4.958   0.064  0.00  0.00     0.000 A 
ATOM     14  C   UNL d   1       2.976  -3.995   1.035  0.00  0.00     0.001 A 
ATOM     15  C   UNL d   1       2.337  -2.753   0.980  0.00  0.00     0.014 A 
ENDBRANCH   4  10
TORSDOF 1
