REMARK  3 active torsions:
REMARK  status: ('A' for Active; 'I' for Inactive)
REMARK    1  A    between atoms: N_2  and  C_1 
REMARK       I    between atoms: C_4  and  N_6 
REMARK    2  A    between atoms: C_10  and  C_4 
REMARK    3  A    between atoms: N_6  and  C_5 
ROOT
ATOM      1  C   UNL d   1       0.857  -1.241  -0.142  0.00  0.00     0.061 A 
ATOM      2  C   UNL d   1      -0.469  -1.239  -0.617  0.00  0.00     0.058 A 
ATOM      3  C   UNL d   1      -0.663   1.166  -0.235  0.00  0.00     0.058 A 
ATOM      4  C   UNL d   1       1.435  -0.014   0.220  0.00  0.00     0.063 A 
ATOM      5  C   UNL d   1       0.670   1.165   0.181  0.00  0.00     0.057 A 
ATOM      6  C   UNL d   1      -1.214  -0.052  -0.662  0.00  0.00     0.063 A 
ATOM      7 CL   UNL d   1       3.112   0.217   0.591  0.00  0.00    -0.082 Cl
ATOM      8 CL   UNL d   1      -2.849  -0.137  -1.228  0.00  0.00    -0.082 Cl
ENDROOT
BRANCH   3   9
ATOM      9  N   UNL d   1      -1.489   2.322  -0.202  0.00  0.00    -0.321 N 
ATOM     10  C   UNL d   1      -1.116   3.589   0.203  0.00  0.00     0.256 C 
ATOM     11  O   UNL d   1       0.035   3.968   0.392  0.00  0.00    -0.267 OA
ATOM     12  H   UNL d   1      -2.445   2.173  -0.504  0.00  0.00     0.169 HD
BRANCH  10  13
ATOM     13  C   UNL d   1      -2.209   4.582   0.434  0.00  0.00     0.032 A 
ATOM     14  C   UNL d   1      -3.525   4.211   0.746  0.00  0.00     0.018 A 
ATOM     15  C   UNL d   1      -4.470   5.192   1.070  0.00  0.00     0.025 A 
ATOM     16  C   UNL d   1      -4.104   6.539   1.091  0.00  0.00     0.034 A 
ATOM     17  C   UNL d   1      -2.804   6.919   0.775  0.00  0.00     0.025 A 
ATOM     18 CL   UNL d   1      -5.258   7.734   1.537  0.00  0.00    -0.084 Cl
ATOM     19  C   UNL d   1      -1.860   5.944   0.448  0.00  0.00     0.018 A 
ENDBRANCH  10  13
ENDBRANCH   3   9
BRANCH   1  20
ATOM     20  N   UNL d   1       1.533  -2.495  -0.028  0.00  0.00    -0.331 N 
ATOM     21  C   UNL d   1       2.507  -2.846   0.887  0.00  0.00     0.096 A 
ATOM     22  C   UNL d   1       2.899  -4.149   0.669  0.00  0.00     0.019 A 
ATOM     23  C   UNL d   1       2.110  -4.647  -0.384  0.00  0.00     0.019 A 
ATOM     24  C   UNL d   1       1.266  -3.631  -0.776  0.00  0.00     0.096 A 
ENDBRANCH   1  20
TORSDOF 3
