REMARK  6 active torsions:
REMARK  status: ('A' for Active; 'I' for Inactive)
REMARK    1  A    between atoms: C_3  and  C_1 
REMARK    2  A    between atoms: C_5  and  C_2 
REMARK    3  A    between atoms: O_12  and  C_3 
REMARK    4  A    between atoms: O_14  and  C_7 
REMARK    5  A    between atoms: O_15  and  C_11 
REMARK    6  A    between atoms: C_16  and  O_12 
ROOT
ATOM      1  C   UNL d   1       0.941   0.315  -0.682  0.00  0.00     0.120 C 
ATOM      2  C   UNL d   1       0.458  -0.940  -0.735  0.00  0.00     0.043 C 
ATOM      3  C   UNL d   1       2.117   0.726  -1.368  0.00  0.00     0.105 C 
ATOM      4  N   UNL d   1       3.069   1.063  -1.944  0.00  0.00    -0.191 NA
ENDROOT
BRANCH   1   5
ATOM      5  C   UNL d   1       0.129   1.322   0.046  0.00  0.00     0.303 C 
ATOM      6  O   UNL d   1      -0.920   1.073   0.624  0.00  0.00    -0.258 OA
BRANCH   5   7
ATOM      7  O   UNL d   1       0.668   2.554  -0.118  0.00  0.00    -0.317 OA
BRANCH   7   8
ATOM      8  C   UNL d   1      -0.193   3.664   0.167  0.00  0.00     0.174 C 
ATOM      9  C   UNL d   1      -0.991   3.981  -1.085  0.00  0.00     0.034 C 
ENDBRANCH   7   8
ENDBRANCH   5   7
ENDBRANCH   1   5
BRANCH   2  10
ATOM     10  C   UNL d   1       1.082  -1.996  -1.538  0.00  0.00    -0.001 A 
ATOM     11  C   UNL d   1       2.145  -2.804  -1.108  0.00  0.00     0.081 A 
ATOM     12  C   UNL d   1       2.791  -3.643  -2.030  0.00  0.00     0.074 A 
ATOM     13  C   UNL d   1       2.380  -3.700  -3.363  0.00  0.00     0.070 A 
ATOM     14  C   UNL d   1       1.298  -2.927  -3.775  0.00  0.00     0.038 A 
ATOM     15  C   UNL d   1       0.651  -2.083  -2.873  0.00  0.00     0.017 A 
BRANCH  11  16
ATOM     16  O   UNL d   1       2.722  -2.810   0.135  0.00  0.00    -0.355 OA
ATOM     17  C   UNL d   1       1.857  -2.682   1.256  0.00  0.00     0.210 C 
ENDBRANCH  11  16
BRANCH  13  18
ATOM     18  O   UNL d   1       2.952  -4.452  -4.353  0.00  0.00    -0.356 OA
ATOM     19  C   UNL d   1       4.107  -5.201  -4.001  0.00  0.00     0.210 C 
ENDBRANCH  13  18
ENDBRANCH   2  10
TORSDOF 6
