REMARK  4 active torsions:
REMARK  status: ('A' for Active; 'I' for Inactive)
REMARK    1  A    between atoms: C_2  and  C_1 
REMARK       I    between atoms: N_6  and  C_1 
REMARK       I    between atoms: C_3  and  N_5 
REMARK       I    between atoms: N_7  and  C_3 
REMARK    2  A    between atoms: N_5  and  C_4 
REMARK    3  A    between atoms: C_11  and  N_6 
REMARK    4  A    between atoms: C_12  and  N_7 
ROOT
ATOM      1  C   UNL d   1       0.137  -1.403   0.856  0.00  0.00     0.058 C 
ATOM      2  C   UNL d   1       1.132  -2.246   1.372  0.00  0.00     0.052 C 
ATOM      3  C   UNL d   1      -0.911  -1.946   0.107  0.00  0.00     0.019 C 
ATOM      4  C   UNL d   1       0.839  -3.602   1.519  0.00  0.00     0.030 C 
ATOM      5  C   UNL d   1      -1.104  -3.327   0.108  0.00  0.00     0.001 C 
ATOM      6  C   UNL d   1      -0.291  -4.139   0.899  0.00  0.00     0.002 C 
ENDROOT
BRANCH   2   7
ATOM      7  N   UNL d   1       2.420  -1.815   1.750  0.00  0.00    -0.308 N 
ATOM      8  C   UNL d   1       3.226  -0.819   1.239  0.00  0.00     0.325 C 
ATOM      9  N   UNL d   1       2.781  -0.146   0.136  0.00  0.00    -0.309 N 
ATOM     10  O   UNL d   1       4.315  -0.660   1.794  0.00  0.00    -0.247 OA
ATOM     11  H   UNL d   1       1.911  -0.438  -0.266  0.00  0.00     0.170 HD
ATOM     12  H   UNL d   1       2.970  -2.433   2.339  0.00  0.00     0.170 HD
BRANCH   9  13
ATOM     13  C   UNL d   1       3.409   0.915  -0.561  0.00  0.00     0.036 A 
ATOM     14  C   UNL d   1       4.699   1.375  -0.292  0.00  0.00     0.029 A 
ATOM     15  C   UNL d   1       5.239   2.445  -1.021  0.00  0.00     0.002 A 
ATOM     16  C   UNL d   1       4.495   3.063  -2.022  0.00  0.00     0.000 A 
ATOM     17  C   UNL d   1       3.211   2.607  -2.305  0.00  0.00     0.002 A 
ATOM     18  C   UNL d   1       2.675   1.536  -1.581  0.00  0.00     0.029 A 
ENDBRANCH   9  13
ENDBRANCH   2   7
BRANCH   1  19
ATOM     19  C   UNL d   1       0.009   0.009   1.331  0.00  0.00     0.254 C 
ATOM     20  N   UNL d   1       0.329   0.171   2.664  0.00  0.00    -0.351 N 
ATOM     21  H   UNL d   1       0.681  -0.641   3.158  0.00  0.00     0.163 HD
ATOM     22  O   UNL d   1      -0.417   0.889   0.590  0.00  0.00    -0.268 OA
BRANCH  20  23
ATOM     23  C   UNL d   1       0.251   1.390   3.451  0.00  0.00     0.094 C 
ATOM     24  C   UNL d   1      -1.171   1.955   3.584  0.00  0.00     0.036 C 
ATOM     25  C   UNL d   1      -1.223   3.349   2.992  0.00  0.00     0.076 C 
ATOM     26  S   UNL d   1       0.401   4.039   3.360  0.00  0.00    -0.167 SA
ATOM     27  C   UNL d   1       1.244   2.475   3.027  0.00  0.00     0.099 C 
ENDBRANCH  20  23
ENDBRANCH   1  19
TORSDOF 4
