REMARK  4 active torsions:
REMARK  status: ('A' for Active; 'I' for Inactive)
REMARK    1  A    between atoms: O_7  and  C_1 
REMARK    2  A    between atoms: C_15  and  O_7 
REMARK    3  A    between atoms: C_10  and  O_13 
REMARK    4  A    between atoms: O_13  and  C_12 
ROOT
ATOM      1  C   UNL d   1      -2.056  -0.509   0.114  0.00  0.00     0.156 C 
ATOM      2  C   UNL d   1      -0.742  -1.221  -0.009  0.00  0.00     0.221 C 
ATOM      3  C   UNL d   1       0.470  -0.385  -0.010  0.00  0.00     0.051 A 
ATOM      4  C   UNL d   1      -2.038   0.843   0.149  0.00  0.00     0.087 C 
ATOM      5  C   UNL d   1       0.309   0.994  -0.076  0.00  0.00     0.092 A 
ATOM      6  O   UNL d   1      -0.910   1.602  -0.094  0.00  0.00    -0.311 OA
ATOM      7  C   UNL d   1       1.413   1.839  -0.092  0.00  0.00     0.075 A 
ATOM      8  C   UNL d   1       1.759  -0.933   0.066  0.00  0.00     0.021 A 
ATOM      9  O   UNL d   1      -0.660  -2.444  -0.071  0.00  0.00    -0.284 OA
ATOM     10  C   UNL d   1       2.688   1.304   0.050  0.00  0.00     0.081 A 
ATOM     11  C   UNL d   1       2.871  -0.082   0.105  0.00  0.00     0.038 A 
ATOM     12  C   UNL d   1      -3.208   1.732   0.461  0.00  0.00     0.080 C 
ENDROOT
BRANCH   1  13
ATOM     13  O   UNL d   1      -3.170  -1.315   0.297  0.00  0.00    -0.304 OA
BRANCH  13  14
ATOM     14  C   UNL d   1      -4.331  -1.082  -0.405  0.00  0.00     0.076 A 
ATOM     15  C   UNL d   1      -4.399  -0.400  -1.623  0.00  0.00     0.039 A 
ATOM     16  C   UNL d   1      -5.641  -0.139  -2.210  0.00  0.00     0.026 A 
ATOM     17  C   UNL d   1      -6.806  -0.609  -1.607  0.00  0.00     0.034 A 
ATOM     18  C   UNL d   1      -6.740  -1.343  -0.425  0.00  0.00     0.026 A 
ATOM     19 CL   UNL d   1      -8.332  -0.278  -2.328  0.00  0.00    -0.084 Cl
ATOM     20  C   UNL d   1      -5.501  -1.579   0.176  0.00  0.00     0.039 A 
ENDBRANCH  13  14
ENDBRANCH   1  13
BRANCH  10  21
ATOM     21  O   UNL d   1       3.835   2.120   0.093  0.00  0.00    -0.279 OA
BRANCH  21  22
ATOM     22  C   UNL d   1       3.778   3.329   0.790  0.00  0.00     0.260 C 
ATOM     23  O   UNL d   1       2.830   3.765   1.431  0.00  0.00    -0.265 OA
ATOM     24  C   UNL d   1       5.068   4.075   0.632  0.00  0.00     0.126 C 
ENDBRANCH  21  22
ENDBRANCH  10  21
TORSDOF 4
