REMARK  4 active torsions:
REMARK  status: ('A' for Active; 'I' for Inactive)
REMARK    1  A    between atoms: C_2  and  C_1 
REMARK       I    between atoms: C_5  and  N_12 
REMARK       I    between atoms: N_11  and  C_5 
REMARK    2  A    between atoms: C_15  and  C_7 
REMARK    3  A    between atoms: C_17  and  N_11 
REMARK    4  A    between atoms: N_12  and  C_15 
ROOT
ATOM      1  C   UNL d   1      -0.699  -2.349   0.146  0.00  0.00     0.189 C 
ENDROOT
BRANCH   1   2
ATOM      2  N   UNL d   1       0.201  -3.466  -0.039  0.00  0.00    -0.337 N 
ATOM      3  C   UNL d   1      -0.332  -4.727  -0.185  0.00  0.00     0.321 C 
ATOM      4  N   UNL d   1       0.624  -5.696  -0.354  0.00  0.00    -0.309 N 
ATOM      5  O   UNL d   1      -1.548  -4.894  -0.187  0.00  0.00    -0.247 OA
ATOM      6  H   UNL d   1       1.574  -5.423  -0.173  0.00  0.00     0.170 HD
ATOM      7  H   UNL d   1       1.171  -3.332   0.193  0.00  0.00     0.164 HD
BRANCH   4   8
ATOM      8  C   UNL d   1       0.405  -7.025  -0.783  0.00  0.00     0.036 A 
ATOM      9  C   UNL d   1      -0.837  -7.504  -1.211  0.00  0.00     0.031 A 
ATOM     10  C   UNL d   1      -0.967  -8.792  -1.741  0.00  0.00     0.026 A 
ATOM     11  C   UNL d   1       0.148  -9.617  -1.833  0.00  0.00     0.034 A 
ATOM     12  C   UNL d   1       1.384  -9.176  -1.369  0.00  0.00     0.026 A 
ATOM     13 CL   UNL d   1       0.002 -11.175  -2.547  0.00  0.00    -0.084 Cl
ATOM     14  C   UNL d   1       1.512  -7.883  -0.844  0.00  0.00     0.031 A 
ENDBRANCH   4   8
ENDBRANCH   1   2
BRANCH   1  15
ATOM     15  C   UNL d   1       0.039  -1.077   0.348  0.00  0.00     0.071 A 
ATOM     16  O   UNL d   1       1.287  -1.142   0.898  0.00  0.00    -0.312 OA
ATOM     17  C   UNL d   1       1.750   0.141   1.019  0.00  0.00     0.089 A 
ATOM     18  C   UNL d   1       0.790   1.021   0.560  0.00  0.00     0.041 A 
ATOM     19  C   UNL d   1      -0.307   0.239   0.126  0.00  0.00     0.037 A 
BRANCH  17  20
ATOM     20  C   UNL d   1       3.097   0.286   1.555  0.00  0.00     0.036 A 
ATOM     21  C   UNL d   1       3.870   1.425   1.283  0.00  0.00     0.132 A 
ATOM     22  C   UNL d   1       5.178   1.546   1.746  0.00  0.00     0.085 A 
ATOM     23  F   UNL d   1       3.372   2.429   0.545  0.00  0.00    -0.205 F 
ATOM     24  C   UNL d   1       5.722   0.520   2.503  0.00  0.00     0.119 A 
ATOM     25  C   UNL d   1       4.977  -0.612   2.815  0.00  0.00     0.043 A 
ATOM     26  F   UNL d   1       6.984   0.618   2.937  0.00  0.00    -0.206 F 
ATOM     27  C   UNL d   1       3.669  -0.729   2.343  0.00  0.00     0.020 A 
ENDBRANCH  17  20
ENDBRANCH   1  15
TORSDOF 4
