REMARK  6 active torsions:
REMARK  status: ('A' for Active; 'I' for Inactive)
REMARK    1  A    between atoms: N_2  and  S_1 
REMARK    2  A    between atoms: C_5  and  S_1 
REMARK    3  A    between atoms: C_4  and  C_3 
REMARK    4  A    between atoms: C_6  and  C_10 
REMARK    5  A    between atoms: C_10  and  S_14 
REMARK    6  A    between atoms: S_14  and  C_15 
ROOT
ATOM      1  N   UNL d   1       0.479   1.467   0.616  0.00  0.00    -0.256 N 
ATOM      2  C   UNL d   1       1.083   2.712   0.199  0.00  0.00     0.124 C 
ATOM      3  N   UNL d   1       0.678   3.834   0.681  0.00  0.00    -0.375 N 
ATOM      4  HN  UNL d   1       1.147   4.690   0.387  1.00  0.00     0.161 HD
ATOM      5  C   UNL d   1      -0.584   1.486   1.669  0.00  0.00     0.145 C 
ATOM      6  C   UNL d   1      -0.420   3.931   1.630  0.00  0.00     0.123 C 
ATOM      7  C   UNL d   1      -1.375   2.765   1.547  0.00  0.00     0.041 C 
ENDROOT
BRANCH   2   8
ATOM      8  C   UNL d   1       2.290   2.752  -0.700  0.00  0.00     0.025 A 
ATOM      9  C   UNL d   1       2.429   3.656  -1.779  0.00  0.00     0.014 A 
ATOM     10  C   UNL d   1       3.678   3.740  -2.435  0.00  0.00     0.019 A 
ATOM     11  C   UNL d   1       4.740   2.900  -2.106  0.00  0.00     0.001 A 
ATOM     12  C   UNL d   1       4.601   2.009  -1.059  0.00  0.00     0.001 A 
ATOM     13  C   UNL d   1       3.409   1.982  -0.336  0.00  0.00     0.016 A 
BRANCH   9  14
ATOM     14  S   UNL d   1       1.143   4.780  -2.347  0.00  0.00    -0.124 SA
BRANCH  14  15
ATOM     15  C   UNL d   1       1.171   4.462  -4.150  0.00  0.00     0.123 C 
BRANCH  15  16
ATOM     16  C   UNL d   1       0.377   5.483  -4.920  0.00  0.00     0.012 A 
ATOM     17  C   UNL d   1      -0.984   5.253  -5.142  0.00  0.00     0.125 A 
ATOM     18  F   UNL d   1      -1.557   4.141  -4.663  0.00  0.00    -0.205 F 
ATOM     19  C   UNL d   1      -1.775   6.143  -5.867  0.00  0.00     0.043 A 
ATOM     20  C   UNL d   1      -1.208   7.298  -6.395  0.00  0.00     0.005 A 
ATOM     21  C   UNL d   1       0.146   7.558  -6.183  0.00  0.00     0.024 A 
ATOM     22  C   UNL d   1       0.933   6.660  -5.449  0.00  0.00     0.044 A 
ATOM     23 CL   UNL d   1       2.603   7.059  -5.243  0.00  0.00    -0.084 Cl
ENDBRANCH  15  16
ENDBRANCH  14  15
ENDBRANCH   9  14
ENDBRANCH   2   8
BRANCH   1  24
ATOM     24  S   UNL d   1       0.830  -0.109   0.054  0.00  0.00     0.266 S 
ATOM     25  O   UNL d   1       1.518  -0.036  -1.216  0.00  0.00    -0.200 OA
ATOM     26  O   UNL d   1      -0.340  -0.942   0.205  0.00  0.00    -0.200 OA
BRANCH  24  27
ATOM     27  C   UNL d   1       2.020  -0.757   1.234  0.00  0.00     0.081 A 
ATOM     28  C   UNL d   1       2.647  -1.967   0.913  0.00  0.00     0.050 A 
ATOM     29  C   UNL d   1       3.647  -2.476   1.750  0.00  0.00     0.057 A 
ATOM     30 CL   UNL d   1       4.396  -3.965   1.294  0.00  0.00    -0.083 Cl
ATOM     31  C   UNL d   1       4.026  -1.774   2.901  0.00  0.00     0.055 A 
ATOM     32  C   UNL d   1       3.397  -0.566   3.215  0.00  0.00     0.027 A 
ATOM     33 CL   UNL d   1       5.269  -2.327   3.965  0.00  0.00    -0.083 Cl
ATOM     34  C   UNL d   1       2.392  -0.059   2.388  0.00  0.00     0.027 A 
ENDBRANCH  24  27
ENDBRANCH   1  24
TORSDOF 6
