REMARK  3 active torsions:
REMARK  status: ('A' for Active; 'I' for Inactive)
REMARK    1  A    between atoms: C_7  and  C_1 
REMARK    2  A    between atoms: O_14  and  C_10 
REMARK    3  A    between atoms: C_15  and  O_14 
ROOT
ATOM      1  N   UNL d   1       1.135  -9.981   1.618  0.00  0.00    -0.195 NA
ATOM      2  C   UNL d   1       1.207  -8.824   1.567  0.00  0.00     0.085 C 
ATOM      3  C   UNL d   1       1.328  -7.354   1.532  0.00  0.00     0.299 C 
ENDROOT
BRANCH   3   4
ATOM      4  O   UNL d   1       0.184  -6.784   0.887  0.00  0.00    -0.338 OA
BRANCH   4   5
ATOM      5  C   UNL d   1       0.170  -5.423   0.756  0.00  0.00     0.070 A 
ATOM      6  C   UNL d   1      -0.575  -4.939  -0.321  0.00  0.00     0.038 A 
ATOM      7  C   UNL d   1      -0.697  -3.563  -0.543  0.00  0.00     0.017 A 
ATOM      8  C   UNL d   1      -0.100  -2.651   0.334  0.00  0.00    -0.003 A 
ATOM      9  C   UNL d   1       0.645  -3.139   1.415  0.00  0.00     0.017 A 
ATOM     10  C   UNL d   1       0.780  -4.519   1.625  0.00  0.00     0.038 A 
BRANCH   8  11
ATOM     11  C   UNL d   1      -0.277  -1.201   0.082  0.00  0.00     0.076 C 
ATOM     12  N   UNL d   1      -0.540  -0.713  -1.089  0.00  0.00    -0.383 N 
ATOM     13  C   UNL d   1      -0.603   0.761  -1.011  0.00  0.00     0.131 C 
ATOM     14  HN  UNL d   1      -0.682  -1.263  -1.937  1.00  0.00     0.160 HD
ATOM     15  C   UNL d   1      -1.000   1.188   0.391  0.00  0.00     0.100 C 
ATOM     16  S   UNL d   1      -0.207  -0.064   1.413  0.00  0.00    -0.110 SA
ENDBRANCH   8  11
ENDBRANCH   4   5
ENDBRANCH   3   4
TORSDOF 3
