REMARK  5 active torsions:
REMARK  status: ('A' for Active; 'I' for Inactive)
REMARK    1  A    between atoms: C_3  and  C_1 
REMARK       I    between atoms: N_7  and  C_3 
REMARK    2  A    between atoms: C_8  and  C_6 
REMARK    3  A    between atoms: C_9  and  N_7 
REMARK       I    between atoms: N_12  and  C_8 
REMARK    4  A    between atoms: C_19  and  N_12 
REMARK    5  A    between atoms: C_13  and  C_19 
ROOT
ATOM      1  C   UNL d   1      -3.889  -4.086  -0.525  0.00  0.00     0.262 C 
ATOM      2  N   UNL d   1      -2.689  -3.524  -0.161  0.00  0.00    -0.322 N 
ATOM      3  O   UNL d   1      -4.076  -5.303  -0.567  0.00  0.00    -0.267 OA
ATOM      4  H   UNL d   1      -2.664  -2.536   0.101  0.00  0.00     0.169 HD
ENDROOT
BRANCH   2   5
ATOM      5  C   UNL d   1      -1.466  -4.231  -0.061  0.00  0.00     0.050 A 
ATOM      6  C   UNL d   1      -0.506  -3.895   0.916  0.00  0.00     0.058 A 
ATOM      7  C   UNL d   1       0.748  -4.521   0.896  0.00  0.00     0.019 A 
ATOM      8  C   UNL d   1       1.051  -5.482  -0.070  0.00  0.00     0.001 A 
ATOM      9  C   UNL d   1       0.092  -5.837  -1.016  0.00  0.00     0.002 A 
ATOM     10  C   UNL d   1      -1.162  -5.225  -1.001  0.00  0.00     0.030 A 
BRANCH   6  11
ATOM     11  C   UNL d   1      -0.779  -2.939   2.028  0.00  0.00     0.253 C 
ATOM     12  N   UNL d   1      -2.077  -2.899   2.483  0.00  0.00    -0.356 N 
ATOM     13  H   UNL d   1      -2.723  -3.612   2.168  0.00  0.00     0.162 HD
ATOM     14  O   UNL d   1       0.130  -2.263   2.500  0.00  0.00    -0.268 OA
BRANCH  12  15
ATOM     15  C   UNL d   1      -2.531  -1.978   3.496  0.00  0.00     0.127 C 
BRANCH  15  16
ATOM     16  C   UNL d   1      -2.604  -2.649   4.831  0.00  0.00     0.003 A 
ATOM     17  C   UNL d   1      -3.473  -3.857   5.092  0.00  0.00     0.007 A 
ATOM     18  C   UNL d   1      -3.863  -2.521   5.657  0.00  0.00     0.007 A 
ENDBRANCH  15  16
ENDBRANCH  12  15
ENDBRANCH   6  11
ENDBRANCH   2   5
BRANCH   1  19
ATOM     19  C   UNL d   1      -5.003  -3.138  -0.831  0.00  0.00     0.108 A 
ATOM     20  C   UNL d   1      -4.829  -1.673  -0.915  0.00  0.00     0.304 A 
ATOM     21  O   UNL d   1      -5.931  -0.914  -1.303  0.00  0.00    -0.274 OA
ATOM     22  O   UNL d   1      -3.763  -1.137  -0.626  0.00  0.00    -0.259 OA
ATOM     23  C   UNL d   1      -7.145  -1.520  -1.673  0.00  0.00     0.089 A 
ATOM     24  C   UNL d   1      -7.307  -2.897  -1.570  0.00  0.00    -0.001 A 
ATOM     25  C   UNL d   1      -8.155  -0.704  -2.175  0.00  0.00     0.038 A 
ATOM     26  C   UNL d   1      -6.196  -3.700  -1.094  0.00  0.00     0.037 A 
ATOM     27  C   UNL d   1      -8.505  -3.475  -1.992  0.00  0.00     0.014 A 
ATOM     28  C   UNL d   1      -9.519  -2.671  -2.519  0.00  0.00     0.001 A 
ATOM     29  C   UNL d   1      -9.345  -1.288  -2.608  0.00  0.00     0.003 A 
ENDBRANCH   1  19
TORSDOF 5
