REMARK  10 active torsions:
REMARK  status: ('A' for Active; 'I' for Inactive)
REMARK    1  A    between atoms: N_6  and  C_2 
REMARK    2  A    between atoms: C_13  and  C_3 
REMARK    3  A    between atoms: N_16  and  C_19 
REMARK    4  A    between atoms: C_23  and  N_16 
REMARK    5  A    between atoms: O_20  and  C_24 
REMARK    6  A    between atoms: C_22  and  O_20 
REMARK    7  A    between atoms: C_21  and  C_23 
REMARK    8  A    between atoms: C_24  and  C_21 
REMARK    9  A    between atoms: O_30  and  C_21 
REMARK   10  A    between atoms: O_31  and  C_25 
ROOT
ATOM      1  N   UNL d   1       1.820   2.743   0.074  0.00  0.00    -0.268 NA
ATOM      2  C   UNL d   1       2.018   3.155   1.467  0.00  0.00     0.099 C 
ATOM      3  C   UNL d   1       2.869   3.248  -0.805  0.00  0.00     0.099 C 
ATOM      4  C   UNL d   1       1.725   4.646   1.517  0.00  0.00     0.050 C 
ATOM      5  C   UNL d   1       2.739   4.765  -0.839  0.00  0.00     0.050 C 
ATOM      6  C   UNL d   1       2.591   5.460   0.530  0.00  0.00     0.223 C 
ENDROOT
BRANCH   1   7
ATOM      7  C   UNL d   1       1.491   1.410  -0.120  0.00  0.00     0.097 A 
ATOM      8  C   UNL d   1       0.630   0.961  -1.167  0.00  0.00     0.048 A 
ATOM      9  C   UNL d   1      -0.063   1.591  -2.301  0.00  0.00    -0.003 A 
ATOM     10  C   UNL d   1       0.339  -0.399  -1.129  0.00  0.00     0.089 A 
ATOM     11  C   UNL d   1      -0.813   0.669  -3.000  0.00  0.00     0.065 A 
ATOM     12  S   UNL d   1      -0.699  -0.915  -2.377  0.00  0.00    -0.082 SA
ATOM     13  N   UNL d   1       0.773  -1.310  -0.240  0.00  0.00    -0.346 N 
ATOM     14  C   UNL d   1       1.555  -0.774   0.690  0.00  0.00     0.182 A 
ATOM     15  HN  UNL d   1       0.530  -2.300  -0.276  1.00  0.00     0.167 HD
ATOM     16  N   UNL d   1       1.929   0.505   0.792  0.00  0.00    -0.342 N 
ATOM     17  HN  UNL d   1       2.541   0.800   1.553  1.00  0.00     0.167 HD
BRANCH   9  18
ATOM     18  C   UNL d   1      -0.053   2.970  -2.801  0.00  0.00    -0.024 A 
ATOM     19  C   UNL d   1       0.209   3.234  -4.159  0.00  0.00     0.012 A 
ATOM     20  C   UNL d   1       0.333   4.540  -4.638  0.00  0.00     0.001 A 
ATOM     21  C   UNL d   1       0.180   5.616  -3.766  0.00  0.00     0.000 A 
ATOM     22  C   UNL d   1      -0.187   5.375  -2.444  0.00  0.00     0.001 A 
ATOM     23  C   UNL d   1      -0.307   4.060  -1.962  0.00  0.00     0.012 A 
ENDBRANCH   9  18
ENDBRANCH   1   7
BRANCH   6  24
ATOM     24  N   UNL d   1       3.891   5.729   1.146  0.00  0.00     0.090 N 
ATOM     25  H   UNL d   1       4.370   4.844   1.282  0.00  0.00     0.316 HD
BRANCH  24  26
ATOM     26  C   UNL d   1       4.688   6.684   0.368  0.00  0.00     0.303 C 
BRANCH  26  27
ATOM     27  C   UNL d   1       6.142   6.813   0.843  0.00  0.00     0.170 C 
BRANCH  27  28
ATOM     28  C   UNL d   1       6.823   5.437   0.815  0.00  0.00     0.209 C 
BRANCH  28  29
ATOM     29  O   UNL d   1       8.167   5.536   1.267  0.00  0.00    -0.349 OA
BRANCH  29  30
ATOM     30  C   UNL d   1       8.827   4.340   1.384  0.00  0.00     0.069 A 
ATOM     31  C   UNL d   1       8.323   3.085   1.027  0.00  0.00     0.039 A 
ATOM     32  C   UNL d   1       9.097   1.939   1.187  0.00  0.00     0.039 A 
ATOM     33  C   UNL d   1      10.389   2.038   1.708  0.00  0.00     0.068 A 
ATOM     34  C   UNL d   1      10.890   3.291   2.067  0.00  0.00     0.039 A 
ATOM     35  C   UNL d   1      10.105   4.441   1.909  0.00  0.00     0.039 A 
BRANCH  33  36
ATOM     36  O   UNL d   1      11.255   0.997   1.912  0.00  0.00    -0.356 OA
ATOM     37  C   UNL d   1      10.790  -0.297   1.553  0.00  0.00     0.210 C 
ENDBRANCH  33  36
ENDBRANCH  29  30
ENDBRANCH  28  29
ENDBRANCH  27  28
BRANCH  27  38
ATOM     38  O   UNL d   1       6.814   7.729  -0.035  0.00  0.00    -0.392 OA
ATOM     39  H   UNL d   1       6.926   7.293  -0.901  0.00  0.00     0.210 HD
ENDBRANCH  27  38
ENDBRANCH  26  27
ENDBRANCH  24  26
ENDBRANCH   6  24
TORSDOF 10
