REMARK  8 active torsions:
REMARK  status: ('A' for Active; 'I' for Inactive)
REMARK    1  A    between atoms: N_2  and  C_1 
REMARK    2  A    between atoms: N_3  and  C_1 
REMARK    3  A    between atoms: C_7  and  N_2 
REMARK    4  A    between atoms: C_8  and  N_3 
REMARK    5  A    between atoms: C_14  and  C_7 
REMARK    6  A    between atoms: C_15  and  C_7 
REMARK    7  A    between atoms: O_16  and  C_14 
REMARK    8  A    between atoms: O_17  and  C_15 
ROOT
ATOM      1  C   UNL d   1       1.081  -0.199  -0.119  0.00  0.00     0.172 C 
ATOM      2  S   UNL d   1       2.462  -1.106  -0.362  0.00  0.00    -0.041 SA
ENDROOT
BRANCH   1   3
ATOM      3  N   UNL d   1       0.649   0.291   1.098  0.00  0.00    -0.354 N 
ATOM      4  H   UNL d   1      -0.359   0.416   1.150  0.00  0.00     0.162 HD
BRANCH   3   5
ATOM      5  C   UNL d   1       1.285   0.311   2.453  0.00  0.00     0.071 C 
ATOM      6  C   UNL d   1       1.382  -1.100   3.058  0.00  0.00     0.043 C 
BRANCH   5   7
ATOM      7  C   UNL d   1       2.683   0.980   2.433  0.00  0.00     0.197 C 
BRANCH   7   8
ATOM      8  O   UNL d   1       2.641   2.246   1.775  0.00  0.00    -0.398 OA
ATOM      9  H   UNL d   1       2.445   2.051   0.841  0.00  0.00     0.209 HD
ENDBRANCH   7   8
ENDBRANCH   5   7
BRANCH   5  10
ATOM     10  C   UNL d   1       0.361   1.185   3.353  0.00  0.00     0.197 C 
BRANCH  10  11
ATOM     11  O   UNL d   1      -0.964   0.644   3.404  0.00  0.00    -0.398 OA
ATOM     12  H   UNL d   1      -0.950  -0.105   4.026  0.00  0.00     0.209 HD
ENDBRANCH  10  11
ENDBRANCH   5  10
ENDBRANCH   3   5
ENDBRANCH   1   3
BRANCH   1  13
ATOM     13  N   UNL d   1       0.255   0.308  -1.121  0.00  0.00    -0.333 N 
ATOM     14  H   UNL d   1      -0.073   1.248  -0.919  0.00  0.00     0.168 HD
BRANCH  13  15
ATOM     15  C   UNL d   1       0.201  -0.077  -2.476  0.00  0.00     0.036 A 
ATOM     16  C   UNL d   1       0.017   0.911  -3.448  0.00  0.00     0.056 A 
ATOM     17  C   UNL d   1      -0.032   0.558  -4.800  0.00  0.00     0.074 A 
ATOM     18 CL   UNL d   1      -0.191   1.792  -5.991  0.00  0.00    -0.081 Cl
ATOM     19  C   UNL d   1       0.058  -0.782  -5.173  0.00  0.00     0.138 A 
ATOM     20  C   UNL d   1       0.196  -1.773  -4.213  0.00  0.00     0.046 A 
ATOM     21  F   UNL d   1       0.003  -1.137  -6.465  0.00  0.00    -0.204 F 
ATOM     22  C   UNL d   1       0.267  -1.423  -2.864  0.00  0.00     0.032 A 
ENDBRANCH  13  15
ENDBRANCH   1  13
TORSDOF 8
