REMARK  12 active torsions:
REMARK  status: ('A' for Active; 'I' for Inactive)
REMARK    1  A    between atoms: O_6  and  C_1 
REMARK    2  A    between atoms: N_4  and  C_2 
REMARK    3  A    between atoms: N_5  and  C_3 
REMARK    4  A    between atoms: C_11  and  O_6 
REMARK    5  A    between atoms: C_7  and  C_8 
REMARK    6  A    between atoms: C_14  and  C_11 
REMARK    7  A    between atoms: C_26  and  C_25 
REMARK    8  A    between atoms: C_27  and  C_26 
REMARK    9  A    between atoms: C_30  and  C_27 
REMARK   10  A    between atoms: C_28  and  C_29 
REMARK   11  A    between atoms: C_29  and  C_31 
REMARK   12  A    between atoms: C_31  and  C_30 
ROOT
ATOM      1  C   UNL d   1       5.135  -1.232   2.441  0.00  0.00     0.145 A 
ATOM      2  C   UNL d   1       6.160  -0.573   1.751  0.00  0.00     0.140 A 
ATOM      3  C   UNL d   1       5.064  -1.068   3.837  0.00  0.00     0.140 A 
ATOM      4  C   UNL d   1       7.096   0.296   3.823  0.00  0.00     0.052 A 
ATOM      5  C   UNL d   1       6.045  -0.316   4.523  0.00  0.00     0.055 A 
ATOM      6  C   UNL d   1       7.109   0.217   2.424  0.00  0.00     0.055 A 
ENDROOT
BRANCH   1   7
ATOM      7  O   UNL d   1       4.314  -2.213   1.844  0.00  0.00    -0.270 OA
BRANCH   7   8
ATOM      8  C   UNL d   1       3.580  -2.012   0.674  0.00  0.00     0.298 C 
ATOM      9  O   UNL d   1       3.582  -0.997   0.007  0.00  0.00    -0.259 OA
BRANCH   8  10
ATOM     10  C   UNL d   1       2.774  -3.241   0.404  0.00  0.00     0.040 A 
ATOM     11  C   UNL d   1       2.152  -3.403  -0.839  0.00  0.00     0.018 A 
ATOM     12  C   UNL d   1       1.270  -4.474  -1.047  0.00  0.00     0.008 A 
ATOM     13  C   UNL d   1       0.991  -5.376  -0.011  0.00  0.00    -0.058 A 
ATOM     14  C   UNL d   1       1.685  -5.259   1.197  0.00  0.00     0.008 A 
ATOM     15  C   UNL d   1       2.564  -4.196   1.405  0.00  0.00     0.018 A 
BRANCH  13  16
ATOM     16  C   UNL d   1      -0.114  -6.400  -0.138  0.00  0.00     0.038 C 
BRANCH  16  17
ATOM     17  C   UNL d   1      -1.288  -6.115   0.818  0.00  0.00     0.005 C 
BRANCH  17  18
ATOM     18  C   UNL d   1      -1.956  -4.759   0.554  0.00  0.00     0.000 C 
BRANCH  18  19
ATOM     19  C   UNL d   1      -3.083  -4.468   1.548  0.00  0.00     0.000 C 
BRANCH  19  20
ATOM     20  C   UNL d   1      -3.701  -3.094   1.278  0.00  0.00    -0.000 C 
BRANCH  20  21
ATOM     21  C   UNL d   1      -4.824  -2.774   2.263  0.00  0.00    -0.005 C 
ATOM     22  C   UNL d   1      -5.432  -1.408   1.983  0.00  0.00     0.005 C 
ENDBRANCH  20  21
ENDBRANCH  19  20
ENDBRANCH  18  19
ENDBRANCH  17  18
ENDBRANCH  16  17
ENDBRANCH  13  16
ENDBRANCH   8  10
ENDBRANCH   7   8
ENDBRANCH   1   7
BRANCH   2  23
ATOM     23  N   UNL d   1       6.443  -0.855   0.355  0.00  0.00    -0.113 N 
ATOM     24  O   UNL d   1       6.628  -2.042   0.056  0.00  0.00    -0.532 OA
ATOM     25  O   UNL d   1       6.583   0.117  -0.399  0.00  0.00    -0.532 OA
ENDBRANCH   2  23
BRANCH   3  26
ATOM     26  N   UNL d   1       4.022  -1.721   4.645  0.00  0.00    -0.113 N 
ATOM     27  O   UNL d   1       2.983  -2.094   4.082  0.00  0.00    -0.532 OA
ATOM     28  O   UNL d   1       4.235  -1.838   5.858  0.00  0.00    -0.532 OA
ENDBRANCH   3  26
BRANCH   4  29
ATOM     29  C   UNL d   1       8.248   0.951   4.555  0.00  0.00     0.417 C 
ATOM     30  F   UNL d   1       8.355   0.542   5.847  0.00  0.00    -0.166 F 
ATOM     31  F   UNL d   1       9.445   0.662   3.975  0.00  0.00    -0.166 F 
ATOM     32  F   UNL d   1       8.152   2.303   4.583  0.00  0.00    -0.166 F 
ENDBRANCH   4  29
TORSDOF 12
