REMARK  17 active torsions:
REMARK  status: ('A' for Active; 'I' for Inactive)
REMARK    1  A    between atoms: C_9  and  S_1 
REMARK    2  A    between atoms: N_12  and  S_1 
REMARK    3  A    between atoms: S_2  and  C_8 
REMARK    4  A    between atoms: N_13  and  S_2 
REMARK    5  A    between atoms: C_25  and  N_12 
REMARK    6  A    between atoms: C_26  and  N_12 
REMARK    7  A    between atoms: C_27  and  N_13 
REMARK    8  A    between atoms: C_28  and  N_13 
REMARK    9  A    between atoms: O_24  and  N_20 
REMARK   10  A    between atoms: C_30  and  C_25 
REMARK   11  A    between atoms: C_29  and  C_26 
REMARK   12  A    between atoms: C_31  and  C_27 
REMARK   13  A    between atoms: C_32  and  C_28 
REMARK   14  A    between atoms: C_33  and  C_29 
REMARK   15  A    between atoms: C_34  and  C_30 
REMARK   16  A    between atoms: C_35  and  C_31 
REMARK   17  A    between atoms: C_36  and  C_32 
ROOT
ATOM      1  C   UNL d   1      -0.251   0.981   3.841  0.00  0.00     0.006 A 
ATOM      2  C   UNL d   1      -1.113   1.418   5.992  0.00  0.00     0.006 A 
ATOM      3  C   UNL d   1      -0.628   2.073   4.756  0.00  0.00     0.076 A 
ATOM      4  C   UNL d   1      -1.027   0.023   5.793  0.00  0.00    -0.012 A 
ATOM      5  C   UNL d   1      -0.551  -0.239   4.453  0.00  0.00    -0.012 A 
ATOM      6  C   UNL d   1      -1.946   1.095   8.191  0.00  0.00     0.075 A 
ATOM      7  C   UNL d   1       0.431  -0.084   1.844  0.00  0.00     0.075 A 
ATOM      8  C   UNL d   1      -1.598   1.966   7.161  0.00  0.00     0.039 A 
ATOM      9  C   UNL d   1       0.291   1.087   2.581  0.00  0.00     0.039 A 
ATOM     10  C   UNL d   1      -0.372  -1.415   3.743  0.00  0.00     0.015 A 
ATOM     11  C   UNL d   1      -1.373  -0.847   6.811  0.00  0.00     0.015 A 
ATOM     12  N   UNL d   1      -0.527   3.317   4.406  0.00  0.00    -0.268 N 
ATOM     13  HN  UNL d   1      -0.172   3.619   3.499  1.00  0.00     0.194 HD
ATOM     14  C   UNL d   1       0.106  -1.332   2.422  0.00  0.00     0.026 A 
ATOM     15  C   UNL d   1      -1.825  -0.305   8.022  0.00  0.00     0.026 A 
ENDROOT
BRANCH   6  16
ATOM     16  S   UNL d   1      -2.720   1.733   9.669  0.00  0.00     0.243 S 
ATOM     17  O   UNL d   1      -3.821   2.573   9.230  0.00  0.00    -0.206 OA
ATOM     18  O   UNL d   1      -2.971   0.588  10.510  0.00  0.00    -0.206 OA
BRANCH  16  19
ATOM     19  N   UNL d   1      -1.506   2.762  10.407  0.00  0.00    -0.206 NA
BRANCH  19  20
ATOM     20  C   UNL d   1      -1.656   4.198   9.925  0.00  0.00     0.107 C 
BRANCH  20  21
ATOM     21  C   UNL d   1      -0.567   5.164  10.400  0.00  0.00     0.015 C 
BRANCH  21  22
ATOM     22  C   UNL d   1      -0.803   6.569   9.830  0.00  0.00    -0.003 C 
ATOM     23  C   UNL d   1       0.196   7.573  10.384  0.00  0.00     0.005 C 
ENDBRANCH  21  22
ENDBRANCH  20  21
ENDBRANCH  19  20
BRANCH  19  24
ATOM     24  C   UNL d   1      -1.473   2.698  11.910  0.00  0.00     0.107 C 
BRANCH  24  25
ATOM     25  C   UNL d   1      -1.020   1.369  12.514  0.00  0.00     0.015 C 
BRANCH  25  26
ATOM     26  C   UNL d   1       0.326   0.870  11.994  0.00  0.00    -0.003 C 
ATOM     27  C   UNL d   1       0.645  -0.502  12.571  0.00  0.00     0.005 C 
ENDBRANCH  25  26
ENDBRANCH  24  25
ENDBRANCH  19  24
ENDBRANCH  16  19
ENDBRANCH   6  16
BRANCH  12  28
ATOM     28  O   UNL d   1      -0.954   4.198   5.397  0.00  0.00    -0.289 OA
ATOM     29  H   UNL d   1      -0.848   5.066   4.964  0.00  0.00     0.244 HD
ENDBRANCH  12  28
BRANCH   7  30
ATOM     30  S   UNL d   1       1.141  -0.024   0.208  0.00  0.00     0.243 S 
ATOM     31  O   UNL d   1       1.151  -1.390  -0.270  0.00  0.00    -0.206 OA
ATOM     32  O   UNL d   1       2.383   0.711   0.313  0.00  0.00    -0.206 OA
BRANCH  30  33
ATOM     33  N   UNL d   1       0.043   0.873  -0.775  0.00  0.00    -0.206 NA
BRANCH  33  34
ATOM     34  C   UNL d   1      -0.401   2.235  -0.319  0.00  0.00     0.107 C 
BRANCH  34  35
ATOM     35  C   UNL d   1       0.733   3.251  -0.149  0.00  0.00     0.015 C 
BRANCH  35  36
ATOM     36  C   UNL d   1       0.234   4.567   0.452  0.00  0.00    -0.003 C 
ATOM     37  C   UNL d   1       1.393   5.515   0.734  0.00  0.00     0.005 C 
ENDBRANCH  35  36
ENDBRANCH  34  35
ENDBRANCH  33  34
BRANCH  33  38
ATOM     38  C   UNL d   1       0.392   0.905  -2.238  0.00  0.00     0.107 C 
BRANCH  38  39
ATOM     39  C   UNL d   1       0.289  -0.441  -2.952  0.00  0.00     0.015 C 
BRANCH  39  40
ATOM     40  C   UNL d   1      -1.096  -1.078  -2.845  0.00  0.00    -0.003 C 
ATOM     41  C   UNL d   1      -1.141  -2.427  -3.546  0.00  0.00     0.005 C 
ENDBRANCH  39  40
ENDBRANCH  38  39
ENDBRANCH  33  38
ENDBRANCH  30  33
ENDBRANCH   7  30
TORSDOF 17
