REMARK  4 active torsions:
REMARK  status: ('A' for Active; 'I' for Inactive)
REMARK    1  A    between atoms: C_2  and  N_1 
REMARK    2  A    between atoms: N_9  and  C_6 
REMARK    3  A    between atoms: C_12  and  N_9 
REMARK    4  A    between atoms: C_14  and  C_12 
ROOT
ATOM      1  C   UNL d   1       1.221  -0.276  -2.226  0.00  0.00     0.118 A 
ATOM      2  N   UNL d   1       0.355  -2.423  -2.912  0.00  0.00    -0.354 N 
ATOM      3  HN  UNL d   1       0.415  -3.441  -2.901  1.00  0.00     0.166 HD
ATOM      4  C   UNL d   1      -0.611  -1.791  -3.611  0.00  0.00     0.080 A 
ATOM      5  C   UNL d   1       1.246  -1.661  -2.224  0.00  0.00     0.125 A 
ATOM      6  C   UNL d   1       0.226   0.376  -2.947  0.00  0.00     0.041 A 
ATOM      7  C   UNL d   1      -0.706  -0.399  -3.636  0.00  0.00     0.044 A 
ENDROOT
BRANCH   4   8
ATOM      8  N   UNL d   1      -1.514  -2.506  -4.391  0.00  0.00    -0.275 NA
ATOM      9  H   UNL d   1      -2.471  -2.313  -4.117  0.00  0.00     0.129 HD
BRANCH   8  10
ATOM     10  C   UNL d   1      -1.260  -3.926  -4.573  0.00  0.00     0.132 C 
BRANCH  10  11
ATOM     11  C   UNL d   1      -2.088  -4.394  -5.755  0.00  0.00    -0.045 A 
ATOM     12  C   UNL d   1      -1.985  -3.726  -6.989  0.00  0.00     0.010 A 
ATOM     13  C   UNL d   1      -2.749  -4.126  -8.086  0.00  0.00     0.024 A 
ATOM     14  C   UNL d   1      -3.612  -5.209  -7.962  0.00  0.00     0.034 A 
ATOM     15  C   UNL d   1      -3.714  -5.896  -6.752  0.00  0.00     0.024 A 
ATOM     16 CL   UNL d   1      -4.561  -5.703  -9.310  0.00  0.00    -0.084 Cl
ATOM     17  C   UNL d   1      -2.953  -5.491  -5.651  0.00  0.00     0.010 A 
ENDBRANCH  10  11
ENDBRANCH   8  10
ENDBRANCH   4   8
BRANCH   1  18
ATOM     18  N   UNL d   1       2.231   0.476  -1.497  0.00  0.00    -0.114 N 
ATOM     19  O   UNL d   1       3.057  -0.165  -0.835  0.00  0.00    -0.532 OA
ATOM     20  O   UNL d   1       2.200   1.710  -1.582  0.00  0.00    -0.532 OA
ENDBRANCH   1  18
TORSDOF 4
