REMARK  3 active torsions:
REMARK  status: ('A' for Active; 'I' for Inactive)
REMARK    1  A    between atoms: S_16  and  C_3 
REMARK    2  A    between atoms: C_8  and  C_6 
REMARK    3  A    between atoms: C_22  and  S_16 
ROOT
ATOM      1  O   UNL d   1       5.864  -3.870  -0.073  0.00  0.00    -0.340 OA
ATOM      2  C   UNL d   1       4.750  -3.084   0.011  0.00  0.00     0.076 A 
ATOM      3  C   UNL d   1       4.514  -2.158   1.026  0.00  0.00    -0.024 A 
ATOM      4  C   UNL d   1       2.362  -1.559  -0.011  0.00  0.00    -0.009 A 
ATOM      5  C   UNL d   1       3.320  -1.414   1.013  0.00  0.00     0.023 A 
ATOM      6  C   UNL d   1       6.733  -3.901   1.073  0.00  0.00     0.061 C 
ATOM      7  C   UNL d   1       3.829  -3.232  -1.023  0.00  0.00     0.038 A 
ATOM      8  C   UNL d   1       2.651  -2.478  -1.034  0.00  0.00     0.016 A 
ATOM      9  C   UNL d   1       5.500  -1.976   2.141  0.00  0.00     0.044 C 
ATOM     10  C   UNL d   1       6.862  -2.520   1.732  0.00  0.00     0.042 C 
ATOM     11  C   UNL d   1       8.109  -4.326   0.539  0.00  0.00     0.046 C 
ATOM     12  C   UNL d   1       6.235  -4.981   2.046  0.00  0.00     0.046 C 
ENDROOT
BRANCH   4  13
ATOM     13  C   UNL d   1       1.113  -0.768  -0.001  0.00  0.00     0.045 A 
ATOM     14  N   UNL d   1       1.194   0.461   0.554  0.00  0.00    -0.336 N 
ATOM     15  C   UNL d   1       0.074   1.202   0.577  0.00  0.00     0.144 A 
ATOM     16  HN  UNL d   1       2.070   0.813   0.940  1.00  0.00     0.168 HD
ATOM     17  N   UNL d   1      -1.115   0.818   0.091  0.00  0.00    -0.347 N 
ATOM     18  C   UNL d   1      -1.164  -0.409  -0.448  0.00  0.00     0.092 A 
ATOM     19  HN  UNL d   1      -1.935   1.424   0.128  1.00  0.00     0.167 HD
ATOM     20  C   UNL d   1      -0.079  -1.250  -0.517  0.00  0.00     0.047 A 
BRANCH  15  21
ATOM     21  S   UNL d   1       0.149   2.798   1.344  0.00  0.00    -0.094 SA
BRANCH  21  22
ATOM     22  C   UNL d   1       1.444   3.534   0.306  0.00  0.00     0.078 C 
ATOM     23  C   UNL d   1       1.710   4.961   0.754  0.00  0.00     0.016 C 
ENDBRANCH  21  22
ENDBRANCH  15  21
ENDBRANCH   4  13
TORSDOF 3
