REMARK  4 active torsions:
REMARK  status: ('A' for Active; 'I' for Inactive)
REMARK    1  A    between atoms: C_7  and  C_3 
REMARK    2  A    between atoms: C_13  and  C_4 
REMARK    3  A    between atoms: N_11  and  N_8 
REMARK    4  A    between atoms: C_10  and  N_11 
ROOT
ATOM      1  N   UNL d   1       4.032  -0.268  -0.006  0.00  0.00    -0.348 N 
ATOM      2  HN  UNL d   1       3.290  -0.968  -0.033  1.00  0.00     0.166 HD
ATOM      3  C   UNL d   1       3.819   1.110  -0.019  0.00  0.00     0.063 A 
ATOM      4  C   UNL d   1       5.323  -0.546   0.044  0.00  0.00     0.084 A 
ATOM      5  S   UNL d   1       6.353   0.837   0.019  0.00  0.00    -0.081 SA
ATOM      6  C   UNL d   1       4.985   1.856  -0.017  0.00  0.00     0.083 A 
ENDROOT
BRANCH   3   7
ATOM      7  C   UNL d   1       2.471   1.687  -0.032  0.00  0.00     0.049 C 
ATOM      8  N   UNL d   1       2.403   2.990  -0.041  0.00  0.00    -0.301 N 
ATOM      9  HN  UNL d   1       3.253   3.554  -0.049  1.00  0.00     0.186 HD
ATOM     10  C   UNL d   1       1.270   0.771  -0.023  0.00  0.00     0.072 C 
BRANCH   8  11
ATOM     11  N   UNL d   1       1.173   3.588  -0.042  0.00  0.00    -0.276 N 
ATOM     12  H   UNL d   1       0.318   3.042  -0.029  0.00  0.00     0.189 HD
BRANCH  11  13
ATOM     13  C   UNL d   1       1.052   4.951  -0.045  0.00  0.00     0.184 C 
ATOM     14  S   UNL d   1      -0.423   5.707  -0.034  0.00  0.00    -0.040 SA
ATOM     15  N   UNL d   1       2.214   5.643  -0.059  0.00  0.00    -0.375 N 
ATOM     16  H   UNL d   1       3.074   5.111  -0.061  0.00  0.00     0.158 HD
ATOM     17  H   UNL d   1       2.229   6.653  -0.060  0.00  0.00     0.158 HD
ENDBRANCH  11  13
ENDBRANCH   8  11
ENDBRANCH   3   7
BRANCH   4  18
ATOM     18  C   UNL d   1       5.889  -1.906   0.065  0.00  0.00    -0.002 A 
ATOM     19  C   UNL d   1       5.202  -2.950  -0.575  0.00  0.00     0.014 A 
ATOM     20  C   UNL d   1       5.723  -4.248  -0.593  0.00  0.00     0.001 A 
ATOM     21  C   UNL d   1       6.933  -4.524   0.041  0.00  0.00     0.000 A 
ATOM     22  C   UNL d   1       7.618  -3.507   0.699  0.00  0.00     0.001 A 
ATOM     23  C   UNL d   1       7.099  -2.208   0.713  0.00  0.00     0.014 A 
ENDBRANCH   4  18
TORSDOF 4
