REMARK  5 active torsions:
REMARK  status: ('A' for Active; 'I' for Inactive)
REMARK    1  A    between atoms: N_4  and  C_1 
REMARK    2  A    between atoms: C_2  and  C_3 
REMARK       I    between atoms: N_6  and  C_2 
REMARK    3  A    between atoms: O_22  and  C_5 
REMARK       I    between atoms: C_8  and  N_6 
REMARK    4  A    between atoms: C_7  and  N_9 
REMARK       I    between atoms: N_9  and  C_8 
REMARK    5  A    between atoms: O_26  and  C_15 
ROOT
ATOM      1  C   UNL d   1      -1.563  -2.773   0.932  0.00  0.00     0.244 C 
ATOM      2  N   UNL d   1      -1.026  -3.832   1.639  0.00  0.00    -0.175 NA
ATOM      3  C   UNL d   1      -1.455  -5.103   1.373  0.00  0.00     0.305 C 
ATOM      4  N   UNL d   1      -2.792  -5.317   1.615  0.00  0.00    -0.311 N 
ATOM      5  O   UNL d   1      -2.776  -2.716   0.734  0.00  0.00    -0.273 OA
ATOM      6  O   UNL d   1      -0.649  -5.917   0.925  0.00  0.00    -0.253 OA
ATOM      7  H   UNL d   1      -0.015  -3.830   1.658  0.00  0.00     0.141 HD
ATOM      8  H   UNL d   1      -3.348  -4.477   1.445  0.00  0.00     0.170 HD
ENDROOT
BRANCH   1   9
ATOM      9  C   UNL d   1      -0.631  -1.653   0.514  0.00  0.00     0.096 C 
ATOM     10  C   UNL d   1       0.751  -1.647   0.823  0.00  0.00     0.119 C 
ATOM     11  C   UNL d   1       1.509  -0.483   0.579  0.00  0.00     0.137 C 
ATOM     12  C   UNL d   1       0.966   0.622  -0.079  0.00  0.00     0.042 C 
ATOM     13  C   UNL d   1      -0.362   0.578  -0.482  0.00  0.00     0.040 C 
ATOM     14  C   UNL d   1      -1.151  -0.549  -0.202  0.00  0.00     0.086 C 
BRANCH  10  15
ATOM     15  O   UNL d   1       1.310  -2.759   1.404  0.00  0.00    -0.352 OA
ATOM     16  C   UNL d   1       2.307  -3.399   0.589  0.00  0.00     0.210 C 
ENDBRANCH  10  15
BRANCH  11  17
ATOM     17  N   UNL d   1       2.878  -0.364   1.056  0.00  0.00    -0.113 N 
ATOM     18  O   UNL d   1       3.117  -0.705   2.222  0.00  0.00    -0.532 OA
ATOM     19  O   UNL d   1       3.712   0.090   0.259  0.00  0.00    -0.532 OA
ENDBRANCH  11  17
BRANCH  14  20
ATOM     20  O   UNL d   1      -2.468  -0.484  -0.571  0.00  0.00    -0.355 OA
ATOM     21  C   UNL d   1      -2.653  -0.530  -1.987  0.00  0.00     0.210 C 
ENDBRANCH  14  20
ENDBRANCH   1   9
BRANCH   4  22
ATOM     22  C   UNL d   1      -3.447  -6.558   1.401  0.00  0.00     0.070 A 
ATOM     23  C   UNL d   1      -2.920  -7.807   1.783  0.00  0.00     0.040 A 
ATOM     24  C   UNL d   1      -3.558  -8.996   1.405  0.00  0.00     0.040 A 
ATOM     25 BR   UNL d   1      -1.471  -8.011   3.008  0.00  0.00    -0.049 Br
ATOM     26  C   UNL d   1      -4.755  -8.948   0.699  0.00  0.00     0.013 A 
ATOM     27  C   UNL d   1      -5.353  -7.727   0.408  0.00  0.00     0.040 A 
ATOM     28 BR   UNL d   1      -5.595 -10.555   0.165  0.00  0.00    -0.051 Br
ATOM     29  C   UNL d   1      -4.707  -6.541   0.770  0.00  0.00     0.040 A 
ATOM     30 BR   UNL d   1      -5.591  -4.910   0.342  0.00  0.00    -0.049 Br
ENDBRANCH   4  22
TORSDOF 5
