REMARK  3 active torsions:
REMARK  status: ('A' for Active; 'I' for Inactive)
REMARK    1  A    between atoms: N_2  and  S_1 
REMARK    2  A    between atoms: C_9  and  S_1 
REMARK    3  A    between atoms: C_10  and  C_3 
ROOT
ATOM      1  S   UNL d   1       1.030  -0.145  -0.021  0.00  0.00     0.268 S 
ATOM      2  O   UNL d   1       1.234   1.248  -0.364  0.00  0.00    -0.200 OA
ATOM      3  O   UNL d   1       2.114  -1.010   0.405  0.00  0.00    -0.200 OA
ENDROOT
BRANCH   1   4
ATOM      4  N   UNL d   1       0.397  -0.856  -1.434  0.00  0.00    -0.257 N 
ATOM      5  C   UNL d   1       0.619  -2.154  -1.826  0.00  0.00     0.123 A 
ATOM      6  C   UNL d   1      -0.118  -2.382  -2.978  0.00  0.00     0.027 A 
ATOM      7  C   UNL d   1      -0.819  -1.161  -3.249  0.00  0.00     0.035 A 
ATOM      8  C   UNL d   1      -0.492  -0.244  -2.272  0.00  0.00     0.110 A 
BRANCH   6   9
ATOM      9  C   UNL d   1      -0.191  -3.607  -3.782  0.00  0.00     0.157 C 
ATOM     10  O   UNL d   1      -0.906  -3.650  -4.784  0.00  0.00    -0.293 OA
ATOM     11  C   UNL d   1       0.597  -4.830  -3.385  0.00  0.00     0.097 C 
ENDBRANCH   6   9
ENDBRANCH   1   4
BRANCH   1  12
ATOM     12  C   UNL d   1      -0.267  -0.262   1.179  0.00  0.00     0.080 A 
ATOM     13  C   UNL d   1      -0.809  -1.510   1.504  0.00  0.00     0.025 A 
ATOM     14  C   UNL d   1      -1.779  -1.597   2.504  0.00  0.00     0.002 A 
ATOM     15  C   UNL d   1      -2.198  -0.447   3.176  0.00  0.00     0.000 A 
ATOM     16  C   UNL d   1      -1.655   0.795   2.847  0.00  0.00     0.002 A 
ATOM     17  C   UNL d   1      -0.687   0.892   1.848  0.00  0.00     0.025 A 
ENDBRANCH   1  12
TORSDOF 3
