REMARK  5 active torsions:
REMARK  status: ('A' for Active; 'I' for Inactive)
REMARK    1  A    between atoms: C_4  and  S_1 
REMARK    2  A    between atoms: N_8  and  S_1 
REMARK    3  A    between atoms: S_3  and  C_2 
REMARK    4  A    between atoms: C_15  and  S_3 
REMARK    5  A    between atoms: C_16  and  N_8 
ROOT
ATOM      1  S   UNL d   1       0.867   0.061   0.122  0.00  0.00     0.252 S 
ATOM      2  O   UNL d   1       0.156   1.001  -0.714  0.00  0.00    -0.205 OA
ATOM      3  O   UNL d   1       2.305   0.139   0.273  0.00  0.00    -0.205 OA
ENDROOT
BRANCH   1   4
ATOM      4  C   UNL d   1       0.553  -1.565  -0.527  0.00  0.00     0.116 A 
ATOM      5  C   UNL d   1       1.306  -2.724  -0.499  0.00  0.00     0.056 A 
ATOM      6  C   UNL d   1       0.616  -3.829  -1.079  0.00  0.00     0.072 A 
ATOM      7  C   UNL d   1      -0.622  -3.469  -1.567  0.00  0.00     0.074 A 
ATOM      8  S   UNL d   1      -0.966  -1.819  -1.273  0.00  0.00    -0.087 SA
BRANCH   6   9
ATOM      9  S   UNL d   1       1.252  -5.439  -1.163  0.00  0.00     0.207 S 
ATOM     10  O   UNL d   1       0.680  -5.999  -2.369  0.00  0.00    -0.217 OA
ATOM     11  O   UNL d   1       2.682  -5.283  -0.981  0.00  0.00    -0.217 OA
BRANCH   9  12
ATOM     12  C   UNL d   1       0.581  -6.283   0.241  0.00  0.00     0.064 A 
ATOM     13  C   UNL d   1      -0.639  -6.958   0.121  0.00  0.00     0.024 A 
ATOM     14  C   UNL d   1      -1.129  -7.690   1.202  0.00  0.00     0.002 A 
ATOM     15  C   UNL d   1      -0.399  -7.757   2.390  0.00  0.00     0.000 A 
ATOM     16  C   UNL d   1       0.822  -7.089   2.502  0.00  0.00     0.002 A 
ATOM     17  C   UNL d   1       1.317  -6.349   1.428  0.00  0.00     0.024 A 
ENDBRANCH   9  12
ENDBRANCH   6   9
ENDBRANCH   1   4
BRANCH   1  18
ATOM     18  N   UNL d   1       0.153   0.135   1.663  0.00  0.00    -0.181 NA
ATOM     19  H   UNL d   1       0.082   1.118   1.927  0.00  0.00     0.146 HD
BRANCH  18  20
ATOM     20  C   UNL d   1       0.734  -0.689   2.676  0.00  0.00     0.025 A 
ATOM     21  C   UNL d   1       0.163  -1.932   2.952  0.00  0.00     0.064 A 
ATOM     22  C   UNL d   1       0.707  -2.734   3.956  0.00  0.00     0.103 A 
ATOM     23  O   UNL d   1       0.083  -3.932   4.191  0.00  0.00    -0.346 OA
ATOM     24  C   UNL d   1       1.836  -2.307   4.661  0.00  0.00     0.102 A 
ATOM     25  C   UNL d   1       0.500  -4.516   5.431  0.00  0.00     0.202 C 
ATOM     26  C   UNL d   1       2.006  -4.410   5.610  0.00  0.00     0.202 C 
ATOM     27  O   UNL d   1       2.422  -3.042   5.657  0.00  0.00    -0.346 OA
ATOM     28  C   UNL d   1       2.416  -1.073   4.370  0.00  0.00     0.041 A 
ATOM     29  C   UNL d   1       1.870  -0.266   3.369  0.00  0.00     0.027 A 
ENDBRANCH  18  20
ENDBRANCH   1  18
TORSDOF 5
