REMARK  3 active torsions:
REMARK  status: ('A' for Active; 'I' for Inactive)
REMARK       I    between atoms: N_2  and  C_1 
REMARK    1  A    between atoms: C_8  and  C_1 
REMARK    2  A    between atoms: C_9  and  N_2 
REMARK    3  A    between atoms: C_3  and  C_6 
ROOT
ATOM      1  C   UNL d   1       2.241  -5.147   0.071  0.00  0.00    -0.035 A 
ATOM      2  C   UNL d   1       0.886  -2.652   0.110  0.00  0.00     0.035 A 
ATOM      3  C   UNL d   1       1.173  -4.887  -0.799  0.00  0.00     0.011 A 
ATOM      4  C   UNL d   1       2.576  -4.159   1.011  0.00  0.00     0.011 A 
ATOM      5  C   UNL d   1       0.505  -3.659  -0.777  0.00  0.00     0.030 A 
ATOM      6  C   UNL d   1       1.911  -2.923   1.025  0.00  0.00     0.030 A 
ENDROOT
BRANCH   2   7
ATOM      7  N   UNL d   1       0.348  -1.345   0.069  0.00  0.00    -0.323 N 
ATOM      8  C   UNL d   1      -0.732  -0.938  -0.697  0.00  0.00     0.256 C 
ATOM      9  O   UNL d   1      -1.558  -1.675  -1.228  0.00  0.00    -0.267 OA
ATOM     10  H   UNL d   1       0.798  -0.653   0.651  0.00  0.00     0.169 HD
BRANCH   8  11
ATOM     11  C   UNL d   1      -0.903   0.532  -0.871  0.00  0.00     0.032 A 
ATOM     12  C   UNL d   1       0.186   1.408  -0.947  0.00  0.00     0.017 A 
ATOM     13  C   UNL d   1      -0.025   2.760  -1.233  0.00  0.00     0.001 A 
ATOM     14  C   UNL d   1      -1.318   3.239  -1.448  0.00  0.00     0.000 A 
ATOM     15  C   UNL d   1      -2.406   2.372  -1.372  0.00  0.00     0.001 A 
ATOM     16  C   UNL d   1      -2.199   1.022  -1.088  0.00  0.00     0.017 A 
ENDBRANCH   8  11
ENDBRANCH   2   7
BRANCH   1  17
ATOM     17  C   UNL d   1       3.041  -6.418  -0.111  0.00  0.00     0.141 C 
ATOM     18  S   UNL d   1       3.185  -7.451   1.372  0.00  0.00    -0.148 SA
ATOM     19  C   UNL d   1       4.748  -8.216   0.876  0.00  0.00     0.085 C 
ATOM     20  C   UNL d   1       5.645  -7.087   0.407  0.00  0.00     0.085 C 
ATOM     21  S   UNL d   1       4.715  -6.067  -0.770  0.00  0.00    -0.148 SA
ENDBRANCH   1  17
TORSDOF 3
