REMARK  3 active torsions:
REMARK  status: ('A' for Active; 'I' for Inactive)
REMARK    1  A    between atoms: C_5  and  C_1 
REMARK    2  A    between atoms: C_8  and  C_2 
REMARK    3  A    between atoms: N_11  and  C_8 
REMARK       I    between atoms: C_12  and  N_11 
ROOT
ATOM      1  C   UNL d   1      -1.343  -0.838  -0.120  0.00  0.00     0.079 A 
ATOM      2  C   UNL d   1       0.002  -1.342  -0.034  0.00  0.00     0.020 A 
ATOM      3  N   UNL d   1      -1.336   0.501  -0.232  0.00  0.00    -0.260 N 
ATOM      4  HN  UNL d   1      -2.148   1.109  -0.335  1.00  0.00     0.195 HD
ATOM      5  O   UNL d   1      -0.021   0.891  -0.180  0.00  0.00    -0.242 OA
ATOM      6  C   UNL d   1       0.780  -0.198  -0.069  0.00  0.00     0.082 A 
ATOM      7  C   UNL d   1       2.226   0.085  -0.038  0.00  0.00     0.079 C 
ENDROOT
BRANCH   1   8
ATOM      8  C   UNL d   1      -2.615  -1.571  -0.093  0.00  0.00     0.037 A 
ATOM      9  C   UNL d   1      -3.604  -1.268   0.869  0.00  0.00     0.048 A 
ATOM     10 CL   UNL d   1      -3.426  -0.015   2.056  0.00  0.00    -0.083 Cl
ATOM     11  C   UNL d   1      -4.798  -2.002   0.935  0.00  0.00     0.025 A 
ATOM     12  C   UNL d   1      -5.018  -3.068   0.071  0.00  0.00     0.003 A 
ATOM     13  C   UNL d   1      -4.066  -3.370  -0.897  0.00  0.00     0.025 A 
ATOM     14  C   UNL d   1      -2.894  -2.608  -1.004  0.00  0.00     0.048 A 
ATOM     15 CL   UNL d   1      -1.865  -2.991  -2.347  0.00  0.00    -0.083 Cl
ENDBRANCH   1   8
BRANCH   2  16
ATOM     16  C   UNL d   1       0.448  -2.757  -0.014  0.00  0.00     0.166 C 
BRANCH  16  17
ATOM     17  N   UNL d   1       1.353  -3.040   1.074  0.00  0.00    -0.357 N 
ATOM     18  C   UNL d   1       1.935  -4.291   1.106  0.00  0.00     0.213 C 
ATOM     19  O   UNL d   1       1.832  -5.106   0.195  0.00  0.00    -0.274 OA
ATOM     20  C   UNL d   1       2.693  -4.609   2.365  0.00  0.00     0.117 C 
ATOM     21  H   UNL d   1       1.248  -2.529   1.940  0.00  0.00     0.162 HD
ENDBRANCH  16  17
ENDBRANCH   2  16
TORSDOF 3
