REMARK  6 active torsions:
REMARK  status: ('A' for Active; 'I' for Inactive)
REMARK    1  A    between atoms: C_7  and  C_1 
REMARK    2  A    between atoms: O_11  and  C_6 
REMARK    3  A    between atoms: C_8  and  C_9 
REMARK    4  A    between atoms: O_10  and  C_8 
REMARK    5  A    between atoms: C_9  and  O_11 
REMARK    6  A    between atoms: C_12  and  O_10 
ROOT
ATOM      1  C   UNL d   1       3.595   1.120  -0.044  0.00  0.00     0.150 C 
ATOM      2  C   UNL d   1       3.699   0.662  -1.514  0.00  0.00     0.057 C 
ATOM      3  C   UNL d   1       4.409   2.436   0.016  0.00  0.00     0.057 C 
ENDROOT
BRANCH   1   4
ATOM      4  C   UNL d   1       4.262   0.077   0.889  0.00  0.00     0.299 C 
ATOM      5  O   UNL d   1       4.309  -1.129   0.672  0.00  0.00    -0.261 OA
BRANCH   4   6
ATOM      6  O   UNL d   1       4.824   0.697   2.003  0.00  0.00    -0.275 OA
BRANCH   6   7
ATOM      7  C   UNL d   1       6.157   0.423   2.393  0.00  0.00     0.101 A 
ATOM      8  C   UNL d   1       6.658   1.127   3.499  0.00  0.00     0.069 A 
ATOM      9  C   UNL d   1       8.017   1.065   3.814  0.00  0.00     0.050 A 
ATOM     10 CL   UNL d   1       5.636   2.123   4.470  0.00  0.00    -0.081 Cl
ATOM     11  C   UNL d   1       8.869   0.294   3.027  0.00  0.00     0.035 A 
ATOM     12  C   UNL d   1       8.371  -0.441   1.953  0.00  0.00     0.026 A 
ATOM     13 CL   UNL d   1      10.557   0.273   3.359  0.00  0.00    -0.084 Cl
ATOM     14  C   UNL d   1       7.015  -0.378   1.632  0.00  0.00     0.041 A 
ENDBRANCH   6   7
ENDBRANCH   4   6
ENDBRANCH   1   4
BRANCH   1  15
ATOM     15  O   UNL d   1       2.272   1.500   0.317  0.00  0.00    -0.314 OA
BRANCH  15  16
ATOM     16  C   UNL d   1       1.354   0.529   0.486  0.00  0.00     0.160 A 
ATOM     17  C   UNL d   1       1.210  -0.761  -0.033  0.00  0.00     0.093 A 
ATOM     18  C   UNL d   1      -0.018  -1.210   0.432  0.00  0.00     0.138 A 
ATOM     19  N   UNL d   1      -0.487  -0.207   1.233  0.00  0.00    -0.290 N 
ATOM     20  N   UNL d   1       0.318   0.875   1.245  0.00  0.00    -0.278 N 
ATOM     21  C   UNL d   1      -1.684  -0.135   2.043  0.00  0.00     0.178 C 
ATOM     22  HN  UNL d   1       0.166   1.761   1.728  1.00  0.00     0.189 HD
BRANCH  18  23
ATOM     23  C   UNL d   1      -0.699  -2.479   0.112  0.00  0.00     0.434 C 
ATOM     24  F   UNL d   1      -1.881  -2.657   0.745  0.00  0.00    -0.165 F 
ATOM     25  F   UNL d   1      -0.958  -2.569  -1.218  0.00  0.00    -0.165 F 
ATOM     26  F   UNL d   1       0.078  -3.545   0.428  0.00  0.00    -0.165 F 
ENDBRANCH  18  23
ENDBRANCH  15  16
ENDBRANCH   1  15
TORSDOF 6
