REMARK  4 active torsions:
REMARK  status: ('A' for Active; 'I' for Inactive)
REMARK    1  A    between atoms: N_2  and  S_1 
REMARK    2  A    between atoms: C_5  and  S_1 
REMARK    3  A    between atoms: C_6  and  N_2 
REMARK    4  A    between atoms: C_8  and  C_6 
ROOT
ATOM      1  N   UNL d   1       0.451  -0.668  -1.505  0.00  0.00    -0.311 N 
ATOM      2  H   UNL d   1      -0.492  -1.053  -1.479  0.00  0.00     0.172 HD
ENDROOT
BRANCH   1   3
ATOM      3  S   UNL d   1       0.897   0.051  -0.053  0.00  0.00     0.259 S 
ATOM      4  O   UNL d   1       2.245   0.555  -0.189  0.00  0.00    -0.201 OA
ATOM      5  O   UNL d   1       0.527  -0.871   0.999  0.00  0.00    -0.201 OA
BRANCH   3   6
ATOM      6  C   UNL d   1      -0.209   1.440   0.043  0.00  0.00     0.079 A 
ATOM      7  C   UNL d   1      -1.448   1.288   0.673  0.00  0.00     0.025 A 
ATOM      8  C   UNL d   1      -2.295   2.389   0.801  0.00  0.00     0.002 A 
ATOM      9  C   UNL d   1      -1.902   3.633   0.304  0.00  0.00     0.000 A 
ATOM     10  C   UNL d   1      -0.661   3.782  -0.320  0.00  0.00     0.002 A 
ATOM     11  C   UNL d   1       0.194   2.687  -0.445  0.00  0.00     0.025 A 
ENDBRANCH   3   6
ENDBRANCH   1   3
BRANCH   1  12
ATOM     12  C   UNL d   1       0.824   0.019  -2.743  0.00  0.00     0.170 C 
BRANCH  12  13
ATOM     13  C   UNL d   1       0.386  -0.770  -3.955  0.00  0.00    -0.040 A 
ATOM     14  C   UNL d   1      -0.489  -0.209  -4.897  0.00  0.00     0.010 A 
ATOM     15  C   UNL d   1      -0.921  -0.956  -5.995  0.00  0.00     0.024 A 
ATOM     16  C   UNL d   1      -0.477  -2.267  -6.160  0.00  0.00     0.034 A 
ATOM     17  C   UNL d   1       0.412  -2.830  -5.248  0.00  0.00     0.024 A 
ATOM     18 CL   UNL d   1      -1.040  -3.197  -7.493  0.00  0.00    -0.084 Cl
ATOM     19  C   UNL d   1       0.846  -2.082  -4.151  0.00  0.00     0.010 A 
ENDBRANCH  12  13
ENDBRANCH   1  12
TORSDOF 4
