REMARK  2 active torsions:
REMARK  status: ('A' for Active; 'I' for Inactive)
REMARK       I    between atoms: C_3  and  N_1 
REMARK    1  A    between atoms: C_10  and  C_3 
REMARK    2  A    between atoms: C_5  and  C_12 
ROOT
ATOM      1  N   UNL d   1       2.133   0.754   0.262  0.00  0.00    -0.339 N 
ATOM      2  C   UNL d   1      -0.288   0.622  -0.064  0.00  0.00    -0.022 A 
ATOM      3  C   UNL d   1       3.078   1.162   1.211  0.00  0.00     0.254 C 
ATOM      4  C   UNL d   1       0.929   1.512  -0.163  0.00  0.00     0.117 C 
ATOM      5  C   UNL d   1      -0.208  -0.752   0.060  0.00  0.00    -0.008 A 
ATOM      6  C   UNL d   1       2.245  -0.618  -0.276  0.00  0.00     0.132 C 
ATOM      7  S   UNL d   1      -1.731  -1.502   0.126  0.00  0.00    -0.106 SA
ATOM      8  C   UNL d   1       1.075  -1.513   0.168  0.00  0.00     0.067 C 
ATOM      9  C   UNL d   1      -1.651   1.058  -0.082  0.00  0.00     0.017 A 
ATOM     10  C   UNL d   1      -2.536   0.004   0.010  0.00  0.00     0.051 A 
ATOM     11  O   UNL d   1       3.973   0.406   1.602  0.00  0.00    -0.267 OA
ATOM     12  C   UNL d   1       1.102   2.040  -1.592  0.00  0.00     0.037 C 
ENDROOT
BRANCH   3  13
ATOM     13  C   UNL d   1       3.044   2.518   1.836  0.00  0.00     0.032 A 
ATOM     14  C   UNL d   1       3.401   2.630   3.188  0.00  0.00     0.018 A 
ATOM     15  C   UNL d   1       3.377   3.872   3.836  0.00  0.00     0.017 A 
ATOM     16  C   UNL d   1       2.988   5.026   3.144  0.00  0.00     0.048 A 
ATOM     17  C   UNL d   1       2.676   4.919   1.782  0.00  0.00     0.017 A 
ATOM     18  C   UNL d   1       2.745   3.685   1.128  0.00  0.00     0.018 A 
BRANCH  16  19
ATOM     19  C   UNL d   1       2.901   6.371   3.824  0.00  0.00     0.417 C 
ATOM     20  F   UNL d   1       3.340   6.365   5.112  0.00  0.00    -0.166 F 
ATOM     21  F   UNL d   1       3.630   7.326   3.183  0.00  0.00    -0.166 F 
ATOM     22  F   UNL d   1       1.624   6.844   3.865  0.00  0.00    -0.166 F 
ENDBRANCH  16  19
ENDBRANCH   3  13
TORSDOF 2
