REMARK  1 active torsions:
REMARK  status: ('A' for Active; 'I' for Inactive)
REMARK    1  A    between atoms: C_5  and  C_1 
ROOT
ATOM      1  N   UNL d   1      -4.976  -0.226  -0.864  0.00  0.00    -0.352 N 
ATOM      2  HN  UNL d   1      -4.664   0.408  -1.600  1.00  0.00     0.166 HD
ATOM      3  C   UNL d   1      -4.146  -0.616   0.136  0.00  0.00     0.065 A 
ATOM      4  N   UNL d   1      -5.854  -1.950   1.193  0.00  0.00    -0.362 N 
ATOM      5  HN  UNL d   1      -6.163  -2.568   1.943  1.00  0.00     0.165 HD
ATOM      6  C   UNL d   1      -6.234  -0.713  -0.839  0.00  0.00     0.059 A 
ATOM      7  C   UNL d   1      -4.591  -1.460   1.143  0.00  0.00     0.119 A 
ATOM      8  C   UNL d   1      -6.676  -1.575   0.197  0.00  0.00     0.059 A 
ATOM      9  C   UNL d   1      -7.126  -0.370  -1.849  0.00  0.00     0.032 A 
ATOM     10  C   UNL d   1      -7.984  -2.043   0.180  0.00  0.00     0.032 A 
ATOM     11  C   UNL d   1      -8.438  -0.850  -1.858  0.00  0.00     0.002 A 
ATOM     12  C   UNL d   1      -8.868  -1.688  -0.838  0.00  0.00     0.002 A 
ENDROOT
BRANCH   3  13
ATOM     13  C   UNL d   1      -2.793  -0.056   0.071  0.00  0.00     0.034 A 
ATOM     14  S   UNL d   1      -1.442  -0.916   0.706  0.00  0.00    -0.081 SA
ATOM     15  C   UNL d   1      -0.369   0.315   0.268  0.00  0.00     0.052 A 
ATOM     16 BR   UNL d   1       1.471   0.236   0.610  0.00  0.00    -0.043 Br
ATOM     17  C   UNL d   1      -0.979   1.370  -0.359  0.00  0.00     0.028 A 
ATOM     18  C   UNL d   1      -2.384   1.146  -0.486  0.00  0.00     0.023 A 
ENDBRANCH   3  13
TORSDOF 1
