REMARK  5 active torsions:
REMARK  status: ('A' for Active; 'I' for Inactive)
REMARK    1  A    between atoms: C_2  and  S_1 
REMARK    2  A    between atoms: C_3  and  S_1 
REMARK    3  A    between atoms: C_4  and  C_12 
REMARK    4  A    between atoms: N_13  and  N_5 
REMARK    5  A    between atoms: C_22  and  N_13 
ROOT
ATOM      1  C   UNL d   1       0.295   1.129  -1.160  0.00  0.00     0.229 C 
ATOM      2  N   UNL d   1      -0.389   0.659  -2.166  0.00  0.00    -0.281 N 
ATOM      3  HN  UNL d   1      -0.693   1.285  -2.911  1.00  0.00     0.188 HD
ATOM      4  C   UNL d   1       0.681   0.260  -0.087  0.00  0.00     0.132 C 
ATOM      5  N   UNL d   1       0.945  -0.490   0.762  0.00  0.00    -0.189 NA
ENDROOT
BRANCH   1   6
ATOM      6  S   UNL d   1       0.776   2.793  -1.005  0.00  0.00     0.240 S 
ATOM      7  O   UNL d   1       2.226   2.836  -1.049  0.00  0.00    -0.214 OA
ATOM      8  O   UNL d   1       0.032   3.339   0.116  0.00  0.00    -0.214 OA
BRANCH   6   9
ATOM      9  C   UNL d   1       0.222   3.731  -2.406  0.00  0.00     0.106 A 
ATOM     10  S   UNL d   1       0.779   3.240  -3.947  0.00  0.00    -0.090 SA
ATOM     11  C   UNL d   1      -0.025   4.536  -4.725  0.00  0.00     0.051 A 
ATOM     12  C   UNL d   1      -0.692   5.342  -3.830  0.00  0.00     0.009 A 
ATOM     13  C   UNL d   1      -0.550   4.876  -2.491  0.00  0.00     0.032 A 
ENDBRANCH   6   9
ENDBRANCH   1   6
BRANCH   2  14
ATOM     14  N   UNL d   1      -0.701  -0.671  -2.223  0.00  0.00    -0.299 N 
ATOM     15  H   UNL d   1      -0.705  -1.285  -1.405  0.00  0.00     0.187 HD
BRANCH  14  16
ATOM     16  C   UNL d   1      -1.465  -1.142  -3.310  0.00  0.00     0.048 A 
ATOM     17  C   UNL d   1      -1.785  -0.326  -4.401  0.00  0.00     0.031 A 
ATOM     18  C   UNL d   1      -2.493  -0.826  -5.498  0.00  0.00     0.018 A 
ATOM     19  C   UNL d   1      -2.887  -2.168  -5.539  0.00  0.00     0.048 A 
ATOM     20  C   UNL d   1      -2.553  -2.999  -4.459  0.00  0.00     0.018 A 
ATOM     21  C   UNL d   1      -1.843  -2.491  -3.363  0.00  0.00     0.031 A 
BRANCH  19  22
ATOM     22  C   UNL d   1      -3.648  -2.718  -6.720  0.00  0.00     0.417 C 
ATOM     23  F   UNL d   1      -3.900  -1.789  -7.686  0.00  0.00    -0.166 F 
ATOM     24  F   UNL d   1      -2.985  -3.731  -7.344  0.00  0.00    -0.166 F 
ATOM     25  F   UNL d   1      -4.862  -3.226  -6.369  0.00  0.00    -0.166 F 
ENDBRANCH  19  22
ENDBRANCH  14  16
ENDBRANCH   2  14
TORSDOF 5
