REMARK  2 active torsions:
REMARK  status: ('A' for Active; 'I' for Inactive)
REMARK    1  A    between atoms: C_2  and  C_1 
REMARK       I    between atoms: N_9  and  C_2 
REMARK    2  A    between atoms: C_10  and  N_9 
ROOT
ATOM      1  C   UNL d   1       0.139  -4.369  -0.368  0.00  0.00     0.262 C 
ATOM      2  N   UNL d   1       0.720  -3.260   0.221  0.00  0.00    -0.351 N 
ATOM      3  O   UNL d   1       0.824  -5.191  -0.967  0.00  0.00    -0.267 OA
ATOM      4  H   UNL d   1       0.129  -2.631   0.746  0.00  0.00     0.163 HD
ENDROOT
BRANCH   2   5
ATOM      5  C   UNL d   1       2.147  -2.964   0.145  0.00  0.00     0.093 C 
ATOM      6  C   UNL d   1       3.030  -3.891   1.016  0.00  0.00     0.064 C 
ATOM      7  C   UNL d   1       4.155  -2.979   1.404  0.00  0.00    -0.050 A 
ATOM      8  C   UNL d   1       5.376  -3.320   1.964  0.00  0.00     0.007 A 
ATOM      9  C   UNL d   1       3.818  -1.641   1.187  0.00  0.00    -0.050 A 
ATOM     10  C   UNL d   1       6.262  -2.292   2.308  0.00  0.00     0.001 A 
ATOM     11  C   UNL d   1       5.911  -0.949   2.106  0.00  0.00     0.001 A 
ATOM     12  C   UNL d   1       4.678  -0.615   1.544  0.00  0.00     0.007 A 
ATOM     13  C   UNL d   1       2.449  -1.516   0.601  0.00  0.00     0.064 C 
ENDBRANCH   2   5
BRANCH   1  14
ATOM     14  C   UNL d   1      -1.301  -4.478  -0.226  0.00  0.00     0.114 A 
ATOM     15  C   UNL d   1      -2.194  -5.439  -0.691  0.00  0.00     0.046 A 
ATOM     16  N   UNL d   1      -3.525  -5.215  -0.337  0.00  0.00    -0.298 N 
ATOM     17  C   UNL d   1      -1.929  -6.649  -1.510  0.00  0.00     0.071 C 
ATOM     18  N   UNL d   1      -3.675  -4.105   0.360  0.00  0.00    -0.269 N 
ATOM     19  HN  UNL d   1      -4.293  -5.837  -0.587  1.00  0.00     0.187 HD
ATOM     20  S   UNL d   1      -2.239  -3.304   0.610  0.00  0.00     0.009 SA
ATOM     21  HN  UNL d   1      -4.575  -3.774   0.708  1.00  0.00     0.195 HD
ENDBRANCH   1  14
TORSDOF 2
