REMARK  4 active torsions:
REMARK  status: ('A' for Active; 'I' for Inactive)
REMARK    1  A    between atoms: C_4  and  C_1 
REMARK       I    between atoms: N_9  and  C_4 
REMARK    2  A    between atoms: C_10  and  C_5 
REMARK    3  A    between atoms: C_6  and  C_10 
REMARK    4  A    between atoms: C_14  and  N_9 
ROOT
ATOM      1  C   UNL d   1       1.239   0.781  -0.217  0.00  0.00     0.108 A 
ATOM      2  N   UNL d   1       1.416  -0.567   0.124  0.00  0.00    -0.349 N 
ATOM      3  HN  UNL d   1       2.282  -0.977   0.474  1.00  0.00     0.166 HD
ATOM      4  C   UNL d   1       0.285  -1.226  -0.078  0.00  0.00     0.055 A 
ATOM      5  C   UNL d   1      -0.041   1.105  -0.624  0.00  0.00     0.086 A 
ATOM      6  S   UNL d   1      -1.057  -0.253  -0.554  0.00  0.00    -0.086 SA
ENDROOT
BRANCH   1   7
ATOM      7  C   UNL d   1       2.293   1.801  -0.135  0.00  0.00     0.273 C 
ATOM      8  N   UNL d   1       3.403   1.416   0.591  0.00  0.00    -0.322 N 
ATOM      9  H   UNL d   1       3.423   0.438   0.866  0.00  0.00     0.169 HD
ATOM     10  O   UNL d   1       2.125   2.898  -0.662  0.00  0.00    -0.266 OA
BRANCH   8  11
ATOM     11  C   UNL d   1       4.442   2.267   1.036  0.00  0.00     0.035 A 
ATOM     12  C   UNL d   1       4.434   3.656   0.849  0.00  0.00     0.031 A 
ATOM     13  C   UNL d   1       5.453   4.462   1.368  0.00  0.00     0.026 A 
ATOM     14  C   UNL d   1       6.497   3.883   2.075  0.00  0.00     0.034 A 
ATOM     15  C   UNL d   1       6.534   2.503   2.259  0.00  0.00     0.026 A 
ATOM     16 CL   UNL d   1       7.736   4.877   2.734  0.00  0.00    -0.084 Cl
ATOM     17  C   UNL d   1       5.509   1.698   1.743  0.00  0.00     0.031 A 
ENDBRANCH   8  11
ENDBRANCH   1   7
BRANCH   4  18
ATOM     18  C   UNL d   1       0.089  -2.715   0.082  0.00  0.00     0.107 C 
BRANCH  18  19
ATOM     19  C   UNL d   1       0.278  -3.474  -1.220  0.00  0.00    -0.009 A 
ATOM     20  C   UNL d   1       1.555  -3.913  -1.624  0.00  0.00     0.042 A 
ATOM     21 CL   UNL d   1       2.956  -3.717  -0.628  0.00  0.00    -0.084 Cl
ATOM     22  C   UNL d   1       1.748  -4.547  -2.858  0.00  0.00     0.024 A 
ATOM     23  C   UNL d   1       0.678  -4.747  -3.724  0.00  0.00     0.003 A 
ATOM     24  C   UNL d   1      -0.594  -4.334  -3.344  0.00  0.00     0.024 A 
ATOM     25  C   UNL d   1      -0.796  -3.717  -2.102  0.00  0.00     0.042 A 
ATOM     26 CL   UNL d   1      -2.433  -3.304  -1.717  0.00  0.00    -0.084 Cl
ENDBRANCH  18  19
ENDBRANCH   4  18
TORSDOF 4
