REMARK  6 active torsions:
REMARK  status: ('A' for Active; 'I' for Inactive)
REMARK    1  A    between atoms: C_9  and  C_1 
REMARK       I    between atoms: C_4  and  N_7 
REMARK    2  A    between atoms: C_12  and  C_4 
REMARK    3  A    between atoms: C_6  and  C_13 
REMARK    4  A    between atoms: O_14  and  C_6 
REMARK    5  A    between atoms: N_7  and  C_9 
REMARK    6  A    between atoms: C_13  and  C_12 
ROOT
ATOM      1  C   UNL d   1       2.379  -4.312   0.071  0.00  0.00     0.218 C 
ATOM      2  N   UNL d   1       1.921  -3.038  -0.156  0.00  0.00    -0.356 N 
ATOM      3  O   UNL d   1       1.657  -5.258   0.365  0.00  0.00    -0.274 OA
ATOM      4  H   UNL d   1       2.555  -2.337  -0.518  0.00  0.00     0.162 HD
ENDROOT
BRANCH   2   5
ATOM      5  C   UNL d   1       0.523  -2.684  -0.056  0.00  0.00     0.169 C 
BRANCH   5   6
ATOM      6  C   UNL d   1      -0.050  -2.540  -1.435  0.00  0.00     0.006 A 
ATOM      7  C   UNL d   1      -0.729  -3.468  -2.216  0.00  0.00    -0.047 A 
ATOM      8  C   UNL d   1      -1.138  -2.888  -3.464  0.00  0.00     0.015 A 
ATOM      9  C   UNL d   1      -1.037  -4.887  -1.859  0.00  0.00     0.049 C 
ATOM     10  C   UNL d   1      -0.760  -1.573  -3.594  0.00  0.00     0.051 A 
ATOM     11  S   UNL d   1       0.091  -1.019  -2.227  0.00  0.00    -0.104 SA
ENDBRANCH   5   6
ENDBRANCH   2   5
BRANCH   1  12
ATOM     12  C   UNL d   1       3.883  -4.427  -0.025  0.00  0.00     0.113 C 
BRANCH  12  13
ATOM     13  C   UNL d   1       4.332  -5.879   0.099  0.00  0.00     0.119 C 
BRANCH  13  14
ATOM     14  C   UNL d   1       5.833  -5.989   0.054  0.00  0.00     0.139 C 
ATOM     15  O   UNL d   1       6.604  -5.050  -0.059  0.00  0.00    -0.650 OA
BRANCH  14  16
ATOM     16  O   UNL d   1       6.258  -7.268   0.153  0.00  0.00    -0.776 OA
ATOM     17  H   UNL d   1       5.533  -7.919   0.241  0.00  0.00     0.167 HD
ENDBRANCH  14  16
ENDBRANCH  13  14
ENDBRANCH  12  13
ENDBRANCH   1  12
TORSDOF 6
