REMARK  5 active torsions:
REMARK  status: ('A' for Active; 'I' for Inactive)
REMARK    1  A    between atoms: C_6  and  C_1 
REMARK    2  A    between atoms: C_9  and  C_3 
REMARK    3  A    between atoms: S_10  and  C_5 
REMARK    4  A    between atoms: O_14  and  C_6 
REMARK    5  A    between atoms: C_19  and  S_10 
ROOT
ATOM      1  C   UNL d   1       1.323  -1.222   0.036  0.00  0.00     0.092 A 
ATOM      2  C   UNL d   1      -0.711  -0.063  -0.045  0.00  0.00     0.081 A 
ATOM      3  C   UNL d   1      -0.066  -1.366   0.011  0.00  0.00     0.021 A 
ATOM      4  S   UNL d   1       1.792   0.431   0.005  0.00  0.00    -0.074 SA
ATOM      5  C   UNL d   1       0.184   0.988  -0.014  0.00  0.00     0.063 A 
ATOM      6  C   UNL d   1      -2.126   0.147  -0.145  0.00  0.00     0.102 C 
ATOM      7  N   UNL d   1      -3.275   0.320  -0.178  0.00  0.00    -0.191 NA
ENDROOT
BRANCH   3   8
ATOM      8  C   UNL d   1      -0.747  -2.680   0.009  0.00  0.00    -0.023 A 
ATOM      9  C   UNL d   1      -0.274  -3.759  -0.755  0.00  0.00     0.014 A 
ATOM     10  C   UNL d   1      -0.918  -5.004  -0.727  0.00  0.00     0.024 A 
ATOM     11  C   UNL d   1      -2.077  -5.169   0.023  0.00  0.00     0.034 A 
ATOM     12  C   UNL d   1      -2.588  -4.104   0.756  0.00  0.00     0.024 A 
ATOM     13 CL   UNL d   1      -2.877  -6.691   0.048  0.00  0.00    -0.084 Cl
ATOM     14  C   UNL d   1      -1.916  -2.875   0.764  0.00  0.00     0.014 A 
ENDBRANCH   3   8
BRANCH   5  15
ATOM     15  S   UNL d   1      -0.134   2.722  -0.092  0.00  0.00    -0.121 SA
BRANCH  15  16
ATOM     16  C   UNL d   1      -0.996   3.026   1.482  0.00  0.00     0.075 C 
ATOM     17  C   UNL d   1      -1.294   4.510   1.627  0.00  0.00     0.016 C 
ENDBRANCH  15  16
ENDBRANCH   5  15
BRANCH   1  18
ATOM     18  C   UNL d   1       2.376  -2.224   0.129  0.00  0.00     0.184 C 
ATOM     19  O   UNL d   1       2.298  -3.306   0.692  0.00  0.00    -0.646 OA
BRANCH  18  20
ATOM     20  O   UNL d   1       3.504  -1.860  -0.540  0.00  0.00    -0.772 OA
ATOM     21  H   UNL d   1       3.432  -0.974  -0.945  0.00  0.00     0.167 HD
ENDBRANCH  18  20
ENDBRANCH   1  18
TORSDOF 5
