REMARK  7 active torsions:
REMARK  status: ('A' for Active; 'I' for Inactive)
REMARK    1  A    between atoms: C_12  and  C_1 
REMARK    2  A    between atoms: C_7  and  C_2 
REMARK    3  A    between atoms: C_8  and  C_15 
REMARK    4  A    between atoms: S_21  and  C_11 
REMARK    5  A    between atoms: C_17  and  C_29 
REMARK       I    between atoms: N_20  and  C_17 
REMARK    6  A    between atoms: C_31  and  N_20 
REMARK    7  A    between atoms: C_29  and  S_21 
ROOT
ATOM      1  N   UNL d   1      -1.121   3.252  -0.602  0.00  0.00    -0.334 N 
ATOM      2  HN  UNL d   1      -0.359   3.128  -1.269  1.00  0.00     0.168 HD
ATOM      3  C   UNL d   1      -1.721   4.436  -0.428  0.00  0.00     0.145 A 
ATOM      4  C   UNL d   1      -1.579   2.233   0.152  0.00  0.00     0.071 A 
ATOM      5  N   UNL d   1      -2.721   4.677   0.427  0.00  0.00    -0.347 N 
ATOM      6  HN  UNL d   1      -3.140   5.603   0.517  1.00  0.00     0.167 HD
ATOM      7  C   UNL d   1      -2.600   2.375   1.066  0.00  0.00     0.049 A 
ATOM      8  C   UNL d   1      -3.144   3.634   1.160  0.00  0.00     0.092 A 
ENDROOT
BRANCH   3   9
ATOM      9  S   UNL d   1      -0.989   5.795  -1.299  0.00  0.00    -0.085 SA
BRANCH   9  10
ATOM     10  C   UNL d   1      -0.858   6.970   0.076  0.00  0.00     0.185 C 
BRANCH  10  11
ATOM     11  C   UNL d   1      -0.011   6.521   1.263  0.00  0.00     0.231 C 
ATOM     12  N   UNL d   1       0.792   5.412   1.071  0.00  0.00    -0.327 N 
ATOM     13  H   UNL d   1       0.828   5.037   0.127  0.00  0.00     0.169 HD
ATOM     14  O   UNL d   1      -0.059   7.183   2.301  0.00  0.00    -0.272 OA
BRANCH  12  15
ATOM     15  C   UNL d   1       1.503   4.688   2.054  0.00  0.00     0.034 A 
ATOM     16  C   UNL d   1       1.479   5.001   3.413  0.00  0.00     0.030 A 
ATOM     17  C   UNL d   1       2.164   4.210   4.343  0.00  0.00     0.018 A 
ATOM     18  C   UNL d   1       2.889   3.086   3.931  0.00  0.00     0.048 A 
ATOM     19  C   UNL d   1       2.923   2.778   2.562  0.00  0.00     0.018 A 
ATOM     20  C   UNL d   1       2.236   3.570   1.635  0.00  0.00     0.030 A 
BRANCH  18  21
ATOM     21  C   UNL d   1       3.612   2.217   4.931  0.00  0.00     0.417 C 
ATOM     22  F   UNL d   1       3.457   2.627   6.222  0.00  0.00    -0.166 F 
ATOM     23  F   UNL d   1       3.187   0.924   4.899  0.00  0.00    -0.166 F 
ATOM     24  F   UNL d   1       4.955   2.176   4.712  0.00  0.00    -0.166 F 
ENDBRANCH  18  21
ENDBRANCH  12  15
ENDBRANCH  10  11
ENDBRANCH   9  10
ENDBRANCH   3   9
BRANCH   4  25
ATOM     25  C   UNL d   1      -0.898   0.974  -0.093  0.00  0.00     0.127 A 
ATOM     26  C   UNL d   1       0.056   0.567  -0.994  0.00  0.00     0.074 A 
ATOM     27  C   UNL d   1       0.288  -0.801  -0.700  0.00  0.00     0.069 A 
ATOM     28  N   UNL d   1      -0.502  -1.192   0.315  0.00  0.00    -0.260 N 
ATOM     29  O   UNL d   1      -1.230  -0.083   0.694  0.00  0.00    -0.235 OA
ATOM     30  HN  UNL d   1      -0.552  -2.125   0.724  1.00  0.00     0.195 HD
BRANCH  27  31
ATOM     31  C   UNL d   1       1.173  -1.746  -1.384  0.00  0.00     0.014 A 
ATOM     32  C   UNL d   1       2.462  -1.416  -1.843  0.00  0.00     0.048 A 
ATOM     33  C   UNL d   1       3.230  -2.355  -2.544  0.00  0.00     0.048 A 
ATOM     34 CL   UNL d   1       3.211   0.117  -1.542  0.00  0.00    -0.083 Cl
ATOM     35  C   UNL d   1       2.728  -3.633  -2.775  0.00  0.00     0.035 A 
ATOM     36  C   UNL d   1       1.470  -3.990  -2.304  0.00  0.00     0.025 A 
ATOM     37 CL   UNL d   1       3.672  -4.778  -3.644  0.00  0.00    -0.084 Cl
ATOM     38  C   UNL d   1       0.698  -3.052  -1.613  0.00  0.00     0.017 A 
ENDBRANCH  27  31
ENDBRANCH   4  25
TORSDOF 7
