REMARK  3 active torsions:
REMARK  status: ('A' for Active; 'I' for Inactive)
REMARK    1  A    between atoms: C_4  and  C_1 
REMARK    2  A    between atoms: N_3  and  C_2 
REMARK       I    between atoms: N_5  and  C_4 
REMARK       I    between atoms: C_7  and  N_5 
REMARK       I    between atoms: N_11  and  C_7 
REMARK    3  A    between atoms: N_10  and  N_11 
ROOT
ATOM      1  C   UNL d   1       4.164  -2.456   0.273  0.00  0.00     0.260 C 
ATOM      2  N   UNL d   1       2.858  -2.922   0.159  0.00  0.00    -0.274 N 
ATOM      3  C   UNL d   1       2.176  -4.140   0.096  0.00  0.00     0.337 C 
ATOM      4  N   UNL d   1       0.802  -3.913  -0.100  0.00  0.00    -0.271 N 
ATOM      5  O   UNL d   1       2.676  -5.246   0.230  0.00  0.00    -0.246 OA
ATOM      6  O   UNL d   1       4.283  -1.238   0.098  0.00  0.00    -0.267 OA
ATOM      7  H   UNL d   1       2.272  -2.122  -0.011  0.00  0.00     0.173 HD
ATOM      8  H   UNL d   1       0.480  -3.015  -0.443  0.00  0.00     0.185 HD
ENDROOT
BRANCH   1   9
ATOM      9  C   UNL d   1       5.355  -3.257   0.574  0.00  0.00     0.042 A 
ATOM     10  C   UNL d   1       6.674  -2.644   0.625  0.00  0.00     0.061 A 
ATOM     11  C   UNL d   1       7.677  -3.526   0.955  0.00  0.00     0.144 A 
ATOM     12  S   UNL d   1       7.094  -5.096   1.192  0.00  0.00    -0.077 SA
ATOM     13  C   UNL d   1       5.475  -4.599   0.878  0.00  0.00     0.069 A 
BRANCH  11  14
ATOM     14  N   UNL d   1       9.079  -3.222   1.099  0.00  0.00    -0.108 N 
ATOM     15  O   UNL d   1       9.425  -2.079   0.776  0.00  0.00    -0.531 OA
ATOM     16  O   UNL d   1       9.831  -4.102   1.536  0.00  0.00    -0.531 OA
ENDBRANCH  11  14
ENDBRANCH   1   9
BRANCH   4  17
ATOM     17  N   UNL d   1      -0.111  -4.996  -0.139  0.00  0.00    -0.223 NA
ATOM     18  C   UNL d   1      -1.260  -4.751   0.759  0.00  0.00     0.140 C 
ATOM     19  C   UNL d   1      -2.284  -5.892   0.678  0.00  0.00     0.183 C 
ATOM     20  O   UNL d   1      -2.759  -6.055  -0.665  0.00  0.00    -0.389 OA
ATOM     21  C   UNL d   1      -1.663  -6.357  -1.539  0.00  0.00     0.183 C 
ATOM     22  C   UNL d   1      -0.606  -5.241  -1.511  0.00  0.00     0.140 C 
ENDBRANCH   4  17
TORSDOF 3
