REMARK  5 active torsions:
REMARK  status: ('A' for Active; 'I' for Inactive)
REMARK    1  A    between atoms: C_2  and  S_1 
REMARK    2  A    between atoms: C_9  and  S_1 
REMARK    3  A    between atoms: S_3  and  N_4 
REMARK    4  A    between atoms: C_10  and  S_3 
REMARK    5  A    between atoms: N_4  and  C_6 
ROOT
ATOM      1  C   UNL d   1       0.326   0.132   1.624  0.00  0.00     0.160 C 
ATOM      2  C   UNL d   1      -0.450   1.138   2.065  0.00  0.00     0.132 C 
ATOM      3  C   UNL d   1       0.785   0.000   0.276  0.00  0.00     0.113 C 
ATOM      4  N   UNL d   1       1.181  -0.140  -0.806  0.00  0.00    -0.191 NA
ENDROOT
BRANCH   1   5
ATOM      5  S   UNL d   1       0.753  -1.084   2.776  0.00  0.00     0.218 S 
ATOM      6  O   UNL d   1       0.257  -2.373   2.330  0.00  0.00    -0.216 OA
ATOM      7  O   UNL d   1       0.447  -0.641   4.126  0.00  0.00    -0.216 OA
BRANCH   5   8
ATOM      8  C   UNL d   1       2.536  -1.162   2.690  0.00  0.00     0.065 A 
ATOM      9  C   UNL d   1       3.312  -0.411   3.581  0.00  0.00     0.025 A 
ATOM     10  C   UNL d   1       4.705  -0.520   3.537  0.00  0.00     0.025 A 
ATOM     11  C   UNL d   1       5.307  -1.381   2.619  0.00  0.00     0.034 A 
ATOM     12  C   UNL d   1       4.529  -2.143   1.747  0.00  0.00     0.025 A 
ATOM     13 CL   UNL d   1       7.021  -1.517   2.572  0.00  0.00    -0.084 Cl
ATOM     14  C   UNL d   1       3.137  -2.044   1.787  0.00  0.00     0.025 A 
ENDBRANCH   5   8
ENDBRANCH   1   5
BRANCH   2  15
ATOM     15  N   UNL d   1      -0.899   2.140   1.144  0.00  0.00    -0.321 N 
ATOM     16  HN  UNL d   1      -0.720   2.010   0.149  1.00  0.00     0.175 HD
BRANCH  15  17
ATOM     17  S   UNL d   1      -1.645   3.413   1.608  0.00  0.00     0.052 S 
ATOM     18  O   UNL d   1      -1.171   4.278   2.670  0.00  0.00    -0.245 OA
ATOM     19  C   UNL d   1      -1.916   4.418   0.165  0.00  0.00     0.142 C 
BRANCH  17  20
ATOM     20  C   UNL d   1      -3.312   2.934   2.038  0.00  0.00     0.038 A 
ATOM     21  C   UNL d   1      -3.986   3.632   3.046  0.00  0.00     0.023 A 
ATOM     22  C   UNL d   1      -5.305   3.291   3.352  0.00  0.00     0.025 A 
ATOM     23  C   UNL d   1      -5.933   2.253   2.663  0.00  0.00     0.034 A 
ATOM     24  C   UNL d   1      -5.251   1.544   1.672  0.00  0.00     0.025 A 
ATOM     25 CL   UNL d   1      -7.564   1.852   3.028  0.00  0.00    -0.084 Cl
ATOM     26  C   UNL d   1      -3.935   1.884   1.355  0.00  0.00     0.023 A 
ENDBRANCH  17  20
ENDBRANCH  15  17
ENDBRANCH   2  15
TORSDOF 5
