REMARK  15 active torsions:
REMARK  status: ('A' for Active; 'I' for Inactive)
REMARK    1  A    between atoms: N_2  and  C_1 
REMARK    2  A    between atoms: C_4  and  C_1 
REMARK    3  A    between atoms: C_5  and  C_1 
REMARK    4  A    between atoms: N_7  and  C_1 
REMARK       I    between atoms: C_6  and  N_2 
REMARK    5  A    between atoms: C_3  and  C_9 
REMARK    6  A    between atoms: C_8  and  C_3 
REMARK    7  A    between atoms: C_11  and  C_3 
REMARK    8  A    between atoms: O_29  and  C_3 
REMARK    9  A    between atoms: C_10  and  C_6 
REMARK   10  A    between atoms: C_12  and  N_7 
REMARK   11  A    between atoms: O_30  and  C_11 
REMARK   12  A    between atoms: O_31  and  C_14 
REMARK   13  A    between atoms: O_33  and  C_16 
REMARK   14  A    between atoms: C_35  and  O_30 
REMARK   15  A    between atoms: C_36  and  O_33 
ROOT
ATOM      1  C   UNL d   1       0.993   0.133  -0.419  0.00  0.00     0.306 C 
ENDROOT
BRANCH   1   2
ATOM      2  N   UNL d   1       0.308   0.404   0.876  0.00  0.00    -0.315 N 
ATOM      3  C   UNL d   1      -1.089   0.473   0.918  0.00  0.00     0.256 C 
ATOM      4  O   UNL d   1      -1.717   0.482  -0.127  0.00  0.00    -0.267 OA
ATOM      5  H   UNL d   1       0.720  -0.058   1.667  0.00  0.00     0.165 HD
BRANCH   3   6
ATOM      6  C   UNL d   1      -1.780   0.511   2.262  0.00  0.00     0.065 A 
ATOM      7  C   UNL d   1      -3.197   0.477   2.353  0.00  0.00     0.084 A 
ATOM      8  C   UNL d   1      -3.814   0.709   3.590  0.00  0.00     0.038 A 
ATOM      9  C   UNL d   1      -3.049   0.886   4.745  0.00  0.00     0.003 A 
ATOM     10  C   UNL d   1      -1.662   0.819   4.676  0.00  0.00     0.001 A 
ATOM     11  C   UNL d   1      -1.030   0.658   3.442  0.00  0.00     0.020 A 
BRANCH   7  12
ATOM     12  O   UNL d   1      -3.904   0.100   1.241  0.00  0.00    -0.350 OA
BRANCH  12  13
ATOM     13  C   UNL d   1      -5.265   0.496   1.079  0.00  0.00     0.171 C 
ATOM     14  C   UNL d   1      -6.226  -0.622   1.454  0.00  0.00     0.034 C 
ENDBRANCH  12  13
ENDBRANCH   7  12
ENDBRANCH   3   6
ENDBRANCH   1   2
BRANCH   1  15
ATOM     15  C   UNL d   1       0.764   1.226  -1.548  0.00  0.00     0.441 C 
ATOM     16  F   UNL d   1      -0.498   1.644  -1.751  0.00  0.00    -0.166 F 
ATOM     17  F   UNL d   1       1.477   2.356  -1.265  0.00  0.00    -0.166 F 
ATOM     18  F   UNL d   1       1.234   0.806  -2.754  0.00  0.00    -0.166 F 
ENDBRANCH   1  15
BRANCH   1  19
ATOM     19  C   UNL d   1       0.493  -1.227  -1.064  0.00  0.00     0.441 C 
ATOM     20  F   UNL d   1      -0.432  -1.867  -0.307  0.00  0.00    -0.166 F 
ATOM     21  F   UNL d   1       0.014  -1.147  -2.319  0.00  0.00    -0.166 F 
ATOM     22  F   UNL d   1       1.548  -2.102  -1.121  0.00  0.00    -0.166 F 
ENDBRANCH   1  19
BRANCH   1  23
ATOM     23  N   UNL d   1       2.518   0.023  -0.154  0.00  0.00    -0.347 N 
ATOM     24  H   UNL d   1       2.972  -0.592  -0.835  0.00  0.00     0.163 HD
BRANCH  23  25
ATOM     25  C   UNL d   1       3.375   0.371   0.867  0.00  0.00     0.064 C 
ATOM     26  C   UNL d   1       4.633   0.972   0.645  0.00  0.00     0.095 C 
ATOM     27  C   UNL d   1       5.475   1.340   1.726  0.00  0.00     0.050 C 
ATOM     28  C   UNL d   1       5.132   1.092   3.066  0.00  0.00    -0.002 C 
ATOM     29  C   UNL d   1       3.995   0.312   3.265  0.00  0.00     0.013 C 
ATOM     30  C   UNL d   1       3.144  -0.031   2.189  0.00  0.00     0.033 C 
BRANCH  26  31
ATOM     31  O   UNL d   1       5.277   1.184  -0.549  0.00  0.00    -0.354 OA
ATOM     32  C   UNL d   1       4.524   1.583  -1.678  0.00  0.00     0.210 C 
ENDBRANCH  26  31
BRANCH  28  33
ATOM     33  C   UNL d   1       5.922   1.724   4.232  0.00  0.00     0.271 C 
BRANCH  33  34
ATOM     34  C   UNL d   1       4.985   2.477   5.217  0.00  0.00     0.432 C 
ATOM     35  F   UNL d   1       3.754   2.728   4.720  0.00  0.00    -0.167 F 
ATOM     36  F   UNL d   1       4.803   1.835   6.397  0.00  0.00    -0.167 F 
ATOM     37  F   UNL d   1       5.528   3.693   5.520  0.00  0.00    -0.167 F 
ENDBRANCH  33  34
BRANCH  33  38
ATOM     38  C   UNL d   1       6.668   0.736   5.139  0.00  0.00     0.308 C 
ATOM     39  O   UNL d   1       6.421  -0.469   5.232  0.00  0.00    -0.261 OA
BRANCH  38  40
ATOM     40  O   UNL d   1       7.578   1.393   5.934  0.00  0.00    -0.319 OA
BRANCH  40  41
ATOM     41  C   UNL d   1       8.064   0.693   7.092  0.00  0.00     0.174 C 
ATOM     42  C   UNL d   1       9.510   0.268   6.918  0.00  0.00     0.034 C 
ENDBRANCH  40  41
ENDBRANCH  38  40
ENDBRANCH  33  38
BRANCH  33  43
ATOM     43  O   UNL d   1       6.891   2.650   3.655  0.00  0.00    -0.368 OA
ATOM     44  H   UNL d   1       7.047   3.345   4.325  0.00  0.00     0.212 HD
ENDBRANCH  33  43
ENDBRANCH  28  33
ENDBRANCH  23  25
ENDBRANCH   1  23
TORSDOF 15
