REMARK  4 active torsions:
REMARK  status: ('A' for Active; 'I' for Inactive)
REMARK    1  A    between atoms: N_2  and  S_1 
REMARK    2  A    between atoms: C_5  and  S_1 
REMARK    3  A    between atoms: C_3  and  C_8 
REMARK    4  A    between atoms: S_20  and  C_4 
ROOT
ATOM      1  C   UNL d   1      -0.878  -2.277   4.533  0.00  0.00     0.024 A 
ATOM      2  C   UNL d   1      -1.606  -1.342   5.261  0.00  0.00     0.055 A 
ATOM      3  S   UNL d   1      -2.002  -1.920   6.824  0.00  0.00    -0.071 SA
ATOM      4  C   UNL d   1      -0.578  -3.463   5.332  0.00  0.00    -0.020 A 
ATOM      5  C   UNL d   1      -1.149  -3.367   6.598  0.00  0.00     0.093 A 
ATOM      6  C   UNL d   1      -1.035  -4.347   7.637  0.00  0.00     0.107 C 
ATOM      7  N   UNL d   1      -0.917  -5.160   8.456  0.00  0.00    -0.191 NA
ATOM      8  C   UNL d   1       0.259  -4.649   4.940  0.00  0.00     0.051 C 
ENDROOT
BRANCH   1   9
ATOM      9  C   UNL d   1      -0.392  -2.094   3.144  0.00  0.00     0.063 C 
ATOM     10  N   UNL d   1       0.057  -0.925   2.671  0.00  0.00    -0.284 N 
ATOM     11  N   UNL d   1       0.337  -1.175   1.364  0.00  0.00    -0.188 N 
ATOM     12  HN  UNL d   1       0.164  -0.046   3.177  1.00  0.00     0.188 HD
ATOM     13  C   UNL d   1       0.265  -2.515   1.065  0.00  0.00     0.131 C 
ATOM     14  C   UNL d   1      -0.302  -3.114   2.166  0.00  0.00     0.052 C 
BRANCH  11  15
ATOM     15  S   UNL d   1       0.955  -0.025   0.217  0.00  0.00     0.283 S 
ATOM     16  O   UNL d   1       0.354   1.241   0.589  0.00  0.00    -0.198 OA
ATOM     17  O   UNL d   1       0.739  -0.650  -1.073  0.00  0.00    -0.198 OA
BRANCH  15  18
ATOM     18  C   UNL d   1       2.699   0.084   0.479  0.00  0.00     0.104 A 
ATOM     19  C   UNL d   1       3.332  -0.659   1.486  0.00  0.00     0.050 A 
ATOM     20  C   UNL d   1       4.719  -0.597   1.622  0.00  0.00     0.035 A 
ATOM     21 CL   UNL d   1       5.495  -1.535   2.836  0.00  0.00    -0.084 Cl
ATOM     22  C   UNL d   1       5.481   0.203   0.776  0.00  0.00     0.025 A 
ATOM     23  C   UNL d   1       4.849   0.957  -0.214  0.00  0.00     0.027 A 
ATOM     24  C   UNL d   1       3.459   0.900  -0.369  0.00  0.00     0.057 A 
ATOM     25 CL   UNL d   1       2.783   1.867  -1.630  0.00  0.00    -0.083 Cl
ENDBRANCH  15  18
ENDBRANCH  11  15
ENDBRANCH   1   9
BRANCH   2  26
ATOM     26  S   UNL d   1      -2.102   0.301   4.845  0.00  0.00    -0.126 SA
ATOM     27  C   UNL d   1      -3.415   0.009   3.645  0.00  0.00     0.096 C 
ENDBRANCH   2  26
TORSDOF 4
