REMARK  7 active torsions:
REMARK  status: ('A' for Active; 'I' for Inactive)
REMARK    1  A    between atoms: C_2  and  S_1 
REMARK    2  A    between atoms: N_7  and  S_1 
REMARK    3  A    between atoms: C_10  and  C_4 
REMARK    4  A    between atoms: C_5  and  N_7 
REMARK    5  A    between atoms: C_11  and  C_6 
REMARK    6  A    between atoms: O_20  and  C_10 
REMARK    7  A    between atoms: O_21  and  C_11 
ROOT
ATOM      1  S   UNL d   1       0.766  -0.125   0.034  0.00  0.00     0.261 S 
ATOM      2  O   UNL d   1      -0.159  -0.643  -0.950  0.00  0.00    -0.204 OA
ATOM      3  O   UNL d   1       2.200  -0.276  -0.095  0.00  0.00    -0.204 OA
ENDROOT
BRANCH   1   4
ATOM      4  C   UNL d   1       0.360  -0.991   1.530  0.00  0.00     0.146 A 
ATOM      5  N   UNL d   1       0.522  -2.361   1.686  0.00  0.00    -0.336 N 
ATOM      6  C   UNL d   1       0.122  -2.754   2.960  0.00  0.00     0.111 A 
ATOM      7  C   UNL d   1       1.023  -3.281   0.681  0.00  0.00     0.157 C 
ATOM      8  C   UNL d   1      -0.316  -1.606   3.601  0.00  0.00     0.039 A 
ATOM      9  C   UNL d   1      -0.169  -0.518   2.719  0.00  0.00     0.046 A 
BRANCH   6  10
ATOM     10  C   UNL d   1       0.165  -4.110   3.477  0.00  0.00     0.309 C 
ATOM     11  O   UNL d   1       0.557  -5.099   2.872  0.00  0.00    -0.258 OA
BRANCH  10  12
ATOM     12  O   UNL d   1      -0.297  -4.126   4.761  0.00  0.00    -0.321 OA
ATOM     13  C   UNL d   1      -0.283  -5.410   5.383  0.00  0.00     0.213 C 
ENDBRANCH  10  12
ENDBRANCH   6  10
ENDBRANCH   1   4
BRANCH   1  14
ATOM     14  N   UNL d   1       0.491   1.540   0.298  0.00  0.00    -0.179 NA
ATOM     15  H   UNL d   1       1.429   1.930   0.425  0.00  0.00     0.146 HD
BRANCH  14  16
ATOM     16  C   UNL d   1      -0.278   2.225  -0.670  0.00  0.00     0.046 A 
ATOM     17  C   UNL d   1      -1.651   2.414  -0.645  0.00  0.00     0.102 A 
ATOM     18  S   UNL d   1      -2.187   3.255  -2.047  0.00  0.00    -0.094 SA
ATOM     19  C   UNL d   1      -0.604   3.396  -2.661  0.00  0.00     0.052 A 
ATOM     20  C   UNL d   1       0.323   2.821  -1.823  0.00  0.00     0.033 A 
BRANCH  17  21
ATOM     21  C   UNL d   1      -2.586   2.041   0.401  0.00  0.00     0.301 C 
ATOM     22  O   UNL d   1      -2.292   1.836   1.574  0.00  0.00    -0.259 OA
BRANCH  21  23
ATOM     23  O   UNL d   1      -3.858   1.940  -0.089  0.00  0.00    -0.322 OA
ATOM     24  C   UNL d   1      -4.854   1.576   0.867  0.00  0.00     0.213 C 
ENDBRANCH  21  23
ENDBRANCH  17  21
ENDBRANCH  14  16
ENDBRANCH   1  14
TORSDOF 7
