REMARK  4 active torsions:
REMARK  status: ('A' for Active; 'I' for Inactive)
REMARK       I    between atoms: N_2  and  C_1 
REMARK    1  A    between atoms: C_4  and  C_1 
REMARK       I    between atoms: C_3  and  N_6 
REMARK    2  A    between atoms: O_7  and  C_3 
REMARK    3  A    between atoms: N_6  and  C_18 
REMARK    4  A    between atoms: C_15  and  O_7 
ROOT
ATOM      1  C   UNL d   1       1.261   0.228  -0.506  0.00  0.00     0.260 C 
ATOM      2  N   UNL d   1       1.006   0.941   0.683  0.00  0.00    -0.347 N 
ATOM      3  C   UNL d   1       0.058   0.576   1.729  0.00  0.00     0.128 C 
ATOM      4  C   UNL d   1       1.303   2.370   0.679  0.00  0.00     0.128 C 
ATOM      5  O   UNL d   1       1.839   0.800  -1.434  0.00  0.00    -0.267 OA
ATOM      6  C   UNL d   1      -1.290   1.235   1.470  0.00  0.00     0.045 C 
ATOM      7  C   UNL d   1       0.042   3.173   0.370  0.00  0.00     0.045 C 
ATOM      8  C   UNL d   1      -1.202   2.737   1.162  0.00  0.00     0.089 C 
ENDROOT
BRANCH   8   9
ATOM      9  N   UNL d   1      -1.538   3.585   2.305  0.00  0.00    -0.332 N 
ATOM     10  C   UNL d   1      -0.874   3.897   3.451  0.00  0.00     0.361 C 
ATOM     11  O   UNL d   1      -1.423   4.583   4.300  0.00  0.00    -0.238 OA
ATOM     12  H   UNL d   1      -2.470   3.979   2.319  0.00  0.00     0.165 HD
BRANCH  10  13
ATOM     13  O   UNL d   1       0.378   3.397   3.526  0.00  0.00    -0.294 OA
BRANCH  13  14
ATOM     14  C   UNL d   1       1.197   3.686   4.695  0.00  0.00     0.061 C 
ATOM     15  C   UNL d   1       0.562   3.123   5.974  0.00  0.00     0.046 C 
ATOM     16  C   UNL d   1       2.528   2.957   4.452  0.00  0.00     0.046 C 
ATOM     17  C   UNL d   1       1.489   5.189   4.816  0.00  0.00     0.046 C 
ENDBRANCH  13  14
ENDBRANCH  10  13
ENDBRANCH   8   9
BRANCH   1  18
ATOM     18  C   UNL d   1       0.824  -1.161  -0.646  0.00  0.00     0.072 A 
ATOM     19  S   UNL d   1       0.317  -1.677  -2.212  0.00  0.00    -0.097 SA
ATOM     20  C   UNL d   1       0.028  -3.272  -1.682  0.00  0.00     0.050 A 
ATOM     21  C   UNL d   1       0.310  -3.427  -0.345  0.00  0.00     0.009 A 
ATOM     22  C   UNL d   1       0.803  -2.222   0.242  0.00  0.00     0.025 A 
ENDBRANCH   1  18
TORSDOF 4
