REMARK  0 active torsions:
REMARK  status: ('A' for Active; 'I' for Inactive)
ROOT
ATOM      1  N   UNL d   1       0.905   0.485   0.013  0.00  0.00    -0.091 N 
ATOM      2  C   UNL d   1       1.684  -0.636  -0.008  0.00  0.00     0.718 A 
ATOM      3  C   UNL d   1       1.767   1.550   0.031  0.00  0.00     0.360 A 
ATOM      4  N   UNL d   1       2.964  -0.393  -0.047  0.00  0.00    -0.126 N 
ATOM      5  HN  UNL d   1       3.730  -1.064  -0.085  1.00  0.00     0.206 HD
ATOM      6  N   UNL d   1       1.090  -1.876   0.014  0.00  0.00    -0.147 N 
ATOM      7  N   UNL d   1       3.040   0.978  -0.027  0.00  0.00    -0.236 N 
ATOM      8  C   UNL d   1      -0.496   0.435   0.008  0.00  0.00     0.084 A 
ATOM      9  N   UNL d   1      -0.280  -2.018  -0.050  0.00  0.00    -0.189 NA
ATOM     10  C   UNL d   1      -1.094  -0.849   0.036  0.00  0.00     0.056 A 
ATOM     11  O   UNL d   1       1.544   2.748   0.100  0.00  0.00    -0.244 OA
ATOM     12  C   UNL d   1      -1.302   1.575  -0.022  0.00  0.00     0.032 A 
ATOM     13  C   UNL d   1      -2.487  -0.965   0.025  0.00  0.00     0.027 A 
ATOM     14  C   UNL d   1      -2.693   1.445  -0.033  0.00  0.00     0.002 A 
ATOM     15  C   UNL d   1      -3.284   0.180  -0.003  0.00  0.00     0.002 A 
ATOM     16  H   UNL d   1       1.676  -2.638  -0.320  0.00  0.00     0.200 HD
ATOM     17  H   UNL d   1       3.917   1.479   0.001  0.00  0.00     0.192 HD
ATOM     18  H   UNL d   1      -0.662  -2.761   0.538  0.00  0.00     0.153 HD
ENDROOT
TORSDOF 0
