REMARK  2 active torsions:
REMARK  status: ('A' for Active; 'I' for Inactive)
REMARK    1  A    between atoms: C_7  and  C_1 
REMARK    2  A    between atoms: C_11  and  C_6 
ROOT
ATOM      1  N   UNL d   1       2.928  -2.578   0.919  0.00  0.00    -0.340 N 
ATOM      2  HN  UNL d   1       2.994  -1.901   1.679  1.00  0.00     0.167 HD
ATOM      3  C   UNL d   1       3.737  -3.650   0.857  0.00  0.00     0.116 A 
ATOM      4  C   UNL d   1       2.022  -2.442  -0.075  0.00  0.00     0.062 A 
ATOM      5  N   UNL d   1       3.702  -4.574  -0.122  0.00  0.00    -0.352 N 
ATOM      6  HN  UNL d   1       4.341  -5.369  -0.131  1.00  0.00     0.166 HD
ATOM      7  C   UNL d   1       1.909  -3.342  -1.113  0.00  0.00     0.049 A 
ATOM      8  C   UNL d   1       2.784  -4.397  -1.088  0.00  0.00     0.092 A 
ENDROOT
BRANCH   3   9
ATOM      9  C   UNL d   1       4.726  -3.829   1.937  0.00  0.00     0.011 A 
ATOM     10  C   UNL d   1       4.802  -2.932   3.021  0.00  0.00     0.039 A 
ATOM     11  C   UNL d   1       5.737  -3.110   4.043  0.00  0.00     0.036 A 
ATOM     12 CL   UNL d   1       5.791  -1.991   5.350  0.00  0.00    -0.084 Cl
ATOM     13  C   UNL d   1       6.622  -4.181   4.017  0.00  0.00     0.047 A 
ATOM     14  C   UNL d   1       6.564  -5.077   2.956  0.00  0.00     0.036 A 
ATOM     15  C   UNL d   1       5.632  -4.908   1.930  0.00  0.00     0.039 A 
ATOM     16 CL   UNL d   1       7.653  -6.408   2.906  0.00  0.00    -0.084 Cl
ENDBRANCH   3   9
BRANCH   4  17
ATOM     17  C   UNL d   1       1.142  -1.276  -0.018  0.00  0.00     0.066 A 
ATOM     18  N   UNL d   1       0.140  -1.070  -0.960  0.00  0.00    -0.352 N 
ATOM     19  C   UNL d   1      -0.506   0.044  -0.692  0.00  0.00     0.047 A 
ATOM     20  HN  UNL d   1      -0.064  -1.691  -1.743  1.00  0.00     0.166 HD
ATOM     21  C   UNL d   1      -1.645   0.567  -1.495  0.00  0.00     0.076 C 
ATOM     22  S   UNL d   1       0.047   0.911   0.684  0.00  0.00    -0.087 SA
ATOM     23  C   UNL d   1       1.233  -0.296   0.952  0.00  0.00     0.083 A 
ENDBRANCH   4  17
TORSDOF 2
