REMARK  5 active torsions:
REMARK  status: ('A' for Active; 'I' for Inactive)
REMARK    1  A    between atoms: C_7  and  C_1 
REMARK    2  A    between atoms: C_12  and  C_6 
REMARK    3  A    between atoms: O_10  and  C_7 
REMARK    4  A    between atoms: C_13  and  O_10 
REMARK    5  A    between atoms: C_14  and  C_12 
ROOT
ATOM      1  C   UNL d   1       1.442   1.054   0.116  0.00  0.00     0.062 C 
ATOM      2  C   UNL d   1       1.375  -0.295   0.040  0.00  0.00     0.024 C 
ATOM      3  C   UNL d   1      -1.056  -0.243  -0.078  0.00  0.00     0.321 C 
ATOM      4  N   UNL d   1       0.138  -0.887  -0.100  0.00  0.00    -0.312 N 
ATOM      5  N   UNL d   1      -1.008   1.100   0.083  0.00  0.00    -0.334 N 
ATOM      6  C   UNL d   1       0.201   1.911  -0.025  0.00  0.00     0.127 C 
ATOM      7  O   UNL d   1      -2.123  -0.842  -0.172  0.00  0.00    -0.247 OA
ATOM      8  C   UNL d   1       2.513  -1.283   0.044  0.00  0.00     0.069 C 
ATOM      9  H   UNL d   1       0.065  -1.895  -0.177  0.00  0.00     0.170 HD
ATOM     10  H   UNL d   1      -1.914   1.546   0.022  0.00  0.00     0.165 HD
ENDROOT
BRANCH   1  11
ATOM     11  C   UNL d   1       2.758   1.725   0.289  0.00  0.00     0.293 C 
ATOM     12  O   UNL d   1       3.707   1.241   0.886  0.00  0.00    -0.259 OA
BRANCH  11  13
ATOM     13  O   UNL d   1       2.751   2.950  -0.292  0.00  0.00    -0.318 OA
BRANCH  13  14
ATOM     14  C   UNL d   1       3.963   3.713  -0.157  0.00  0.00     0.174 C 
ATOM     15  C   UNL d   1       4.164   4.225   1.262  0.00  0.00     0.034 C 
ENDBRANCH  13  14
ENDBRANCH  11  13
ENDBRANCH   1  11
BRANCH   6  16
ATOM     16  C   UNL d   1       0.043   3.124   0.918  0.00  0.00     0.030 C 
BRANCH  16  17
ATOM     17  C   UNL d   1       0.061   2.784   2.410  0.00  0.00    -0.002 C 
ATOM     18  C   UNL d   1      -0.081   4.045   3.251  0.00  0.00     0.005 C 
ENDBRANCH  16  17
ENDBRANCH   6  16
TORSDOF 5
