REMARK  5 active torsions:
REMARK  status: ('A' for Active; 'I' for Inactive)
REMARK    1  A    between atoms: C_6  and  C_1 
REMARK    2  A    between atoms: C_11  and  N_2 
REMARK    3  A    between atoms: C_16  and  C_3 
REMARK       I    between atoms: N_8  and  C_6 
REMARK    4  A    between atoms: C_9  and  N_8 
REMARK    5  A    between atoms: C_22  and  C_16 
ROOT
ATOM      1  C   UNL d   1      -0.172   1.074   0.318  0.00  0.00     0.073 A 
ATOM      2  N   UNL d   1       0.865  -0.905   0.240  0.00  0.00    -0.260 N 
ATOM      3  C   UNL d   1       1.098   0.480   0.347  0.00  0.00     0.051 A 
ATOM      4  N   UNL d   1      -0.460  -1.186   0.241  0.00  0.00    -0.304 N 
ATOM      5  HN  UNL d   1      -0.898  -2.107   0.268  1.00  0.00     0.186 HD
ATOM      6  C   UNL d   1      -1.063  -0.012   0.200  0.00  0.00     0.126 A 
ENDROOT
BRANCH   1   7
ATOM      7  C   UNL d   1      -0.673   2.436   0.496  0.00  0.00     0.259 C 
ATOM      8  N   UNL d   1       0.237   3.464   0.371  0.00  0.00    -0.322 N 
ATOM      9  H   UNL d   1       1.079   3.261  -0.136  0.00  0.00     0.169 HD
ATOM     10  O   UNL d   1      -1.873   2.614   0.694  0.00  0.00    -0.267 OA
BRANCH   8  11
ATOM     11  C   UNL d   1      -0.067   4.822   0.634  0.00  0.00     0.041 A 
ATOM     12  C   UNL d   1       0.565   5.845  -0.095  0.00  0.00    -0.032 A 
ATOM     13  C   UNL d   1       0.290   7.192   0.241  0.00  0.00     0.051 A 
ATOM     14  C   UNL d   1       1.506   5.586  -1.242  0.00  0.00     0.050 C 
ATOM     15  C   UNL d   1      -0.605   7.495   1.254  0.00  0.00     0.117 A 
ATOM     16  C   UNL d   1      -1.242   6.494   1.964  0.00  0.00     0.044 A 
ATOM     17  F   UNL d   1      -0.850   8.779   1.550  0.00  0.00    -0.206 F 
ATOM     18  C   UNL d   1      -0.976   5.161   1.653  0.00  0.00     0.033 A 
ENDBRANCH   8  11
ENDBRANCH   1   7
BRANCH   3  19
ATOM     19  C   UNL d   1       2.440   1.071   0.697  0.00  0.00     0.060 C 
BRANCH  19  20
ATOM     20  C   UNL d   1       3.225   1.631  -0.493  0.00  0.00     0.002 C 
ATOM     21  C   UNL d   1       4.578   2.184  -0.064  0.00  0.00     0.005 C 
ENDBRANCH  19  20
ENDBRANCH   3  19
BRANCH   2  22
ATOM     22  C   UNL d   1       1.739  -2.022   0.087  0.00  0.00     0.056 A 
ATOM     23  C   UNL d   1       1.318  -3.273   0.577  0.00  0.00     0.031 A 
ATOM     24  C   UNL d   1       2.033  -4.434   0.282  0.00  0.00     0.002 A 
ATOM     25  C   UNL d   1       3.166  -4.363  -0.521  0.00  0.00     0.000 A 
ATOM     26  C   UNL d   1       3.603  -3.127  -0.995  0.00  0.00     0.002 A 
ATOM     27  C   UNL d   1       2.900  -1.957  -0.682  0.00  0.00     0.031 A 
ENDBRANCH   2  22
TORSDOF 5
