REMARK  5 active torsions:
REMARK  status: ('A' for Active; 'I' for Inactive)
REMARK    1  A    between atoms: C_3  and  C_1 
REMARK    2  A    between atoms: C_9  and  C_2 
REMARK       I    between atoms: N_16  and  C_9 
REMARK    3  A    between atoms: C_10  and  C_18 
REMARK       I    between atoms: C_15  and  N_17 
REMARK    4  A    between atoms: C_19  and  C_15 
REMARK    5  A    between atoms: N_17  and  N_16 
ROOT
ATOM      1  C   UNL d   1       0.425  -2.709   0.220  0.00  0.00     0.275 C 
ATOM      2  N   UNL d   1      -0.408  -3.758  -0.113  0.00  0.00    -0.263 N 
ATOM      3  O   UNL d   1       1.586  -2.909   0.579  0.00  0.00    -0.266 OA
ATOM      4  H   UNL d   1      -1.286  -3.628  -0.613  0.00  0.00     0.190 HD
ENDROOT
BRANCH   1   5
ATOM      5  C   UNL d   1      -0.142  -1.377   0.108  0.00  0.00     0.094 A 
ATOM      6  C   UNL d   1       0.548  -0.205  -0.186  0.00  0.00     0.131 A 
ATOM      7  O   UNL d   1      -0.292   0.850   0.030  0.00  0.00    -0.236 OA
ATOM      8  N   UNL d   1      -1.555   0.407   0.321  0.00  0.00    -0.264 N 
ATOM      9  C   UNL d   1      -1.476  -0.926   0.371  0.00  0.00     0.047 A 
ATOM     10  HN  UNL d   1      -2.386   0.978   0.470  1.00  0.00     0.194 HD
ATOM     11  C   UNL d   1      -2.710  -1.674   0.711  0.00  0.00     0.071 C 
BRANCH   6  12
ATOM     12  C   UNL d   1       1.936   0.016  -0.675  0.00  0.00     0.056 A 
ATOM     13  C   UNL d   1       2.700  -0.781  -1.499  0.00  0.00     0.087 A 
ATOM     14  O   UNL d   1       3.898  -0.172  -1.716  0.00  0.00    -0.242 OA
ATOM     15  C   UNL d   1       2.506  -2.019  -2.276  0.00  0.00     0.080 C 
ATOM     16  N   UNL d   1       3.917   1.061  -1.100  0.00  0.00    -0.265 N 
ATOM     17  C   UNL d   1       2.721   1.193  -0.513  0.00  0.00     0.044 A 
ATOM     18  HN  UNL d   1       4.683   1.734  -1.093  1.00  0.00     0.194 HD
ATOM     19  C   UNL d   1       2.400   2.454   0.198  0.00  0.00     0.071 C 
ENDBRANCH   6  12
ENDBRANCH   1   5
BRANCH   2  20
ATOM     20  N   UNL d   1       0.135  -5.061  -0.193  0.00  0.00    -0.263 N 
ATOM     21  C   UNL d   1      -0.601  -5.999  -0.890  0.00  0.00     0.270 C 
ATOM     22  O   UNL d   1      -1.690  -5.715  -1.387  0.00  0.00    -0.266 OA
ATOM     23  H   UNL d   1       0.994  -5.237   0.319  0.00  0.00     0.190 HD
BRANCH  21  24
ATOM     24  C   UNL d   1      -0.041  -7.374  -1.035  0.00  0.00     0.033 A 
ATOM     25  C   UNL d   1      -0.935  -8.405  -1.359  0.00  0.00     0.018 A 
ATOM     26  C   UNL d   1      -0.475  -9.702  -1.601  0.00  0.00     0.017 A 
ATOM     27  C   UNL d   1       0.894  -9.994  -1.533  0.00  0.00     0.048 A 
ATOM     28  C   UNL d   1       1.786  -8.964  -1.187  0.00  0.00     0.017 A 
ATOM     29  C   UNL d   1       1.325  -7.661  -0.939  0.00  0.00     0.018 A 
BRANCH  27  30
ATOM     30  C   UNL d   1       1.411 -11.376  -1.864  0.00  0.00     0.417 C 
ATOM     31  F   UNL d   1       0.428 -12.266  -2.176  0.00  0.00    -0.166 F 
ATOM     32  F   UNL d   1       2.258 -11.368  -2.930  0.00  0.00    -0.166 F 
ATOM     33  F   UNL d   1       2.107 -11.934  -0.836  0.00  0.00    -0.166 F 
ENDBRANCH  27  30
ENDBRANCH  21  24
ENDBRANCH   2  20
TORSDOF 5
