REMARK  5 active torsions:
REMARK  status: ('A' for Active; 'I' for Inactive)
REMARK    1  A    between atoms: C_7  and  C_1 
REMARK    2  A    between atoms: S_17  and  C_10 
REMARK    3  A    between atoms: C_12  and  C_22 
REMARK       I    between atoms: N_16  and  C_12 
REMARK    4  A    between atoms: C_25  and  N_16 
REMARK    5  A    between atoms: C_22  and  S_17 
ROOT
ATOM      1  C   UNL d   1       2.085  -2.459  -0.138  0.00  0.00     0.065 A 
ATOM      2  N   UNL d   1       2.331  -2.962   1.085  0.00  0.00    -0.335 N 
ATOM      3  HN  UNL d   1       2.237  -2.394   1.927  1.00  0.00     0.168 HD
ATOM      4  C   UNL d   1       2.706  -4.247   1.139  0.00  0.00     0.145 A 
ATOM      5  N   UNL d   1       2.869  -5.058   0.087  0.00  0.00    -0.347 N 
ATOM      6  HN  UNL d   1       3.173  -6.026   0.191  1.00  0.00     0.167 HD
ATOM      7  C   UNL d   1       2.207  -3.214  -1.286  0.00  0.00     0.049 A 
ATOM      8  C   UNL d   1       2.607  -4.518  -1.114  0.00  0.00     0.092 A 
ENDROOT
BRANCH   4   9
ATOM      9  S   UNL d   1       2.800  -5.005   2.737  0.00  0.00    -0.085 SA
BRANCH   9  10
ATOM     10  C   UNL d   1       1.069  -4.729   3.213  0.00  0.00     0.185 C 
BRANCH  10  11
ATOM     11  C   UNL d   1       0.070  -5.218   2.168  0.00  0.00     0.231 C 
ATOM     12  N   UNL d   1       0.330  -6.490   1.684  0.00  0.00    -0.327 N 
ATOM     13  H   UNL d   1       1.179  -6.934   2.017  0.00  0.00     0.169 HD
ATOM     14  O   UNL d   1      -0.911  -4.532   1.892  0.00  0.00    -0.272 OA
BRANCH  12  15
ATOM     15  C   UNL d   1      -0.458  -7.241   0.787  0.00  0.00     0.034 A 
ATOM     16  C   UNL d   1      -1.566  -6.729   0.109  0.00  0.00     0.029 A 
ATOM     17  C   UNL d   1      -2.345  -7.555  -0.706  0.00  0.00     0.002 A 
ATOM     18  C   UNL d   1      -2.022  -8.901  -0.852  0.00  0.00     0.000 A 
ATOM     19  C   UNL d   1      -0.899  -9.415  -0.209  0.00  0.00     0.002 A 
ATOM     20  C   UNL d   1      -0.112  -8.584   0.595  0.00  0.00     0.029 A 
ENDBRANCH  12  15
ENDBRANCH  10  11
ENDBRANCH   9  10
ENDBRANCH   4   9
BRANCH   1  21
ATOM     21  C   UNL d   1       1.629  -1.073  -0.159  0.00  0.00     0.089 A 
ATOM     22  N   UNL d   1       2.115  -0.055   0.657  0.00  0.00    -0.304 N 
ATOM     23  C   UNL d   1       1.413   1.101   0.322  0.00  0.00     0.112 A 
ATOM     24  C   UNL d   1       3.121  -0.057   1.633  0.00  0.00     0.099 A 
ATOM     25  C   UNL d   1       1.726   2.297   1.029  0.00  0.00     0.049 A 
ATOM     26  N   UNL d   1       0.545   0.885  -0.637  0.00  0.00    -0.344 N 
ATOM     27  C   UNL d   1       2.681   2.288   1.977  0.00  0.00     0.005 A 
ATOM     28  C   UNL d   1       3.415   1.076   2.296  0.00  0.00     0.018 A 
ATOM     29  C   UNL d   1       0.650  -0.452  -0.932  0.00  0.00     0.036 A 
ATOM     30  HN  UNL d   1      -0.077   1.566  -1.072  1.00  0.00     0.167 HD
ATOM     31  C   UNL d   1      -0.258  -1.030  -1.953  0.00  0.00     0.070 C 
ENDBRANCH   1  21
TORSDOF 5
