REMARK  4 active torsions:
REMARK  status: ('A' for Active; 'I' for Inactive)
REMARK    1  A    between atoms: C_9  and  C_3 
REMARK    2  A    between atoms: O_12  and  C_4 
REMARK    3  A    between atoms: O_10  and  C_9 
REMARK    4  A    between atoms: C_11  and  O_10 
ROOT
ATOM      1  N   UNL d   1      -0.681   0.138  -1.188  0.00  0.00    -0.325 N 
ATOM      2  HN  UNL d   1      -1.198   0.133  -2.067  1.00  0.00     0.169 HD
ATOM      3  C   UNL d   1      -1.292   0.138   0.013  0.00  0.00     0.108 A 
ATOM      4  C   UNL d   1       0.654   0.147  -1.141  0.00  0.00     0.142 A 
ATOM      5  N   UNL d   1      -0.644   0.139   1.200  0.00  0.00    -0.348 N 
ATOM      6  HN  UNL d   1      -1.156   0.132   2.082  1.00  0.00     0.167 HD
ATOM      7  C   UNL d   1       1.416   0.150  -0.005  0.00  0.00     0.080 A 
ATOM      8  C   UNL d   1       0.707   0.149   1.174  0.00  0.00     0.011 A 
ATOM      9  C   UNL d   1       1.408   0.146   2.498  0.00  0.00     0.068 C 
ENDROOT
BRANCH   3  10
ATOM     10  C   UNL d   1      -2.805   0.070   0.037  0.00  0.00     0.252 C 
BRANCH  10  11
ATOM     11  O   UNL d   1      -3.370   1.384   0.064  0.00  0.00    -0.344 OA
BRANCH  11  12
ATOM     12  C   UNL d   1      -4.737   1.461   0.102  0.00  0.00     0.069 A 
ATOM     13  C   UNL d   1      -5.620   0.377   0.083  0.00  0.00     0.038 A 
ATOM     14  C   UNL d   1      -7.002   0.593   0.123  0.00  0.00     0.026 A 
ATOM     15  C   UNL d   1      -7.502   1.892   0.183  0.00  0.00     0.034 A 
ATOM     16  C   UNL d   1      -6.632   2.978   0.203  0.00  0.00     0.026 A 
ATOM     17 CL   UNL d   1      -9.202   2.151   0.230  0.00  0.00    -0.084 Cl
ATOM     18  C   UNL d   1      -5.252   2.759   0.163  0.00  0.00     0.038 A 
ENDBRANCH  11  12
ENDBRANCH  10  11
ENDBRANCH   3  10
BRANCH   4  19
ATOM     19  O   UNL d   1       1.250   0.140  -2.361  0.00  0.00    -0.346 OA
ATOM     20  H   UNL d   1       0.467   0.151  -2.939  0.00  0.00     0.219 HD
ENDBRANCH   4  19
TORSDOF 4
