REMARK  3 active torsions:
REMARK  status: ('A' for Active; 'I' for Inactive)
REMARK       I    between atoms: N_2  and  C_1 
REMARK       I    between atoms: N_3  and  C_1 
REMARK    1  A    between atoms: C_4  and  N_2 
REMARK    2  A    between atoms: C_6  and  N_3 
REMARK    3  A    between atoms: C_7  and  C_4 
ROOT
ATOM      1  C   UNL d   1       1.094  -0.139  -0.284  0.00  0.00     0.317 C 
ATOM      2  N   UNL d   1       0.432  -1.128   0.403  0.00  0.00    -0.335 N 
ATOM      3  N   UNL d   1       0.211   0.786  -0.779  0.00  0.00    -0.335 N 
ATOM      4  O   UNL d   1       2.307  -0.111  -0.449  0.00  0.00    -0.247 OA
ATOM      5  H   UNL d   1      -0.465  -0.874   0.776  0.00  0.00     0.165 HD
ATOM      6  H   UNL d   1      -0.765   0.530  -0.749  0.00  0.00     0.165 HD
ENDROOT
BRANCH   2   7
ATOM      7  C   UNL d   1       1.151  -2.183   1.103  0.00  0.00     0.115 C 
ATOM      8  C   UNL d   1       0.338  -3.478   1.062  0.00  0.00     0.037 C 
BRANCH   7   9
ATOM      9  C   UNL d   1       1.466  -1.784   2.537  0.00  0.00    -0.036 A 
ATOM     10  C   UNL d   1       0.452  -1.478   3.462  0.00  0.00     0.009 A 
ATOM     11  C   UNL d   1       0.765  -1.149   4.784  0.00  0.00     0.001 A 
ATOM     12  C   UNL d   1       2.093  -1.122   5.202  0.00  0.00     0.000 A 
ATOM     13  C   UNL d   1       3.111  -1.415   4.296  0.00  0.00     0.001 A 
ATOM     14  C   UNL d   1       2.800  -1.740   2.974  0.00  0.00     0.009 A 
ENDBRANCH   7   9
ENDBRANCH   2   7
BRANCH   3  15
ATOM     15  C   UNL d   1       0.575   1.976  -1.564  0.00  0.00     0.023 C 
ATOM     16  C   UNL d   1       1.297   1.600  -2.868  0.00  0.00     0.037 C 
ATOM     17  C   UNL d   1      -0.723   2.720  -1.931  0.00  0.00     0.037 C 
ATOM     18  C   UNL d   1       1.453   2.920  -0.729  0.00  0.00     0.037 C 
ENDBRANCH   3  15
TORSDOF 3
