REMARK  2 active torsions:
REMARK  status: ('A' for Active; 'I' for Inactive)
REMARK       I    between atoms: C_2  and  N_5 
REMARK       I    between atoms: N_9  and  C_2 
REMARK    1  A    between atoms: N_5  and  C_4 
REMARK    2  A    between atoms: C_15  and  N_9 
ROOT
ATOM      1  C   UNL d   1       0.497   1.212  -0.223  0.00  0.00     0.123 A 
ATOM      2  C   UNL d   1       0.873  -0.135  -0.204  0.00  0.00     0.166 A 
ATOM      3  C   UNL d   1      -0.078  -1.157  -0.312  0.00  0.00     0.076 A 
ATOM      4  C   UNL d   1       1.485   2.233  -0.084  0.00  0.00     0.106 C 
ATOM      5  N   UNL d   1       2.295   3.055   0.033  0.00  0.00    -0.191 NA
ATOM      6  C   UNL d   1      -0.840   1.548  -0.372  0.00  0.00     0.140 A 
ATOM      7  C   UNL d   1      -1.421  -0.783  -0.505  0.00  0.00     0.036 A 
ATOM      8  C   UNL d   1      -1.803   0.559  -0.527  0.00  0.00     0.046 A 
ATOM      9  F   UNL d   1       2.179  -0.418  -0.098  0.00  0.00    -0.202 F 
ATOM     10  F   UNL d   1      -1.228   2.830  -0.363  0.00  0.00    -0.204 F 
ENDROOT
BRANCH   3  11
ATOM     11  N   UNL d   1       0.142  -2.546  -0.230  0.00  0.00    -0.306 N 
ATOM     12  C   UNL d   1       1.165  -3.377   0.119  0.00  0.00     0.325 C 
ATOM     13  N   UNL d   1       2.374  -2.849   0.438  0.00  0.00    -0.309 N 
ATOM     14  O   UNL d   1       0.872  -4.573   0.163  0.00  0.00    -0.247 OA
ATOM     15  H   UNL d   1       2.489  -1.860   0.295  0.00  0.00     0.170 HD
ATOM     16  H   UNL d   1      -0.676  -3.130  -0.360  0.00  0.00     0.171 HD
BRANCH  13  17
ATOM     17  C   UNL d   1       3.483  -3.509   1.012  0.00  0.00     0.036 A 
ATOM     18  C   UNL d   1       3.539  -4.883   1.248  0.00  0.00     0.029 A 
ATOM     19  C   UNL d   1       4.628  -5.445   1.920  0.00  0.00     0.002 A 
ATOM     20  C   UNL d   1       5.675  -4.637   2.357  0.00  0.00     0.000 A 
ATOM     21  C   UNL d   1       5.650  -3.271   2.090  0.00  0.00     0.002 A 
ATOM     22  C   UNL d   1       4.564  -2.711   1.410  0.00  0.00     0.029 A 
ENDBRANCH  13  17
ENDBRANCH   3  11
TORSDOF 2
