REMARK  2 active torsions:
REMARK  status: ('A' for Active; 'I' for Inactive)
REMARK    1  A    between atoms: S_12  and  C_2 
REMARK    2  A    between atoms: C_11  and  C_3 
ROOT
ATOM      1  C   UNL d   1      -0.741   1.277  -0.061  0.00  0.00     0.105 A 
ATOM      2  C   UNL d   1      -1.377   0.044  -0.043  0.00  0.00     0.094 A 
ATOM      3  C   UNL d   1       0.648   1.257   0.024  0.00  0.00     0.067 A 
ATOM      4  N   UNL d   1      -0.705  -1.123   0.010  0.00  0.00    -0.340 N 
ATOM      5  HN  UNL d   1      -1.195  -2.018   0.023  1.00  0.00     0.167 HD
ATOM      6  N   UNL d   1       1.332   0.082   0.067  0.00  0.00    -0.344 N 
ATOM      7  HN  UNL d   1       2.350   0.071   0.113  1.00  0.00     0.167 HD
ATOM      8  C   UNL d   1       0.631  -1.061   0.046  0.00  0.00     0.078 A 
ATOM      9  C   UNL d   1      -1.486   2.484  -0.209  0.00  0.00     0.104 C 
ATOM     10  N   UNL d   1      -2.084   3.476  -0.315  0.00  0.00    -0.191 NA
ATOM     11  C   UNL d   1       1.376  -2.359   0.035  0.00  0.00     0.089 C 
ENDROOT
BRANCH   2  12
ATOM     12  S   UNL d   1      -3.170  -0.087  -0.093  0.00  0.00    -0.115 SA
ATOM     13  C   UNL d   1      -3.395  -1.884  -0.040  0.00  0.00     0.097 C 
ENDBRANCH   2  12
BRANCH   3  14
ATOM     14  C   UNL d   1       1.525   2.461   0.024  0.00  0.00    -0.008 A 
ATOM     15  C   UNL d   1       1.178   3.662   0.673  0.00  0.00     0.014 A 
ATOM     16  C   UNL d   1       1.974   4.808   0.572  0.00  0.00     0.001 A 
ATOM     17  C   UNL d   1       3.168   4.769  -0.137  0.00  0.00     0.000 A 
ATOM     18  C   UNL d   1       3.576   3.578  -0.727  0.00  0.00     0.001 A 
ATOM     19  C   UNL d   1       2.764   2.441  -0.647  0.00  0.00     0.014 A 
ENDBRANCH   3  14
TORSDOF 2
