REMARK  8 active torsions:
REMARK  status: ('A' for Active; 'I' for Inactive)
REMARK    1  A    between atoms: C_8  and  C_3 
REMARK    2  A    between atoms: C_17  and  C_7 
REMARK    3  A    between atoms: O_16  and  C_8 
REMARK    4  A    between atoms: O_18  and  C_10 
REMARK    5  A    between atoms: C_14  and  C_19 
REMARK    6  A    between atoms: C_20  and  O_16 
REMARK    7  A    between atoms: C_21  and  C_17 
REMARK    8  A    between atoms: C_19  and  O_18 
ROOT
ATOM      1  C   UNL d   1       0.361  -0.804   0.031  0.00  0.00     0.099 A 
ATOM      2  O   UNL d   1      -0.595  -1.777   0.089  0.00  0.00    -0.303 OA
ATOM      3  C   UNL d   1      -1.933  -1.466   0.004  0.00  0.00     0.154 A 
ATOM      4  C   UNL d   1      -0.005   0.541   0.005  0.00  0.00     0.049 A 
ATOM      5  C   UNL d   1      -2.406  -0.213  -0.021  0.00  0.00     0.099 A 
ATOM      6  C   UNL d   1      -1.440   0.895   0.008  0.00  0.00     0.187 A 
ATOM      7  C   UNL d   1       1.716  -1.203   0.013  0.00  0.00     0.010 A 
ATOM      8  C   UNL d   1       0.970   1.533  -0.025  0.00  0.00     0.021 A 
ATOM      9  C   UNL d   1       2.697  -0.182  -0.034  0.00  0.00     0.078 A 
ATOM     10  O   UNL d   1      -1.821   2.057   0.013  0.00  0.00    -0.287 OA
ATOM     11  C   UNL d   1       2.317   1.169  -0.038  0.00  0.00     0.038 A 
ENDROOT
BRANCH   3  12
ATOM     12  C   UNL d   1      -2.816  -2.662  -0.094  0.00  0.00     0.317 C 
ATOM     13  O   UNL d   1      -2.432  -3.792   0.184  0.00  0.00    -0.257 OA
BRANCH  12  14
ATOM     14  O   UNL d   1      -3.997  -2.352  -0.682  0.00  0.00    -0.316 OA
BRANCH  14  15
ATOM     15  C   UNL d   1      -4.655  -3.468  -1.301  0.00  0.00     0.175 C 
ATOM     16  C   UNL d   1      -4.136  -3.585  -2.724  0.00  0.00     0.034 C 
ENDBRANCH  14  15
ENDBRANCH  12  14
ENDBRANCH   3  12
BRANCH   7  17
ATOM     17  C   UNL d   1       2.177  -2.665   0.033  0.00  0.00     0.044 C 
BRANCH  17  18
ATOM     18  C   UNL d   1       1.112  -3.773   0.038  0.00  0.00     0.000 C 
ATOM     19  C   UNL d   1       1.675  -5.182   0.057  0.00  0.00     0.005 C 
ENDBRANCH  17  18
ENDBRANCH   7  17
BRANCH   9  20
ATOM     20  O   UNL d   1       4.012  -0.588  -0.019  0.00  0.00    -0.347 OA
BRANCH  20  21
ATOM     21  C   UNL d   1       4.952   0.289  -0.645  0.00  0.00     0.202 C 
BRANCH  21  22
ATOM     22  C   UNL d   1       6.309  -0.343  -0.568  0.00  0.00    -0.011 C 
ATOM     23  C   UNL d   1       7.080  -0.635  -1.625  0.00  0.00     0.009 C 
ENDBRANCH  21  22
ENDBRANCH  20  21
ENDBRANCH   9  20
TORSDOF 8
