REMARK  5 active torsions:
REMARK  status: ('A' for Active; 'I' for Inactive)
REMARK    1  A    between atoms: C_6  and  C_1 
REMARK    2  A    between atoms: C_3  and  C_2 
REMARK    3  A    between atoms: S_8  and  C_3 
REMARK    4  A    between atoms: C_7  and  S_8 
REMARK    5  A    between atoms: C_10  and  C_9 
ROOT
ATOM      1  C   UNL d   1      -0.841  -0.186  -0.212  0.00  0.00     0.085 A 
ATOM      2  C   UNL d   1       0.258  -1.135  -0.167  0.00  0.00     0.082 A 
ATOM      3  N   UNL d   1      -0.373   1.069  -0.290  0.00  0.00    -0.259 N 
ATOM      4  HN  UNL d   1      -0.930   1.920  -0.372  1.00  0.00     0.195 HD
ATOM      5  O   UNL d   1       0.977   0.996  -0.241  0.00  0.00    -0.241 OA
ATOM      6  C   UNL d   1       1.373  -0.300  -0.177  0.00  0.00     0.089 A 
ATOM      7  C   UNL d   1       2.850  -0.384  -0.148  0.00  0.00     0.080 C 
ENDROOT
BRANCH   2   8
ATOM      8  C   UNL d   1       0.196  -2.602  -0.122  0.00  0.00     0.230 C 
ATOM      9  O   UNL d   1      -0.831  -3.245  -0.289  0.00  0.00    -0.279 OA
BRANCH   8  10
ATOM     10  S   UNL d   1       1.698  -3.402   0.291  0.00  0.00    -0.029 SA
BRANCH  10  11
ATOM     11  C   UNL d   1       1.788  -5.008  -0.446  0.00  0.00     0.092 A 
ATOM     12  C   UNL d   1       1.447  -5.434  -1.728  0.00  0.00     0.081 A 
ATOM     13  C   UNL d   1       1.769  -6.766  -2.092  0.00  0.00     0.020 A 
ATOM     14  C   UNL d   1       2.465  -7.600  -1.230  0.00  0.00     0.018 A 
ATOM     15  C   UNL d   1       2.805  -7.087  -0.003  0.00  0.00     0.089 A 
ATOM     16  N   UNL d   1       2.475  -5.840   0.393  0.00  0.00    -0.360 N 
ATOM     17  HN  UNL d   1       2.740  -5.516   1.323  1.00  0.00     0.166 HD
BRANCH  12  18
ATOM     18  C   UNL d   1       0.790  -4.582  -2.769  0.00  0.00     0.420 C 
ATOM     19  F   UNL d   1       1.026  -3.250  -2.642  0.00  0.00    -0.166 F 
ATOM     20  F   UNL d   1       1.222  -4.894  -4.030  0.00  0.00    -0.166 F 
ATOM     21  F   UNL d   1      -0.558  -4.744  -2.805  0.00  0.00    -0.166 F 
ENDBRANCH  12  18
ENDBRANCH  10  11
ENDBRANCH   8  10
ENDBRANCH   2   8
BRANCH   1  22
ATOM     22  C   UNL d   1      -2.303  -0.290  -0.218  0.00  0.00     0.037 A 
ATOM     23  C   UNL d   1      -3.043   0.366   0.795  0.00  0.00     0.048 A 
ATOM     24 CL   UNL d   1      -2.325   0.885   2.289  0.00  0.00    -0.083 Cl
ATOM     25  C   UNL d   1      -4.401   0.669   0.623  0.00  0.00     0.025 A 
ATOM     26  C   UNL d   1      -5.059   0.279  -0.538  0.00  0.00     0.003 A 
ATOM     27  C   UNL d   1      -4.367  -0.445  -1.510  0.00  0.00     0.025 A 
ATOM     28  C   UNL d   1      -2.999  -0.720  -1.361  0.00  0.00     0.048 A 
ATOM     29 CL   UNL d   1      -2.213  -1.507  -2.685  0.00  0.00    -0.083 Cl
ENDBRANCH   1  22
TORSDOF 5
