REMARK  6 active torsions:
REMARK  status: ('A' for Active; 'I' for Inactive)
REMARK    1  A    between atoms: N_2  and  S_1 
REMARK    2  A    between atoms: C_14  and  S_1 
REMARK    3  A    between atoms: C_10  and  C_3 
REMARK    4  A    between atoms: O_13  and  N_7 
REMARK    5  A    between atoms: C_9  and  O_13 
REMARK    6  A    between atoms: C_15  and  C_9 
ROOT
ATOM      1  N   UNL d   1       1.970  -6.118  -2.461  0.00  0.00    -0.257 N 
ATOM      2  C   UNL d   1       0.515  -4.719  -3.425  0.00  0.00     0.006 A 
ATOM      3  C   UNL d   1       1.475  -4.836  -2.427  0.00  0.00     0.122 A 
ATOM      4  C   UNL d   1       1.380  -6.834  -3.464  0.00  0.00     0.110 A 
ATOM      5  C   UNL d   1       0.471  -5.996  -4.076  0.00  0.00     0.033 A 
ENDROOT
BRANCH   2   6
ATOM      6  C   UNL d   1      -0.294  -3.531  -3.741  0.00  0.00     0.040 C 
ATOM      7  N   UNL d   1      -1.129  -3.663  -4.728  0.00  0.00    -0.261 N 
ATOM      8  HN  UNL d   1      -1.226  -4.524  -5.266  1.00  0.00     0.194 HD
ATOM      9  C   UNL d   1      -0.106  -2.272  -2.926  0.00  0.00     0.071 C 
BRANCH   7  10
ATOM     10  O   UNL d   1      -1.891  -2.502  -4.986  0.00  0.00    -0.195 OA
BRANCH  10  11
ATOM     11  C   UNL d   1      -2.716  -2.721  -6.061  0.00  0.00     0.315 C 
ATOM     12  O   UNL d   1      -2.785  -3.733  -6.744  0.00  0.00    -0.257 OA
BRANCH  11  13
ATOM     13  C   UNL d   1      -3.574  -1.528  -6.338  0.00  0.00     0.041 A 
ATOM     14  C   UNL d   1      -4.447  -1.587  -7.440  0.00  0.00     0.019 A 
ATOM     15  C   UNL d   1      -5.281  -0.508  -7.754  0.00  0.00     0.025 A 
ATOM     16  C   UNL d   1      -5.250   0.637  -6.967  0.00  0.00     0.034 A 
ATOM     17  C   UNL d   1      -4.393   0.713  -5.868  0.00  0.00     0.025 A 
ATOM     18 CL   UNL d   1      -6.272   1.968  -7.348  0.00  0.00    -0.084 Cl
ATOM     19  C   UNL d   1      -3.554  -0.367  -5.552  0.00  0.00     0.019 A 
ENDBRANCH  11  13
ENDBRANCH  10  11
ENDBRANCH   7  10
ENDBRANCH   2   6
BRANCH   1  20
ATOM     20  S   UNL d   1       3.214  -6.719  -1.463  0.00  0.00     0.268 S 
ATOM     21  O   UNL d   1       2.874  -8.108  -1.216  0.00  0.00    -0.200 OA
ATOM     22  O   UNL d   1       3.357  -5.758  -0.385  0.00  0.00    -0.200 OA
BRANCH  20  23
ATOM     23  C   UNL d   1       4.679  -6.663  -2.464  0.00  0.00     0.080 A 
ATOM     24  C   UNL d   1       5.453  -5.498  -2.490  0.00  0.00     0.025 A 
ATOM     25  C   UNL d   1       6.662  -5.489  -3.189  0.00  0.00     0.002 A 
ATOM     26  C   UNL d   1       7.096  -6.638  -3.852  0.00  0.00     0.000 A 
ATOM     27  C   UNL d   1       6.324  -7.800  -3.822  0.00  0.00     0.002 A 
ATOM     28  C   UNL d   1       5.115  -7.818  -3.125  0.00  0.00     0.025 A 
ENDBRANCH  20  23
ENDBRANCH   1  20
TORSDOF 6
