REMARK  5 active torsions:
REMARK  status: ('A' for Active; 'I' for Inactive)
REMARK    1  A    between atoms: C_7  and  C_1 
REMARK    2  A    between atoms: C_6  and  C_2 
REMARK    3  A    between atoms: C_9  and  C_5 
REMARK       I    between atoms: N_8  and  C_7 
REMARK    4  A    between atoms: C_19  and  N_8 
REMARK    5  A    between atoms: C_18  and  C_19 
ROOT
ATOM      1  C   UNL d   1       1.150   0.631  -0.018  0.00  0.00     0.073 A 
ATOM      2  C   UNL d   1      -0.152   1.118  -0.059  0.00  0.00     0.175 A 
ATOM      3  O   UNL d   1      -1.038   0.067  -0.046  0.00  0.00    -0.304 OA
ATOM      4  C   UNL d   1       1.023  -0.791   0.037  0.00  0.00     0.058 A 
ATOM      5  C   UNL d   1      -0.323  -1.089   0.022  0.00  0.00     0.087 A 
ENDROOT
BRANCH   1   6
ATOM      6  C   UNL d   1       2.359   1.446  -0.038  0.00  0.00     0.254 C 
ATOM      7  N   UNL d   1       3.459   0.868   0.555  0.00  0.00    -0.352 N 
ATOM      8  H   UNL d   1       3.376  -0.033   0.996  0.00  0.00     0.163 HD
ATOM      9  O   UNL d   1       2.380   2.560  -0.537  0.00  0.00    -0.268 OA
BRANCH   7  10
ATOM     10  C   UNL d   1       4.691   1.606   0.745  0.00  0.00     0.162 C 
BRANCH  10  11
ATOM     11  C   UNL d   1       5.739   1.287  -0.282  0.00  0.00    -0.025 A 
ATOM     12  C   UNL d   1       6.950   0.706   0.088  0.00  0.00     0.096 A 
ATOM     13  N   UNL d   1       7.963   0.436  -0.767  0.00  0.00    -0.375 N 
ATOM     14  C   UNL d   1       7.770   0.772  -2.060  0.00  0.00     0.087 A 
ATOM     15  HN  UNL d   1       8.829   0.000  -0.451  1.00  0.00     0.164 HD
ATOM     16  C   UNL d   1       6.609   1.358  -2.535  0.00  0.00     0.018 A 
ATOM     17  C   UNL d   1       5.582   1.619  -1.631  0.00  0.00     0.011 A 
ENDBRANCH  10  11
ENDBRANCH   7  10
ENDBRANCH   1   6
BRANCH   2  18
ATOM     18  C   UNL d   1      -0.771   2.474  -0.070  0.00  0.00     0.440 C 
ATOM     19  F   UNL d   1       0.110   3.496   0.035  0.00  0.00    -0.164 F 
ATOM     20  F   UNL d   1      -1.492   2.688  -1.203  0.00  0.00    -0.164 F 
ATOM     21  F   UNL d   1      -1.637   2.624   0.970  0.00  0.00    -0.164 F 
ENDBRANCH   2  18
BRANCH   5  22
ATOM     22  C   UNL d   1      -1.090  -2.327   0.113  0.00  0.00    -0.002 A 
ATOM     23  C   UNL d   1      -0.522  -3.458   0.723  0.00  0.00     0.016 A 
ATOM     24  C   UNL d   1      -1.260  -4.636   0.882  0.00  0.00     0.024 A 
ATOM     25  C   UNL d   1      -2.571  -4.699   0.421  0.00  0.00     0.034 A 
ATOM     26  C   UNL d   1      -3.144  -3.600  -0.215  0.00  0.00     0.024 A 
ATOM     27 CL   UNL d   1      -3.488  -6.135   0.653  0.00  0.00    -0.084 Cl
ATOM     28  C   UNL d   1      -2.406  -2.419  -0.367  0.00  0.00     0.016 A 
ENDBRANCH   5  22
TORSDOF 5
