REMARK  5 active torsions:
REMARK  status: ('A' for Active; 'I' for Inactive)
REMARK    1  A    between atoms: C_11  and  C_3 
REMARK    2  A    between atoms: C_14  and  C_4 
REMARK    3  A    between atoms: C_13  and  C_10 
REMARK       I    between atoms: N_15  and  C_14 
REMARK    4  A    between atoms: C_23  and  N_15 
REMARK    5  A    between atoms: C_24  and  C_23 
ROOT
ATOM      1  C   UNL d   1       0.196  -0.769   0.024  0.00  0.00     0.145 A 
ATOM      2  N   UNL d   1       0.323   0.634   0.010  0.00  0.00    -0.234 N 
ATOM      3  C   UNL d   1      -0.809   1.442   0.014  0.00  0.00     0.144 A 
ATOM      4  C   UNL d   1       1.482  -1.284   0.016  0.00  0.00     0.094 A 
ATOM      5  N   UNL d   1      -1.026  -1.393   0.049  0.00  0.00    -0.336 N 
ATOM      6  HN  UNL d   1      -1.102  -2.410   0.057  1.00  0.00     0.167 HD
ATOM      7  C   UNL d   1      -2.030   0.870   0.032  0.00  0.00     0.071 A 
ATOM      8  N   UNL d   1       1.623   0.999  -0.005  0.00  0.00    -0.302 N 
ATOM      9  HN  UNL d   1       2.000   1.946  -0.016  1.00  0.00     0.186 HD
ATOM     10  C   UNL d   1      -2.091  -0.631   0.061  0.00  0.00     0.120 A 
ATOM     11  C   UNL d   1       2.306  -0.144  -0.001  0.00  0.00     0.128 A 
ENDROOT
BRANCH   4  12
ATOM     12  C   UNL d   1       1.928  -2.666   0.017  0.00  0.00     0.256 C 
ATOM     13  N   UNL d   1       0.926  -3.607   0.001  0.00  0.00    -0.356 N 
ATOM     14  H   UNL d   1      -0.034  -3.272   0.017  0.00  0.00     0.162 HD
ATOM     15  O   UNL d   1       3.122  -2.956   0.016  0.00  0.00    -0.267 OA
BRANCH  13  16
ATOM     16  C   UNL d   1       1.174  -5.031  -0.088  0.00  0.00     0.126 C 
BRANCH  16  17
ATOM     17  C   UNL d   1       1.282  -5.725   1.279  0.00  0.00    -0.005 C 
ATOM     18  C   UNL d   1       0.012  -5.548   2.115  0.00  0.00     0.011 C 
ATOM     19  C   UNL d   1       1.558  -7.218   1.079  0.00  0.00     0.011 C 
ENDBRANCH  16  17
ENDBRANCH  13  16
ENDBRANCH   4  12
BRANCH   3  20
ATOM     20  C   UNL d   1      -0.650   2.920   0.005  0.00  0.00     0.434 C 
ATOM     21  F   UNL d   1       0.610   3.403  -0.035  0.00  0.00    -0.165 F 
ATOM     22  F   UNL d   1      -1.304   3.460  -1.060  0.00  0.00    -0.165 F 
ATOM     23  F   UNL d   1      -1.236   3.462   1.109  0.00  0.00    -0.165 F 
ENDBRANCH   3  20
BRANCH  10  24
ATOM     24  C   UNL d   1      -3.487  -1.268   0.123  0.00  0.00     0.432 C 
ATOM     25  F   UNL d   1      -4.487  -0.344   0.126  0.00  0.00    -0.165 F 
ATOM     26  F   UNL d   1      -3.724  -2.087  -0.935  0.00  0.00    -0.165 F 
ATOM     27  F   UNL d   1      -3.653  -2.016   1.246  0.00  0.00    -0.165 F 
ENDBRANCH  10  24
TORSDOF 5
