REMARK  2 active torsions:
REMARK  status: ('A' for Active; 'I' for Inactive)
REMARK    1  A    between atoms: N_8  and  C_2 
REMARK    2  A    between atoms: C_7  and  C_5 
REMARK       I    between atoms: C_11  and  N_8 
ROOT
ATOM      1  C   UNL d   1       0.925   0.880   0.045  0.00  0.00     0.076 A 
ATOM      2  C   UNL d   1       1.104  -0.486   0.042  0.00  0.00     0.124 A 
ATOM      3  N   UNL d   1      -1.135  -0.097  -0.012  0.00  0.00    -0.303 N 
ATOM      4  HN  UNL d   1      -2.143  -0.249  -0.046  1.00  0.00     0.186 HD
ATOM      5  C   UNL d   1      -0.475   1.063  -0.003  0.00  0.00     0.033 A 
ATOM      6  N   UNL d   1      -0.161  -1.014   0.034  0.00  0.00    -0.285 N 
ATOM      7  H   UNL d   1      -0.438  -1.989   0.040  0.00  0.00     0.188 HD
ENDROOT
BRANCH   2   8
ATOM      8  N   UNL d   1       2.273  -1.239   0.038  0.00  0.00    -0.312 N 
ATOM      9  C   UNL d   1       3.595  -0.680  -0.004  0.00  0.00     0.219 C 
ATOM     10  O   UNL d   1       3.782   0.525  -0.013  0.00  0.00    -0.274 OA
ATOM     11  C   UNL d   1       4.701  -1.695  -0.041  0.00  0.00     0.117 C 
ATOM     12  H   UNL d   1       2.179  -2.247   0.042  0.00  0.00     0.170 HD
ENDBRANCH   2   8
BRANCH   5  13
ATOM     13  C   UNL d   1      -1.230   2.380  -0.063  0.00  0.00     0.037 A 
ATOM     14  C   UNL d   1      -0.593   3.576  -0.740  0.00  0.00     0.011 A 
ATOM     15  C   UNL d   1      -0.756   3.570   0.742  0.00  0.00     0.011 A 
ENDBRANCH   5  13
TORSDOF 2
