REMARK  5 active torsions:
REMARK  status: ('A' for Active; 'I' for Inactive)
REMARK    1  A    between atoms: N_2  and  S_1 
REMARK    2  A    between atoms: C_3  and  S_1 
REMARK    3  A    between atoms: C_8  and  N_2 
REMARK    4  A    between atoms: C_21  and  C_18 
REMARK    5  A    between atoms: C_22  and  C_21 
ROOT
ATOM      1  S   UNL d   1       0.881  -0.005  -0.016  0.00  0.00     0.245 S 
ATOM      2  O   UNL d   1       0.377   1.010  -0.913  0.00  0.00    -0.206 OA
ATOM      3  O   UNL d   1       2.306  -0.265   0.075  0.00  0.00    -0.206 OA
ENDROOT
BRANCH   1   4
ATOM      4  N   UNL d   1       0.165  -1.527  -0.362  0.00  0.00    -0.181 NA
ATOM      5  H   UNL d   1       0.881  -2.115  -0.789  0.00  0.00     0.146 HD
BRANCH   4   6
ATOM      6  C   UNL d   1      -1.078  -1.443  -1.058  0.00  0.00     0.025 C 
ATOM      7  C   UNL d   1      -1.057  -1.202  -2.431  0.00  0.00     0.064 C 
ATOM      8  C   UNL d   1      -2.165  -0.600  -3.008  0.00  0.00     0.103 C 
ATOM      9  O   UNL d   1      -2.027  -0.128  -4.289  0.00  0.00    -0.346 OA
ATOM     10  C   UNL d   1      -3.312  -0.335  -2.256  0.00  0.00     0.102 C 
ATOM     11  C   UNL d   1      -2.548   1.202  -4.282  0.00  0.00     0.202 C 
ATOM     12  C   UNL d   1      -4.025   1.187  -3.902  0.00  0.00     0.202 C 
ATOM     13  O   UNL d   1      -4.344   0.434  -2.720  0.00  0.00    -0.346 OA
ATOM     14  C   UNL d   1      -3.390  -0.762  -0.933  0.00  0.00     0.041 C 
ATOM     15  C   UNL d   1      -2.255  -1.292  -0.321  0.00  0.00     0.027 C 
ENDBRANCH   4   6
ENDBRANCH   1   4
BRANCH   1  16
ATOM     16  C   UNL d   1       0.303   0.366   1.623  0.00  0.00     0.074 A 
ATOM     17  C   UNL d   1       1.045  -0.065   2.724  0.00  0.00     0.025 A 
ATOM     18  C   UNL d   1       0.654   0.312   4.010  0.00  0.00     0.009 A 
ATOM     19  C   UNL d   1      -0.473   1.125   4.206  0.00  0.00    -0.058 A 
ATOM     20  C   UNL d   1      -1.197   1.566   3.088  0.00  0.00     0.009 A 
ATOM     21  C   UNL d   1      -0.810   1.192   1.798  0.00  0.00     0.025 A 
BRANCH  19  22
ATOM     22  C   UNL d   1      -0.876   1.541   5.602  0.00  0.00     0.038 C 
BRANCH  22  23
ATOM     23  C   UNL d   1      -2.297   1.129   6.001  0.00  0.00     0.000 C 
ATOM     24  C   UNL d   1      -2.495  -0.380   6.032  0.00  0.00     0.005 C 
ENDBRANCH  22  23
ENDBRANCH  19  22
ENDBRANCH   1  16
TORSDOF 5
