REMARK  2 active torsions:
REMARK  status: ('A' for Active; 'I' for Inactive)
REMARK    1  A    between atoms: C_8  and  C_3 
REMARK    2  A    between atoms: C_6  and  C_8 
ROOT
ATOM      1  C   UNL d   1       1.930   0.084  -0.200  0.00  0.00     0.231 A 
ATOM      2  N   UNL d   1       1.021   1.126  -0.092  0.00  0.00    -0.326 N 
ATOM      3  C   UNL d   1       1.144  -1.247  -0.099  0.00  0.00     0.118 A 
ATOM      4  C   UNL d   1      -0.276   0.657  -0.018  0.00  0.00     0.042 A 
ATOM      5  C   UNL d   1      -0.281  -0.737  -0.035  0.00  0.00    -0.018 A 
ATOM      6  O   UNL d   1       3.130   0.238  -0.366  0.00  0.00    -0.272 OA
ATOM      7  C   UNL d   1      -1.481  -1.427  -0.011  0.00  0.00     0.010 A 
ATOM      8  C   UNL d   1      -1.427   1.413   0.034  0.00  0.00     0.030 A 
ATOM      9  C   UNL d   1      -2.666  -0.683   0.034  0.00  0.00     0.001 A 
ATOM     10  C   UNL d   1      -2.639   0.725   0.059  0.00  0.00     0.002 A 
ATOM     11  H   UNL d   1       1.300   2.092  -0.146  0.00  0.00     0.169 HD
ENDROOT
BRANCH   3  12
ATOM     12  C   UNL d   1       1.511  -2.057   1.148  0.00  0.00     0.065 C 
BRANCH  12  13
ATOM     13  C   UNL d   1       2.956  -2.473   1.194  0.00  0.00    -0.017 A 
ATOM     14  S   UNL d   1       3.477  -3.935   0.471  0.00  0.00    -0.106 SA
ATOM     15  C   UNL d   1       5.109  -3.635   0.894  0.00  0.00     0.050 A 
ATOM     16  C   UNL d   1       5.255  -2.454   1.584  0.00  0.00     0.008 A 
ATOM     17  C   UNL d   1       4.009  -1.796   1.780  0.00  0.00     0.015 A 
ENDBRANCH  12  13
ENDBRANCH   3  12
TORSDOF 2
