REMARK  2 active torsions:
REMARK  status: ('A' for Active; 'I' for Inactive)
REMARK    1  A    between atoms: C_2  and  C_1 
REMARK       I    between atoms: C_9  and  N_3 
REMARK    2  A    between atoms: C_13  and  C_9 
ROOT
ATOM      1  C   UNL d   1      -0.503  -1.582  -0.352  0.00  0.00     0.090 A 
ATOM      2  N   UNL d   1       0.760  -1.025  -0.124  0.00  0.00    -0.218 N 
ATOM      3  C   UNL d   1       2.047  -1.617  -0.168  0.00  0.00     0.277 C 
ATOM      4  N   UNL d   1       0.663   0.312   0.143  0.00  0.00    -0.302 N 
ATOM      5  HN  UNL d   1       1.407   0.944   0.438  1.00  0.00     0.186 HD
ATOM      6  C   UNL d   1      -1.387  -0.523  -0.364  0.00  0.00     0.052 A 
ATOM      7  C   UNL d   1      -0.618   0.607  -0.068  0.00  0.00     0.110 A 
ATOM      8  O   UNL d   1       2.176  -2.678  -0.778  0.00  0.00    -0.265 OA
ENDROOT
BRANCH   1   9
ATOM      9  C   UNL d   1      -0.788  -2.977  -0.542  0.00  0.00     0.091 C 
ATOM     10  N   UNL d   1      -0.272  -4.009   0.227  0.00  0.00    -0.304 N 
ATOM     11  C   UNL d   1      -0.537  -5.185  -0.467  0.00  0.00     0.112 C 
ATOM     12  C   UNL d   1       0.428  -3.988   1.440  0.00  0.00     0.099 C 
ATOM     13  C   UNL d   1       0.139  -6.360  -0.033  0.00  0.00     0.049 C 
ATOM     14  N   UNL d   1      -1.388  -4.980  -1.447  0.00  0.00    -0.344 N 
ATOM     15  C   UNL d   1       0.911  -6.319   1.070  0.00  0.00     0.005 C 
ATOM     16  C   UNL d   1       1.012  -5.115   1.881  0.00  0.00     0.018 C 
ATOM     17  C   UNL d   1      -1.558  -3.614  -1.507  0.00  0.00     0.036 C 
ATOM     18  HN  UNL d   1      -1.830  -5.684  -2.039  1.00  0.00     0.167 HD
ATOM     19  C   UNL d   1      -2.385  -3.034  -2.592  0.00  0.00     0.070 C 
ENDBRANCH   1   9
BRANCH   3  20
ATOM     20  C   UNL d   1       3.254  -1.045   0.493  0.00  0.00     0.034 A 
ATOM     21  C   UNL d   1       3.158  -0.320   1.688  0.00  0.00     0.019 A 
ATOM     22  C   UNL d   1       4.309   0.162   2.316  0.00  0.00     0.025 A 
ATOM     23  C   UNL d   1       5.560  -0.089   1.758  0.00  0.00     0.034 A 
ATOM     24  C   UNL d   1       5.673  -0.831   0.579  0.00  0.00     0.025 A 
ATOM     25 CL   UNL d   1       6.977   0.502   2.535  0.00  0.00    -0.084 Cl
ATOM     26  C   UNL d   1       4.519  -1.314  -0.048  0.00  0.00     0.019 A 
ENDBRANCH   3  20
TORSDOF 2
