REMARK  6 active torsions:
REMARK  status: ('A' for Active; 'I' for Inactive)
REMARK    1  A    between atoms: C_2  and  S_1 
REMARK    2  A    between atoms: C_3  and  S_1 
REMARK    3  A    between atoms: C_4  and  C_2 
REMARK    4  A    between atoms: C_5  and  C_3 
REMARK    5  A    between atoms: N_14  and  C_4 
REMARK    6  A    between atoms: O_15  and  N_8 
ROOT
ATOM      1  S   UNL d   1       1.248   0.859   5.362  0.00  0.00     0.156 S 
ATOM      2  O   UNL d   1       2.691   0.981   5.220  0.00  0.00    -0.227 OA
ATOM      3  O   UNL d   1       0.680  -0.468   5.552  0.00  0.00    -0.227 OA
ENDROOT
BRANCH   1   4
ATOM      4  C   UNL d   1       0.511   1.545   3.901  0.00  0.00     0.212 C 
BRANCH   4   5
ATOM      5  C   UNL d   1       1.019   2.938   3.644  0.00  0.00     0.088 C 
ATOM      6  N   UNL d   1       0.365   3.928   4.174  0.00  0.00    -0.262 N 
ATOM      7  HN  UNL d   1      -0.469   3.826   4.752  1.00  0.00     0.195 HD
BRANCH   6   8
ATOM      8  O   UNL d   1       0.959   5.156   3.844  0.00  0.00    -0.289 OA
ATOM      9  H   UNL d   1       0.321   5.797   4.211  0.00  0.00     0.244 HD
ENDBRANCH   6   8
BRANCH   5  10
ATOM     10  N   UNL d   1       2.131   3.112   2.858  0.00  0.00    -0.290 NA
ATOM     11  H   UNL d   1       2.847   2.389   2.905  0.00  0.00     0.125 HD
ATOM     12  H   UNL d   1       2.509   4.051   2.949  0.00  0.00     0.125 HD
ENDBRANCH   5  10
ENDBRANCH   4   5
ENDBRANCH   1   4
BRANCH   1  13
ATOM     13  C   UNL d   1       0.740   1.897   6.732  0.00  0.00     0.205 C 
BRANCH  13  14
ATOM     14  C   UNL d   1      -0.736   1.939   6.825  0.00  0.00     0.066 A 
ATOM     15  O   UNL d   1      -1.304   3.175   6.736  0.00  0.00    -0.326 OA
ATOM     16  C   UNL d   1      -2.647   3.008   6.828  0.00  0.00     0.142 A 
ATOM     17  C   UNL d   1      -2.955   1.680   6.997  0.00  0.00     0.027 A 
ATOM     18  C   UNL d   1      -1.720   0.988   7.009  0.00  0.00     0.035 A 
ENDBRANCH  13  14
ENDBRANCH   1  13
TORSDOF 6
