REMARK  6 active torsions:
REMARK  status: ('A' for Active; 'I' for Inactive)
REMARK    1  A    between atoms: N_3  and  S_1 
REMARK    2  A    between atoms: C_4  and  S_1 
REMARK    3  A    between atoms: C_2  and  O_13 
REMARK    4  A    between atoms: C_16  and  N_3 
REMARK    5  A    between atoms: O_13  and  C_17 
REMARK    6  A    between atoms: O_25  and  C_18 
ROOT
ATOM      1  C   UNL d   1      -0.792  -6.196   1.987  0.00  0.00     0.117 A 
ATOM      2  N   UNL d   1       1.193  -7.606   4.580  0.00  0.00    -0.191 NA
ATOM      3  N   UNL d   1      -2.942  -4.070   0.082  0.00  0.00    -0.191 NA
ATOM      4  C   UNL d   1      -0.274  -7.421   2.441  0.00  0.00     0.080 A 
ATOM      5  C   UNL d   1      -1.687  -6.191   0.901  0.00  0.00     0.080 A 
ATOM      6  C   UNL d   1       0.542  -7.501   3.624  0.00  0.00     0.102 C 
ATOM      7  C   UNL d   1      -2.381  -5.008   0.469  0.00  0.00     0.102 C 
ATOM      8  C   UNL d   1      -1.952  -7.380   0.210  0.00  0.00     0.026 A 
ATOM      9  C   UNL d   1      -0.572  -8.610   1.756  0.00  0.00     0.026 A 
ATOM     10  C   UNL d   1      -1.389  -8.586   0.629  0.00  0.00     0.003 A 
ENDROOT
BRANCH   1  11
ATOM     11  O   UNL d   1      -0.450  -5.071   2.715  0.00  0.00    -0.308 OA
BRANCH  11  12
ATOM     12  C   UNL d   1      -0.078  -3.916   2.061  0.00  0.00     0.076 A 
ATOM     13  C   UNL d   1      -0.364  -2.724   2.734  0.00  0.00     0.039 A 
ATOM     14  C   UNL d   1      -0.077  -1.490   2.143  0.00  0.00     0.028 A 
ATOM     15  C   UNL d   1       0.491  -1.452   0.867  0.00  0.00     0.080 A 
ATOM     16  C   UNL d   1       0.826  -2.643   0.209  0.00  0.00     0.028 A 
ATOM     17  C   UNL d   1       0.562  -3.875   0.817  0.00  0.00     0.039 A 
BRANCH  15  18
ATOM     18  S   UNL d   1       0.947   0.110   0.137  0.00  0.00     0.263 S 
ATOM     19  O   UNL d   1       1.112   1.070   1.207  0.00  0.00    -0.200 OA
ATOM     20  O   UNL d   1       2.023  -0.159  -0.795  0.00  0.00    -0.200 OA
BRANCH  18  21
ATOM     21  N   UNL d   1      -0.380   0.538  -0.801  0.00  0.00    -0.281 N 
ATOM     22  H   UNL d   1      -0.371   0.160  -1.746  0.00  0.00     0.179 HD
BRANCH  21  23
ATOM     23  C   UNL d   1      -1.626   0.813  -0.189  0.00  0.00     0.042 A 
ATOM     24  C   UNL d   1      -1.844   2.060   0.397  0.00  0.00     0.033 A 
ATOM     25  C   UNL d   1      -3.069   2.343   1.009  0.00  0.00     0.039 A 
ATOM     26  C   UNL d   1      -4.066   1.369   1.054  0.00  0.00     0.068 A 
ATOM     27  C   UNL d   1      -3.846   0.129   0.450  0.00  0.00     0.039 A 
ATOM     28  C   UNL d   1      -2.625  -0.154  -0.169  0.00  0.00     0.033 A 
BRANCH  26  29
ATOM     29  O   UNL d   1      -5.297   1.530   1.629  0.00  0.00    -0.356 OA
ATOM     30  C   UNL d   1      -5.350   2.455   2.710  0.00  0.00     0.210 C 
ENDBRANCH  26  29
ENDBRANCH  21  23
ENDBRANCH  18  21
ENDBRANCH  15  18
ENDBRANCH  11  12
ENDBRANCH   1  11
TORSDOF 6
