REMARK  4 active torsions:
REMARK  status: ('A' for Active; 'I' for Inactive)
REMARK    1  A    between atoms: S_2  and  C_1 
REMARK    2  A    between atoms: N_8  and  S_2 
REMARK       I    between atoms: C_9  and  N_10 
REMARK    3  A    between atoms: C_16  and  C_9 
REMARK    4  A    between atoms: N_10  and  C_17 
ROOT
ATOM      1  N   UNL d   1       4.031  -0.663   1.464  0.00  0.00    -0.205 NA
ATOM      2  C   UNL d   1       3.682   0.149   2.655  0.00  0.00     0.109 C 
ATOM      3  C   UNL d   1       3.690  -2.107   1.599  0.00  0.00     0.109 C 
ATOM      4  C   UNL d   1       3.978  -1.896   4.109  0.00  0.00     0.087 C 
ATOM      5  C   UNL d   1       4.342  -0.427   3.900  0.00  0.00     0.041 C 
ATOM      6  C   UNL d   1       4.319  -2.702   2.853  0.00  0.00     0.041 C 
ENDROOT
BRANCH   1   7
ATOM      7  S   UNL d   1       3.498   0.037  -0.017  0.00  0.00     0.260 S 
ATOM      8  O   UNL d   1       3.908  -0.818  -1.112  0.00  0.00    -0.204 OA
ATOM      9  O   UNL d   1       3.803   1.452  -0.001  0.00  0.00    -0.204 OA
BRANCH   7  10
ATOM     10  C   UNL d   1       1.748  -0.016  -0.076  0.00  0.00     0.161 A 
ATOM     11  N   UNL d   1       0.960  -0.613   0.903  0.00  0.00    -0.335 N 
ATOM     12  C   UNL d   1      -0.282  -0.495   0.480  0.00  0.00     0.079 A 
ATOM     13  HN  UNL d   1       1.278  -1.051   1.767  1.00  0.00     0.168 HD
ATOM     14  C   UNL d   1      -1.487  -1.033   1.155  0.00  0.00     0.089 C 
ATOM     15  N   UNL d   1      -0.328   0.199  -0.707  0.00  0.00    -0.348 N 
ATOM     16  C   UNL d   1       0.952   0.500  -1.079  0.00  0.00     0.135 A 
ATOM     17  C   UNL d   1      -1.523   0.546  -1.437  0.00  0.00     0.156 C 
ENDBRANCH   7  10
ENDBRANCH   1   7
BRANCH   4  18
ATOM     18  N   UNL d   1       2.576  -2.050   4.498  0.00  0.00    -0.352 N 
ATOM     19  C   UNL d   1       2.154  -3.062   5.337  0.00  0.00     0.252 C 
ATOM     20  O   UNL d   1       2.921  -3.864   5.859  0.00  0.00    -0.268 OA
ATOM     21  H   UNL d   1       1.892  -1.423   4.097  0.00  0.00     0.163 HD
BRANCH  19  22
ATOM     22  C   UNL d   1       0.692  -3.140   5.622  0.00  0.00     0.032 A 
ATOM     23  C   UNL d   1      -0.275  -2.678   4.721  0.00  0.00     0.017 A 
ATOM     24  C   UNL d   1      -1.635  -2.800   5.024  0.00  0.00     0.001 A 
ATOM     25  C   UNL d   1      -2.036  -3.388   6.222  0.00  0.00     0.000 A 
ATOM     26  C   UNL d   1      -1.079  -3.854   7.122  0.00  0.00     0.001 A 
ATOM     27  C   UNL d   1       0.280  -3.735   6.822  0.00  0.00     0.017 A 
ENDBRANCH  19  22
ENDBRANCH   4  18
TORSDOF 4
