REMARK  3 active torsions:
REMARK  status: ('A' for Active; 'I' for Inactive)
REMARK    1  A    between atoms: C_4  and  C_1 
REMARK    2  A    between atoms: C_2  and  C_5 
REMARK    3  A    between atoms: C_8  and  C_11 
ROOT
ATOM      1  C   UNL d   1       3.895  -0.342  -0.434  0.00  0.00     0.127 C 
ATOM      2  N   UNL d   1       4.141   2.208  -0.077  0.00  0.00    -0.191 NA
ATOM      3  N   UNL d   1       6.001  -1.650  -1.161  0.00  0.00    -0.191 NA
ATOM      4  C   UNL d   1       4.012   1.066  -0.248  0.00  0.00     0.111 C 
ATOM      5  C   UNL d   1       5.061  -1.049  -0.836  0.00  0.00     0.111 C 
ENDROOT
BRANCH   1   6
ATOM      6  C   UNL d   1       2.761  -1.039  -0.220  0.00  0.00     0.071 C 
ATOM      7  C   UNL d   1       1.525  -0.438   0.142  0.00  0.00     0.078 A 
ATOM      8  O   UNL d   1       1.214   0.868  -0.132  0.00  0.00    -0.310 OA
ATOM      9  C   UNL d   1       0.421  -0.999   0.770  0.00  0.00     0.040 A 
ATOM     10  C   UNL d   1      -0.076   1.109   0.205  0.00  0.00     0.087 A 
ATOM     11  C   UNL d   1      -0.598  -0.014   0.810  0.00  0.00     0.041 A 
BRANCH  10  12
ATOM     12  C   UNL d   1      -0.557   2.463  -0.046  0.00  0.00     0.013 A 
ATOM     13  C   UNL d   1      -0.177   3.257  -1.150  0.00  0.00     0.060 A 
ATOM     14  C   UNL d   1      -0.650   4.592  -1.216  0.00  0.00     0.017 A 
ATOM     15  C   UNL d   1      -1.496   5.122  -0.245  0.00  0.00     0.001 A 
ATOM     16  C   UNL d   1      -1.901   4.326   0.815  0.00  0.00     0.001 A 
ATOM     17  C   UNL d   1      -1.437   3.013   0.911  0.00  0.00     0.015 A 
BRANCH  13  18
ATOM     18  C   UNL d   1       0.681   2.819  -2.321  0.00  0.00     0.418 C 
ATOM     19  F   UNL d   1       1.052   1.514  -2.392  0.00  0.00    -0.166 F 
ATOM     20  F   UNL d   1       0.033   3.043  -3.508  0.00  0.00    -0.166 F 
ATOM     21  F   UNL d   1       1.834   3.542  -2.414  0.00  0.00    -0.166 F 
ENDBRANCH  13  18
ENDBRANCH  10  12
ENDBRANCH   1   6
TORSDOF 3
