REMARK  5 active torsions:
REMARK  status: ('A' for Active; 'I' for Inactive)
REMARK    1  A    between atoms: S_7  and  C_1 
REMARK    2  A    between atoms: C_12  and  N_4 
REMARK    3  A    between atoms: C_14  and  S_7 
REMARK    4  A    between atoms: C_10  and  C_14 
REMARK       I    between atoms: N_11  and  C_10 
REMARK    5  A    between atoms: C_16  and  N_11 
ROOT
ATOM      1  C   UNL d   1       2.273   0.274   0.516  0.00  0.00     0.148 C 
ATOM      2  N   UNL d   1       1.642  -0.876   0.471  0.00  0.00    -0.335 N 
ATOM      3  HN  UNL d   1       2.041  -1.807   0.590  1.00  0.00     0.168 HD
ATOM      4  N   UNL d   1       1.456   1.331   0.173  0.00  0.00    -0.321 N 
ATOM      5  C   UNL d   1       0.334  -0.556   0.230  0.00  0.00     0.062 A 
ATOM      6  C   UNL d   1       0.169   0.823   0.087  0.00  0.00     0.063 A 
ATOM      7  C   UNL d   1      -0.769  -1.414   0.139  0.00  0.00     0.055 A 
ATOM      8  C   UNL d   1      -1.092   1.399  -0.105  0.00  0.00     0.034 A 
ATOM      9  C   UNL d   1      -2.030  -0.847  -0.049  0.00  0.00     0.036 A 
ATOM     10  C   UNL d   1      -2.193   0.533  -0.157  0.00  0.00     0.026 A 
ATOM     11 CL   UNL d   1      -3.409  -1.875  -0.134  0.00  0.00    -0.084 Cl
ENDROOT
BRANCH   1  12
ATOM     12  S   UNL d   1       3.937   0.423   0.968  0.00  0.00    -0.084 SA
BRANCH  12  13
ATOM     13  C   UNL d   1       4.207  -1.157   1.832  0.00  0.00     0.185 C 
BRANCH  13  14
ATOM     14  C   UNL d   1       4.659  -2.239   0.868  0.00  0.00     0.231 C 
ATOM     15  N   UNL d   1       3.664  -2.711   0.028  0.00  0.00    -0.327 N 
ATOM     16  H   UNL d   1       2.797  -2.171   0.032  0.00  0.00     0.169 HD
ATOM     17  O   UNL d   1       5.834  -2.620   0.876  0.00  0.00    -0.272 OA
BRANCH  15  18
ATOM     18  C   UNL d   1       3.844  -3.622  -1.030  0.00  0.00     0.034 A 
ATOM     19  C   UNL d   1       4.919  -4.513  -1.092  0.00  0.00     0.031 A 
ATOM     20  C   UNL d   1       5.121  -5.304  -2.226  0.00  0.00     0.026 A 
ATOM     21  C   UNL d   1       4.241  -5.210  -3.299  0.00  0.00     0.034 A 
ATOM     22  C   UNL d   1       3.128  -4.373  -3.223  0.00  0.00     0.026 A 
ATOM     23 CL   UNL d   1       4.541  -6.114  -4.731  0.00  0.00    -0.084 Cl
ATOM     24  C   UNL d   1       2.921  -3.593  -2.079  0.00  0.00     0.031 A 
ENDBRANCH  15  18
ENDBRANCH  13  14
ENDBRANCH  12  13
ENDBRANCH   1  12
BRANCH   4  25
ATOM     25  C   UNL d   1       1.877   2.696  -0.132  0.00  0.00     0.084 C 
ATOM     26  C   UNL d   1       1.523   3.100  -1.567  0.00  0.00     0.032 C 
ATOM     27  C   UNL d   1       1.371   3.722   0.883  0.00  0.00     0.032 C 
ENDBRANCH   4  25
TORSDOF 5
