REMARK  4 active torsions:
REMARK  status: ('A' for Active; 'I' for Inactive)
REMARK    1  A    between atoms: C_2  and  N_1 
REMARK    2  A    between atoms: C_4  and  S_10 
REMARK    3  A    between atoms: C_15  and  C_6 
REMARK    4  A    between atoms: S_10  and  C_15 
ROOT
ATOM      1  C   UNL d   1      -2.148   0.719  -4.837  0.00  0.00     0.119 C 
ENDROOT
BRANCH   1   2
ATOM      2  S   UNL d   1      -1.208   0.158  -6.301  0.00  0.00    -0.125 SA
BRANCH   2   3
ATOM      3  C   UNL d   1      -2.252   0.714  -7.653  0.00  0.00     0.007 A 
ATOM      4  C   UNL d   1      -2.888  -0.295  -8.403  0.00  0.00     0.027 A 
ATOM      5  C   UNL d   1      -3.606  -0.011  -9.581  0.00  0.00    -0.039 A 
ATOM      6  C   UNL d   1      -4.195  -1.135 -10.387  0.00  0.00     0.050 C 
ATOM      7  C   UNL d   1      -3.712   1.321  -9.989  0.00  0.00     0.040 A 
ATOM      8  C   UNL d   1      -3.098   2.334  -9.250  0.00  0.00     0.032 A 
ATOM      9 CL   UNL d   1      -4.561   1.767 -11.427  0.00  0.00    -0.084 Cl
ATOM     10  C   UNL d   1      -2.342   2.047  -8.093  0.00  0.00    -0.044 A 
ATOM     11  C   UNL d   1      -1.655   3.212  -7.437  0.00  0.00     0.049 C 
ENDBRANCH   2   3
ENDBRANCH   1   2
BRANCH   1  12
ATOM     12  C   UNL d   1      -1.425   0.350  -3.552  0.00  0.00    -0.027 A 
ATOM     13  C   UNL d   1      -0.392   1.192  -3.091  0.00  0.00     0.012 A 
ATOM     14  C   UNL d   1       0.309   0.904  -1.915  0.00  0.00     0.037 A 
ATOM     15  C   UNL d   1      -0.016  -0.240  -1.180  0.00  0.00     0.104 A 
ATOM     16  C   UNL d   1      -1.025  -1.102  -1.624  0.00  0.00     0.060 A 
ATOM     17  C   UNL d   1      -1.717  -0.808  -2.807  0.00  0.00     0.043 A 
ATOM     18 CL   UNL d   1      -2.937  -1.927  -3.304  0.00  0.00    -0.084 Cl
BRANCH  15  19
ATOM     19  N   UNL d   1       0.708  -0.534   0.064  0.00  0.00    -0.116 N 
ATOM     20  O   UNL d   1       0.366  -1.542   0.703  0.00  0.00    -0.532 OA
ATOM     21  O   UNL d   1       1.607   0.244   0.409  0.00  0.00    -0.532 OA
ENDBRANCH  15  19
ENDBRANCH   1  12
TORSDOF 4
