REMARK  5 active torsions:
REMARK  status: ('A' for Active; 'I' for Inactive)
REMARK    1  A    between atoms: C_4  and  C_1 
REMARK    2  A    between atoms: N_3  and  C_2 
REMARK    3  A    between atoms: C_5  and  N_3 
REMARK    4  A    between atoms: O_15  and  C_4 
REMARK    5  A    between atoms: C_18  and  O_15 
ROOT
ATOM      1  C   UNL d   1       0.314  -0.961   0.544  0.00  0.00     0.135 C 
ATOM      2  C   UNL d   1       0.559   0.165   1.244  0.00  0.00     0.119 C 
ATOM      3  C   UNL d   1       0.574  -2.239   1.104  0.00  0.00     0.107 C 
ATOM      4  N   UNL d   1       0.790  -3.268   1.604  0.00  0.00    -0.191 NA
ENDROOT
BRANCH   1   5
ATOM      5  C   UNL d   1      -0.164  -0.932  -0.859  0.00  0.00     0.305 C 
ATOM      6  O   UNL d   1      -0.320  -1.938  -1.536  0.00  0.00    -0.258 OA
BRANCH   5   7
ATOM      7  O   UNL d   1      -0.325   0.340  -1.310  0.00  0.00    -0.317 OA
BRANCH   7   8
ATOM      8  C   UNL d   1      -0.386   0.485  -2.736  0.00  0.00     0.174 C 
ATOM      9  C   UNL d   1       1.034   0.634  -3.253  0.00  0.00     0.034 C 
ENDBRANCH   7   8
ENDBRANCH   5   7
ENDBRANCH   1   5
BRANCH   2  10
ATOM     10  N   UNL d   1       1.083   0.310   2.530  0.00  0.00    -0.357 N 
ATOM     11  C   UNL d   1       0.223   0.094   3.697  0.00  0.00     0.156 C 
BRANCH  10  12
ATOM     12  C   UNL d   1       2.491   0.273   2.738  0.00  0.00     0.073 A 
ATOM     13  C   UNL d   1       3.386   0.853   1.807  0.00  0.00     0.146 A 
ATOM     14  C   UNL d   1       4.770   0.798   1.965  0.00  0.00     0.086 A 
ATOM     15  F   UNL d   1       2.917   1.513   0.736  0.00  0.00    -0.204 F 
ATOM     16  C   UNL d   1       5.296   0.145   3.066  0.00  0.00     0.119 A 
ATOM     17  C   UNL d   1       4.462  -0.430   4.014  0.00  0.00     0.044 A 
ATOM     18  F   UNL d   1       6.624   0.065   3.218  0.00  0.00    -0.206 F 
ATOM     19  C   UNL d   1       3.071  -0.358   3.855  0.00  0.00     0.036 A 
ENDBRANCH  10  12
ENDBRANCH   2  10
TORSDOF 5
