REMARK  3 active torsions:
REMARK  status: ('A' for Active; 'I' for Inactive)
REMARK       I    between atoms: N_2  and  C_1 
REMARK       I    between atoms: N_3  and  C_1 
REMARK    1  A    between atoms: C_8  and  N_3 
REMARK    2  A    between atoms: C_7  and  N_4 
REMARK    3  A    between atoms: C_17  and  C_7 
ROOT
ATOM      1  C   UNL d   1       0.673   0.198   0.256  0.00  0.00     0.322 C 
ATOM      2  N   UNL d   1       0.160  -1.105   0.344  0.00  0.00    -0.332 N 
ATOM      3  N   UNL d   1       1.260   0.687   1.404  0.00  0.00    -0.309 N 
ATOM      4  N   UNL d   1      -1.857  -3.536   0.138  0.00  0.00     0.094 N 
ATOM      5  O   UNL d   1       0.594   0.838  -0.790  0.00  0.00    -0.247 OA
ATOM      6  C   UNL d   1      -0.439  -1.637  -0.894  0.00  0.00     0.157 C 
ATOM      7  C   UNL d   1      -1.786  -2.356  -0.733  0.00  0.00     0.292 C 
ATOM      8  C   UNL d   1      -0.467  -2.739   2.177  0.00  0.00     0.050 C 
ATOM      9  C   UNL d   1       0.614  -2.113   1.299  0.00  0.00     0.129 C 
ATOM     10  C   UNL d   1      -1.800  -3.158   1.548  0.00  0.00     0.274 C 
ATOM     11  H   UNL d   1       1.211   0.114   2.228  0.00  0.00     0.170 HD
ENDROOT
BRANCH   3  12
ATOM     12  C   UNL d   1       1.867   1.952   1.582  0.00  0.00     0.036 A 
ATOM     13  C   UNL d   1       1.827   2.979   0.634  0.00  0.00     0.031 A 
ATOM     14  C   UNL d   1       2.432   4.216   0.889  0.00  0.00     0.026 A 
ATOM     15  C   UNL d   1       3.093   4.429   2.094  0.00  0.00     0.034 A 
ATOM     16  C   UNL d   1       3.155   3.414   3.045  0.00  0.00     0.026 A 
ATOM     17 CL   UNL d   1       3.830   5.951   2.410  0.00  0.00    -0.084 Cl
ATOM     18  C   UNL d   1       2.537   2.184   2.792  0.00  0.00     0.031 A 
ENDBRANCH   3  12
BRANCH   4  19
ATOM     19  C   UNL d   1      -0.987  -4.657  -0.220  0.00  0.00     0.311 C 
BRANCH  19  20
ATOM     20  C   UNL d   1      -1.196  -5.210  -1.615  0.00  0.00    -0.030 A 
ATOM     21  C   UNL d   1      -0.185  -5.101  -2.585  0.00  0.00     0.009 A 
ATOM     22  C   UNL d   1      -0.353  -5.659  -3.854  0.00  0.00     0.001 A 
ATOM     23  C   UNL d   1      -1.534  -6.330  -4.168  0.00  0.00     0.000 A 
ATOM     24  C   UNL d   1      -2.549  -6.434  -3.219  0.00  0.00     0.001 A 
ATOM     25  C   UNL d   1      -2.383  -5.873  -1.949  0.00  0.00     0.009 A 
ENDBRANCH  19  20
ENDBRANCH   4  19
TORSDOF 3
