REMARK  4 active torsions:
REMARK  status: ('A' for Active; 'I' for Inactive)
REMARK    1  A    between atoms: C_6  and  C_1 
REMARK    2  A    between atoms: N_5  and  C_2 
REMARK    3  A    between atoms: C_3  and  C_4 
REMARK       I    between atoms: C_4  and  N_5 
REMARK    4  A    between atoms: O_15  and  C_6 
ROOT
ATOM      1  C   UNL d   1      -0.006   1.245   0.070  0.00  0.00     0.106 A 
ATOM      2  C   UNL d   1       1.248   0.680  -0.122  0.00  0.00     0.058 A 
ATOM      3  S   UNL d   1      -1.248   0.039   0.079  0.00  0.00    -0.094 SA
ATOM      4  C   UNL d   1       1.143  -0.747  -0.300  0.00  0.00     0.038 A 
ATOM      5  C   UNL d   1      -0.143  -1.218  -0.207  0.00  0.00     0.053 A 
ENDROOT
BRANCH   2   6
ATOM      6  N   UNL d   1       2.521   1.243  -0.138  0.00  0.00    -0.318 N 
ATOM      7  C   UNL d   1       2.934   2.503   0.275  0.00  0.00     0.330 C 
ATOM      8  O   UNL d   1       2.198   3.372   0.740  0.00  0.00    -0.263 OA
ATOM      9  H   UNL d   1       3.276   0.591  -0.358  0.00  0.00     0.169 HD
BRANCH   7  10
ATOM     10  C   UNL d   1       4.454   2.683   0.117  0.00  0.00     0.472 C 
ATOM     11  F   UNL d   1       5.077   1.477  -0.073  0.00  0.00    -0.162 F 
ATOM     12  F   UNL d   1       4.785   3.442  -0.964  0.00  0.00    -0.162 F 
ATOM     13  F   UNL d   1       5.052   3.249   1.199  0.00  0.00    -0.162 F 
ENDBRANCH   7  10
ENDBRANCH   2   6
BRANCH   1  14
ATOM     14  C   UNL d   1      -0.488   2.602   0.247  0.00  0.00     0.302 C 
ATOM     15  O   UNL d   1      -1.276   2.957   1.115  0.00  0.00    -0.259 OA
BRANCH  14  16
ATOM     16  O   UNL d   1      -0.053   3.394  -0.777  0.00  0.00    -0.322 OA
ATOM     17  C   UNL d   1      -0.498   4.753  -0.730  0.00  0.00     0.213 C 
ENDBRANCH  14  16
ENDBRANCH   1  14
TORSDOF 4
