REMARK  2 active torsions:
REMARK  status: ('A' for Active; 'I' for Inactive)
REMARK    1  A    between atoms: C_6  and  C_3 
REMARK    2  A    between atoms: C_10  and  C_4 
ROOT
ATOM      1  N   UNL d   1       1.367  -0.610  -0.019  0.00  0.00    -0.348 N 
ATOM      2  HN  UNL d   1       2.250  -1.120  -0.050  1.00  0.00     0.166 HD
ATOM      3  C   UNL d   1       0.172  -1.174   0.004  0.00  0.00     0.091 A 
ATOM      4  C   UNL d   1       1.252   0.774   0.004  0.00  0.00     0.050 A 
ATOM      5  S   UNL d   1      -1.146  -0.064   0.030  0.00  0.00    -0.081 SA
ATOM      6  C   UNL d   1      -0.045   1.243   0.018  0.00  0.00     0.082 A 
ENDROOT
BRANCH   4   7
ATOM      7  C   UNL d   1       2.422   1.648  -0.032  0.00  0.00    -0.009 A 
ATOM      8  C   UNL d   1       3.591   1.224  -0.677  0.00  0.00     0.014 A 
ATOM      9  C   UNL d   1       4.700   2.070  -0.772  0.00  0.00     0.001 A 
ATOM     10  C   UNL d   1       4.655   3.346  -0.211  0.00  0.00     0.000 A 
ATOM     11  C   UNL d   1       3.510   3.771   0.456  0.00  0.00     0.001 A 
ATOM     12  C   UNL d   1       2.400   2.926   0.549  0.00  0.00     0.014 A 
ENDBRANCH   4   7
BRANCH   3  13
ATOM     13  C   UNL d   1       0.006  -2.612   0.009  0.00  0.00     0.038 A 
ATOM     14  S   UNL d   1      -1.527  -3.394  -0.039  0.00  0.00    -0.099 SA
ATOM     15  C   UNL d   1      -0.828  -4.950   0.004  0.00  0.00     0.050 A 
ATOM     16  C   UNL d   1       0.545  -4.896   0.052  0.00  0.00     0.008 A 
ATOM     17  C   UNL d   1       1.024  -3.552   0.051  0.00  0.00     0.022 A 
ENDBRANCH   3  13
TORSDOF 2
