REMARK  3 active torsions:
REMARK  status: ('A' for Active; 'I' for Inactive)
REMARK    1  A    between atoms: S_8  and  C_1 
REMARK    2  A    between atoms: C_3  and  C_7 
REMARK    3  A    between atoms: C_7  and  S_8 
ROOT
ATOM      1  S   UNL d   1      -3.126  -0.829   0.564  0.00  0.00    -0.118 SA
ENDROOT
BRANCH   1   2
ATOM      2  C   UNL d   1      -4.075  -0.458  -0.947  0.00  0.00     0.122 C 
BRANCH   2   3
ATOM      3  C   UNL d   1      -5.540  -0.794  -0.776  0.00  0.00    -0.005 A 
ATOM      4  C   UNL d   1      -6.452   0.150  -0.261  0.00  0.00     0.042 A 
ATOM      5 CL   UNL d   1      -5.963   1.746   0.199  0.00  0.00    -0.084 Cl
ATOM      6  C   UNL d   1      -7.807  -0.161  -0.098  0.00  0.00     0.024 A 
ATOM      7  C   UNL d   1      -8.284  -1.422  -0.436  0.00  0.00     0.003 A 
ATOM      8  C   UNL d   1      -7.402  -2.376  -0.933  0.00  0.00     0.024 A 
ATOM      9  C   UNL d   1      -6.045  -2.069  -1.098  0.00  0.00     0.042 A 
ATOM     10 CL   UNL d   1      -5.032  -3.331  -1.714  0.00  0.00    -0.084 Cl
ENDBRANCH   2   3
ENDBRANCH   1   2
BRANCH   1  11
ATOM     11  C   UNL d   1      -1.494  -0.412   0.094  0.00  0.00     0.041 C 
ATOM     12  C   UNL d   1      -0.527  -1.299   0.349  0.00  0.00     0.075 C 
ATOM     13  C   UNL d   1       0.907  -1.095   0.070  0.00  0.00     0.152 C 
ATOM     14  O   UNL d   1       1.656  -2.068   0.159  0.00  0.00    -0.293 OA
ATOM     15  C   UNL d   1       1.449   0.252  -0.341  0.00  0.00     0.103 C 
ATOM     16  C   UNL d   1       0.536   1.468  -0.161  0.00  0.00     0.013 C 
ATOM     17  S   UNL d   1      -1.185   1.118  -0.653  0.00  0.00    -0.113 SA
ATOM     18  C   UNL d   1       0.571   2.000   1.279  0.00  0.00     0.027 C 
ATOM     19  C   UNL d   1       1.015   2.585  -1.108  0.00  0.00     0.027 C 
ENDBRANCH   1  11
TORSDOF 3
