REMARK  6 active torsions:
REMARK  status: ('A' for Active; 'I' for Inactive)
REMARK    1  A    between atoms: C_2  and  S_1 
REMARK    2  A    between atoms: N_7  and  S_1 
REMARK    3  A    between atoms: C_8  and  C_4 
REMARK    4  A    between atoms: C_14  and  N_7 
REMARK    5  A    between atoms: O_19  and  C_8 
REMARK    6  A    between atoms: N_9  and  C_12 
ROOT
ATOM      1  N   UNL d   1       0.769  -1.635   0.327  0.00  0.00    -0.279 N 
ATOM      2  H   UNL d   1       0.132  -1.078  -0.240  0.00  0.00     0.179 HD
ENDROOT
BRANCH   1   3
ATOM      3  S   UNL d   1       0.574  -1.336   1.961  0.00  0.00     0.279 S 
ATOM      4  O   UNL d   1       0.070   0.021   2.041  0.00  0.00    -0.199 OA
ATOM      5  O   UNL d   1      -0.116  -2.424   2.614  0.00  0.00    -0.199 OA
BRANCH   3   6
ATOM      6  C   UNL d   1       2.204  -1.228   2.695  0.00  0.00     0.151 A 
ATOM      7  N   UNL d   1       2.888  -2.252   3.339  0.00  0.00    -0.336 N 
ATOM      8  C   UNL d   1       4.068  -1.766   3.901  0.00  0.00     0.111 A 
ATOM      9  C   UNL d   1       2.448  -3.631   3.445  0.00  0.00     0.157 C 
ATOM     10  C   UNL d   1       4.168  -0.440   3.511  0.00  0.00     0.039 A 
ATOM     11  C   UNL d   1       3.026  -0.113   2.763  0.00  0.00     0.046 A 
BRANCH   8  12
ATOM     12  C   UNL d   1       4.998  -2.515   4.742  0.00  0.00     0.309 C 
ATOM     13  O   UNL d   1       4.890  -3.683   5.082  0.00  0.00    -0.258 OA
BRANCH  12  14
ATOM     14  O   UNL d   1       6.034  -1.696   5.103  0.00  0.00    -0.321 OA
ATOM     15  C   UNL d   1       7.032  -2.305   5.924  0.00  0.00     0.213 C 
ENDBRANCH  12  14
ENDBRANCH   8  12
ENDBRANCH   3   6
ENDBRANCH   1   3
BRANCH   1  16
ATOM     16  C   UNL d   1       1.063  -2.932  -0.163  0.00  0.00     0.042 A 
ATOM     17  C   UNL d   1       0.098  -3.924  -0.282  0.00  0.00     0.032 A 
ATOM     18  C   UNL d   1       0.411  -5.122  -0.948  0.00  0.00     0.031 A 
ATOM     19  C   UNL d   1       1.679  -5.355  -1.512  0.00  0.00     0.030 A 
ATOM     20  C   UNL d   1       2.626  -4.332  -1.362  0.00  0.00     0.031 A 
ATOM     21  C   UNL d   1       2.326  -3.137  -0.700  0.00  0.00     0.032 A 
BRANCH  19  22
ATOM     22  N   UNL d   1       1.981  -6.517  -2.189  0.00  0.00    -0.377 N 
ATOM     23  C   UNL d   1       1.362  -7.816  -1.884  0.00  0.00     0.149 C 
ATOM     24  C   UNL d   1       0.685  -8.380  -3.140  0.00  0.00     0.187 C 
ATOM     25  O   UNL d   1       1.611  -8.476  -4.236  0.00  0.00    -0.388 OA
ATOM     26  C   UNL d   1       2.138  -7.178  -4.557  0.00  0.00     0.187 C 
ATOM     27  C   UNL d   1       2.873  -6.542  -3.362  0.00  0.00     0.149 C 
ENDBRANCH  19  22
ENDBRANCH   1  16
TORSDOF 6
