REMARK  4 active torsions:
REMARK  status: ('A' for Active; 'I' for Inactive)
REMARK       I    between atoms: N_2  and  C_1 
REMARK       I    between atoms: N_4  and  C_1 
REMARK    1  A    between atoms: C_5  and  N_2 
REMARK    2  A    between atoms: C_19  and  N_4 
REMARK    3  A    between atoms: C_8  and  C_20 
REMARK    4  A    between atoms: C_20  and  C_19 
ROOT
ATOM      1  C   UNL d   1       1.169   0.252   0.063  0.00  0.00     0.320 C 
ATOM      2  N   UNL d   1       0.430  -0.753  -0.533  0.00  0.00    -0.309 N 
ATOM      3  O   UNL d   1       0.727   1.286   0.542  0.00  0.00    -0.247 OA
ATOM      4  N   UNL d   1       2.527  -0.031   0.067  0.00  0.00    -0.343 N 
ATOM      5  H   UNL d   1       0.889  -1.643  -0.637  0.00  0.00     0.170 HD
ATOM      6  H   UNL d   1       2.861  -0.638  -0.665  0.00  0.00     0.164 HD
ENDROOT
BRANCH   2   7
ATOM      7  C   UNL d   1      -0.949  -0.694  -0.849  0.00  0.00     0.036 A 
ATOM      8  C   UNL d   1      -1.705   0.482  -0.778  0.00  0.00     0.031 A 
ATOM      9  C   UNL d   1      -3.051   0.498  -1.158  0.00  0.00     0.026 A 
ATOM     10  C   UNL d   1      -3.654  -0.670  -1.611  0.00  0.00     0.034 A 
ATOM     11  C   UNL d   1      -2.924  -1.855  -1.671  0.00  0.00     0.026 A 
ATOM     12 CL   UNL d   1      -5.299  -0.643  -2.113  0.00  0.00    -0.084 Cl
ATOM     13  C   UNL d   1      -1.575  -1.865  -1.292  0.00  0.00     0.031 A 
ENDBRANCH   2   7
BRANCH   4  14
ATOM     14  C   UNL d   1       3.419   1.030   0.532  0.00  0.00     0.129 C 
BRANCH  14  15
ATOM     15  C   UNL d   1       4.906   0.693   0.417  0.00  0.00     0.058 C 
BRANCH  15  16
ATOM     16  C   UNL d   1       5.779   1.758   1.046  0.00  0.00    -0.057 A 
ATOM     17  C   UNL d   1       6.133   1.669   2.401  0.00  0.00     0.009 A 
ATOM     18  C   UNL d   1       6.944   2.643   2.991  0.00  0.00     0.024 A 
ATOM     19  C   UNL d   1       7.399   3.717   2.232  0.00  0.00     0.034 A 
ATOM     20  C   UNL d   1       7.039   3.833   0.892  0.00  0.00     0.024 A 
ATOM     21 CL   UNL d   1       8.415   4.905   2.954  0.00  0.00    -0.084 Cl
ATOM     22  C   UNL d   1       6.228   2.858   0.301  0.00  0.00     0.009 A 
ENDBRANCH  15  16
ENDBRANCH  14  15
ENDBRANCH   4  14
TORSDOF 4
