REMARK  7 active torsions:
REMARK  status: ('A' for Active; 'I' for Inactive)
REMARK    1  A    between atoms: S_18  and  C_3 
REMARK    2  A    between atoms: C_7  and  C_12 
REMARK    3  A    between atoms: C_9  and  O_23 
REMARK    4  A    between atoms: C_14  and  C_9 
REMARK    5  A    between atoms: C_29  and  S_18 
REMARK    6  A    between atoms: O_23  and  C_30 
REMARK    7  A    between atoms: C_30  and  C_29 
ROOT
ATOM      1  C   UNL d   1       0.968  -0.606  -0.956  0.00  0.00     0.042 A 
ATOM      2  C   UNL d   1       0.952   0.760  -0.467  0.00  0.00    -0.014 A 
ATOM      3  C   UNL d   1       1.154  -1.521   0.064  0.00  0.00     0.057 A 
ATOM      4  C   UNL d   1       1.124   0.812   0.904  0.00  0.00     0.093 A 
ATOM      5  S   UNL d   1       1.282  -0.745   1.587  0.00  0.00    -0.071 SA
ATOM      6  C   UNL d   1       0.806  -0.892  -2.382  0.00  0.00     0.162 C 
ATOM      7  C   UNL d   1       1.179   2.003   1.693  0.00  0.00     0.107 C 
ATOM      8  N   UNL d   1       1.224   2.984   2.309  0.00  0.00    -0.191 NA
ATOM      9  C   UNL d   1       0.794   1.947  -1.399  0.00  0.00     0.050 C 
ATOM     10  C   UNL d   1       0.288   1.545  -2.813  0.00  0.00    -0.037 C 
ATOM     11  C   UNL d   1       1.049   0.291  -3.302  0.00  0.00     0.093 C 
ATOM     12  O   UNL d   1       0.481  -1.993  -2.826  0.00  0.00    -0.292 OA
ATOM     13  C   UNL d   1       0.542   2.696  -3.804  0.00  0.00     0.015 C 
ATOM     14  C   UNL d   1      -1.232   1.276  -2.785  0.00  0.00     0.015 C 
ENDROOT
BRANCH   3  15
ATOM     15  S   UNL d   1       1.361  -3.268  -0.051  0.00  0.00    -0.119 SA
BRANCH  15  16
ATOM     16  C   UNL d   1      -0.358  -3.822   0.155  0.00  0.00     0.107 C 
BRANCH  16  17
ATOM     17  C   UNL d   1      -0.447  -5.348   0.141  0.00  0.00     0.189 C 
BRANCH  17  18
ATOM     18  O   UNL d   1      -1.831  -5.756   0.175  0.00  0.00    -0.317 OA
BRANCH  18  19
ATOM     19  C   UNL d   1      -2.409  -5.801   1.400  0.00  0.00     0.293 C 
ATOM     20  O   UNL d   1      -1.849  -5.591   2.463  0.00  0.00    -0.259 OA
BRANCH  19  21
ATOM     21  C   UNL d   1      -3.872  -6.054   1.273  0.00  0.00     0.040 A 
ATOM     22  C   UNL d   1      -4.492  -6.259   0.031  0.00  0.00     0.033 A 
ATOM     23  C   UNL d   1      -5.889  -6.374  -0.062  0.00  0.00     0.048 A 
ATOM     24  C   UNL d   1      -6.656  -6.325   1.112  0.00  0.00     0.016 A 
ATOM     25  C   UNL d   1      -6.043  -6.153   2.353  0.00  0.00     0.002 A 
ATOM     26  C   UNL d   1      -4.656  -6.011   2.434  0.00  0.00     0.017 A 
BRANCH  23  27
ATOM     27  C   UNL d   1      -6.572  -6.492  -1.404  0.00  0.00     0.417 C 
ATOM     28  F   UNL d   1      -5.704  -6.548  -2.452  0.00  0.00    -0.166 F 
ATOM     29  F   UNL d   1      -7.352  -7.603  -1.503  0.00  0.00    -0.166 F 
ATOM     30  F   UNL d   1      -7.391  -5.434  -1.657  0.00  0.00    -0.166 F 
ENDBRANCH  23  27
ENDBRANCH  19  21
ENDBRANCH  18  19
ENDBRANCH  17  18
ENDBRANCH  16  17
ENDBRANCH  15  16
ENDBRANCH   3  15
TORSDOF 7
