REMARK  2 active torsions:
REMARK  status: ('A' for Active; 'I' for Inactive)
REMARK    1  A    between atoms: N_14  and  C_7 
REMARK    2  A    between atoms: C_16  and  N_14 
ROOT
ATOM      1  S   UNL d   1       0.862  -1.655  -0.093  0.00  0.00     0.270 S 
ATOM      2  C   UNL d   1       2.066  -0.497  -0.517  0.00  0.00     0.146 C 
ATOM      3  N   UNL d   1       1.257  -1.966   1.540  0.00  0.00    -0.275 N 
ATOM      4  C   UNL d   1       1.612  -0.859   2.342  0.00  0.00     0.066 A 
ATOM      5  C   UNL d   1       2.002   0.358   1.811  0.00  0.00     0.084 A 
ATOM      6  C   UNL d   1       2.212   0.652   0.404  0.00  0.00     0.215 C 
ATOM      7  C   UNL d   1       2.970  -0.778  -1.465  0.00  0.00     0.118 C 
ATOM      8  S   UNL d   1       2.328   1.521   3.014  0.00  0.00    -0.096 SA
ATOM      9  O   UNL d   1      -0.441  -1.014  -0.098  0.00  0.00    -0.200 OA
ATOM     10  O   UNL d   1       1.067  -2.883  -0.837  0.00  0.00    -0.200 OA
ATOM     11  C   UNL d   1       1.657  -0.841   3.761  0.00  0.00     0.039 A 
ATOM     12  C   UNL d   1       2.027   0.392   4.261  0.00  0.00     0.053 A 
ATOM     13  O   UNL d   1       2.598   1.736  -0.037  0.00  0.00    -0.285 OA
ATOM     14  C   UNL d   1       1.083  -3.326   2.055  0.00  0.00     0.170 C 
ENDROOT
BRANCH   7  15
ATOM     15  N   UNL d   1       4.081  -0.051  -1.815  0.00  0.00    -0.364 N 
ATOM     16  H   UNL d   1       4.166   0.876  -1.393  0.00  0.00     0.165 HD
BRANCH  15  17
ATOM     17  C   UNL d   1       5.110  -0.421  -2.694  0.00  0.00     0.032 A 
ATOM     18  C   UNL d   1       5.857   0.597  -3.309  0.00  0.00     0.032 A 
ATOM     19  C   UNL d   1       6.841   0.297  -4.251  0.00  0.00     0.044 A 
ATOM     20  C   UNL d   1       7.085  -1.028  -4.585  0.00  0.00     0.116 A 
ATOM     21  C   UNL d   1       6.363  -2.055  -3.997  0.00  0.00     0.044 A 
ATOM     22  F   UNL d   1       8.028  -1.318  -5.491  0.00  0.00    -0.206 F 
ATOM     23  C   UNL d   1       5.370  -1.751  -3.060  0.00  0.00     0.032 A 
ENDBRANCH  15  17
ENDBRANCH   7  15
TORSDOF 2
