REMARK  3 active torsions:
REMARK  status: ('A' for Active; 'I' for Inactive)
REMARK    1  A    between atoms: C_2  and  C_1 
REMARK       I    between atoms: C_7  and  N_3 
REMARK    2  A    between atoms: C_14  and  C_6 
REMARK    3  A    between atoms: C_13  and  C_7 
ROOT
ATOM      1  C   UNL d   1       0.306  -2.667  -0.003  0.00  0.00     0.076 A 
ATOM      2  N   UNL d   1      -0.071  -3.610  -0.943  0.00  0.00    -0.219 N 
ATOM      3  C   UNL d   1      -0.641  -3.425  -2.221  0.00  0.00     0.277 C 
ATOM      4  N   UNL d   1       0.290  -4.871  -0.561  0.00  0.00    -0.302 N 
ATOM      5  HN  UNL d   1       0.050  -5.753  -1.013  1.00  0.00     0.186 HD
ATOM      6  C   UNL d   1       1.053  -3.345   0.939  0.00  0.00     0.051 A 
ATOM      7  C   UNL d   1       1.025  -4.687   0.533  0.00  0.00     0.110 A 
ATOM      8  O   UNL d   1      -0.424  -2.366  -2.807  0.00  0.00    -0.265 OA
ENDROOT
BRANCH   1   9
ATOM      9  C   UNL d   1      -0.050  -1.218   0.039  0.00  0.00     0.053 A 
ATOM     10  C   UNL d   1       0.720  -0.108   0.516  0.00  0.00     0.080 A 
ATOM     11  N   UNL d   1      -0.013   1.016   0.465  0.00  0.00    -0.259 N 
ATOM     12  O   UNL d   1      -1.238   0.663  -0.053  0.00  0.00    -0.241 OA
ATOM     13  HN  UNL d   1       0.280   1.949   0.753  1.00  0.00     0.195 HD
ATOM     14  C   UNL d   1      -1.270  -0.672  -0.302  0.00  0.00     0.087 A 
ATOM     15  C   UNL d   1      -2.579  -1.190  -0.755  0.00  0.00     0.080 C 
BRANCH  10  16
ATOM     16  C   UNL d   1       2.103  -0.068   1.000  0.00  0.00    -0.006 A 
ATOM     17  C   UNL d   1       2.468   0.814   2.031  0.00  0.00     0.015 A 
ATOM     18  C   UNL d   1       3.765   0.801   2.552  0.00  0.00     0.024 A 
ATOM     19  C   UNL d   1       4.705  -0.100   2.054  0.00  0.00     0.034 A 
ATOM     20  C   UNL d   1       4.370  -0.954   1.007  0.00  0.00     0.024 A 
ATOM     21 CL   UNL d   1       6.281  -0.163   2.735  0.00  0.00    -0.084 Cl
ATOM     22  C   UNL d   1       3.084  -0.915   0.465  0.00  0.00     0.015 A 
ENDBRANCH  10  16
ENDBRANCH   1   9
BRANCH   3  23
ATOM     23  C   UNL d   1      -1.523  -4.433  -2.860  0.00  0.00     0.034 A 
ATOM     24  C   UNL d   1      -2.349  -5.254  -2.075  0.00  0.00     0.019 A 
ATOM     25  C   UNL d   1      -3.238  -6.138  -2.684  0.00  0.00     0.025 A 
ATOM     26  C   UNL d   1      -3.308  -6.201  -4.074  0.00  0.00     0.034 A 
ATOM     27  C   UNL d   1      -2.501  -5.379  -4.861  0.00  0.00     0.025 A 
ATOM     28 CL   UNL d   1      -4.409  -7.291  -4.820  0.00  0.00    -0.084 Cl
ATOM     29  C   UNL d   1      -1.613  -4.486  -4.257  0.00  0.00     0.019 A 
ENDBRANCH   3  23
TORSDOF 3
