REMARK  2 active torsions:
REMARK  status: ('A' for Active; 'I' for Inactive)
REMARK    1  A    between atoms: S_7  and  C_1 
REMARK    2  A    between atoms: C_8  and  N_2 
ROOT
ATOM      1  C   UNL d   1       2.368   0.169  -0.051  0.00  0.00     0.145 A 
ATOM      2  N   UNL d   1       1.672  -1.021  -0.031  0.00  0.00    -0.322 N 
ATOM      3  N   UNL d   1       1.568   1.209  -0.042  0.00  0.00    -0.335 N 
ATOM      4  HN  UNL d   1       1.837   2.193  -0.062  1.00  0.00     0.168 HD
ATOM      5  C   UNL d   1       0.322  -0.689   0.029  0.00  0.00     0.063 A 
ATOM      6  C   UNL d   1       0.301   0.701   0.002  0.00  0.00     0.061 A 
ATOM      7  C   UNL d   1      -0.861  -1.445   0.091  0.00  0.00     0.032 A 
ATOM      8  C   UNL d   1      -0.923   1.385   0.019  0.00  0.00     0.032 A 
ATOM      9  C   UNL d   1      -2.075  -0.746   0.107  0.00  0.00     0.002 A 
ATOM     10  C   UNL d   1      -2.110   0.647   0.068  0.00  0.00     0.002 A 
ENDROOT
BRANCH   2  11
ATOM     11  C   UNL d   1       2.156  -2.397  -0.115  0.00  0.00     0.084 C 
ATOM     12  C   UNL d   1       2.893  -2.707  -1.419  0.00  0.00     0.032 C 
ATOM     13  C   UNL d   1       2.917  -2.863   1.127  0.00  0.00     0.032 C 
ENDBRANCH   2  11
BRANCH   1  14
ATOM     14  S   UNL d   1       4.088   0.375  -0.102  0.00  0.00    -0.107 SA
ATOM     15  H   UNL d   1       4.509  -0.875   0.090  0.00  0.00     0.110 HD
ENDBRANCH   1  14
TORSDOF 2
