REMARK  4 active torsions:
REMARK  status: ('A' for Active; 'I' for Inactive)
REMARK    1  A    between atoms: C_6  and  C_1 
REMARK    2  A    between atoms: C_5  and  C_4 
REMARK       I    between atoms: N_10  and  C_6 
REMARK    3  A    between atoms: C_14  and  N_10 
REMARK    4  A    between atoms: C_20  and  C_13 
ROOT
ATOM      1  C   UNL d   1       3.722   1.046  -0.272  0.00  0.00     0.108 A 
ATOM      2  N   UNL d   1       4.857   1.852  -0.413  0.00  0.00    -0.345 N 
ATOM      3  HN  UNL d   1       4.857   2.871  -0.365  1.00  0.00     0.167 HD
ATOM      4  C   UNL d   1       5.932   1.106  -0.616  0.00  0.00     0.086 A 
ATOM      5  S   UNL d   1       5.625  -0.599  -0.636  0.00  0.00    -0.081 SA
ATOM      6  C   UNL d   1       3.974  -0.310  -0.348  0.00  0.00     0.087 A 
ENDROOT
BRANCH   1   7
ATOM      7  C   UNL d   1       2.371   1.574  -0.037  0.00  0.00     0.273 C 
ATOM      8  N   UNL d   1       2.274   2.951  -0.111  0.00  0.00    -0.322 N 
ATOM      9  H   UNL d   1       3.105   3.432  -0.444  0.00  0.00     0.169 HD
ATOM     10  O   UNL d   1       1.444   0.799   0.184  0.00  0.00    -0.266 OA
BRANCH   8  11
ATOM     11  C   UNL d   1       1.147   3.725   0.251  0.00  0.00     0.035 A 
ATOM     12  C   UNL d   1       0.050   3.195   0.936  0.00  0.00     0.030 A 
ATOM     13  C   UNL d   1      -0.996   4.012   1.369  0.00  0.00     0.010 A 
ATOM     14  C   UNL d   1      -0.985   5.388   1.123  0.00  0.00    -0.055 A 
ATOM     15  C   UNL d   1       0.090   5.916   0.393  0.00  0.00     0.010 A 
ATOM     16  C   UNL d   1       1.148   5.095  -0.032  0.00  0.00     0.030 A 
BRANCH  14  17
ATOM     17  C   UNL d   1      -2.071   6.291   1.683  0.00  0.00     0.010 C 
ATOM     18  C   UNL d   1      -3.469   5.896   1.195  0.00  0.00     0.015 C 
ATOM     19  C   UNL d   1      -2.026   6.301   3.216  0.00  0.00     0.015 C 
ENDBRANCH  14  17
ENDBRANCH   8  11
ENDBRANCH   1   7
BRANCH   4  20
ATOM     20  C   UNL d   1       7.307   1.596  -0.865  0.00  0.00     0.021 A 
ATOM     21  C   UNL d   1       7.571   2.750  -1.635  0.00  0.00     0.068 A 
ATOM     22  C   UNL d   1       8.903   3.131  -1.895  0.00  0.00     0.056 A 
ATOM     23 CL   UNL d   1       6.276   3.694  -2.317  0.00  0.00    -0.082 Cl
ATOM     24 CL   UNL d   1       9.311   4.520  -2.846  0.00  0.00    -0.083 Cl
ATOM     25  C   UNL d   1       9.972   2.377  -1.399  0.00  0.00     0.026 A 
ATOM     26  C   UNL d   1       9.727   1.253  -0.622  0.00  0.00     0.003 A 
ATOM     27  C   UNL d   1       8.411   0.875  -0.350  0.00  0.00     0.016 A 
ENDBRANCH   4  20
TORSDOF 4
