REMARK  5 active torsions:
REMARK  status: ('A' for Active; 'I' for Inactive)
REMARK    1  A    between atoms: N_2  and  C_1 
REMARK    2  A    between atoms: C_3  and  C_6 
REMARK    3  A    between atoms: O_9  and  C_5 
REMARK    4  A    between atoms: N_7  and  C_8 
REMARK    5  A    between atoms: C_13  and  O_9 
ROOT
ATOM      1  C   UNL d   1       0.402   3.493   1.152  0.00  0.00     0.137 A 
ATOM      2  C   UNL d   1      -0.055   4.723   1.654  0.00  0.00     0.055 A 
ATOM      3  C   UNL d   1       1.445   3.421   0.227  0.00  0.00     0.109 A 
ATOM      4  C   UNL d   1       0.540   5.917   1.219  0.00  0.00     0.050 A 
ATOM      5  C   UNL d   1       2.003   4.617  -0.242  0.00  0.00     0.040 A 
ATOM      6  C   UNL d   1       1.569   5.848   0.263  0.00  0.00     0.019 A 
ENDROOT
BRANCH   3   7
ATOM      7  O   UNL d   1       1.853   2.200  -0.264  0.00  0.00    -0.308 OA
BRANCH   7   8
ATOM      8  C   UNL d   1       3.211   1.952  -0.340  0.00  0.00     0.078 A 
ATOM      9  C   UNL d   1       3.647   1.153  -1.409  0.00  0.00     0.066 A 
ATOM     10  C   UNL d   1       5.002   0.834  -1.575  0.00  0.00     0.033 A 
ATOM     11  C   UNL d   1       5.901   1.373  -0.638  0.00  0.00     0.029 A 
ATOM     12  C   UNL d   1       5.476   2.146   0.444  0.00  0.00     0.005 A 
ATOM     13  C   UNL d   1       4.124   2.414   0.610  0.00  0.00     0.037 A 
BRANCH  10  14
ATOM     14  N   UNL d   1       5.486   0.056  -2.614  0.00  0.00    -0.377 N 
ATOM     15  C   UNL d   1       4.784  -0.107  -3.898  0.00  0.00     0.149 C 
ATOM     16  C   UNL d   1       4.161  -1.505  -4.022  0.00  0.00     0.187 C 
ATOM     17  O   UNL d   1       5.130  -2.541  -3.789  0.00  0.00    -0.388 OA
ATOM     18  C   UNL d   1       5.686  -2.408  -2.471  0.00  0.00     0.187 C 
ATOM     19  C   UNL d   1       6.402  -1.059  -2.295  0.00  0.00     0.149 C 
ENDBRANCH  10  14
ENDBRANCH   7   8
ENDBRANCH   3   7
BRANCH   1  20
ATOM     20  N   UNL d   1      -0.238   2.283   1.629  0.00  0.00    -0.113 N 
ATOM     21  O   UNL d   1      -1.468   2.219   1.510  0.00  0.00    -0.532 OA
ATOM     22  O   UNL d   1       0.481   1.432   2.169  0.00  0.00    -0.532 OA
ENDBRANCH   1  20
BRANCH   4  23
ATOM     23  C   UNL d   1       0.110   7.258   1.765  0.00  0.00     0.417 C 
ATOM     24  F   UNL d   1      -0.987   7.188   2.568  0.00  0.00    -0.166 F 
ATOM     25  F   UNL d   1       1.084   7.843   2.511  0.00  0.00    -0.166 F 
ATOM     26  F   UNL d   1      -0.199   8.146   0.782  0.00  0.00    -0.166 F 
ENDBRANCH   4  23
TORSDOF 5
