REMARK  2 active torsions:
REMARK  status: ('A' for Active; 'I' for Inactive)
REMARK    1  A    between atoms: C_8  and  C_1 
REMARK    2  A    between atoms: N_9  and  C_2 
REMARK       I    between atoms: N_3  and  C_6 
REMARK       I    between atoms: C_6  and  N_9 
ROOT
ATOM      1  C   UNL d   1      -1.221  -0.858   1.500  0.00  0.00     0.097 A 
ATOM      2  C   UNL d   1      -0.121  -1.049   0.596  0.00  0.00     0.097 A 
ATOM      3  N   UNL d   1      -1.752   0.363   1.354  0.00  0.00    -0.258 N 
ATOM      4  HN  UNL d   1      -2.516   0.769   1.893  1.00  0.00     0.195 HD
ATOM      5  C   UNL d   1      -0.111   0.102  -0.159  0.00  0.00     0.101 A 
ATOM      6  O   UNL d   1      -1.053   0.958   0.327  0.00  0.00    -0.240 OA
ATOM      7  C   UNL d   1       0.592   0.588  -1.361  0.00  0.00     0.081 C 
ENDROOT
BRANCH   2   8
ATOM      8  N   UNL d   1       0.616  -2.220   0.511  0.00  0.00    -0.304 N 
ATOM      9  C   UNL d   1       1.773  -2.589  -0.077  0.00  0.00     0.323 C 
ATOM     10  N   UNL d   1       2.916  -1.830  -0.009  0.00  0.00    -0.325 N 
ATOM     11  O   UNL d   1       1.790  -3.737  -0.533  0.00  0.00    -0.247 OA
ATOM     12  C   UNL d   1       4.149  -2.482  -0.538  0.00  0.00     0.119 C 
ATOM     13  C   UNL d   1       3.062  -0.477   0.560  0.00  0.00     0.133 C 
ATOM     14  C   UNL d   1       5.387  -2.017   0.204  0.00  0.00    -0.022 A 
ATOM     15  C   UNL d   1       4.267  -2.276  -2.049  0.00  0.00     0.037 C 
ATOM     16  C   UNL d   1       6.716  -2.530   0.041  0.00  0.00     0.017 A 
ATOM     17  C   UNL d   1       5.365  -1.051   1.188  0.00  0.00    -0.008 A 
ATOM     18  C   UNL d   1       7.628  -1.908   0.869  0.00  0.00     0.051 A 
ATOM     19  S   UNL d   1       6.890  -0.724   1.857  0.00  0.00    -0.106 SA
ATOM     20  C   UNL d   1       4.128  -0.374   1.654  0.00  0.00     0.067 C 
ATOM     21  H   UNL d   1       0.065  -3.049   0.706  0.00  0.00     0.171 HD
ENDBRANCH   2   8
BRANCH   1  22
ATOM     22  C   UNL d   1      -1.744  -1.800   2.486  0.00  0.00     0.038 A 
ATOM     23  C   UNL d   1      -1.594  -1.573   3.865  0.00  0.00     0.048 A 
ATOM     24 CL   UNL d   1      -0.758  -0.192   4.496  0.00  0.00    -0.083 Cl
ATOM     25  C   UNL d   1      -2.087  -2.493   4.801  0.00  0.00     0.025 A 
ATOM     26  C   UNL d   1      -2.724  -3.655   4.377  0.00  0.00     0.003 A 
ATOM     27  C   UNL d   1      -2.875  -3.901   3.015  0.00  0.00     0.025 A 
ATOM     28  C   UNL d   1      -2.396  -2.980   2.076  0.00  0.00     0.048 A 
ATOM     29 CL   UNL d   1      -2.633  -3.380   0.407  0.00  0.00    -0.083 Cl
ENDBRANCH   1  22
TORSDOF 2
