REMARK  9 active torsions:
REMARK  status: ('A' for Active; 'I' for Inactive)
REMARK    1  A    between atoms: N_2  and  C_1 
REMARK    2  A    between atoms: C_4  and  C_1 
REMARK    3  A    between atoms: N_6  and  C_1 
REMARK    4  A    between atoms: C_7  and  C_1 
REMARK       I    between atoms: C_3  and  N_2 
REMARK    5  A    between atoms: C_5  and  C_3 
REMARK    6  A    between atoms: C_16  and  N_6 
REMARK    7  A    between atoms: O_20  and  C_7 
REMARK    8  A    between atoms: C_8  and  C_16 
REMARK    9  A    between atoms: C_24  and  O_20 
ROOT
ATOM      1  C   UNL d   1       1.062   0.116  -0.092  0.00  0.00     0.416 C 
ENDROOT
BRANCH   1   2
ATOM      2  N   UNL d   1       0.691  -1.222  -0.622  0.00  0.00    -0.306 N 
ATOM      3  C   UNL d   1       1.216  -1.778  -1.772  0.00  0.00     0.256 C 
ATOM      4  O   UNL d   1       2.116  -1.215  -2.380  0.00  0.00    -0.268 OA
ATOM      5  H   UNL d   1      -0.015  -1.699  -0.083  0.00  0.00     0.166 HD
BRANCH   3   6
ATOM      6  C   UNL d   1       0.656  -3.086  -2.250  0.00  0.00     0.053 A 
ATOM      7  C   UNL d   1       1.278  -3.829  -3.276  0.00  0.00     0.049 A 
ATOM      8 CL   UNL d   1       2.758  -3.389  -4.060  0.00  0.00    -0.083 Cl
ATOM      9  C   UNL d   1       0.711  -5.032  -3.723  0.00  0.00     0.025 A 
ATOM     10  C   UNL d   1      -0.465  -5.519  -3.160  0.00  0.00     0.002 A 
ATOM     11  C   UNL d   1      -1.089  -4.800  -2.149  0.00  0.00     0.001 A 
ATOM     12  C   UNL d   1      -0.542  -3.591  -1.706  0.00  0.00     0.019 A 
ENDBRANCH   3   6
ENDBRANCH   1   2
BRANCH   1  13
ATOM     13  C   UNL d   1       0.606   0.213   1.427  0.00  0.00     0.453 C 
ATOM     14  F   UNL d   1      -0.263  -0.802   1.712  0.00  0.00    -0.166 F 
ATOM     15  F   UNL d   1       1.606   0.114   2.331  0.00  0.00    -0.166 F 
ATOM     16  F   UNL d   1      -0.058   1.367   1.692  0.00  0.00    -0.166 F 
ENDBRANCH   1  13
BRANCH   1  17
ATOM     17  N   UNL d   1       0.361   1.152  -0.923  0.00  0.00     0.138 N 
ATOM     18  H   UNL d   1       0.466   2.049  -0.435  0.00  0.00     0.320 HD
BRANCH  17  19
ATOM     19  C   UNL d   1       0.920   1.357  -2.262  0.00  0.00     0.338 C 
BRANCH  19  20
ATOM     20  C   UNL d   1       0.305   2.539  -2.933  0.00  0.00     0.080 A 
ATOM     21  O   UNL d   1       0.529   3.766  -2.378  0.00  0.00    -0.325 OA
ATOM     22  C   UNL d   1      -0.068   4.677  -3.191  0.00  0.00     0.142 A 
ATOM     23  C   UNL d   1      -0.674   4.053  -4.257  0.00  0.00     0.027 A 
ATOM     24  C   UNL d   1      -0.438   2.670  -4.088  0.00  0.00     0.036 A 
ENDBRANCH  19  20
ENDBRANCH  17  19
ENDBRANCH   1  17
BRANCH   1  25
ATOM     25  C   UNL d   1       2.584   0.359   0.054  0.00  0.00     0.329 C 
ATOM     26  O   UNL d   1       3.111   1.466   0.104  0.00  0.00    -0.260 OA
BRANCH  25  27
ATOM     27  O   UNL d   1       3.251  -0.827   0.218  0.00  0.00    -0.318 OA
BRANCH  27  28
ATOM     28  C   UNL d   1       4.676  -0.785   0.126  0.00  0.00     0.174 C 
ATOM     29  C   UNL d   1       5.082  -1.006  -1.318  0.00  0.00     0.034 C 
ENDBRANCH  27  28
ENDBRANCH  25  27
ENDBRANCH   1  25
TORSDOF 9
