REMARK  6 active torsions:
REMARK  status: ('A' for Active; 'I' for Inactive)
REMARK    1  A    between atoms: N_3  and  S_1 
REMARK    2  A    between atoms: C_7  and  S_1 
REMARK    3  A    between atoms: S_2  and  N_4 
REMARK    4  A    between atoms: C_8  and  S_2 
REMARK    5  A    between atoms: C_5  and  N_3 
REMARK    6  A    between atoms: N_4  and  C_6 
ROOT
ATOM      1  C   UNL d   1       0.913  -1.655   2.446  0.00  0.00     0.070 A 
ATOM      2  C   UNL d   1       2.105  -2.201   1.938  0.00  0.00     0.070 A 
ATOM      3  C   UNL d   1       0.021  -2.463   3.156  0.00  0.00     0.032 A 
ATOM      4  C   UNL d   1       2.406  -3.543   2.191  0.00  0.00     0.032 A 
ATOM      5  C   UNL d   1       0.325  -3.804   3.393  0.00  0.00     0.002 A 
ATOM      6  C   UNL d   1       1.529  -4.336   2.934  0.00  0.00     0.002 A 
ENDROOT
BRANCH   1   7
ATOM      7  N   UNL d   1       0.600  -0.272   2.293  0.00  0.00    -0.278 N 
ATOM      8  H   UNL d   1       0.312   0.247   3.121  0.00  0.00     0.179 HD
BRANCH   7   9
ATOM      9  S   UNL d   1      -0.025   0.335   0.862  0.00  0.00     0.263 S 
ATOM     10  O   UNL d   1       0.884   0.014  -0.226  0.00  0.00    -0.200 OA
ATOM     11  O   UNL d   1      -0.421   1.702   1.127  0.00  0.00    -0.200 OA
BRANCH   9  12
ATOM     12  C   UNL d   1      -1.509  -0.612   0.633  0.00  0.00     0.079 A 
ATOM     13  C   UNL d   1      -2.619  -0.363   1.449  0.00  0.00     0.026 A 
ATOM     14  C   UNL d   1      -3.776  -1.125   1.279  0.00  0.00     0.008 A 
ATOM     15  C   UNL d   1      -3.837  -2.116   0.289  0.00  0.00    -0.062 A 
ATOM     16  C   UNL d   1      -2.727  -2.329  -0.539  0.00  0.00     0.008 A 
ATOM     17  C   UNL d   1      -5.081  -2.939   0.123  0.00  0.00     0.048 C 
ATOM     18  C   UNL d   1      -1.563  -1.579  -0.372  0.00  0.00     0.026 A 
ENDBRANCH   9  12
ENDBRANCH   7   9
ENDBRANCH   1   7
BRANCH   2  19
ATOM     19  N   UNL d   1       2.880  -1.467   1.003  0.00  0.00    -0.278 N 
ATOM     20  H   UNL d   1       2.497  -1.342   0.062  0.00  0.00     0.179 HD
BRANCH  19  21
ATOM     21  S   UNL d   1       4.504  -1.171   1.175  0.00  0.00     0.263 S 
ATOM     22  O   UNL d   1       5.071  -2.049   2.175  0.00  0.00    -0.200 OA
ATOM     23  O   UNL d   1       5.061  -1.103  -0.163  0.00  0.00    -0.200 OA
BRANCH  21  24
ATOM     24  C   UNL d   1       4.529   0.488   1.815  0.00  0.00     0.079 A 
ATOM     25  C   UNL d   1       5.110   0.760   3.053  0.00  0.00     0.026 A 
ATOM     26  C   UNL d   1       5.245   2.084   3.471  0.00  0.00     0.008 A 
ATOM     27  C   UNL d   1       4.811   3.139   2.655  0.00  0.00    -0.062 A 
ATOM     28  C   UNL d   1       4.189   2.850   1.433  0.00  0.00     0.008 A 
ATOM     29  C   UNL d   1       5.001   4.561   3.097  0.00  0.00     0.048 C 
ATOM     30  C   UNL d   1       4.055   1.528   1.006  0.00  0.00     0.026 A 
ENDBRANCH  21  24
ENDBRANCH  19  21
ENDBRANCH   2  19
TORSDOF 6
