REMARK  2 active torsions:
REMARK  status: ('A' for Active; 'I' for Inactive)
REMARK    1  A    between atoms: S_13  and  C_2 
REMARK    2  A    between atoms: C_7  and  C_10 
ROOT
ATOM      1  N   UNL d   1       1.582   1.110  -0.002  0.00  0.00    -0.316 N 
ATOM      2  C   UNL d   1       2.374  -0.011   0.001  0.00  0.00     0.145 A 
ATOM      3  C   UNL d   1       0.277   0.676  -0.002  0.00  0.00     0.136 A 
ATOM      4  N   UNL d   1       1.663  -1.119   0.003  0.00  0.00    -0.334 N 
ATOM      5  HN  UNL d   1       2.011  -2.078   0.005  1.00  0.00     0.168 HD
ATOM      6  C   UNL d   1       0.360  -0.710   0.002  0.00  0.00     0.079 A 
ATOM      7  N   UNL d   1      -0.839   1.431  -0.004  0.00  0.00    -0.349 N 
ATOM      8  HN  UNL d   1      -0.835   2.451  -0.008  1.00  0.00     0.166 HD
ATOM      9  C   UNL d   1      -2.034  -0.715   0.004  0.00  0.00     0.065 A 
ATOM     10  C   UNL d   1      -0.832  -1.439   0.005  0.00  0.00     0.051 A 
ATOM     11  C   UNL d   1      -1.972   0.680  -0.001  0.00  0.00     0.106 A 
ATOM     12  C   UNL d   1       1.932   2.506  -0.003  0.00  0.00     0.160 C 
ENDROOT
BRANCH   9  13
ATOM     13  C   UNL d   1      -3.367  -1.395   0.010  0.00  0.00     0.418 C 
ATOM     14  F   UNL d   1      -3.288  -2.754   0.011  0.00  0.00    -0.166 F 
ATOM     15  F   UNL d   1      -4.114  -1.064   1.100  0.00  0.00    -0.166 F 
ATOM     16  F   UNL d   1      -4.124  -1.066  -1.073  0.00  0.00    -0.166 F 
ENDBRANCH   9  13
BRANCH   2  17
ATOM     17  S   UNL d   1       4.108  -0.033   0.002  0.00  0.00    -0.107 SA
ATOM     18  H   UNL d   1       4.399   1.269   0.003  0.00  0.00     0.110 HD
ENDBRANCH   2  17
TORSDOF 2
