REMARK  3 active torsions:
REMARK  status: ('A' for Active; 'I' for Inactive)
REMARK    1  A    between atoms: C_6  and  C_1 
REMARK    2  A    between atoms: N_9  and  C_3 
REMARK    3  A    between atoms: O_11  and  C_6 
ROOT
ATOM      1  C   UNL d   1      -2.150  -0.154   0.011  0.00  0.00     0.109 A 
ATOM      2  S   UNL d   1      -1.132  -1.542   0.020  0.00  0.00    -0.063 SA
ATOM      3  C   UNL d   1      -1.392   1.005  -0.004  0.00  0.00     0.062 A 
ATOM      4  C   UNL d   1       0.022   0.763  -0.006  0.00  0.00     0.025 A 
ATOM      5  C   UNL d   1       0.285  -0.602   0.011  0.00  0.00     0.087 A 
ATOM      6  N   UNL d   1       1.502  -1.188   0.019  0.00  0.00    -0.360 N 
ATOM      7  HN  UNL d   1       1.630  -2.200   0.032  1.00  0.00     0.166 HD
ATOM      8  C   UNL d   1       1.145   1.622  -0.019  0.00  0.00     0.018 A 
ATOM      9  C   UNL d   1       2.532  -0.318   0.010  0.00  0.00     0.089 A 
ATOM     10  C   UNL d   1       2.419   1.061  -0.011  0.00  0.00     0.018 A 
ENDROOT
BRANCH   1  11
ATOM     11  C   UNL d   1      -3.590  -0.356   0.020  0.00  0.00     0.302 C 
ATOM     12  O   UNL d   1      -4.178  -1.433   0.033  0.00  0.00    -0.259 OA
BRANCH  11  13
ATOM     13  O   UNL d   1      -4.238   0.852   0.012  0.00  0.00    -0.322 OA
ATOM     14  C   UNL d   1      -5.663   0.769   0.019  0.00  0.00     0.213 C 
ENDBRANCH  11  13
ENDBRANCH   1  11
BRANCH   3  15
ATOM     15  N   UNL d   1      -1.912   2.254  -0.013  0.00  0.00    -0.397 N 
ATOM     16  H   UNL d   1      -2.919   2.412  -0.002  0.00  0.00     0.156 HD
ATOM     17  H   UNL d   1      -1.352   3.099  -0.021  0.00  0.00     0.156 HD
ENDBRANCH   3  15
TORSDOF 3
