REMARK  4 active torsions:
REMARK  status: ('A' for Active; 'I' for Inactive)
REMARK    1  A    between atoms: C_2  and  S_1 
REMARK    2  A    between atoms: N_3  and  S_1 
REMARK    3  A    between atoms: C_4  and  C_6 
REMARK    4  A    between atoms: C_5  and  C_7 
ROOT
ATOM      1  C   UNL d   1       0.479  -1.637   0.020  0.00  0.00     0.076 A 
ATOM      2  C   UNL d   1      -1.243  -3.238   0.626  0.00  0.00     0.050 A 
ATOM      3  C   UNL d   1       0.966  -4.013  -0.111  0.00  0.00     0.050 A 
ATOM      4  C   UNL d   1       1.371  -2.678  -0.261  0.00  0.00     0.041 A 
ATOM      5  C   UNL d   1      -0.812  -1.911   0.483  0.00  0.00     0.041 A 
ATOM      6  C   UNL d   1      -0.348  -4.280   0.319  0.00  0.00     0.032 A 
ENDROOT
BRANCH   1   7
ATOM      7  S   UNL d   1       1.051   0.047  -0.065  0.00  0.00     0.243 S 
ATOM      8  O   UNL d   1       2.486   0.017   0.119  0.00  0.00    -0.206 OA
ATOM      9  O   UNL d   1       0.205   0.850   0.795  0.00  0.00    -0.206 OA
BRANCH   7  10
ATOM     10  N   UNL d   1       0.729   0.511  -1.697  0.00  0.00    -0.205 NA
ATOM     11  C   UNL d   1      -0.738   0.637  -2.006  0.00  0.00     0.117 C 
ATOM     12  C   UNL d   1      -1.008   0.866  -3.493  0.00  0.00     0.089 C 
ATOM     13  S   UNL d   1      -0.291   2.426  -4.083  0.00  0.00    -0.167 SA
ATOM     14  C   UNL d   1       1.411   2.110  -3.531  0.00  0.00     0.089 C 
ATOM     15  C   UNL d   1       1.477   1.775  -2.042  0.00  0.00     0.117 C 
ENDBRANCH   7  10
ENDBRANCH   1   7
BRANCH   3  16
ATOM     16  C   UNL d   1       1.919  -5.156  -0.380  0.00  0.00     0.417 C 
ATOM     17  F   UNL d   1       3.172  -4.751  -0.725  0.00  0.00    -0.166 F 
ATOM     18  F   UNL d   1       2.070  -5.968   0.701  0.00  0.00    -0.166 F 
ATOM     19  F   UNL d   1       1.490  -5.955  -1.394  0.00  0.00    -0.166 F 
ENDBRANCH   3  16
BRANCH   2  20
ATOM     20  C   UNL d   1      -2.638  -3.557   1.118  0.00  0.00     0.417 C 
ATOM     21  F   UNL d   1      -3.377  -2.451   1.401  0.00  0.00    -0.166 F 
ATOM     22  F   UNL d   1      -3.356  -4.263   0.203  0.00  0.00    -0.166 F 
ATOM     23  F   UNL d   1      -2.628  -4.307   2.253  0.00  0.00    -0.166 F 
ENDBRANCH   2  20
TORSDOF 4
