REMARK  1 active torsions:
REMARK  status: ('A' for Active; 'I' for Inactive)
REMARK    1  A    between atoms: C_11  and  N_3 
ROOT
ATOM      1  C   UNL d   1      -0.365   0.619  -0.014  0.00  0.00     0.186 A 
ATOM      2  C   UNL d   1      -0.143  -0.739   0.005  0.00  0.00     0.049 A 
ATOM      3  N   UNL d   1      -1.733   0.823   0.052  0.00  0.00    -0.233 N 
ATOM      4  N   UNL d   1      -2.379  -0.371   0.152  0.00  0.00    -0.295 N 
ATOM      5  HN  UNL d   1      -3.384  -0.518   0.241  1.00  0.00     0.187 HD
ATOM      6  O   UNL d   1       0.529   1.590  -0.059  0.00  0.00    -0.254 OA
ATOM      7  C   UNL d   1       1.223  -1.156  -0.063  0.00  0.00    -0.018 A 
ATOM      8  C   UNL d   1      -1.428  -1.317   0.110  0.00  0.00     0.037 A 
ATOM      9  C   UNL d   1       1.846   1.253  -0.094  0.00  0.00     0.312 A 
ATOM     10  C   UNL d   1       2.186  -0.210  -0.101  0.00  0.00     0.116 A 
ATOM     11  O   UNL d   1       2.707   2.123  -0.126  0.00  0.00    -0.258 OA
ATOM     12 CL   UNL d   1       3.876  -0.591  -0.138  0.00  0.00    -0.077 Cl
ATOM     13  C   UNL d   1       1.534  -2.621  -0.105  0.00  0.00     0.051 C 
ATOM     14  C   UNL d   1      -1.888  -2.728   0.177  0.00  0.00     0.070 C 
ENDROOT
BRANCH   3  15
ATOM     15  C   UNL d   1      -2.473   2.045   0.036  0.00  0.00     0.059 A 
ATOM     16  C   UNL d   1      -1.859   3.283  -0.206  0.00  0.00     0.031 A 
ATOM     17  C   UNL d   1      -2.612   4.461  -0.203  0.00  0.00     0.002 A 
ATOM     18  C   UNL d   1      -3.982   4.419   0.042  0.00  0.00     0.000 A 
ATOM     19  C   UNL d   1      -4.605   3.196   0.276  0.00  0.00     0.002 A 
ATOM     20  C   UNL d   1      -3.858   2.014   0.268  0.00  0.00     0.031 A 
ENDBRANCH   3  15
TORSDOF 1
