REMARK  4 active torsions:
REMARK  status: ('A' for Active; 'I' for Inactive)
REMARK    1  A    between atoms: C_2  and  C_1 
REMARK       I    between atoms: C_4  and  N_3 
REMARK       I    between atoms: N_12  and  C_4 
REMARK    2  A    between atoms: C_14  and  C_7 
REMARK    3  A    between atoms: C_19  and  N_12 
REMARK    4  A    between atoms: C_17  and  C_18 
ROOT
ATOM      1  C   UNL d   1      -0.294  -3.341   0.275  0.00  0.00     0.078 C 
ATOM      2  N   UNL d   1       0.077  -3.621  -1.030  0.00  0.00    -0.205 N 
ATOM      3  C   UNL d   1      -0.568  -3.252  -2.229  0.00  0.00     0.346 C 
ATOM      4  N   UNL d   1       1.285  -4.262  -1.088  0.00  0.00    -0.301 N 
ATOM      5  HN  UNL d   1       1.719  -4.719  -1.890  1.00  0.00     0.186 HD
ATOM      6  N   UNL d   1      -0.659  -4.348  -3.059  0.00  0.00    -0.307 N 
ATOM      7  C   UNL d   1       0.800  -3.653   1.052  0.00  0.00     0.051 C 
ATOM      8  C   UNL d   1       1.764  -4.147   0.158  0.00  0.00     0.110 C 
ATOM      9  O   UNL d   1      -1.046  -2.133  -2.331  0.00  0.00    -0.245 OA
ATOM     10  H   UNL d   1      -0.348  -5.236  -2.678  0.00  0.00     0.170 HD
ENDROOT
BRANCH   1  11
ATOM     11  C   UNL d   1      -1.623  -2.847   0.746  0.00  0.00     0.054 A 
ATOM     12  C   UNL d   1      -1.948  -2.037   1.885  0.00  0.00     0.080 A 
ATOM     13  N   UNL d   1      -3.276  -1.899   1.989  0.00  0.00    -0.259 N 
ATOM     14  O   UNL d   1      -3.829  -2.587   0.933  0.00  0.00    -0.241 OA
ATOM     15  HN  UNL d   1      -3.781  -1.383   2.711  1.00  0.00     0.195 HD
ATOM     16  C   UNL d   1      -2.845  -3.163   0.196  0.00  0.00     0.087 A 
ATOM     17  C   UNL d   1      -3.336  -4.017  -0.912  0.00  0.00     0.080 C 
BRANCH  12  18
ATOM     18  C   UNL d   1      -1.064  -1.379   2.856  0.00  0.00    -0.006 A 
ATOM     19  C   UNL d   1      -1.469  -1.236   4.193  0.00  0.00     0.015 A 
ATOM     20  C   UNL d   1      -0.607  -0.678   5.144  0.00  0.00     0.024 A 
ATOM     21  C   UNL d   1       0.669  -0.268   4.765  0.00  0.00     0.034 A 
ATOM     22  C   UNL d   1       1.073  -0.364   3.438  0.00  0.00     0.024 A 
ATOM     23 CL   UNL d   1       1.754   0.362   5.941  0.00  0.00    -0.084 Cl
ATOM     24  C   UNL d   1       0.194  -0.888   2.483  0.00  0.00     0.015 A 
ENDBRANCH  12  18
ENDBRANCH   1  11
BRANCH   6  25
ATOM     25  C   UNL d   1      -1.250  -4.362  -4.332  0.00  0.00     0.036 A 
ATOM     26  C   UNL d   1      -1.396  -3.214  -5.109  0.00  0.00     0.030 A 
ATOM     27  C   UNL d   1      -1.828  -3.316  -6.436  0.00  0.00     0.010 A 
ATOM     28  C   UNL d   1      -2.151  -4.554  -7.018  0.00  0.00    -0.051 A 
ATOM     29  C   UNL d   1      -2.104  -5.683  -6.182  0.00  0.00     0.010 A 
ATOM     30  C   UNL d   1      -1.639  -5.587  -4.864  0.00  0.00     0.030 A 
BRANCH  28  31
ATOM     31  C   UNL d   1      -2.469  -4.645  -8.521  0.00  0.00    -0.024 C 
ATOM     32  C   UNL d   1      -2.778  -6.080  -9.003  0.00  0.00     0.019 C 
ATOM     33  C   UNL d   1      -3.684  -3.764  -8.876  0.00  0.00     0.019 C 
ATOM     34  C   UNL d   1      -1.243  -4.154  -9.326  0.00  0.00     0.019 C 
ENDBRANCH  28  31
ENDBRANCH   6  25
TORSDOF 4
