REMARK  4 active torsions:
REMARK  status: ('A' for Active; 'I' for Inactive)
REMARK    1  A    between atoms: N_7  and  C_1 
REMARK    2  A    between atoms: O_12  and  C_2 
REMARK    3  A    between atoms: C_11  and  C_5 
REMARK    4  A    between atoms: C_13  and  N_9 
ROOT
ATOM      1  C   UNL d   1      -0.230  -1.395   0.021  0.00  0.00     0.129 A 
ATOM      2  C   UNL d   1       1.028  -0.834  -0.006  0.00  0.00     0.188 A 
ATOM      3  N   UNL d   1      -0.484   0.859  -0.098  0.00  0.00    -0.294 N 
ATOM      4  HN  UNL d   1      -0.877   1.799  -0.160  1.00  0.00     0.187 HD
ATOM      5  C   UNL d   1      -1.154  -0.312  -0.045  0.00  0.00     0.091 A 
ATOM      6  N   UNL d   1       0.818   0.513  -0.051  0.00  0.00    -0.273 N 
ATOM      7  C   UNL d   1       1.821   1.550  -0.048  0.00  0.00     0.180 C 
ENDROOT
BRANCH   1   8
ATOM      8  N   UNL d   1      -0.534  -2.771   0.053  0.00  0.00    -0.294 N 
ATOM      9  N   UNL d   1       0.390  -3.443   0.558  0.00  0.00    -0.300 N 
ATOM     10  HN  UNL d   1       1.236  -3.021   0.940  1.00  0.00     0.187 HD
ATOM     11  HN  UNL d   1      -1.406  -3.170  -0.296  1.00  0.00     0.187 HD
BRANCH   9  12
ATOM     12  C   UNL d   1       0.164  -4.832   0.555  0.00  0.00     0.048 A 
ATOM     13  C   UNL d   1      -0.502  -5.518  -0.467  0.00  0.00     0.031 A 
ATOM     14  C   UNL d   1      -0.599  -6.915  -0.443  0.00  0.00     0.009 A 
ATOM     15  C   UNL d   1      -0.023  -7.651   0.600  0.00  0.00    -0.062 A 
ATOM     16  C   UNL d   1       0.643  -6.970   1.621  0.00  0.00     0.009 A 
ATOM     17  C   UNL d   1      -0.123  -9.148   0.611  0.00  0.00     0.048 C 
ATOM     18  C   UNL d   1       0.735  -5.576   1.594  0.00  0.00     0.031 A 
ENDBRANCH   9  12
ENDBRANCH   1   8
BRANCH   2  19
ATOM     19  O   UNL d   1       2.248  -1.368   0.007  0.00  0.00    -0.343 OA
ATOM     20  H   UNL d   1       2.109  -2.334   0.059  0.00  0.00     0.219 HD
ENDBRANCH   2  19
BRANCH   5  21
ATOM     21  C   UNL d   1      -2.623  -0.322  -0.064  0.00  0.00    -0.006 A 
ATOM     22  C   UNL d   1      -3.324   0.738  -0.666  0.00  0.00     0.014 A 
ATOM     23  C   UNL d   1      -4.721   0.755  -0.691  0.00  0.00     0.001 A 
ATOM     24  C   UNL d   1      -5.439  -0.286  -0.109  0.00  0.00     0.000 A 
ATOM     25  C   UNL d   1      -4.760  -1.339   0.502  0.00  0.00     0.001 A 
ATOM     26  C   UNL d   1      -3.361  -1.356   0.527  0.00  0.00     0.014 A 
ENDBRANCH   5  21
TORSDOF 4
