REMARK  3 active torsions:
REMARK  status: ('A' for Active; 'I' for Inactive)
REMARK    1  A    between atoms: S_11  and  C_1 
REMARK    2  A    between atoms: C_10  and  C_4 
REMARK    3  A    between atoms: C_12  and  S_11 
ROOT
ATOM      1  N   UNL d   1      -2.365  -0.018  -3.700  0.00  0.00    -0.197 NA
ATOM      2  C   UNL d   1      -2.924   0.179  -2.698  0.00  0.00     0.069 C 
ATOM      3  C   UNL d   1      -3.632   0.406  -1.435  0.00  0.00     0.203 C 
ENDROOT
BRANCH   3   4
ATOM      4  S   UNL d   1      -3.121  -0.737  -0.107  0.00  0.00    -0.109 SA
BRANCH   4   5
ATOM      5  C   UNL d   1      -1.437  -0.307   0.088  0.00  0.00     0.042 C 
ATOM      6  S   UNL d   1      -1.048   1.260   0.705  0.00  0.00    -0.113 SA
ATOM      7  C   UNL d   1       0.645   1.504   0.093  0.00  0.00     0.093 C 
ATOM      8  C   UNL d   1       1.548   0.288   0.266  0.00  0.00     0.103 C 
ATOM      9  C   UNL d   1       0.938  -1.070   0.034  0.00  0.00     0.152 C 
ATOM     10  C   UNL d   1      -0.517  -1.253  -0.128  0.00  0.00     0.075 C 
ATOM     11  O   UNL d   1       1.651  -2.075  -0.004  0.00  0.00    -0.293 OA
BRANCH   7  12
ATOM     12  C   UNL d   1       0.663   2.148  -1.284  0.00  0.00    -0.044 A 
ATOM     13  C   UNL d   1       0.713   3.553  -1.383  0.00  0.00     0.008 A 
ATOM     14  C   UNL d   1       0.740   4.188  -2.626  0.00  0.00     0.001 A 
ATOM     15  C   UNL d   1       0.706   3.431  -3.792  0.00  0.00     0.000 A 
ATOM     16  C   UNL d   1       0.650   2.042  -3.713  0.00  0.00     0.001 A 
ATOM     17  C   UNL d   1       0.630   1.404  -2.470  0.00  0.00     0.008 A 
ENDBRANCH   7  12
ENDBRANCH   4   5
ENDBRANCH   3   4
TORSDOF 3
