REMARK  2 active torsions:
REMARK  status: ('A' for Active; 'I' for Inactive)
REMARK    1  A    between atoms: C_10  and  C_8 
REMARK    2  A    between atoms: O_13  and  C_10 
ROOT
ATOM      1  C   UNL d   1       0.199  -0.798  -0.004  0.00  0.00     0.104 A 
ATOM      2  C   UNL d   1      -0.025   0.518  -0.004  0.00  0.00     0.024 A 
ATOM      3  S   UNL d   1       1.804  -1.208  -0.006  0.00  0.00    -0.064 SA
ATOM      4  N   UNL d   1      -1.013  -1.393  -0.001  0.00  0.00    -0.289 N 
ATOM      5  N   UNL d   1      -2.029  -0.480   0.000  0.00  0.00    -0.302 N 
ATOM      6  HN  UNL d   1      -3.033  -0.661   0.002  1.00  0.00     0.187 HD
ATOM      7  C   UNL d   1       1.116   1.317  -0.007  0.00  0.00     0.041 A 
ATOM      8  C   UNL d   1       2.246   0.489  -0.009  0.00  0.00     0.083 A 
ATOM      9  C   UNL d   1      -1.403   0.720  -0.002  0.00  0.00     0.035 A 
ATOM     10  C   UNL d   1      -1.318  -2.800   0.001  0.00  0.00     0.178 C 
ATOM     11  C   UNL d   1      -2.198   1.967  -0.002  0.00  0.00     0.070 C 
ENDROOT
BRANCH   8  12
ATOM     12  C   UNL d   1       3.657   0.825  -0.013  0.00  0.00     0.300 C 
ATOM     13  O   UNL d   1       4.593   0.033  -0.013  0.00  0.00    -0.259 OA
BRANCH  12  14
ATOM     14  O   UNL d   1       3.813   2.183  -0.018  0.00  0.00    -0.322 OA
ATOM     15  C   UNL d   1       5.179   2.600  -0.025  0.00  0.00     0.213 C 
ENDBRANCH  12  14
ENDBRANCH   8  12
TORSDOF 2
