REMARK  1 active torsions:
REMARK  status: ('A' for Active; 'I' for Inactive)
REMARK    1  A    between atoms: O_13  and  C_5 
ROOT
ATOM      1  C   UNL d   1       0.018  -0.774  -0.000  0.00  0.00     0.031 A 
ATOM      2  N   UNL d   1       1.253   1.297  -0.007  0.00  0.00    -0.355 N 
ATOM      3  HN  UNL d   1       1.257   2.317  -0.011  1.00  0.00     0.166 HD
ATOM      4  C   UNL d   1       0.079   0.635  -0.004  0.00  0.00     0.084 A 
ATOM      5  C   UNL d   1       1.256  -1.463   0.001  0.00  0.00     0.096 A 
ATOM      6  C   UNL d   1       2.477  -0.770  -0.001  0.00  0.00     0.062 A 
ATOM      7  C   UNL d   1       2.434   0.620  -0.006  0.00  0.00     0.025 A 
ATOM      8  C   UNL d   1      -1.125   1.348  -0.004  0.00  0.00     0.146 A 
ATOM      9  C   UNL d   1      -2.372   0.730  -0.001  0.00  0.00     0.086 A 
ATOM     10  C   UNL d   1      -1.256  -1.400   0.002  0.00  0.00     0.059 A 
ATOM     11  C   UNL d   1      -2.423  -0.647   0.001  0.00  0.00     0.120 A 
ATOM     12  I   UNL d   1       4.288  -1.857   0.003  0.00  0.00    -0.040 I 
ATOM     13  F   UNL d   1      -1.104   2.692  -0.006  0.00  0.00    -0.204 F 
ATOM     14  F   UNL d   1      -3.608  -1.270   0.004  0.00  0.00    -0.206 F 
ATOM     15  C   UNL d   1       3.635   1.522  -0.010  0.00  0.00     0.069 C 
ENDROOT
BRANCH   5  16
ATOM     16  O   UNL d   1       1.310  -2.838   0.005  0.00  0.00    -0.358 OA
ATOM     17  H   UNL d   1       0.429  -3.235  -0.007  0.00  0.00     0.217 HD
ENDBRANCH   5  16
TORSDOF 1
