REMARK  4 active torsions:
REMARK  status: ('A' for Active; 'I' for Inactive)
REMARK    1  A    between atoms: C_7  and  C_1 
REMARK    2  A    between atoms: C_8  and  C_3 
REMARK       I    between atoms: N_10  and  C_7 
REMARK       I    between atoms: C_9  and  N_11 
REMARK    3  A    between atoms: C_13  and  C_9 
REMARK    4  A    between atoms: N_11  and  N_10 
ROOT
ATOM      1  C   UNL d   1      -0.259  -2.590   0.063  0.00  0.00     0.279 C 
ATOM      2  N   UNL d   1       0.882  -3.370   0.166  0.00  0.00    -0.262 N 
ATOM      3  O   UNL d   1      -1.362  -3.137  -0.018  0.00  0.00    -0.265 OA
ATOM      4  H   UNL d   1       1.817  -2.984   0.291  0.00  0.00     0.190 HD
ENDROOT
BRANCH   1   5
ATOM      5  C   UNL d   1      -0.089  -1.147   0.051  0.00  0.00     0.098 A 
ATOM      6  S   UNL d   1       1.449  -0.388   0.092  0.00  0.00    -0.064 SA
ATOM      7  C   UNL d   1       0.711   1.166   0.004  0.00  0.00     0.092 A 
ATOM      8  N   UNL d   1      -0.609   1.140  -0.026  0.00  0.00    -0.352 N 
ATOM      9  C   UNL d   1      -1.074  -0.169  -0.004  0.00  0.00     0.029 A 
ATOM     10  HN  UNL d   1      -1.205   1.967  -0.062  1.00  0.00     0.166 HD
ATOM     11  C   UNL d   1      -2.548  -0.384  -0.048  0.00  0.00     0.070 C 
BRANCH   7  12
ATOM     12  C   UNL d   1       1.441   2.417  -0.043  0.00  0.00     0.038 A 
ATOM     13  S   UNL d   1       3.159   2.514  -0.038  0.00  0.00    -0.099 SA
ATOM     14  C   UNL d   1       3.148   4.220  -0.129  0.00  0.00     0.050 A 
ATOM     15  C   UNL d   1       1.869   4.725  -0.157  0.00  0.00     0.008 A 
ATOM     16  C   UNL d   1       0.889   3.687  -0.106  0.00  0.00     0.022 A 
ENDBRANCH   7  12
ENDBRANCH   1   5
BRANCH   2  17
ATOM     17  N   UNL d   1       0.747  -4.767   0.230  0.00  0.00    -0.263 N 
ATOM     18  C   UNL d   1       1.886  -5.539   0.336  0.00  0.00     0.270 C 
ATOM     19  O   UNL d   1       3.014  -5.061   0.368  0.00  0.00    -0.266 OA
ATOM     20  H   UNL d   1      -0.174  -5.141   0.009  0.00  0.00     0.190 HD
BRANCH  18  21
ATOM     21  C   UNL d   1       1.688  -7.018   0.398  0.00  0.00     0.033 A 
ATOM     22  C   UNL d   1       2.697  -7.851  -0.103  0.00  0.00     0.019 A 
ATOM     23  C   UNL d   1       2.576  -9.243  -0.012  0.00  0.00     0.025 A 
ATOM     24  C   UNL d   1       1.452  -9.801   0.594  0.00  0.00     0.034 A 
ATOM     25  C   UNL d   1       0.445  -8.980   1.101  0.00  0.00     0.025 A 
ATOM     26 CL   UNL d   1       1.317 -11.510   0.737  0.00  0.00    -0.084 Cl
ATOM     27  C   UNL d   1       0.559  -7.588   1.003  0.00  0.00     0.019 A 
ENDBRANCH  18  21
ENDBRANCH   2  17
TORSDOF 4
