REMARK  5 active torsions:
REMARK  status: ('A' for Active; 'I' for Inactive)
REMARK    1  A    between atoms: O_11  and  C_1 
REMARK    2  A    between atoms: O_12  and  C_2 
REMARK    3  A    between atoms: C_9  and  C_3 
REMARK    4  A    between atoms: O_14  and  C_9 
REMARK    5  A    between atoms: C_18  and  O_14 
ROOT
ATOM      1  C   UNL d   1      -2.527  -1.775  -0.014  0.00  0.00     0.207 C 
ATOM      2  C   UNL d   1      -2.525  -0.274   0.489  0.00  0.00     0.189 C 
ATOM      3  C   UNL d   1      -3.277  -1.609  -1.308  0.00  0.00     0.081 C 
ATOM      4  N   UNL d   1      -3.628   0.357  -0.216  0.00  0.00    -0.257 NA
ATOM      5  C   UNL d   1      -1.036  -2.090  -0.045  0.00  0.00     0.204 C 
ATOM      6  C   UNL d   1      -4.017  -0.480  -1.273  0.00  0.00     0.000 C 
ATOM      7  C   UNL d   1      -1.151   0.224   0.126  0.00  0.00     0.009 A 
ATOM      8  C   UNL d   1      -0.283  -0.845  -0.097  0.00  0.00     0.024 A 
ATOM      9  O   UNL d   1      -0.496  -3.184  -0.006  0.00  0.00    -0.288 OA
ATOM     10  C   UNL d   1      -5.148  -0.099  -2.174  0.00  0.00     0.062 C 
ATOM     11  C   UNL d   1      -0.654   1.515   0.047  0.00  0.00     0.012 A 
ATOM     12  C   UNL d   1       1.070  -0.703  -0.345  0.00  0.00     0.016 A 
ATOM     13  C   UNL d   1       0.713   1.692  -0.224  0.00  0.00     0.001 A 
ATOM     14  C   UNL d   1       1.570   0.593  -0.403  0.00  0.00     0.001 A 
ATOM     15  H   UNL d   1      -4.423   0.552   0.390  0.00  0.00     0.131 HD
ENDROOT
BRANCH   3  16
ATOM     16  C   UNL d   1      -3.042  -2.319  -2.573  0.00  0.00     0.294 C 
ATOM     17  O   UNL d   1      -3.800  -2.310  -3.530  0.00  0.00    -0.259 OA
BRANCH  16  18
ATOM     18  O   UNL d   1      -1.745  -2.705  -2.599  0.00  0.00    -0.318 OA
BRANCH  18  19
ATOM     19  C   UNL d   1      -1.067  -2.671  -3.864  0.00  0.00     0.174 C 
ATOM     20  C   UNL d   1      -1.453  -3.803  -4.791  0.00  0.00     0.034 C 
ENDBRANCH  18  19
ENDBRANCH  16  18
ENDBRANCH   3  16
BRANCH   1  21
ATOM     21  O   UNL d   1      -3.282  -2.625   0.852  0.00  0.00    -0.372 OA
ATOM     22  H   UNL d   1      -3.200  -2.231   1.743  0.00  0.00     0.211 HD
ENDBRANCH   1  21
BRANCH   2  23
ATOM     23  O   UNL d   1      -2.766  -0.154   1.876  0.00  0.00    -0.367 OA
ATOM     24  H   UNL d   1      -2.620   0.789   2.067  0.00  0.00     0.212 HD
ENDBRANCH   2  23
TORSDOF 5
