REMARK  6 active torsions:
REMARK  status: ('A' for Active; 'I' for Inactive)
REMARK    1  A    between atoms: C_6  and  C_1 
REMARK    2  A    between atoms: C_8  and  C_2 
REMARK    3  A    between atoms: C_11  and  N_3 
REMARK    4  A    between atoms: O_19  and  C_8 
REMARK    5  A    between atoms: N_9  and  O_19 
REMARK    6  A    between atoms: C_12  and  C_15 
ROOT
ATOM      1  C   UNL d   1       0.973  -0.856  -0.085  0.00  0.00     0.158 C 
ATOM      2  C   UNL d   1      -0.359  -1.262  -0.081  0.00  0.00     0.091 C 
ATOM      3  N   UNL d   1       0.969   0.522   0.020  0.00  0.00    -0.251 N 
ATOM      4  N   UNL d   1      -0.290   0.983   0.269  0.00  0.00    -0.303 N 
ATOM      5  HN  UNL d   1      -0.566   1.937   0.498  1.00  0.00     0.186 HD
ATOM      6  C   UNL d   1      -1.079  -0.081   0.149  0.00  0.00     0.127 C 
ENDROOT
BRANCH   2   7
ATOM      7  C   UNL d   1      -0.852  -2.623  -0.164  0.00  0.00     0.318 C 
ATOM      8  O   UNL d   1      -0.268  -3.504  -0.783  0.00  0.00    -0.257 OA
BRANCH   7   9
ATOM      9  O   UNL d   1      -1.999  -2.806   0.577  0.00  0.00    -0.195 OA
BRANCH   9  10
ATOM     10  N   UNL d   1      -1.782  -3.901   1.437  0.00  0.00    -0.268 N 
ATOM     11  C   UNL d   1      -2.846  -4.176   2.115  0.00  0.00     0.127 C 
ATOM     12  HN  UNL d   1      -0.901  -4.410   1.512  1.00  0.00     0.194 HD
BRANCH  11  13
ATOM     13  C   UNL d   1      -2.799  -5.203   3.185  0.00  0.00     0.003 A 
ATOM     14  C   UNL d   1      -3.930  -5.573   3.921  0.00  0.00     0.045 A 
ATOM     15 CL   UNL d   1      -5.501  -4.925   3.614  0.00  0.00    -0.083 Cl
ATOM     16  C   UNL d   1      -3.809  -6.504   4.961  0.00  0.00     0.024 A 
ATOM     17  C   UNL d   1      -2.568  -7.064   5.270  0.00  0.00     0.002 A 
ATOM     18  C   UNL d   1      -1.442  -6.703   4.539  0.00  0.00     0.001 A 
ATOM     19  C   UNL d   1      -1.556  -5.779   3.501  0.00  0.00     0.014 A 
ENDBRANCH  11  13
ENDBRANCH   9  10
ENDBRANCH   7   9
ENDBRANCH   2   7
BRANCH   1  20
ATOM     20  C   UNL d   1       2.206  -1.662  -0.006  0.00  0.00     0.435 C 
ATOM     21  F   UNL d   1       1.977  -2.939   0.384  0.00  0.00    -0.165 F 
ATOM     22  F   UNL d   1       2.860  -1.728  -1.190  0.00  0.00    -0.165 F 
ATOM     23  F   UNL d   1       3.076  -1.161   0.909  0.00  0.00    -0.165 F 
ENDBRANCH   1  20
BRANCH   3  24
ATOM     24  C   UNL d   1       2.039   1.461  -0.058  0.00  0.00     0.057 A 
ATOM     25  C   UNL d   1       3.175   1.225  -0.840  0.00  0.00     0.031 A 
ATOM     26  C   UNL d   1       4.226   2.147  -0.851  0.00  0.00     0.002 A 
ATOM     27  C   UNL d   1       4.145   3.313  -0.095  0.00  0.00     0.000 A 
ATOM     28  C   UNL d   1       2.998   3.578   0.651  0.00  0.00     0.002 A 
ATOM     29  C   UNL d   1       1.941   2.664   0.659  0.00  0.00     0.031 A 
ENDBRANCH   3  24
TORSDOF 6
