REMARK  4 active torsions:
REMARK  status: ('A' for Active; 'I' for Inactive)
REMARK    1  A    between atoms: C_2  and  C_1 
REMARK    2  A    between atoms: S_7  and  C_5 
REMARK    3  A    between atoms: C_13  and  S_7 
REMARK    4  A    between atoms: C_14  and  C_13 
ROOT
ATOM      1  C   UNL d   1      -0.197   1.180  -0.424  0.00  0.00     0.063 A 
ATOM      2  N   UNL d   1      -1.444   3.186  -0.949  0.00  0.00    -0.360 N 
ATOM      3  HN  UNL d   1      -2.235   3.632  -1.414  1.00  0.00     0.166 HD
ATOM      4  C   UNL d   1      -0.559   3.908  -0.228  0.00  0.00     0.069 A 
ATOM      5  C   UNL d   1      -1.245   1.849  -1.034  0.00  0.00     0.105 A 
ATOM      6  C   UNL d   1       0.706   1.946   0.317  0.00  0.00     0.020 A 
ATOM      7  C   UNL d   1       0.528   3.327   0.412  0.00  0.00     0.038 A 
ENDROOT
BRANCH   4   8
ATOM      8  S   UNL d   1      -0.785   5.673  -0.132  0.00  0.00    -0.108 SA
BRANCH   8   9
ATOM      9  C   UNL d   1      -2.574   5.772  -0.454  0.00  0.00     0.119 C 
BRANCH   9  10
ATOM     10  C   UNL d   1      -3.066   7.199  -0.468  0.00  0.00    -0.049 A 
ATOM     11  C   UNL d   1      -3.167   7.900  -1.678  0.00  0.00     0.008 A 
ATOM     12  C   UNL d   1      -3.643   9.213  -1.701  0.00  0.00     0.007 A 
ATOM     13  C   UNL d   1      -4.022   9.853  -0.516  0.00  0.00    -0.062 A 
ATOM     14  C   UNL d   1      -3.906   9.162   0.695  0.00  0.00     0.007 A 
ATOM     15  C   UNL d   1      -4.542  11.259  -0.558  0.00  0.00     0.048 C 
ATOM     16  C   UNL d   1      -3.430   7.847   0.720  0.00  0.00     0.008 A 
ENDBRANCH   9  10
ENDBRANCH   8   9
ENDBRANCH   4   8
BRANCH   1  17
ATOM     17  C   UNL d   1      -0.051  -0.305  -0.556  0.00  0.00     0.418 C 
ATOM     18  F   UNL d   1      -0.995  -0.877  -1.353  0.00  0.00    -0.166 F 
ATOM     19  F   UNL d   1      -0.140  -0.944   0.643  0.00  0.00    -0.166 F 
ATOM     20  F   UNL d   1       1.151  -0.666  -1.083  0.00  0.00    -0.166 F 
ENDBRANCH   1  17
TORSDOF 4
