REMARK  3 active torsions:
REMARK  status: ('A' for Active; 'I' for Inactive)
REMARK    1  A    between atoms: C_5  and  C_4 
REMARK    2  A    between atoms: O_10  and  C_6 
REMARK    3  A    between atoms: C_16  and  O_10 
ROOT
ATOM      1  N   UNL d   1      -1.658   1.478   0.088  0.00  0.00    -0.352 N 
ATOM      2  HN  UNL d   1      -1.449   2.467   0.225  1.00  0.00     0.166 HD
ATOM      3  C   UNL d   1      -0.659   0.591  -0.058  0.00  0.00     0.047 A 
ATOM      4  C   UNL d   1      -2.950   1.051   0.053  0.00  0.00     0.119 A 
ATOM      5  C   UNL d   1      -2.230  -1.221  -0.174  0.00  0.00     0.090 A 
ATOM      6  C   UNL d   1      -0.884  -0.788  -0.249  0.00  0.00     0.025 A 
ATOM      7  C   UNL d   1      -3.264  -0.296  -0.054  0.00  0.00     0.072 A 
ATOM      8  C   UNL d   1       0.642   1.065  -0.013  0.00  0.00     0.054 A 
ATOM      9  C   UNL d   1       0.230  -1.629  -0.493  0.00  0.00     0.018 A 
ATOM     10  C   UNL d   1       1.730   0.214  -0.181  0.00  0.00     0.036 A 
ATOM     11  C   UNL d   1       1.530  -1.135  -0.439  0.00  0.00     0.025 A 
ATOM     12 CL   UNL d   1       3.330   0.832  -0.072  0.00  0.00    -0.084 Cl
ENDROOT
BRANCH   5  13
ATOM     13  O   UNL d   1      -2.639  -2.532  -0.292  0.00  0.00    -0.310 OA
BRANCH  13  14
ATOM     14  C   UNL d   1      -2.127  -3.503   0.542  0.00  0.00     0.076 A 
ATOM     15  C   UNL d   1      -1.433  -3.276   1.736  0.00  0.00     0.040 A 
ATOM     16  C   UNL d   1      -0.862  -4.350   2.425  0.00  0.00     0.045 A 
ATOM     17  C   UNL d   1      -1.037  -5.645   1.950  0.00  0.00     0.116 A 
ATOM     18  C   UNL d   1      -1.784  -5.891   0.806  0.00  0.00     0.045 A 
ATOM     19  F   UNL d   1      -0.475  -6.669   2.604  0.00  0.00    -0.206 F 
ATOM     20  C   UNL d   1      -2.330  -4.817   0.101  0.00  0.00     0.040 A 
ENDBRANCH  13  14
ENDBRANCH   5  13
BRANCH   4  21
ATOM     21  C   UNL d   1      -4.080   2.071   0.117  0.00  0.00     0.432 C 
ATOM     22  F   UNL d   1      -3.665   3.366   0.183  0.00  0.00    -0.165 F 
ATOM     23  F   UNL d   1      -4.903   2.000  -0.971  0.00  0.00    -0.165 F 
ATOM     24  F   UNL d   1      -4.891   1.882   1.199  0.00  0.00    -0.165 F 
ENDBRANCH   4  21
TORSDOF 3
