REMARK  4 active torsions:
REMARK  status: ('A' for Active; 'I' for Inactive)
REMARK    1  A    between atoms: C_5  and  C_1 
REMARK    2  A    between atoms: C_8  and  C_2 
REMARK    3  A    between atoms: C_11  and  C_8 
REMARK    4  A    between atoms: O_14  and  C_8 
ROOT
ATOM      1  C   UNL d   1      -1.359  -0.817   0.196  0.00  0.00     0.081 A 
ATOM      2  C   UNL d   1       0.005  -1.292   0.067  0.00  0.00     0.036 A 
ATOM      3  N   UNL d   1      -1.370   0.515   0.368  0.00  0.00    -0.260 N 
ATOM      4  HN  UNL d   1      -2.191   1.100   0.525  1.00  0.00     0.195 HD
ATOM      5  O   UNL d   1      -0.073   0.936   0.293  0.00  0.00    -0.242 OA
ATOM      6  C   UNL d   1       0.750  -0.126   0.113  0.00  0.00     0.084 A 
ATOM      7  C   UNL d   1       2.183   0.222   0.019  0.00  0.00     0.079 C 
ENDROOT
BRANCH   2   8
ATOM      8  C   UNL d   1       0.498  -2.697  -0.058  0.00  0.00     0.189 C 
BRANCH   8   9
ATOM      9  C   UNL d   1       0.653  -3.090  -1.527  0.00  0.00    -0.025 A 
ATOM     10  C   UNL d   1       1.502  -4.176  -1.843  0.00  0.00     0.013 A 
ATOM     11  C   UNL d   1       1.626  -4.651  -3.147  0.00  0.00     0.043 A 
ATOM     12  C   UNL d   1       0.872  -4.069  -4.157  0.00  0.00     0.116 A 
ATOM     13  C   UNL d   1       0.004  -3.021  -3.881  0.00  0.00     0.043 A 
ATOM     14  F   UNL d   1       0.970  -4.534  -5.408  0.00  0.00    -0.206 F 
ATOM     15  C   UNL d   1      -0.108  -2.537  -2.574  0.00  0.00     0.013 A 
ENDBRANCH   8   9
BRANCH   8  16
ATOM     16  O   UNL d   1       1.723  -2.865   0.660  0.00  0.00    -0.386 OA
ATOM     17  H   UNL d   1       2.449  -2.711   0.034  0.00  0.00     0.210 HD
ENDBRANCH   8  16
ENDBRANCH   2   8
BRANCH   1  18
ATOM     18  C   UNL d   1      -2.630  -1.550   0.131  0.00  0.00     0.053 A 
ATOM     19  C   UNL d   1      -2.804  -2.724   0.875  0.00  0.00     0.130 A 
ATOM     20  F   UNL d   1      -1.858  -3.138   1.731  0.00  0.00    -0.205 F 
ATOM     21  C   UNL d   1      -3.961  -3.498   0.782  0.00  0.00     0.043 A 
ATOM     22  C   UNL d   1      -5.012  -3.080  -0.024  0.00  0.00     0.005 A 
ATOM     23  C   UNL d   1      -4.896  -1.886  -0.730  0.00  0.00     0.025 A 
ATOM     24  C   UNL d   1      -3.713  -1.132  -0.670  0.00  0.00     0.049 A 
ATOM     25 CL   UNL d   1      -3.675   0.286  -1.666  0.00  0.00    -0.083 Cl
ENDBRANCH   1  18
TORSDOF 4
