REMARK  2 active torsions:
REMARK  status: ('A' for Active; 'I' for Inactive)
REMARK    1  A    between atoms: C_4  and  C_1 
REMARK    2  A    between atoms: O_13  and  C_7 
ROOT
ATOM      1  C   UNL d   1      -1.249  -1.240  -0.038  0.00  0.00     0.027 A 
ATOM      2  C   UNL d   1      -1.930  -0.009  -0.011  0.00  0.00     0.078 A 
ATOM      3  C   UNL d   1       0.153  -1.224  -0.015  0.00  0.00     0.040 A 
ATOM      4  C   UNL d   1      -1.238   1.202  -0.003  0.00  0.00     0.039 A 
ATOM      5  C   UNL d   1       0.843  -0.009   0.009  0.00  0.00     0.035 A 
ATOM      6  C   UNL d   1       0.155   1.202   0.005  0.00  0.00     0.026 A 
ATOM      7 CL   UNL d   1       2.564  -0.012   0.043  0.00  0.00    -0.084 Cl
ENDROOT
BRANCH   1   8
ATOM      8  C   UNL d   1      -1.970  -2.516  -0.101  0.00  0.00     0.062 A 
ATOM      9  N   UNL d   1      -3.243  -2.622   0.324  0.00  0.00    -0.300 N 
ATOM     10  N   UNL d   1      -3.555  -3.915   0.130  0.00  0.00    -0.311 N 
ATOM     11  HN  UNL d   1      -3.836  -1.886   0.707  1.00  0.00     0.187 HD
ATOM     12  C   UNL d   1      -2.560  -4.633  -0.457  0.00  0.00     0.109 A 
ATOM     13  H   UNL d   1      -4.475  -4.238   0.414  0.00  0.00     0.186 HD
ATOM     14  C   UNL d   1      -1.513  -3.758  -0.621  0.00  0.00     0.050 A 
ENDBRANCH   1   8
BRANCH   2  15
ATOM     15  O   UNL d   1      -3.298   0.074   0.007  0.00  0.00    -0.360 OA
ATOM     16  H   UNL d   1      -3.626  -0.845   0.146  0.00  0.00     0.217 HD
ENDBRANCH   2  15
TORSDOF 2
