REMARK  5 active torsions:
REMARK  status: ('A' for Active; 'I' for Inactive)
REMARK    1  A    between atoms: S_3  and  C_1 
REMARK    2  A    between atoms: O_11  and  C_1 
REMARK    3  A    between atoms: C_10  and  S_3 
REMARK    4  A    between atoms: C_7  and  C_10 
REMARK    5  A    between atoms: C_14  and  O_11 
ROOT
ATOM      1  C   UNL d   1      -3.788   4.842  -1.073  0.00  0.00     0.038 A 
ATOM      2  C   UNL d   1      -3.563   3.893  -2.067  0.00  0.00     0.012 A 
ATOM      3  C   UNL d   1      -3.290   4.615   0.208  0.00  0.00     0.012 A 
ATOM      4  C   UNL d   1      -2.359   2.490  -0.496  0.00  0.00    -0.046 A 
ATOM      5  C   UNL d   1      -2.852   2.725  -1.790  0.00  0.00     0.027 A 
ATOM      6  C   UNL d   1      -2.579   3.452   0.501  0.00  0.00     0.027 A 
ATOM      7 BR   UNL d   1      -3.587   5.897   1.567  0.00  0.00    -0.051 Br
ATOM      8 BR   UNL d   1      -4.231   4.186  -3.812  0.00  0.00    -0.051 Br
ENDROOT
BRANCH   4   9
ATOM      9  C   UNL d   1      -1.592   1.229  -0.189  0.00  0.00     0.120 C 
BRANCH   9  10
ATOM     10  S   UNL d   1       0.193   1.454  -0.410  0.00  0.00    -0.089 SA
BRANCH  10  11
ATOM     11  C   UNL d   1       0.741  -0.193  -0.118  0.00  0.00     0.175 C 
ATOM     12  S   UNL d   1       2.357  -0.608  -0.212  0.00  0.00    -0.045 SA
BRANCH  11  13
ATOM     13  O   UNL d   1      -0.220  -1.095   0.221  0.00  0.00    -0.336 OA
BRANCH  13  14
ATOM     14  C   UNL d   1      -0.043  -2.525   0.131  0.00  0.00     0.172 C 
ATOM     15  C   UNL d   1      -1.434  -3.128   0.054  0.00  0.00     0.034 C 
ENDBRANCH  13  14
ENDBRANCH  11  13
ENDBRANCH  10  11
ENDBRANCH   9  10
ENDBRANCH   4   9
TORSDOF 5
