REMARK  4 active torsions:
REMARK  status: ('A' for Active; 'I' for Inactive)
REMARK    1  A    between atoms: C_2  and  C_1 
REMARK       I    between atoms: N_8  and  C_2 
REMARK    2  A    between atoms: S_7  and  C_3 
REMARK    3  A    between atoms: C_11  and  S_7 
REMARK    4  A    between atoms: C_13  and  C_11 
ROOT
ATOM      1  C   UNL d   1       0.824   1.363  -0.047  0.00  0.00     0.065 A 
ATOM      2  C   UNL d   1      -0.573   1.352  -0.031  0.00  0.00     0.085 A 
ATOM      3  N   UNL d   1      -1.282   0.188  -0.046  0.00  0.00    -0.360 N 
ATOM      4  HN  UNL d   1      -2.302   0.199  -0.029  1.00  0.00     0.166 HD
ATOM      5  C   UNL d   1       1.493   0.129  -0.107  0.00  0.00     0.021 A 
ATOM      6  C   UNL d   1      -0.605  -0.979  -0.086  0.00  0.00     0.089 A 
ATOM      7  C   UNL d   1       0.772  -1.060  -0.119  0.00  0.00     0.018 A 
ENDROOT
BRANCH   1   8
ATOM      8  C   UNL d   1       1.688   2.566   0.003  0.00  0.00     0.252 C 
ATOM      9  O   UNL d   1       2.770   2.588  -0.569  0.00  0.00    -0.268 OA
ATOM     10  N   UNL d   1       1.272   3.635   0.741  0.00  0.00    -0.366 N 
ATOM     11  H   UNL d   1       0.368   3.681   1.195  0.00  0.00     0.159 HD
ATOM     12  H   UNL d   1       1.866   4.455   0.758  0.00  0.00     0.159 HD
ENDBRANCH   1   8
BRANCH   2  13
ATOM     13  S   UNL d   1      -1.644   2.776   0.052  0.00  0.00    -0.111 SA
BRANCH  13  14
ATOM     14  C   UNL d   1      -1.264   3.634  -1.514  0.00  0.00     0.080 C 
BRANCH  14  15
ATOM     15  C   UNL d   1      -1.512   2.798  -2.765  0.00  0.00     0.006 C 
ATOM     16  C   UNL d   1      -1.298   3.643  -4.015  0.00  0.00     0.006 C 
ENDBRANCH  14  15
ENDBRANCH  13  14
ENDBRANCH   2  13
TORSDOF 4
