REMARK  5 active torsions:
REMARK  status: ('A' for Active; 'I' for Inactive)
REMARK       I    between atoms: N_2  and  C_1 
REMARK    1  A    between atoms: C_3  and  C_1 
REMARK    2  A    between atoms: C_7  and  N_2 
REMARK    3  A    between atoms: C_4  and  C_7 
REMARK    4  A    between atoms: O_13  and  C_4 
REMARK    5  A    between atoms: C_15  and  O_13 
ROOT
ATOM      1  C   UNL d   1       0.936   0.029   0.028  0.00  0.00     0.252 C 
ATOM      2  N   UNL d   1       0.223   0.448  -1.068  0.00  0.00    -0.348 N 
ATOM      3  O   UNL d   1       2.149   0.162   0.125  0.00  0.00    -0.268 OA
ATOM      4  H   UNL d   1      -0.792   0.465  -1.062  0.00  0.00     0.163 HD
ENDROOT
BRANCH   1   5
ATOM      5  C   UNL d   1       0.149  -0.573   1.139  0.00  0.00     0.032 A 
ATOM      6  C   UNL d   1      -1.065  -1.238   0.920  0.00  0.00     0.018 A 
ATOM      7  C   UNL d   1      -1.772  -1.777   1.999  0.00  0.00     0.020 A 
ATOM      8  C   UNL d   1      -1.262  -1.655   3.293  0.00  0.00     0.011 A 
ATOM      9  C   UNL d   1      -0.045  -1.012   3.516  0.00  0.00     0.020 A 
ATOM     10 BR   UNL d   1      -2.224  -2.375   4.751  0.00  0.00    -0.051 Br
ATOM     11  C   UNL d   1       0.663  -0.476   2.439  0.00  0.00     0.018 A 
ENDBRANCH   1   5
BRANCH   2  12
ATOM     12  C   UNL d   1       0.885   1.102  -2.183  0.00  0.00     0.233 C 
BRANCH  12  13
ATOM     13  C   UNL d   1      -0.091   1.276  -3.332  0.00  0.00     0.276 C 
ATOM     14  O   UNL d   1      -1.281   0.984  -3.277  0.00  0.00    -0.263 OA
BRANCH  13  15
ATOM     15  O   UNL d   1       0.557   1.769  -4.422  0.00  0.00    -0.321 OA
BRANCH  15  16
ATOM     16  C   UNL d   1      -0.191   1.762  -5.646  0.00  0.00     0.174 C 
ATOM     17  C   UNL d   1       0.050   0.438  -6.348  0.00  0.00     0.034 C 
ENDBRANCH  15  16
ENDBRANCH  13  15
ENDBRANCH  12  13
ENDBRANCH   2  12
TORSDOF 5
