REMARK  7 active torsions:
REMARK  status: ('A' for Active; 'I' for Inactive)
REMARK    1  A    between atoms: N_2  and  S_1 
REMARK    2  A    between atoms: C_7  and  S_1 
REMARK    3  A    between atoms: N_4  and  S_3 
REMARK       I    between atoms: C_6  and  N_4 
REMARK    4  A    between atoms: C_14  and  C_6 
REMARK    5  A    between atoms: C_27  and  C_25 
REMARK    6  A    between atoms: C_28  and  C_27 
REMARK    7  A    between atoms: C_29  and  C_28 
ROOT
ATOM      1  N   UNL d   1       0.325  -1.028   0.121  0.00  0.00    -0.305 N 
ATOM      2  S   UNL d   1      -0.775  -0.928  -2.968  0.00  0.00    -0.122 SA
ATOM      3  C   UNL d   1       0.564  -2.194  -0.780  0.00  0.00     0.146 C 
ATOM      4  C   UNL d   1      -0.963  -0.354  -0.198  0.00  0.00     0.146 C 
ATOM      5  C   UNL d   1      -0.966   0.259  -1.593  0.00  0.00     0.105 C 
ATOM      6  C   UNL d   1       0.661  -1.809  -2.260  0.00  0.00     0.105 C 
ENDROOT
BRANCH   2   7
ATOM      7  N   UNL d   1      -1.861  -1.910  -2.594  0.00  0.00    -0.306 N 
ATOM      8  C   UNL d   1      -2.564  -2.436  -3.612  0.00  0.00     0.261 C 
ATOM      9  O   UNL d   1      -2.370  -2.349  -4.828  0.00  0.00    -0.267 OA
ATOM     10  HN  UNL d   1      -2.050  -2.160  -1.624  1.00  0.00     0.176 HD
BRANCH   8  11
ATOM     11  C   UNL d   1      -3.771  -3.228  -3.183  0.00  0.00     0.032 A 
ATOM     12  C   UNL d   1      -4.671  -3.653  -4.169  0.00  0.00     0.017 A 
ATOM     13  C   UNL d   1      -5.866  -4.289  -3.823  0.00  0.00     0.008 A 
ATOM     14  C   UNL d   1      -6.185  -4.515  -2.479  0.00  0.00    -0.058 A 
ATOM     15  C   UNL d   1      -5.248  -4.169  -1.495  0.00  0.00     0.008 A 
ATOM     16  C   UNL d   1      -4.057  -3.523  -1.843  0.00  0.00     0.017 A 
BRANCH  14  17
ATOM     17  C   UNL d   1      -7.536  -5.072  -2.106  0.00  0.00     0.038 C 
BRANCH  17  18
ATOM     18  C   UNL d   1      -8.352  -4.149  -1.188  0.00  0.00     0.004 C 
BRANCH  18  19
ATOM     19  C   UNL d   1      -8.659  -2.784  -1.814  0.00  0.00    -0.004 C 
ATOM     20  C   UNL d   1      -9.475  -1.912  -0.871  0.00  0.00     0.005 C 
ENDBRANCH  18  19
ENDBRANCH  17  18
ENDBRANCH  14  17
ENDBRANCH   8  11
ENDBRANCH   2   7
BRANCH   1  21
ATOM     21  S   UNL d   1       1.634  -0.038   0.517  0.00  0.00     0.260 S 
ATOM     22  O   UNL d   1       1.157   1.198   1.100  0.00  0.00    -0.200 OA
ATOM     23  O   UNL d   1       2.615  -0.042  -0.548  0.00  0.00    -0.200 OA
BRANCH  21  24
ATOM     24  C   UNL d   1       2.349  -0.946   1.878  0.00  0.00     0.079 A 
ATOM     25  C   UNL d   1       3.663  -1.418   1.802  0.00  0.00     0.027 A 
ATOM     26  C   UNL d   1       4.224  -2.054   2.913  0.00  0.00     0.025 A 
ATOM     27  C   UNL d   1       3.471  -2.211   4.077  0.00  0.00     0.034 A 
ATOM     28  C   UNL d   1       2.156  -1.748   4.147  0.00  0.00     0.025 A 
ATOM     29 CL   UNL d   1       4.176  -2.971   5.452  0.00  0.00    -0.084 Cl
ATOM     30  C   UNL d   1       1.592  -1.108   3.042  0.00  0.00     0.027 A 
ENDBRANCH  21  24
ENDBRANCH   1  21
TORSDOF 7
