REMARK  8 active torsions:
REMARK  status: ('A' for Active; 'I' for Inactive)
REMARK    1  A    between atoms: N_3  and  S_1 
REMARK    2  A    between atoms: C_6  and  S_1 
REMARK    3  A    between atoms: C_5  and  C_2 
REMARK    4  A    between atoms: C_13  and  N_3 
REMARK    5  A    between atoms: O_9  and  C_4 
REMARK    6  A    between atoms: O_22  and  C_5 
REMARK    7  A    between atoms: C_14  and  O_9 
REMARK    8  A    between atoms: C_30  and  O_22 
ROOT
ATOM      1  C   UNL d   1       2.491  -0.676  -4.167  0.00  0.00     0.075 A 
ATOM      2  C   UNL d   1       1.637  -1.165  -5.169  0.00  0.00     0.092 A 
ATOM      3  C   UNL d   1       2.118  -0.798  -2.817  0.00  0.00     0.050 A 
ATOM      4  C   UNL d   1       0.869  -1.315  -2.476  0.00  0.00     0.043 A 
ATOM      5  C   UNL d   1       0.363  -1.630  -4.811  0.00  0.00     0.040 A 
ATOM      6  C   UNL d   1      -0.024  -1.697  -3.471  0.00  0.00     0.033 A 
ENDROOT
BRANCH   4   7
ATOM      7  N   UNL d   1       0.474  -1.370  -1.117  0.00  0.00    -0.281 N 
ATOM      8  H   UNL d   1      -0.061  -2.180  -0.798  0.00  0.00     0.179 HD
BRANCH   7   9
ATOM      9  S   UNL d   1      -0.010   0.059  -0.338  0.00  0.00     0.263 S 
ATOM     10  O   UNL d   1       1.011   1.060  -0.531  0.00  0.00    -0.200 OA
ATOM     11  O   UNL d   1      -0.457  -0.336   0.983  0.00  0.00    -0.200 OA
BRANCH   9  12
ATOM     12  C   UNL d   1      -1.444   0.558  -1.262  0.00  0.00     0.080 A 
ATOM     13  C   UNL d   1      -2.702   0.076  -0.884  0.00  0.00     0.027 A 
ATOM     14  C   UNL d   1      -3.840   0.514  -1.565  0.00  0.00     0.025 A 
ATOM     15  C   UNL d   1      -3.713   1.427  -2.612  0.00  0.00     0.034 A 
ATOM     16  C   UNL d   1      -2.458   1.911  -2.986  0.00  0.00     0.025 A 
ATOM     17 CL   UNL d   1      -5.118   1.974  -3.441  0.00  0.00    -0.084 Cl
ATOM     18  C   UNL d   1      -1.317   1.481  -2.303  0.00  0.00     0.027 A 
ENDBRANCH   9  12
ENDBRANCH   7   9
ENDBRANCH   4   7
BRANCH   1  19
ATOM     19  C   UNL d   1       3.750   0.060  -4.418  0.00  0.00     0.296 C 
ATOM     20  O   UNL d   1       4.757  -0.082  -3.749  0.00  0.00    -0.259 OA
BRANCH  19  21
ATOM     21  O   UNL d   1       3.517   0.999  -5.367  0.00  0.00    -0.318 OA
BRANCH  21  22
ATOM     22  C   UNL d   1       4.469   2.069  -5.453  0.00  0.00     0.174 C 
ATOM     23  C   UNL d   1       5.368   1.921  -6.665  0.00  0.00     0.034 C 
ENDBRANCH  21  22
ENDBRANCH  19  21
ENDBRANCH   1  19
BRANCH   2  24
ATOM     24  O   UNL d   1       1.876  -1.191  -6.525  0.00  0.00    -0.308 OA
BRANCH  24  25
ATOM     25  C   UNL d   1       3.123  -1.499  -7.005  0.00  0.00     0.093 A 
ATOM     26  C   UNL d   1       4.046  -2.342  -6.388  0.00  0.00     0.064 A 
ATOM     27  C   UNL d   1       5.326  -2.441  -6.926  0.00  0.00     0.052 A 
ATOM     28 CL   UNL d   1       6.537  -3.357  -6.125  0.00  0.00    -0.083 Cl
ATOM     29  C   UNL d   1       5.613  -1.758  -8.099  0.00  0.00     0.111 A 
ATOM     30  N   UNL d   1       4.708  -1.011  -8.775  0.00  0.00    -0.371 N 
ATOM     31  C   UNL d   1       3.483  -0.901  -8.208  0.00  0.00     0.124 A 
ATOM     32  HN  UNL d   1       4.936  -0.557  -9.659  1.00  0.00     0.164 HD
ENDBRANCH  24  25
ENDBRANCH   2  24
TORSDOF 8
