REMARK  4 active torsions:
REMARK  status: ('A' for Active; 'I' for Inactive)
REMARK       I    between atoms: N_2  and  C_1 
REMARK       I    between atoms: N_4  and  C_1 
REMARK    1  A    between atoms: C_3  and  C_7 
REMARK    2  A    between atoms: C_22  and  N_4 
REMARK    3  A    between atoms: C_17  and  N_5 
REMARK    4  A    between atoms: C_16  and  C_17 
ROOT
ATOM      1  C   UNL d   1       0.822   0.140  -0.102  0.00  0.00     0.323 C 
ATOM      2  N   UNL d   1       0.262   1.202   0.605  0.00  0.00    -0.331 N 
ATOM      3  N   UNL d   1       0.416  -1.118   0.276  0.00  0.00    -0.309 N 
ATOM      4  N   UNL d   1      -0.741   3.653   1.943  0.00  0.00     0.095 N 
ATOM      5  O   UNL d   1       1.663   0.356  -0.975  0.00  0.00    -0.247 OA
ATOM      6  C   UNL d   1       0.708   2.540   0.192  0.00  0.00     0.158 C 
ATOM      7  C   UNL d   1      -0.983   1.166   1.385  0.00  0.00     0.158 C 
ATOM      8  C   UNL d   1      -1.081   2.300   2.435  0.00  0.00     0.292 C 
ATOM      9  C   UNL d   1       0.596   3.578   1.316  0.00  0.00     0.292 C 
ATOM     10  H   UNL d   1      -0.347  -1.190   0.924  0.00  0.00     0.170 HD
ENDROOT
BRANCH   3  11
ATOM     11  C   UNL d   1       1.031  -2.344  -0.075  0.00  0.00     0.036 A 
ATOM     12  C   UNL d   1       2.148  -2.445  -0.907  0.00  0.00     0.030 A 
ATOM     13  C   UNL d   1       2.786  -3.672  -1.107  0.00  0.00     0.018 A 
ATOM     14  C   UNL d   1       2.317  -4.831  -0.481  0.00  0.00     0.048 A 
ATOM     15  C   UNL d   1       1.163  -4.745   0.308  0.00  0.00     0.018 A 
ATOM     16  C   UNL d   1       0.525  -3.514   0.506  0.00  0.00     0.030 A 
BRANCH  14  17
ATOM     17  C   UNL d   1       3.080  -6.122  -0.640  0.00  0.00     0.417 C 
ATOM     18  F   UNL d   1       2.526  -7.169   0.032  0.00  0.00    -0.166 F 
ATOM     19  F   UNL d   1       3.178  -6.519  -1.938  0.00  0.00    -0.166 F 
ATOM     20  F   UNL d   1       4.360  -6.024  -0.181  0.00  0.00    -0.166 F 
ENDBRANCH  14  17
ENDBRANCH   3  11
BRANCH   4  21
ATOM     21  C   UNL d   1      -1.784   4.151   1.028  0.00  0.00     0.311 C 
BRANCH  21  22
ATOM     22  C   UNL d   1      -1.515   5.526   0.452  0.00  0.00    -0.027 A 
ATOM     23  C   UNL d   1      -1.432   5.695  -0.942  0.00  0.00     0.048 A 
ATOM     24  C   UNL d   1      -1.223   6.965  -1.433  0.00  0.00     0.105 A 
ATOM     25  O   UNL d   1      -1.131   7.300  -2.748  0.00  0.00    -0.323 OA
ATOM     26  C   UNL d   1      -1.093   8.052  -0.602  0.00  0.00     0.105 A 
ATOM     27  C   UNL d   1      -0.940   8.727  -2.649  0.00  0.00     0.352 A 
ATOM     28  O   UNL d   1      -0.906   9.210  -1.290  0.00  0.00    -0.323 OA
ATOM     29  C   UNL d   1      -1.157   7.927   0.769  0.00  0.00     0.040 A 
ATOM     30  C   UNL d   1      -1.370   6.649   1.298  0.00  0.00     0.012 A 
ENDBRANCH  21  22
ENDBRANCH   4  21
TORSDOF 4
