REMARK  3 active torsions:
REMARK  status: ('A' for Active; 'I' for Inactive)
REMARK    1  A    between atoms: O_9  and  C_1 
REMARK    2  A    between atoms: O_10  and  C_2 
REMARK    3  A    between atoms: C_11  and  O_9 
ROOT
ATOM      1  C   UNL d   1      -0.784   1.113  -0.064  0.00  0.00     0.148 A 
ATOM      2  C   UNL d   1      -1.326  -0.144  -0.260  0.00  0.00     0.178 A 
ATOM      3  N   UNL d   1      -0.618  -1.286  -0.218  0.00  0.00    -0.325 N 
ATOM      4  HN  UNL d   1      -1.061  -2.198  -0.333  1.00  0.00     0.169 HD
ATOM      5  N   UNL d   1       1.347   0.011   0.118  0.00  0.00    -0.347 N 
ATOM      6  HN  UNL d   1       2.358   0.051   0.247  1.00  0.00     0.167 HD
ATOM      7  C   UNL d   1       0.595   1.138   0.077  0.00  0.00     0.045 A 
ATOM      8  C   UNL d   1       0.703  -1.160  -0.018  0.00  0.00     0.079 A 
ATOM      9  C   UNL d   1       1.343   2.436   0.154  0.00  0.00     0.071 C 
ATOM     10  C   UNL d   1       1.513  -2.418   0.041  0.00  0.00     0.089 C 
ENDROOT
BRANCH   1  11
ATOM     11  O   UNL d   1      -1.445   2.311  -0.119  0.00  0.00    -0.304 OA
BRANCH  11  12
ATOM     12  C   UNL d   1      -2.654   2.480   0.516  0.00  0.00     0.076 A 
ATOM     13  C   UNL d   1      -3.081   1.778   1.642  0.00  0.00     0.038 A 
ATOM     14  C   UNL d   1      -4.380   1.968   2.126  0.00  0.00     0.009 A 
ATOM     15  C   UNL d   1      -5.244   2.889   1.517  0.00  0.00    -0.062 A 
ATOM     16  C   UNL d   1      -4.779   3.640   0.433  0.00  0.00     0.009 A 
ATOM     17  C   UNL d   1      -6.658   3.030   1.997  0.00  0.00     0.048 C 
ATOM     18  C   UNL d   1      -3.490   3.439  -0.061  0.00  0.00     0.038 A 
ENDBRANCH  11  12
ENDBRANCH   1  11
BRANCH   2  19
ATOM     19  O   UNL d   1      -2.638  -0.353  -0.573  0.00  0.00    -0.344 OA
ATOM     20  H   UNL d   1      -3.044   0.505  -0.761  0.00  0.00     0.219 HD
ENDBRANCH   2  19
TORSDOF 3
