REMARK  4 active torsions:
REMARK  status: ('A' for Active; 'I' for Inactive)
REMARK       I    between atoms: N_2  and  C_1 
REMARK    1  A    between atoms: C_3  and  C_1 
REMARK    2  A    between atoms: C_5  and  N_2 
REMARK       I    between atoms: N_6  and  C_3 
REMARK    3  A    between atoms: C_14  and  N_6 
REMARK    4  A    between atoms: C_13  and  C_14 
ROOT
ATOM      1  C   UNL d   1       1.028  -0.018   0.108  0.00  0.00     0.310 C 
ATOM      2  N   UNL d   1       0.314   1.024  -0.431  0.00  0.00    -0.340 N 
ATOM      3  O   UNL d   1       2.247  -0.056   0.235  0.00  0.00    -0.262 OA
ATOM      4  H   UNL d   1      -0.704   0.962  -0.437  0.00  0.00     0.163 HD
ENDROOT
BRANCH   1   5
ATOM      5  C   UNL d   1       0.169  -1.220   0.570  0.00  0.00     0.309 C 
ATOM      6  N   UNL d   1       0.902  -2.245   1.123  0.00  0.00    -0.349 N 
ATOM      7  H   UNL d   1       1.910  -2.119   1.173  0.00  0.00     0.163 HD
ATOM      8  O   UNL d   1      -1.044  -1.200   0.423  0.00  0.00    -0.262 OA
BRANCH   6   9
ATOM      9  C   UNL d   1       0.306  -3.476   1.585  0.00  0.00     0.163 C 
BRANCH   9  10
ATOM     10  C   UNL d   1       0.569  -3.715   3.044  0.00  0.00    -0.025 A 
ATOM     11  C   UNL d   1       1.209  -4.870   3.484  0.00  0.00     0.096 A 
ATOM     12  N   UNL d   1       1.440  -5.165   4.784  0.00  0.00    -0.375 N 
ATOM     13  C   UNL d   1       1.009  -4.268   5.697  0.00  0.00     0.087 A 
ATOM     14  HN  UNL d   1       1.917  -6.023   5.062  1.00  0.00     0.164 HD
ATOM     15  C   UNL d   1       0.361  -3.090   5.368  0.00  0.00     0.018 A 
ATOM     16  C   UNL d   1       0.136  -2.814   4.022  0.00  0.00     0.011 A 
ENDBRANCH   9  10
ENDBRANCH   6   9
ENDBRANCH   1   5
BRANCH   2  17
ATOM     17  C   UNL d   1       0.952   2.240  -0.919  0.00  0.00     0.177 C 
ATOM     18  C   UNL d   1      -0.028   3.418  -0.783  0.00  0.00     0.240 C 
ATOM     19  N   UNL d   1       0.440   4.670  -1.069  0.00  0.00    -0.359 N 
ATOM     20  O   UNL d   1      -1.205   3.272  -0.452  0.00  0.00    -0.271 OA
ATOM     21  C   UNL d   1       1.800   5.024  -1.411  0.00  0.00     0.122 C 
ATOM     22  H   UNL d   1      -0.248   5.407  -0.958  0.00  0.00     0.162 HD
ATOM     23  C   UNL d   1       2.217   4.485  -2.774  0.00  0.00     0.020 C 
ATOM     24  C   UNL d   1       2.547   2.992  -2.773  0.00  0.00     0.004 C 
ATOM     25  C   UNL d   1       1.387   2.075  -2.380  0.00  0.00     0.035 C 
ENDBRANCH   2  17
TORSDOF 4
