REMARK  6 active torsions:
REMARK  status: ('A' for Active; 'I' for Inactive)
REMARK    1  A    between atoms: C_10  and  C_5 
REMARK    2  A    between atoms: S_12  and  C_8 
REMARK    3  A    between atoms: O_18  and  C_9 
REMARK    4  A    between atoms: C_11  and  C_17 
REMARK       I    between atoms: N_13  and  C_11 
REMARK    5  A    between atoms: C_17  and  S_12 
REMARK    6  A    between atoms: C_19  and  N_13 
ROOT
ATOM      1  N   UNL d   1      -0.094   1.357  -0.768  0.00  0.00    -0.322 N 
ATOM      2  HN  UNL d   1       0.158   2.188  -1.304  1.00  0.00     0.169 HD
ATOM      3  N   UNL d   1      -1.093  -0.767  -0.657  0.00  0.00    -0.307 N 
ATOM      4  HN  UNL d   1      -1.629  -1.526  -1.079  1.00  0.00     0.171 HD
ATOM      5  C   UNL d   1      -0.806   0.360  -1.296  0.00  0.00     0.120 A 
ATOM      6  N   UNL d   1       0.043   0.119   1.232  0.00  0.00    -0.302 N 
ATOM      7  HN  UNL d   1       0.351   0.020   2.199  1.00  0.00     0.171 HD
ATOM      8  C   UNL d   1       0.265   1.196   0.499  0.00  0.00     0.149 A 
ATOM      9  C   UNL d   1      -0.622  -0.817   0.576  0.00  0.00     0.224 A 
ENDROOT
BRANCH   8  10
ATOM     10  S   UNL d   1       0.973   2.596   1.338  0.00  0.00    -0.084 SA
BRANCH  10  11
ATOM     11  C   UNL d   1       0.473   3.924   0.197  0.00  0.00     0.185 C 
BRANCH  11  12
ATOM     12  C   UNL d   1      -1.028   4.001  -0.064  0.00  0.00     0.231 C 
ATOM     13  N   UNL d   1      -1.837   3.720   1.026  0.00  0.00    -0.327 N 
ATOM     14  H   UNL d   1      -1.367   3.573   1.913  0.00  0.00     0.169 HD
ATOM     15  O   UNL d   1      -1.426   4.392  -1.161  0.00  0.00    -0.272 OA
BRANCH  13  16
ATOM     16  C   UNL d   1      -3.247   3.784   1.055  0.00  0.00     0.034 A 
ATOM     17  C   UNL d   1      -4.037   3.838  -0.097  0.00  0.00     0.031 A 
ATOM     18  C   UNL d   1      -5.420   4.022  -0.005  0.00  0.00     0.026 A 
ATOM     19  C   UNL d   1      -6.021   4.140   1.243  0.00  0.00     0.034 A 
ATOM     20  C   UNL d   1      -5.256   4.022   2.401  0.00  0.00     0.026 A 
ATOM     21 CL   UNL d   1      -7.709   4.449   1.355  0.00  0.00    -0.084 Cl
ATOM     22  C   UNL d   1      -3.873   3.828   2.307  0.00  0.00     0.031 A 
ENDBRANCH  13  16
ENDBRANCH  11  12
ENDBRANCH  10  11
ENDBRANCH   8  10
BRANCH   9  23
ATOM     23  O   UNL d   1      -0.876  -1.939   1.298  0.00  0.00    -0.332 OA
ATOM     24  H   UNL d   1      -0.445  -1.707   2.133  0.00  0.00     0.221 HD
ENDBRANCH   9  23
BRANCH   5  25
ATOM     25  C   UNL d   1      -1.381   0.588  -2.636  0.00  0.00     0.008 A 
ATOM     26  C   UNL d   1      -2.378  -0.254  -3.164  0.00  0.00     0.017 A 
ATOM     27  C   UNL d   1      -2.958  -0.005  -4.414  0.00  0.00     0.025 A 
ATOM     28  C   UNL d   1      -2.545   1.092  -5.165  0.00  0.00     0.034 A 
ATOM     29  C   UNL d   1      -1.559   1.941  -4.677  0.00  0.00     0.025 A 
ATOM     30 CL   UNL d   1      -3.261   1.402  -6.697  0.00  0.00    -0.084 Cl
ATOM     31  C   UNL d   1      -0.987   1.690  -3.425  0.00  0.00     0.017 A 
ENDBRANCH   5  25
TORSDOF 6
