REMARK  5 active torsions:
REMARK  status: ('A' for Active; 'I' for Inactive)
REMARK    1  A    between atoms: C_9  and  C_1 
REMARK    2  A    between atoms: N_14  and  C_3 
REMARK    3  A    between atoms: C_13  and  C_6 
REMARK       I    between atoms: N_16  and  C_9 
REMARK    4  A    between atoms: C_17  and  C_12 
REMARK    5  A    between atoms: N_18  and  N_16 
ROOT
ATOM      1  C   UNL d   1      -2.514  -0.757   0.183  0.00  0.00     0.103 C 
ATOM      2  C   UNL d   1      -0.151  -0.994   0.074  0.00  0.00     0.040 A 
ATOM      3  C   UNL d   1      -1.441  -1.625   0.298  0.00  0.00     0.062 C 
ATOM      4  C   UNL d   1      -0.346   0.374  -0.020  0.00  0.00     0.103 A 
ATOM      5  S   UNL d   1      -1.972   0.858   0.026  0.00  0.00    -0.062 SA
ATOM      6  C   UNL d   1       1.196  -1.448  -0.065  0.00  0.00     0.018 A 
ATOM      7  N   UNL d   1       1.862   0.886  -0.256  0.00  0.00    -0.298 N 
ATOM      8  HN  UNL d   1       2.609   1.575  -0.343  1.00  0.00     0.187 HD
ATOM      9  N   UNL d   1       0.619   1.298  -0.164  0.00  0.00    -0.292 N 
ATOM     10  HN  UNL d   1       0.391   2.292  -0.200  1.00  0.00     0.187 HD
ATOM     11  C   UNL d   1       2.177  -0.436  -0.239  0.00  0.00     0.070 A 
ENDROOT
BRANCH   1  12
ATOM     12  C   UNL d   1      -3.936  -1.085   0.186  0.00  0.00     0.275 C 
ATOM     13  O   UNL d   1      -4.371  -2.236   0.276  0.00  0.00    -0.266 OA
ATOM     14  N   UNL d   1      -4.821  -0.014   0.052  0.00  0.00    -0.289 N 
ATOM     15  H   UNL d   1      -4.465   0.942   0.067  0.00  0.00     0.183 HD
BRANCH  14  16
ATOM     16  N   UNL d   1      -6.220  -0.230   0.024  0.00  0.00    -0.247 NA
ATOM     17  H   UNL d   1      -6.375  -1.201   0.334  0.00  0.00     0.143 HD
ATOM     18  H   UNL d   1      -6.511  -0.241  -0.960  0.00  0.00     0.143 HD
ENDBRANCH  14  16
ENDBRANCH   1  12
BRANCH   3  19
ATOM     19  N   UNL d   1      -1.622  -2.941   0.544  0.00  0.00    -0.397 N 
ATOM     20  H   UNL d   1      -0.871  -3.557   0.851  0.00  0.00     0.156 HD
ATOM     21  H   UNL d   1      -2.555  -3.322   0.727  0.00  0.00     0.156 HD
ENDBRANCH   3  19
BRANCH   6  22
ATOM     22  C   UNL d   1       1.489  -2.897  -0.106  0.00  0.00    -0.023 A 
ATOM     23  C   UNL d   1       0.855  -3.727  -1.053  0.00  0.00     0.012 A 
ATOM     24  C   UNL d   1       1.151  -5.089  -1.144  0.00  0.00     0.001 A 
ATOM     25  C   UNL d   1       2.127  -5.642  -0.323  0.00  0.00     0.000 A 
ATOM     26  C   UNL d   1       2.781  -4.841   0.610  0.00  0.00     0.001 A 
ATOM     27  C   UNL d   1       2.442  -3.489   0.738  0.00  0.00     0.012 A 
ENDBRANCH   6  22
BRANCH  11  28
ATOM     28  C   UNL d   1       3.636  -0.663  -0.412  0.00  0.00    -0.007 A 
ATOM     29  C   UNL d   1       4.163  -1.670  -1.242  0.00  0.00     0.014 A 
ATOM     30  C   UNL d   1       5.541  -1.901  -1.328  0.00  0.00     0.001 A 
ATOM     31  C   UNL d   1       6.430  -1.093  -0.628  0.00  0.00     0.000 A 
ATOM     32  C   UNL d   1       5.944  -0.048   0.150  0.00  0.00     0.001 A 
ATOM     33  C   UNL d   1       4.566   0.159   0.259  0.00  0.00     0.014 A 
ENDBRANCH  11  28
TORSDOF 5
