REMARK  2 active torsions:
REMARK  status: ('A' for Active; 'I' for Inactive)
REMARK    1  A    between atoms: C_2  and  C_1 
REMARK       I    between atoms: N_3  and  C_2 
REMARK    2  A    between atoms: C_7  and  N_3 
ROOT
ATOM      1  C   UNL d   1      -1.949   1.635   3.296  0.00  0.00    -0.078 C 
ATOM      2  C   UNL d   1      -2.287   2.782   3.384  0.00  0.00     0.018 C 
ATOM      3  C   UNL d   1      -0.668  -1.466   1.676  0.00  0.00     0.036 A 
ATOM      4  C   UNL d   1      -1.506   0.284   3.136  0.00  0.00     0.019 A 
ATOM      5  C   UNL d   1      -1.162  -0.174   1.859  0.00  0.00     0.050 A 
ATOM      6  C   UNL d   1      -0.932  -1.867   4.060  0.00  0.00     0.004 A 
ATOM      7  C   UNL d   1      -0.579  -2.318   2.784  0.00  0.00     0.029 A 
ATOM      8  C   UNL d   1      -1.387  -0.561   4.237  0.00  0.00     0.021 A 
ENDROOT
BRANCH   3   9
ATOM      9  N   UNL d   1      -0.229  -1.965   0.430  0.00  0.00    -0.323 N 
ATOM     10  C   UNL d   1      -0.003  -1.233  -0.738  0.00  0.00     0.277 C 
ATOM     11  O   UNL d   1      -0.167  -0.013  -0.820  0.00  0.00    -0.268 OA
ATOM     12  H   UNL d   1       0.037  -2.946   0.412  0.00  0.00     0.169 HD
BRANCH  10  13
ATOM     13  C   UNL d   1       0.522  -2.045  -1.953  0.00  0.00     0.269 C 
ATOM     14 CL   UNL d   1       0.624  -3.796  -1.595  0.00  0.00    -0.073 Cl
ATOM     15 CL   UNL d   1       2.153  -1.444  -2.358  0.00  0.00    -0.073 Cl
ATOM     16 CL   UNL d   1      -0.592  -1.795  -3.321  0.00  0.00    -0.073 Cl
ENDBRANCH  10  13
ENDBRANCH   3   9
TORSDOF 2
