REMARK  9 active torsions:
REMARK  status: ('A' for Active; 'I' for Inactive)
REMARK    1  A    between atoms: N_5  and  S_1 
REMARK    2  A    between atoms: C_14  and  S_1 
REMARK    3  A    between atoms: C_10  and  C_2 
REMARK    4  A    between atoms: C_4  and  C_3 
REMARK    5  A    between atoms: N_9  and  N_5 
REMARK    6  A    between atoms: C_8  and  N_9 
REMARK    7  A    between atoms: O_17  and  C_10 
REMARK    8  A    between atoms: C_24  and  O_17 
REMARK    9  A    between atoms: C_29  and  C_24 
ROOT
ATOM      1  C   UNL d   1      -0.026  -1.194   6.356  0.00  0.00     0.087 A 
ATOM      2  C   UNL d   1       1.262  -1.483   5.949  0.00  0.00     0.150 A 
ATOM      3  N   UNL d   1       1.603  -1.447   4.616  0.00  0.00    -0.184 N 
ATOM      4  HN  UNL d   1       2.539  -1.720   4.316  1.00  0.00     0.184 HD
ATOM      5  C   UNL d   1       0.691  -1.046   3.716  0.00  0.00     0.697 A 
ATOM      6  N   UNL d   1      -0.551  -0.695   4.047  0.00  0.00    -0.199 N 
ATOM      7  HN  UNL d   1      -1.217  -0.368   3.348  1.00  0.00     0.183 HD
ATOM      8  C   UNL d   1      -0.887  -0.791   5.353  0.00  0.00     0.126 A 
ENDROOT
BRANCH   5   9
ATOM      9  N   UNL d   1       1.039  -0.958   2.377  0.00  0.00    -0.122 N 
ATOM     10  H   UNL d   1       0.310  -0.583   1.775  0.00  0.00     0.206 HD
BRANCH   9  11
ATOM     11  N   UNL d   1       2.229  -1.526   1.769  0.00  0.00    -0.208 N 
ATOM     12  H   UNL d   1       2.917  -2.037   2.329  0.00  0.00     0.201 HD
BRANCH  11  13
ATOM     13  S   UNL d   1       2.562  -1.288   0.134  0.00  0.00     0.276 S 
ATOM     14  O   UNL d   1       1.318  -1.440  -0.594  0.00  0.00    -0.199 OA
ATOM     15  O   UNL d   1       3.750  -2.047  -0.192  0.00  0.00    -0.199 OA
BRANCH  13  16
ATOM     16  C   UNL d   1       2.996   0.431   0.139  0.00  0.00     0.081 A 
ATOM     17  C   UNL d   1       4.134   0.837   0.848  0.00  0.00     0.028 A 
ATOM     18  C   UNL d   1       4.425   2.196   0.948  0.00  0.00     0.044 A 
ATOM     19  C   UNL d   1       3.591   3.125   0.332  0.00  0.00     0.116 A 
ATOM     20  C   UNL d   1       2.478   2.721  -0.401  0.00  0.00     0.044 A 
ATOM     21  F   UNL d   1       3.860   4.433   0.455  0.00  0.00    -0.206 F 
ATOM     22  C   UNL d   1       2.176   1.363  -0.505  0.00  0.00     0.028 A 
ENDBRANCH  13  16
ENDBRANCH  11  13
ENDBRANCH   9  11
ENDBRANCH   5   9
BRANCH   2  23
ATOM     23  C   UNL d   1       2.404  -1.782   6.899  0.00  0.00     0.434 C 
ATOM     24  F   UNL d   1       2.173  -1.524   8.217  0.00  0.00    -0.165 F 
ATOM     25  F   UNL d   1       2.813  -3.078   6.833  0.00  0.00    -0.165 F 
ATOM     26  F   UNL d   1       3.511  -1.036   6.605  0.00  0.00    -0.165 F 
ENDBRANCH   2  23
BRANCH   1  27
ATOM     27  C   UNL d   1      -0.571  -1.179   7.727  0.00  0.00     0.297 C 
ATOM     28  O   UNL d   1      -1.392  -0.340   8.065  0.00  0.00    -0.259 OA
BRANCH  27  29
ATOM     29  O   UNL d   1      -0.117  -2.207   8.459  0.00  0.00    -0.313 OA
BRANCH  29  30
ATOM     30  C   UNL d   1      -0.536  -2.210   9.836  0.00  0.00     0.217 C 
BRANCH  30  31
ATOM     31  C   UNL d   1      -1.027  -3.589  10.187  0.00  0.00    -0.034 A 
ATOM     32  C   UNL d   1      -0.145  -4.558  10.682  0.00  0.00     0.009 A 
ATOM     33  C   UNL d   1      -0.599  -5.848  10.963  0.00  0.00     0.001 A 
ATOM     34  C   UNL d   1      -1.935  -6.180  10.749  0.00  0.00     0.000 A 
ATOM     35  C   UNL d   1      -2.823  -5.221  10.265  0.00  0.00     0.001 A 
ATOM     36  C   UNL d   1      -2.372  -3.931   9.984  0.00  0.00     0.009 A 
ENDBRANCH  30  31
ENDBRANCH  29  30
ENDBRANCH  27  29
ENDBRANCH   1  27
TORSDOF 9
