REMARK  4 active torsions:
REMARK  status: ('A' for Active; 'I' for Inactive)
REMARK    1  A    between atoms: O_4  and  S_1 
REMARK    2  A    between atoms: C_5  and  S_1 
REMARK    3  A    between atoms: N_2  and  C_8 
REMARK    4  A    between atoms: C_14  and  O_4 
ROOT
ATOM      1  C   UNL d   1       0.547  -1.413  -0.892  0.00  0.00     0.086 A 
ATOM      2  C   UNL d   1      -0.358  -3.744  -2.211  0.00  0.00     0.037 A 
ATOM      3  C   UNL d   1       1.105  -2.651  -0.579  0.00  0.00     0.028 A 
ATOM      4  C   UNL d   1      -0.461  -1.324  -1.848  0.00  0.00     0.028 A 
ATOM      5  C   UNL d   1      -0.898  -2.482  -2.506  0.00  0.00     0.031 A 
ATOM      6  C   UNL d   1       0.649  -3.804  -1.232  0.00  0.00     0.031 A 
ENDROOT
BRANCH   1   7
ATOM      7  S   UNL d   1       1.023   0.028   0.039  0.00  0.00     0.303 S 
ATOM      8  O   UNL d   1      -0.105   0.939   0.013  0.00  0.00    -0.193 OA
ATOM      9  O   UNL d   1       1.550  -0.456   1.303  0.00  0.00    -0.193 OA
BRANCH   7  10
ATOM     10  O   UNL d   1       2.245   0.674  -0.831  0.00  0.00    -0.229 OA
BRANCH  10  11
ATOM     11  C   UNL d   1       2.942   1.774  -0.396  0.00  0.00     0.089 A 
ATOM     12  C   UNL d   1       2.672   2.484   0.779  0.00  0.00     0.040 A 
ATOM     13  C   UNL d   1       3.458   3.583   1.135  0.00  0.00     0.026 A 
ATOM     14  C   UNL d   1       4.511   3.981   0.317  0.00  0.00     0.034 A 
ATOM     15  C   UNL d   1       4.785   3.288  -0.859  0.00  0.00     0.026 A 
ATOM     16 CL   UNL d   1       5.478   5.331   0.765  0.00  0.00    -0.084 Cl
ATOM     17  C   UNL d   1       3.999   2.186  -1.215  0.00  0.00     0.040 A 
ENDBRANCH  10  11
ENDBRANCH   7  10
ENDBRANCH   1   7
BRANCH   2  18
ATOM     18  N   UNL d   1      -0.813  -4.927  -2.859  0.00  0.00    -0.318 N 
ATOM     19  C   UNL d   1      -1.752  -4.998  -3.901  0.00  0.00     0.224 C 
ATOM     20  O   UNL d   1      -2.314  -4.095  -4.502  0.00  0.00    -0.273 OA
ATOM     21  C   UNL d   1      -2.027  -6.457  -4.183  0.00  0.00     0.105 C 
ATOM     22  C   UNL d   1      -0.850  -7.165  -3.547  0.00  0.00     0.029 C 
ATOM     23  C   UNL d   1      -0.461  -6.253  -2.404  0.00  0.00     0.133 C 
ENDBRANCH   2  18
TORSDOF 4
