REMARK  7 active torsions:
REMARK  status: ('A' for Active; 'I' for Inactive)
REMARK    1  A    between atoms: C_4  and  C_1 
REMARK    2  A    between atoms: O_6  and  C_2 
REMARK       I    between atoms: C_3  and  N_5 
REMARK    3  A    between atoms: C_7  and  C_3 
REMARK    4  A    between atoms: N_5  and  C_4 
REMARK    5  A    between atoms: C_12  and  O_6 
REMARK    6  A    between atoms: O_24  and  C_14 
REMARK    7  A    between atoms: O_23  and  C_15 
ROOT
ATOM      1  C   UNL d   1       0.246  -1.139  -0.152  0.00  0.00     0.032 A 
ATOM      2  C   UNL d   1      -1.159  -1.154  -0.200  0.00  0.00     0.087 A 
ATOM      3  C   UNL d   1       0.883   0.107  -0.047  0.00  0.00     0.127 A 
ATOM      4  F   UNL d   1       2.220   0.169   0.037  0.00  0.00    -0.205 F 
ATOM      5  C   UNL d   1      -1.870   0.064  -0.233  0.00  0.00     0.038 A 
ATOM      6  C   UNL d   1      -1.212   1.283  -0.095  0.00  0.00     0.006 A 
ATOM      7  C   UNL d   1       0.172   1.303   0.007  0.00  0.00     0.043 A 
ENDROOT
BRANCH   1   8
ATOM      8  C   UNL d   1       1.102  -2.377  -0.168  0.00  0.00     0.167 C 
BRANCH   8   9
ATOM      9  N   UNL d   1       1.597  -2.713  -1.496  0.00  0.00    -0.352 N 
ATOM     10  C   UNL d   1       2.927  -3.041  -1.704  0.00  0.00     0.251 C 
ATOM     11  O   UNL d   1       3.774  -2.944  -0.819  0.00  0.00    -0.268 OA
ATOM     12  H   UNL d   1       0.923  -2.772  -2.241  0.00  0.00     0.163 HD
BRANCH  10  13
ATOM     13  C   UNL d   1       3.337  -3.558  -3.043  0.00  0.00     0.032 A 
ATOM     14  C   UNL d   1       2.442  -4.095  -3.982  0.00  0.00     0.020 A 
ATOM     15  C   UNL d   1       2.915  -4.652  -5.182  0.00  0.00     0.038 A 
ATOM     16  C   UNL d   1       4.282  -4.689  -5.452  0.00  0.00     0.068 A 
ATOM     17  C   UNL d   1       5.174  -4.125  -4.542  0.00  0.00     0.038 A 
ATOM     18  C   UNL d   1       4.706  -3.575  -3.342  0.00  0.00     0.020 A 
BRANCH  16  19
ATOM     19  O   UNL d   1       4.861  -5.218  -6.575  0.00  0.00    -0.356 OA
ATOM     20  C   UNL d   1       4.138  -6.256  -7.223  0.00  0.00     0.210 C 
ENDBRANCH  16  19
ENDBRANCH  10  13
ENDBRANCH   8   9
ENDBRANCH   1   8
BRANCH   2  21
ATOM     21  O   UNL d   1      -1.820  -2.375  -0.213  0.00  0.00    -0.310 OA
BRANCH  21  22
ATOM     22  C   UNL d   1      -3.057  -2.435   0.407  0.00  0.00     0.076 A 
ATOM     23  C   UNL d   1      -4.098  -3.080  -0.265  0.00  0.00     0.040 A 
ATOM     24  C   UNL d   1      -5.399  -3.066   0.266  0.00  0.00     0.039 A 
ATOM     25  C   UNL d   1      -5.659  -2.402   1.466  0.00  0.00     0.068 A 
ATOM     26  C   UNL d   1      -4.599  -1.818   2.164  0.00  0.00     0.039 A 
ATOM     27  C   UNL d   1      -3.299  -1.861   1.658  0.00  0.00     0.040 A 
BRANCH  25  28
ATOM     28  O   UNL d   1      -6.879  -2.223   2.056  0.00  0.00    -0.356 OA
ATOM     29  C   UNL d   1      -8.008  -2.847   1.462  0.00  0.00     0.210 C 
ENDBRANCH  25  28
ENDBRANCH  21  22
ENDBRANCH   2  21
TORSDOF 7
