REMARK  3 active torsions:
REMARK  status: ('A' for Active; 'I' for Inactive)
REMARK    1  A    between atoms: C_10  and  C_3 
REMARK    2  A    between atoms: C_15  and  C_4 
REMARK    3  A    between atoms: C_7  and  C_14 
ROOT
ATOM      1  N   UNL d   1       0.754   0.301  -0.976  0.00  0.00    -0.319 N 
ATOM      2  HN  UNL d   1       1.351   0.532  -1.770  1.00  0.00     0.169 HD
ATOM      3  C   UNL d   1       0.256   1.138  -0.004  0.00  0.00     0.138 A 
ATOM      4  C   UNL d   1       0.271  -0.869  -0.627  0.00  0.00     0.182 A 
ATOM      5  N   UNL d   1      -0.496   0.515   0.919  0.00  0.00    -0.242 N 
ATOM      6  HN  UNL d   1      -0.963   0.920   1.730  1.00  0.00     0.196 HD
ATOM      7  O   UNL d   1      -0.488  -0.817   0.505  0.00  0.00    -0.217 OA
ENDROOT
BRANCH   3   8
ATOM      8  C   UNL d   1       0.543   2.566  -0.005  0.00  0.00     0.011 A 
ATOM      9  C   UNL d   1       0.049   3.404   1.006  0.00  0.00     0.029 A 
ATOM     10  C   UNL d   1       0.358   4.768   1.009  0.00  0.00    -0.002 A 
ATOM     11  C   UNL d   1      -0.157   5.652   2.045  0.00  0.00     0.013 C 
ATOM     12  C   UNL d   1       1.163   5.295  -0.005  0.00  0.00     0.080 A 
ATOM     13  C   UNL d   1       0.374   6.876   2.125  0.00  0.00     0.011 C 
ATOM     14  C   UNL d   1       1.466   7.346   1.185  0.00  0.00     0.078 C 
ATOM     15  O   UNL d   1       1.514   6.617  -0.063  0.00  0.00    -0.336 OA
ATOM     16  C   UNL d   1       2.836   7.213   1.861  0.00  0.00     0.051 C 
ATOM     17  C   UNL d   1       1.221   8.809   0.800  0.00  0.00     0.051 C 
ATOM     18  C   UNL d   1       1.631   4.483  -1.034  0.00  0.00     0.039 A 
ATOM     19  C   UNL d   1       1.329   3.121  -1.028  0.00  0.00     0.018 A 
ENDBRANCH   3   8
BRANCH   4  20
ATOM     20  C   UNL d   1       0.430  -2.159  -1.281  0.00  0.00     0.018 A 
ATOM     21  C   UNL d   1       1.256  -2.252  -2.413  0.00  0.00     0.032 A 
ATOM     22  C   UNL d   1       1.420  -3.465  -3.102  0.00  0.00     0.048 A 
ATOM     23  C   UNL d   1       0.747  -4.601  -2.633  0.00  0.00     0.016 A 
ATOM     24  C   UNL d   1      -0.071  -4.526  -1.505  0.00  0.00     0.002 A 
ATOM     25  C   UNL d   1      -0.229  -3.312  -0.833  0.00  0.00     0.016 A 
BRANCH  22  26
ATOM     26  C   UNL d   1       2.293  -3.550  -4.329  0.00  0.00     0.417 C 
ATOM     27  F   UNL d   1       2.868  -2.365  -4.675  0.00  0.00    -0.166 F 
ATOM     28  F   UNL d   1       3.320  -4.431  -4.177  0.00  0.00    -0.166 F 
ATOM     29  F   UNL d   1       1.603  -3.964  -5.428  0.00  0.00    -0.166 F 
ENDBRANCH  22  26
ENDBRANCH   4  20
TORSDOF 3
