REMARK  3 active torsions:
REMARK  status: ('A' for Active; 'I' for Inactive)
REMARK    1  A    between atoms: N_6  and  C_1 
REMARK    2  A    between atoms: C_15  and  C_4 
REMARK       I    between atoms: C_12  and  N_9 
REMARK    3  A    between atoms: C_13  and  N_10 
ROOT
ATOM      1  C   UNL d   1      -1.303  -0.786   0.005  0.00  0.00     0.240 A 
ATOM      2  N   UNL d   1      -0.643   1.259   0.992  0.00  0.00    -0.303 N 
ATOM      3  HN  UNL d   1      -0.606   2.240   1.269  1.00  0.00     0.186 HD
ATOM      4  C   UNL d   1      -1.552   0.685   0.258  0.00  0.00     0.041 A 
ATOM      5  C   UNL d   1      -0.043  -0.985   0.803  0.00  0.00     0.266 A 
ATOM      6  N   UNL d   1       0.254   0.272   1.315  0.00  0.00    -0.268 N 
ATOM      7  O   UNL d   1       0.595  -2.015   0.973  0.00  0.00    -0.269 OA
ATOM      8  H   UNL d   1       1.059   0.467   1.900  0.00  0.00     0.190 HD
ENDROOT
BRANCH   1   9
ATOM      9  N   UNL d   1      -1.000  -0.961  -1.416  0.00  0.00    -0.316 N 
ATOM     10  N   UNL d   1      -1.641  -1.901  -1.931  0.00  0.00    -0.301 N 
ATOM     11  HN  UNL d   1      -2.290  -2.499  -1.420  1.00  0.00     0.186 HD
ATOM     12  HN  UNL d   1      -0.339  -0.378  -1.930  1.00  0.00     0.181 HD
BRANCH  10  13
ATOM     13  C   UNL d   1      -1.357  -2.036  -3.308  0.00  0.00     0.086 A 
ATOM     14  C   UNL d   1      -2.403  -2.333  -4.195  0.00  0.00     0.147 A 
ATOM     15  C   UNL d   1      -2.185  -2.485  -5.562  0.00  0.00     0.086 A 
ATOM     16  F   UNL d   1      -3.654  -2.468  -3.729  0.00  0.00    -0.204 F 
ATOM     17  C   UNL d   1      -0.897  -2.348  -6.055  0.00  0.00     0.119 A 
ATOM     18  C   UNL d   1       0.170  -2.076  -5.207  0.00  0.00     0.045 A 
ATOM     19  F   UNL d   1      -0.676  -2.486  -7.369  0.00  0.00    -0.206 F 
ATOM     20  C   UNL d   1      -0.059  -1.927  -3.836  0.00  0.00     0.037 A 
ENDBRANCH  10  13
ENDBRANCH   1   9
BRANCH   4  21
ATOM     21  C   UNL d   1      -2.776   1.383  -0.292  0.00  0.00     0.038 C 
ATOM     22  C   UNL d   1      -2.497   2.110  -1.605  0.00  0.00     0.030 C 
ATOM     23  C   UNL d   1      -1.857   3.477  -1.413  0.00  0.00     0.126 C 
ATOM     24  N   UNL d   1      -2.581   4.310  -0.460  0.00  0.00    -0.352 N 
ATOM     25  C   UNL d   1      -2.850   3.702   0.839  0.00  0.00     0.126 C 
ATOM     26  C   UNL d   1      -2.524   5.687  -0.672  0.00  0.00     0.215 C 
ATOM     27  C   UNL d   1      -3.444   2.296   0.739  0.00  0.00     0.030 C 
ATOM     28  O   UNL d   1      -2.228   6.175  -1.765  0.00  0.00    -0.274 OA
ATOM     29  C   UNL d   1      -2.848   6.611   0.478  0.00  0.00     0.117 C 
ENDBRANCH   4  21
TORSDOF 3
