REMARK  4 active torsions:
REMARK  status: ('A' for Active; 'I' for Inactive)
REMARK       I    between atoms: N_5  and  C_1 
REMARK       I    between atoms: N_8  and  C_1 
REMARK       I    between atoms: C_2  and  N_4 
REMARK       I    between atoms: N_9  and  C_2 
REMARK    1  A    between atoms: N_4  and  C_6 
REMARK    2  A    between atoms: C_7  and  N_5 
REMARK    3  A    between atoms: C_13  and  N_8 
REMARK    4  A    between atoms: C_14  and  N_9 
ROOT
ATOM      1  C   UNL d   1       2.361  -2.374  -0.652  0.00  0.00     0.169 A 
ATOM      2  C   UNL d   1       2.896  -3.669  -0.535  0.00  0.00     0.077 A 
ATOM      3  C   UNL d   1       1.216  -2.109  -1.435  0.00  0.00     0.077 A 
ATOM      4  F   UNL d   1       3.022  -1.362  -0.082  0.00  0.00    -0.201 F 
ATOM      5  C   UNL d   1       2.325  -4.688  -1.312  0.00  0.00     0.033 A 
ATOM      6  C   UNL d   1       0.687  -3.155  -2.203  0.00  0.00     0.033 A 
ATOM      7  C   UNL d   1       1.244  -4.431  -2.152  0.00  0.00     0.005 A 
ENDROOT
BRANCH   2   8
ATOM      8  N   UNL d   1       3.954  -4.091   0.302  0.00  0.00    -0.306 N 
ATOM      9  C   UNL d   1       4.692  -3.569   1.323  0.00  0.00     0.325 C 
ATOM     10  N   UNL d   1       4.523  -2.270   1.668  0.00  0.00    -0.309 N 
ATOM     11  O   UNL d   1       5.442  -4.368   1.886  0.00  0.00    -0.247 OA
ATOM     12  H   UNL d   1       3.926  -1.717   1.071  0.00  0.00     0.170 HD
ATOM     13  H   UNL d   1       4.186  -5.077   0.246  0.00  0.00     0.171 HD
BRANCH  10  14
ATOM     14  C   UNL d   1       4.987  -1.615   2.828  0.00  0.00     0.036 A 
ATOM     15  C   UNL d   1       5.814  -2.208   3.785  0.00  0.00     0.029 A 
ATOM     16  C   UNL d   1       6.096  -1.548   4.985  0.00  0.00     0.002 A 
ATOM     17  C   UNL d   1       5.567  -0.283   5.229  0.00  0.00     0.000 A 
ATOM     18  C   UNL d   1       4.796   0.344   4.254  0.00  0.00     0.002 A 
ATOM     19  C   UNL d   1       4.516  -0.315   3.054  0.00  0.00     0.029 A 
ENDBRANCH  10  14
ENDBRANCH   2   8
BRANCH   3  20
ATOM     20  N   UNL d   1       0.509  -0.873  -1.506  0.00  0.00    -0.306 N 
ATOM     21  C   UNL d   1       0.629   0.206  -0.695  0.00  0.00     0.325 C 
ATOM     22  N   UNL d   1      -0.208   1.264  -0.831  0.00  0.00    -0.309 N 
ATOM     23  O   UNL d   1       1.454   0.328   0.216  0.00  0.00    -0.247 OA
ATOM     24  H   UNL d   1       0.102   1.954  -0.154  0.00  0.00     0.170 HD
ATOM     25  H   UNL d   1      -0.245  -0.842  -2.162  0.00  0.00     0.171 HD
BRANCH  22  26
ATOM     26  C   UNL d   1      -1.338   1.659  -1.569  0.00  0.00     0.036 A 
ATOM     27  C   UNL d   1      -2.039   0.915  -2.514  0.00  0.00     0.029 A 
ATOM     28  C   UNL d   1      -3.151   1.470  -3.175  0.00  0.00     0.002 A 
ATOM     29  C   UNL d   1      -3.580   2.763  -2.887  0.00  0.00     0.000 A 
ATOM     30  C   UNL d   1      -2.911   3.507  -1.928  0.00  0.00     0.002 A 
ATOM     31  C   UNL d   1      -1.804   2.957  -1.277  0.00  0.00     0.029 A 
ENDBRANCH  22  26
ENDBRANCH   3  20
TORSDOF 4
