REMARK  4 active torsions:
REMARK  status: ('A' for Active; 'I' for Inactive)
REMARK    1  A    between atoms: C_5  and  C_1 
REMARK    2  A    between atoms: N_10  and  C_2 
REMARK       I    between atoms: C_8  and  N_10 
REMARK       I    between atoms: N_11  and  C_8 
REMARK    3  A    between atoms: C_9  and  C_12 
REMARK    4  A    between atoms: C_22  and  N_11 
ROOT
ATOM      1  C   UNL d   1       2.532  -2.761   0.268  0.00  0.00     0.325 C 
ATOM      2  N   UNL d   1       2.429  -1.453  -0.179  0.00  0.00    -0.305 N 
ATOM      3  N   UNL d   1       1.354  -3.457   0.080  0.00  0.00    -0.309 N 
ATOM      4  O   UNL d   1       3.570  -3.221   0.734  0.00  0.00    -0.247 OA
ATOM      5  H   UNL d   1       1.815  -1.307  -0.967  0.00  0.00     0.171 HD
ATOM      6  H   UNL d   1       0.543  -2.908  -0.163  0.00  0.00     0.170 HD
ENDROOT
BRANCH   2   7
ATOM      7  C   UNL d   1       3.501  -0.577  -0.070  0.00  0.00     0.086 C 
ATOM      8  C   UNL d   1       4.519  -0.407   0.924  0.00  0.00     0.160 C 
ATOM      9  N   UNL d   1       5.422   0.513   0.512  0.00  0.00    -0.293 N 
ATOM     10  N   UNL d   1       4.980   0.905  -0.690  0.00  0.00    -0.305 N 
ATOM     11  HN  UNL d   1       6.254   0.835   1.006  1.00  0.00     0.187 HD
ATOM     12  C   UNL d   1       5.810   1.754  -1.511  0.00  0.00     0.177 C 
ATOM     13  C   UNL d   1       3.779   0.363  -1.036  0.00  0.00     0.141 C 
BRANCH   8  14
ATOM     14  C   UNL d   1       4.638  -1.052   2.287  0.00  0.00     0.436 C 
ATOM     15  F   UNL d   1       3.454  -1.537   2.758  0.00  0.00    -0.165 F 
ATOM     16  F   UNL d   1       5.543  -2.065   2.324  0.00  0.00    -0.165 F 
ATOM     17  F   UNL d   1       5.045  -0.151   3.232  0.00  0.00    -0.165 F 
ENDBRANCH   8  14
ENDBRANCH   2   7
BRANCH   3  18
ATOM     18  C   UNL d   1       1.129  -4.821   0.367  0.00  0.00     0.036 A 
ATOM     19  C   UNL d   1       2.125  -5.698   0.804  0.00  0.00     0.030 A 
ATOM     20  C   UNL d   1       1.825  -7.028   1.112  0.00  0.00     0.018 A 
ATOM     21  C   UNL d   1       0.520  -7.514   0.982  0.00  0.00     0.048 A 
ATOM     22  C   UNL d   1      -0.474  -6.645   0.510  0.00  0.00     0.018 A 
ATOM     23  C   UNL d   1      -0.172  -5.312   0.206  0.00  0.00     0.030 A 
BRANCH  21  24
ATOM     24  C   UNL d   1       0.183  -8.939   1.342  0.00  0.00     0.417 C 
ATOM     25  F   UNL d   1       1.224  -9.630   1.884  0.00  0.00    -0.166 F 
ATOM     26  F   UNL d   1      -0.830  -9.019   2.250  0.00  0.00    -0.166 F 
ATOM     27  F   UNL d   1      -0.226  -9.665   0.264  0.00  0.00    -0.166 F 
ENDBRANCH  21  24
ENDBRANCH   3  18
TORSDOF 4
