REMARK  3 active torsions:
REMARK  status: ('A' for Active; 'I' for Inactive)
REMARK    1  A    between atoms: O_2  and  S_1 
REMARK    2  A    between atoms: C_3  and  S_1 
REMARK    3  A    between atoms: C_8  and  O_2 
ROOT
ATOM      1  S   UNL d   1       1.009   0.082  -0.030  0.00  0.00     0.303 S 
ATOM      2  O   UNL d   1       0.387  -0.669  -1.103  0.00  0.00    -0.193 OA
ATOM      3  O   UNL d   1       2.438   0.328  -0.006  0.00  0.00    -0.193 OA
ENDROOT
BRANCH   1   4
ATOM      4  O   UNL d   1       0.555  -0.584   1.392  0.00  0.00    -0.229 OA
BRANCH   4   5
ATOM      5  C   UNL d   1       0.882  -1.879   1.710  0.00  0.00     0.091 A 
ATOM      6  C   UNL d   1       2.026  -2.539   1.259  0.00  0.00     0.063 A 
ATOM      7  C   UNL d   1       2.282  -3.858   1.654  0.00  0.00     0.058 A 
ATOM      8 CL   UNL d   1       3.718  -4.610   1.054  0.00  0.00    -0.082 Cl
ATOM      9  C   UNL d   1       1.394  -4.518   2.510  0.00  0.00     0.056 A 
ATOM     10  C   UNL d   1       0.258  -3.850   2.975  0.00  0.00     0.028 A 
ATOM     11 CL   UNL d   1       1.646  -6.144   3.034  0.00  0.00    -0.083 Cl
ATOM     12  C   UNL d   1       0.007  -2.533   2.581  0.00  0.00     0.040 A 
ENDBRANCH   4   5
ENDBRANCH   1   4
BRANCH   1  13
ATOM     13  C   UNL d   1       0.254   1.694  -0.024  0.00  0.00     0.086 A 
ATOM     14  C   UNL d   1       0.130   2.400   1.177  0.00  0.00     0.027 A 
ATOM     15  C   UNL d   1      -0.451   3.671   1.164  0.00  0.00     0.025 A 
ATOM     16  C   UNL d   1      -0.902   4.220  -0.038  0.00  0.00     0.034 A 
ATOM     17  C   UNL d   1      -0.778   3.510  -1.234  0.00  0.00     0.025 A 
ATOM     18 CL   UNL d   1      -1.612   5.786  -0.047  0.00  0.00    -0.084 Cl
ATOM     19  C   UNL d   1      -0.201   2.239  -1.230  0.00  0.00     0.027 A 
ENDBRANCH   1  13
TORSDOF 3
