REMARK  4 active torsions:
REMARK  status: ('A' for Active; 'I' for Inactive)
REMARK    1  A    between atoms: C_2  and  S_1 
REMARK    2  A    between atoms: N_8  and  S_1 
REMARK    3  A    between atoms: C_6  and  C_3 
REMARK       I    between atoms: N_9  and  C_6 
REMARK    4  A    between atoms: C_13  and  N_9 
ROOT
ATOM      1  C   UNL d   1       0.717   1.498   0.927  0.00  0.00     0.186 A 
ATOM      2  C   UNL d   1       0.556   3.714   1.453  0.00  0.00     0.065 A 
ATOM      3  C   UNL d   1       1.221   2.760   0.630  0.00  0.00     0.070 A 
ATOM      4  O   UNL d   1      -0.209   1.644   1.931  0.00  0.00    -0.301 OA
ATOM      5  C   UNL d   1      -0.281   2.959   2.263  0.00  0.00     0.066 A 
ATOM      6  C   UNL d   1      -1.196   3.306   3.374  0.00  0.00     0.078 C 
ENDROOT
BRANCH   2   7
ATOM      7  C   UNL d   1       0.669   5.173   1.534  0.00  0.00     0.258 C 
ATOM      8  N   UNL d   1       1.531   5.742   0.612  0.00  0.00    -0.323 N 
ATOM      9  H   UNL d   1       1.914   5.135  -0.099  0.00  0.00     0.169 HD
ATOM     10  O   UNL d   1       0.001   5.802   2.347  0.00  0.00    -0.267 OA
BRANCH   8  11
ATOM     11  C   UNL d   1       1.921   7.097   0.542  0.00  0.00     0.035 A 
ATOM     12  C   UNL d   1       1.607   8.047   1.521  0.00  0.00     0.032 A 
ATOM     13  C   UNL d   1       2.076   9.360   1.417  0.00  0.00     0.044 A 
ATOM     14  C   UNL d   1       2.853   9.727   0.329  0.00  0.00     0.116 A 
ATOM     15  C   UNL d   1       3.167   8.806  -0.662  0.00  0.00     0.044 A 
ATOM     16  F   UNL d   1       3.313  10.982   0.237  0.00  0.00    -0.206 F 
ATOM     17  C   UNL d   1       2.704   7.491  -0.554  0.00  0.00     0.032 A 
ENDBRANCH   8  11
ENDBRANCH   2   7
BRANCH   1  18
ATOM     18  S   UNL d   1       1.061  -0.113   0.185  0.00  0.00     0.266 S 
ATOM     19  O   UNL d   1       1.321  -0.995   1.301  0.00  0.00    -0.204 OA
ATOM     20  O   UNL d   1       2.072   0.172  -0.815  0.00  0.00    -0.204 OA
BRANCH  18  21
ATOM     21  N   UNL d   1      -0.347  -0.630  -0.612  0.00  0.00    -0.205 NA
ATOM     22  C   UNL d   1      -0.808   0.170  -1.765  0.00  0.00     0.107 C 
ATOM     23  C   UNL d   1      -1.980   0.963  -1.216  0.00  0.00     0.017 C 
ATOM     24  C   UNL d   1      -2.650  -0.017  -0.271  0.00  0.00     0.017 C 
ATOM     25  C   UNL d   1      -1.529  -0.921   0.241  0.00  0.00     0.107 C 
ENDBRANCH  18  21
ENDBRANCH   1  18
TORSDOF 4
