REMARK  7 active torsions:
REMARK  status: ('A' for Active; 'I' for Inactive)
REMARK    1  A    between atoms: N_4  and  S_1 
REMARK    2  A    between atoms: C_16  and  S_1 
REMARK    3  A    between atoms: C_6  and  C_2 
REMARK    4  A    between atoms: C_7  and  N_4 
REMARK    5  A    between atoms: C_8  and  C_6 
REMARK    6  A    between atoms: C_9  and  O_17 
REMARK    7  A    between atoms: O_17  and  C_23 
ROOT
ATOM      1  C   UNL d   1       3.696   0.721   1.510  0.00  0.00     0.106 C 
ATOM      2  C   UNL d   1       2.799  -0.072   0.899  0.00  0.00     0.123 C 
ATOM      3  C   UNL d   1       5.097   0.513   1.422  0.00  0.00     0.104 C 
ATOM      4  N   UNL d   1       6.250   0.396   1.398  0.00  0.00    -0.191 NA
ENDROOT
BRANCH   1   5
ATOM      5  C   UNL d   1       3.135   1.838   2.321  0.00  0.00     0.175 C 
ATOM      6  O   UNL d   1       1.926   2.001   2.454  0.00  0.00    -0.291 OA
BRANCH   5   7
ATOM      7  C   UNL d   1       4.095   2.787   2.967  0.00  0.00     0.061 A 
ATOM      8  C   UNL d   1       3.614   3.836   3.946  0.00  0.00     0.013 A 
ATOM      9  C   UNL d   1       4.050   4.245   2.570  0.00  0.00     0.013 A 
ENDBRANCH   5   7
ENDBRANCH   1   5
BRANCH   2  10
ATOM     10  N   UNL d   1       3.221  -1.231   0.162  0.00  0.00    -0.322 N 
ATOM     11  HN  UNL d   1       4.216  -1.450   0.102  1.00  0.00     0.175 HD
BRANCH  10  12
ATOM     12  S   UNL d   1       2.196  -2.158  -0.542  0.00  0.00     0.052 S 
ATOM     13  O   UNL d   1       1.249  -1.701  -1.540  0.00  0.00    -0.245 OA
ATOM     14  C   UNL d   1       1.263  -2.999   0.719  0.00  0.00     0.142 C 
BRANCH  12  15
ATOM     15  C   UNL d   1       3.150  -3.482  -1.274  0.00  0.00     0.038 A 
ATOM     16  C   UNL d   1       4.344  -3.871  -0.661  0.00  0.00     0.024 A 
ATOM     17  C   UNL d   1       5.104  -4.904  -1.210  0.00  0.00     0.039 A 
ATOM     18  C   UNL d   1       4.705  -5.518  -2.403  0.00  0.00     0.076 A 
ATOM     19  C   UNL d   1       3.501  -5.137  -3.004  0.00  0.00     0.039 A 
ATOM     20  C   UNL d   1       2.723  -4.111  -2.447  0.00  0.00     0.024 A 
BRANCH  18  21
ATOM     21  O   UNL d   1       5.425  -6.521  -3.027  0.00  0.00    -0.309 OA
BRANCH  21  22
ATOM     22  C   UNL d   1       6.807  -6.486  -2.980  0.00  0.00     0.100 A 
ATOM     23  C   UNL d   1       7.519  -7.696  -2.946  0.00  0.00     0.117 A 
ATOM     24  C   UNL d   1       6.863  -8.967  -3.043  0.00  0.00     0.105 C 
ATOM     25  C   UNL d   1       8.909  -7.659  -2.830  0.00  0.00     0.139 A 
ATOM     26  N   UNL d   1       6.349 -10.003  -3.135  0.00  0.00    -0.191 NA
ATOM     27  F   UNL d   1       9.617  -8.796  -2.770  0.00  0.00    -0.204 F 
ATOM     28  C   UNL d   1       9.600  -6.451  -2.765  0.00  0.00     0.044 A 
ATOM     29  C   UNL d   1       8.902  -5.253  -2.865  0.00  0.00     0.006 A 
ATOM     30  C   UNL d   1       7.516  -5.273  -3.005  0.00  0.00     0.039 A 
ENDBRANCH  21  22
ENDBRANCH  18  21
ENDBRANCH  12  15
ENDBRANCH  10  12
ENDBRANCH   2  10
TORSDOF 7
