REMARK  1 active torsions:
REMARK  status: ('A' for Active; 'I' for Inactive)
REMARK    1  A    between atoms: C_4  and  C_1 
ROOT
ATOM      1  C   UNL d   1      -1.480   0.611   0.026  0.00  0.00     0.118 A 
ATOM      2  N   UNL d   1      -1.420  -0.693   0.013  0.00  0.00    -0.297 N 
ATOM      3  HN  UNL d   1      -2.206  -1.344   0.009  1.00  0.00     0.186 HD
ATOM      4  C   UNL d   1      -0.135   1.276   0.029  0.00  0.00     0.168 A 
ATOM      5  N   UNL d   1      -0.089  -1.008   0.006  0.00  0.00    -0.270 N 
ATOM      6  C   UNL d   1       0.766   0.081   0.015  0.00  0.00     0.241 A 
ATOM      7  O   UNL d   1       1.982   0.073   0.012  0.00  0.00    -0.271 OA
ATOM      8  H   UNL d   1       0.222  -1.974  -0.003  0.00  0.00     0.190 HD
ENDROOT
BRANCH   1   9
ATOM      9  C   UNL d   1      -2.731   1.432   0.039  0.00  0.00     0.430 C 
ATOM     10  F   UNL d   1      -2.463   2.767   0.042  0.00  0.00    -0.165 F 
ATOM     11  F   UNL d   1      -3.515   1.204  -1.047  0.00  0.00    -0.165 F 
ATOM     12  F   UNL d   1      -3.497   1.196   1.136  0.00  0.00    -0.165 F 
ENDBRANCH   1   9
TORSDOF 1
