REMARK  7 active torsions:
REMARK  status: ('A' for Active; 'I' for Inactive)
REMARK    1  A    between atoms: C_7  and  C_2 
REMARK    2  A    between atoms: C_10  and  N_3 
REMARK    3  A    between atoms: O_19  and  C_7 
REMARK    4  A    between atoms: C_8  and  N_14 
REMARK    5  A    between atoms: N_18  and  C_8 
REMARK    6  A    between atoms: N_11  and  C_9 
REMARK    7  A    between atoms: N_14  and  N_11 
ROOT
ATOM      1  C   UNL d   1       1.012  -0.894   0.006  0.00  0.00     0.091 A 
ATOM      2  C   UNL d   1      -0.328  -1.278   0.013  0.00  0.00     0.086 A 
ATOM      3  N   UNL d   1       1.013   0.492   0.073  0.00  0.00    -0.255 N 
ATOM      4  N   UNL d   1      -0.242   0.990   0.217  0.00  0.00    -0.303 N 
ATOM      5  HN  UNL d   1      -0.512   1.959   0.385  1.00  0.00     0.186 HD
ATOM      6  C   UNL d   1      -1.041  -0.068   0.088  0.00  0.00     0.127 A 
ATOM      7  C   UNL d   1       2.184  -1.730   0.001  0.00  0.00     0.139 C 
ENDROOT
BRANCH   2   8
ATOM      8  C   UNL d   1      -0.861  -2.624   0.049  0.00  0.00     0.296 C 
ATOM      9  O   UNL d   1      -0.257  -3.584   0.515  0.00  0.00    -0.259 OA
BRANCH   8  10
ATOM     10  O   UNL d   1      -2.132  -2.714  -0.436  0.00  0.00    -0.322 OA
ATOM     11  C   UNL d   1      -2.649  -4.049  -0.372  0.00  0.00     0.213 C 
ENDBRANCH   8  10
ENDBRANCH   2   8
BRANCH   3  12
ATOM     12  C   UNL d   1       2.113   1.392  -0.018  0.00  0.00     0.057 A 
ATOM     13  C   UNL d   1       3.254   1.071  -0.762  0.00  0.00     0.033 A 
ATOM     14  C   UNL d   1       4.310   1.982  -0.851  0.00  0.00     0.026 A 
ATOM     15  C   UNL d   1       4.228   3.210  -0.198  0.00  0.00     0.034 A 
ATOM     16  C   UNL d   1       3.097   3.539   0.546  0.00  0.00     0.026 A 
ATOM     17 CL   UNL d   1       5.523   4.334  -0.334  0.00  0.00    -0.084 Cl
ATOM     18  C   UNL d   1       2.030   2.639   0.625  0.00  0.00     0.033 A 
ENDBRANCH   3  12
BRANCH   7  19
ATOM     19  N   UNL d   1       2.153  -2.872  -0.599  0.00  0.00    -0.307 N 
ATOM     20  HN  UNL d   1       1.323  -3.190  -1.100  1.00  0.00     0.186 HD
BRANCH  19  21
ATOM     21  N   UNL d   1       3.283  -3.635  -0.532  0.00  0.00    -0.277 N 
ATOM     22  H   UNL d   1       4.097  -3.333  -0.006  0.00  0.00     0.189 HD
BRANCH  21  23
ATOM     23  C   UNL d   1       3.288  -4.894  -1.074  0.00  0.00     0.184 C 
ATOM     24  S   UNL d   1       4.606  -5.897  -1.005  0.00  0.00    -0.040 SA
BRANCH  23  25
ATOM     25  N   UNL d   1       2.134  -5.262  -1.685  0.00  0.00    -0.375 N 
ATOM     26  H   UNL d   1       1.324  -4.710  -1.418  0.00  0.00     0.158 HD
ATOM     27  H   UNL d   1       2.003  -6.220  -1.973  0.00  0.00     0.158 HD
ENDBRANCH  23  25
ENDBRANCH  21  23
ENDBRANCH  19  21
ENDBRANCH   7  19
TORSDOF 7
