REMARK  6 active torsions:
REMARK  status: ('A' for Active; 'I' for Inactive)
REMARK    1  A    between atoms: N_3  and  C_1 
REMARK       I    between atoms: C_10  and  N_3 
REMARK    2  A    between atoms: S_19  and  C_4 
REMARK    3  A    between atoms: C_14  and  C_10 
REMARK    4  A    between atoms: C_12  and  N_13 
REMARK       I    between atoms: N_13  and  C_15 
REMARK    5  A    between atoms: C_15  and  C_29 
REMARK    6  A    between atoms: C_29  and  S_19 
ROOT
ATOM      1  C   UNL d   1       0.120   1.075   0.157  0.00  0.00     0.168 A 
ATOM      2  S   UNL d   1       1.129   0.119   1.145  0.00  0.00    -0.026 SA
ATOM      3  C   UNL d   1       0.109  -1.208   0.779  0.00  0.00     0.130 A 
ATOM      4  N   UNL d   1      -0.917   0.433  -0.336  0.00  0.00    -0.278 N 
ATOM      5  HN  UNL d   1      -1.642   0.871  -0.905  1.00  0.00     0.189 HD
ATOM      6  N   UNL d   1      -0.909  -0.910   0.010  0.00  0.00    -0.286 N 
ATOM      7  HN  UNL d   1      -1.610  -1.585  -0.298  1.00  0.00     0.188 HD
ENDROOT
BRANCH   3   8
ATOM      8  S   UNL d   1       0.401  -2.817   1.399  0.00  0.00    -0.094 SA
BRANCH   8   9
ATOM      9  C   UNL d   1      -0.037  -3.806  -0.060  0.00  0.00     0.184 C 
BRANCH   9  10
ATOM     10  C   UNL d   1       0.355  -5.277   0.056  0.00  0.00     0.231 C 
ATOM     11  N   UNL d   1       0.543  -5.772   1.331  0.00  0.00    -0.324 N 
ATOM     12  H   UNL d   1       0.123  -5.247   2.095  0.00  0.00     0.169 HD
ATOM     13  O   UNL d   1       0.416  -5.975  -0.957  0.00  0.00    -0.272 OA
BRANCH  11  14
ATOM     14  C   UNL d   1       1.013  -7.066   1.639  0.00  0.00     0.077 A 
ATOM     15  C   UNL d   1       0.572  -7.668   2.822  0.00  0.00     0.184 A 
ATOM     16  C   UNL d   1       1.006  -8.938   3.180  0.00  0.00     0.195 A 
ATOM     17  F   UNL d   1      -0.318  -7.023   3.596  0.00  0.00    -0.200 F 
ATOM     18  F   UNL d   1       0.531  -9.523   4.289  0.00  0.00    -0.199 F 
ATOM     19  C   UNL d   1       1.929  -9.599   2.383  0.00  0.00     0.158 A 
ATOM     20  C   UNL d   1       2.405  -9.009   1.214  0.00  0.00     0.048 A 
ATOM     21  F   UNL d   1       2.378 -10.811   2.734  0.00  0.00    -0.203 F 
ATOM     22  C   UNL d   1       1.933  -7.747   0.832  0.00  0.00     0.036 A 
ENDBRANCH  11  14
ENDBRANCH   9  10
ENDBRANCH   8   9
ENDBRANCH   3   8
BRANCH   1  23
ATOM     23  N   UNL d   1       0.347   2.412  -0.089  0.00  0.00    -0.302 N 
ATOM     24  C   UNL d   1       1.516   3.090   0.188  0.00  0.00     0.257 C 
ATOM     25  O   UNL d   1       2.531   2.638   0.697  0.00  0.00    -0.267 OA
ATOM     26  H   UNL d   1      -0.370   2.841  -0.657  0.00  0.00     0.171 HD
BRANCH  24  27
ATOM     27  C   UNL d   1       1.550   4.508  -0.263  0.00  0.00     0.034 A 
ATOM     28  C   UNL d   1       0.439   5.350  -0.144  0.00  0.00     0.042 A 
ATOM     29  C   UNL d   1       0.524   6.679  -0.579  0.00  0.00     0.056 A 
ATOM     30 CL   UNL d   1      -0.881   7.668  -0.397  0.00  0.00    -0.083 Cl
ATOM     31  C   UNL d   1       1.716   7.168  -1.131  0.00  0.00     0.055 A 
ATOM     32  C   UNL d   1       2.830   6.331  -1.229  0.00  0.00     0.026 A 
ATOM     33 CL   UNL d   1       1.875   8.788  -1.708  0.00  0.00    -0.083 Cl
ATOM     34  C   UNL d   1       2.749   5.008  -0.790  0.00  0.00     0.019 A 
ENDBRANCH  24  27
ENDBRANCH   1  23
TORSDOF 6
