REMARK  5 active torsions:
REMARK  status: ('A' for Active; 'I' for Inactive)
REMARK    1  A    between atoms: O_8  and  C_1 
REMARK    2  A    between atoms: C_14  and  C_4 
REMARK    3  A    between atoms: O_25  and  C_5 
REMARK    4  A    between atoms: C_11  and  O_8 
REMARK    5  A    between atoms: C_9  and  C_13 
ROOT
ATOM      1  C   UNL d   1      -0.795   1.135  -0.083  0.00  0.00     0.149 A 
ATOM      2  N   UNL d   1      -0.675  -1.266  -0.321  0.00  0.00    -0.320 N 
ATOM      3  HN  UNL d   1      -1.141  -2.161  -0.471  1.00  0.00     0.169 HD
ATOM      4  C   UNL d   1       0.653  -1.173  -0.119  0.00  0.00     0.117 A 
ATOM      5  C   UNL d   1      -1.345  -0.107  -0.313  0.00  0.00     0.178 A 
ATOM      6  N   UNL d   1       1.312  -0.008   0.051  0.00  0.00    -0.343 N 
ATOM      7  HN  UNL d   1       2.324   0.012   0.177  1.00  0.00     0.167 HD
ATOM      8  C   UNL d   1       0.582   1.134   0.048  0.00  0.00     0.045 A 
ATOM      9  C   UNL d   1       1.346   2.419   0.178  0.00  0.00     0.071 C 
ENDROOT
BRANCH   4  10
ATOM     10  C   UNL d   1       1.435  -2.426  -0.095  0.00  0.00     0.008 A 
ATOM     11  C   UNL d   1       2.832  -2.421   0.080  0.00  0.00     0.016 A 
ATOM     12  C   UNL d   1       3.578  -3.607   0.082  0.00  0.00     0.017 A 
ATOM     13  C   UNL d   1       2.946  -4.845  -0.091  0.00  0.00     0.048 A 
ATOM     14  C   UNL d   1       1.555  -4.870  -0.249  0.00  0.00     0.017 A 
ATOM     15  C   UNL d   1       0.817  -3.681  -0.250  0.00  0.00     0.016 A 
BRANCH  13  16
ATOM     16  C   UNL d   1       3.731  -6.133  -0.118  0.00  0.00     0.417 C 
ATOM     17  F   UNL d   1       5.074  -5.959   0.023  0.00  0.00    -0.166 F 
ATOM     18  F   UNL d   1       3.359  -6.990   0.873  0.00  0.00    -0.166 F 
ATOM     19  F   UNL d   1       3.565  -6.817  -1.284  0.00  0.00    -0.166 F 
ENDBRANCH  13  16
ENDBRANCH   4  10
BRANCH   5  20
ATOM     20  O   UNL d   1      -2.668  -0.272  -0.573  0.00  0.00    -0.344 OA
ATOM     21  H   UNL d   1      -2.709  -1.236  -0.707  0.00  0.00     0.219 HD
ENDBRANCH   5  20
BRANCH   1  22
ATOM     22  O   UNL d   1      -1.464   2.325  -0.061  0.00  0.00    -0.303 OA
BRANCH  22  23
ATOM     23  C   UNL d   1      -2.647   2.435   0.643  0.00  0.00     0.098 A 
ATOM     24  C   UNL d   1      -3.580   3.380   0.192  0.00  0.00     0.069 A 
ATOM     25  C   UNL d   1      -4.798   3.550   0.853  0.00  0.00     0.050 A 
ATOM     26 CL   UNL d   1      -3.258   4.370  -1.189  0.00  0.00    -0.081 Cl
ATOM     27  C   UNL d   1      -5.081   2.777   1.976  0.00  0.00     0.035 A 
ATOM     28  C   UNL d   1      -4.149   1.860   2.458  0.00  0.00     0.026 A 
ATOM     29 CL   UNL d   1      -6.590   2.961   2.781  0.00  0.00    -0.084 Cl
ATOM     30  C   UNL d   1      -2.923   1.703   1.806  0.00  0.00     0.041 A 
ENDBRANCH  22  23
ENDBRANCH   1  22
TORSDOF 5
