REMARK  9 active torsions:
REMARK  status: ('A' for Active; 'I' for Inactive)
REMARK    1  A    between atoms: C_6  and  C_1 
REMARK    2  A    between atoms: N_7  and  C_2 
REMARK    3  A    between atoms: C_9  and  C_4 
REMARK    4  A    between atoms: O_22  and  C_6 
REMARK       I    between atoms: C_8  and  N_7 
REMARK    5  A    between atoms: C_20  and  C_8 
REMARK    6  A    between atoms: C_10  and  C_21 
REMARK    7  A    between atoms: O_23  and  C_10 
REMARK    8  A    between atoms: C_11  and  C_12 
REMARK    9  A    between atoms: C_21  and  C_20 
ROOT
ATOM      1  C   UNL d   1       0.116   1.375  -0.049  0.00  0.00     0.107 A 
ATOM      2  C   UNL d   1       1.414   0.922  -0.203  0.00  0.00     0.059 A 
ATOM      3  S   UNL d   1      -0.989   0.075   0.052  0.00  0.00    -0.081 SA
ATOM      4  C   UNL d   1       0.233  -1.121  -0.072  0.00  0.00     0.018 A 
ATOM      5  C   UNL d   1       1.468  -0.514  -0.235  0.00  0.00     0.051 A 
ENDROOT
BRANCH   2   6
ATOM      6  N   UNL d   1       2.521   1.768  -0.272  0.00  0.00    -0.326 N 
ATOM      7  C   UNL d   1       3.590   1.524  -1.110  0.00  0.00     0.222 C 
ATOM      8  O   UNL d   1       3.658   0.630  -1.952  0.00  0.00    -0.273 OA
ATOM      9  H   UNL d   1       2.362   2.734   0.000  0.00  0.00     0.169 HD
BRANCH   7  10
ATOM     10  C   UNL d   1       4.713   2.535  -0.965  0.00  0.00     0.113 C 
BRANCH  10  11
ATOM     11  C   UNL d   1       5.347   2.826  -2.319  0.00  0.00     0.119 C 
BRANCH  11  12
ATOM     12  C   UNL d   1       4.355   3.526  -3.211  0.00  0.00     0.139 C 
ATOM     13  O   UNL d   1       4.208   4.739  -3.237  0.00  0.00    -0.650 OA
BRANCH  12  14
ATOM     14  O   UNL d   1       3.585   2.680  -3.931  0.00  0.00    -0.776 OA
ATOM     15  H   UNL d   1       3.724   1.728  -3.721  0.00  0.00     0.167 HD
ENDBRANCH  12  14
ENDBRANCH  11  12
ENDBRANCH  10  11
ENDBRANCH   7  10
ENDBRANCH   2   6
BRANCH   1  16
ATOM     16  C   UNL d   1      -0.452   2.710  -0.047  0.00  0.00     0.302 C 
ATOM     17  O   UNL d   1      -1.577   3.014   0.353  0.00  0.00    -0.259 OA
BRANCH  16  18
ATOM     18  O   UNL d   1       0.408   3.606  -0.616  0.00  0.00    -0.322 OA
ATOM     19  C   UNL d   1      -0.189   4.878  -0.888  0.00  0.00     0.213 C 
ENDBRANCH  16  18
ENDBRANCH   1  16
BRANCH   4  20
ATOM     20  C   UNL d   1      -0.130  -2.554  -0.021  0.00  0.00    -0.019 A 
ATOM     21  C   UNL d   1       0.655  -3.527  -0.649  0.00  0.00     0.013 A 
ATOM     22  C   UNL d   1       0.279  -4.883  -0.635  0.00  0.00     0.009 A 
ATOM     23  C   UNL d   1      -0.898  -5.319   0.000  0.00  0.00    -0.051 A 
ATOM     24  C   UNL d   1      -1.659  -4.343   0.654  0.00  0.00     0.009 A 
ATOM     25  C   UNL d   1      -1.280  -2.995   0.648  0.00  0.00     0.013 A 
BRANCH  23  26
ATOM     26  C   UNL d   1      -1.330  -6.795  -0.052  0.00  0.00    -0.024 C 
ATOM     27  C   UNL d   1      -2.672  -7.073   0.668  0.00  0.00     0.019 C 
ATOM     28  C   UNL d   1      -1.509  -7.231  -1.522  0.00  0.00     0.019 C 
ATOM     29  C   UNL d   1      -0.264  -7.689   0.614  0.00  0.00     0.019 C 
ENDBRANCH  23  26
ENDBRANCH   4  20
TORSDOF 9
