REMARK  1 active torsions:
REMARK  status: ('A' for Active; 'I' for Inactive)
REMARK    1  A    between atoms: C_10  and  C_4 
ROOT
ATOM      1  C   UNL d   1      -1.124  -0.867   0.077  0.00  0.00     0.048 A 
ATOM      2  C   UNL d   1      -0.687   0.394   0.063  0.00  0.00     0.058 A 
ATOM      3  C   UNL d   1       0.048  -1.754   0.109  0.00  0.00     0.194 A 
ATOM      4  C   UNL d   1      -2.552  -1.242   0.018  0.00  0.00     0.157 C 
ATOM      5  N   UNL d   1      -1.557   1.434   0.026  0.00  0.00    -0.332 N 
ATOM      6  C   UNL d   1      -2.912   1.253   0.051  0.00  0.00     0.173 C 
ATOM      7  C   UNL d   1       0.758   0.441   0.052  0.00  0.00     0.006 A 
ATOM      8  N   UNL d   1      -3.373  -0.030   0.119  0.00  0.00    -0.354 N 
ATOM      9  C   UNL d   1       1.222  -0.874   0.066  0.00  0.00     0.027 A 
ATOM     10  S   UNL d   1      -3.958   2.543   0.013  0.00  0.00    -0.041 SA
ATOM     11  O   UNL d   1       0.052  -2.963   0.180  0.00  0.00    -0.287 OA
ATOM     12  C   UNL d   1       1.657   1.492   0.018  0.00  0.00     0.014 A 
ATOM     13  C   UNL d   1       2.564  -1.202   0.041  0.00  0.00     0.016 A 
ATOM     14  C   UNL d   1       3.026   1.189  -0.003  0.00  0.00     0.001 A 
ATOM     15  C   UNL d   1       3.475  -0.145   0.006  0.00  0.00     0.001 A 
ATOM     16  H   UNL d   1      -1.216   2.389  -0.007  0.00  0.00     0.168 HD
ATOM     17  H   UNL d   1      -4.378  -0.149   0.094  0.00  0.00     0.163 HD
ENDROOT
BRANCH   4  18
ATOM     18  C   UNL d   1      -2.911  -2.000  -1.247  0.00  0.00    -0.031 A 
ATOM     19  C   UNL d   1      -3.408  -3.308  -1.174  0.00  0.00     0.010 A 
ATOM     20  C   UNL d   1      -3.628  -4.050  -2.337  0.00  0.00     0.007 A 
ATOM     21  C   UNL d   1      -3.356  -3.498  -3.594  0.00  0.00    -0.062 A 
ATOM     22  C   UNL d   1      -2.921  -2.173  -3.675  0.00  0.00     0.007 A 
ATOM     23  C   UNL d   1      -3.473  -4.344  -4.827  0.00  0.00     0.048 C 
ATOM     24  C   UNL d   1      -2.707  -1.429  -2.515  0.00  0.00     0.010 A 
ENDBRANCH   4  18
TORSDOF 1
