REMARK  4 active torsions:
REMARK  status: ('A' for Active; 'I' for Inactive)
REMARK    1  A    between atoms: C_7  and  C_1 
REMARK    2  A    between atoms: C_6  and  C_2 
REMARK    3  A    between atoms: C_8  and  C_3 
REMARK    4  A    between atoms: C_9  and  C_4 
ROOT
ATOM      1  C   UNL d   1       1.500   0.748  -0.032  0.00  0.00     0.005 A 
ATOM      2  C   UNL d   1       1.493  -0.729   0.023  0.00  0.00     0.005 A 
ATOM      3  C   UNL d   1       0.208   1.264  -0.101  0.00  0.00     0.028 A 
ATOM      4  C   UNL d   1       0.194  -1.247   0.039  0.00  0.00     0.028 A 
ATOM      5  S   UNL d   1      -0.964   0.017  -0.044  0.00  0.00    -0.087 SA
ENDROOT
BRANCH   1   6
ATOM      6  C   UNL d   1       2.700   1.615  -0.037  0.00  0.00    -0.024 A 
ATOM      7  C   UNL d   1       3.785   1.325  -0.875  0.00  0.00     0.012 A 
ATOM      8  C   UNL d   1       4.919   2.141  -0.886  0.00  0.00     0.001 A 
ATOM      9  C   UNL d   1       4.959   3.291  -0.102  0.00  0.00     0.000 A 
ATOM     10  C   UNL d   1       3.883   3.603   0.724  0.00  0.00     0.001 A 
ATOM     11  C   UNL d   1       2.777   2.751   0.784  0.00  0.00     0.012 A 
ENDBRANCH   1   6
BRANCH   2  12
ATOM     12  C   UNL d   1       2.683  -1.604   0.068  0.00  0.00    -0.024 A 
ATOM     13  C   UNL d   1       3.725  -1.341   0.968  0.00  0.00     0.012 A 
ATOM     14  C   UNL d   1       4.862  -2.154   1.004  0.00  0.00     0.001 A 
ATOM     15  C   UNL d   1       4.947  -3.273   0.180  0.00  0.00     0.000 A 
ATOM     16  C   UNL d   1       3.913  -3.560  -0.706  0.00  0.00     0.001 A 
ATOM     17  C   UNL d   1       2.804  -2.712  -0.786  0.00  0.00     0.012 A 
ENDBRANCH   2  12
BRANCH   3  18
ATOM     18  C   UNL d   1      -0.285   2.668  -0.212  0.00  0.00    -0.018 A 
ATOM     19  C   UNL d   1       0.356   3.594  -1.051  0.00  0.00     0.013 A 
ATOM     20  C   UNL d   1      -0.001   4.947  -1.046  0.00  0.00     0.001 A 
ATOM     21  C   UNL d   1      -1.052   5.385  -0.245  0.00  0.00     0.000 A 
ATOM     22  C   UNL d   1      -1.749   4.472   0.541  0.00  0.00     0.001 A 
ATOM     23  C   UNL d   1      -1.364   3.127   0.564  0.00  0.00     0.013 A 
ENDBRANCH   3  18
BRANCH   4  24
ATOM     24  C   UNL d   1      -0.310  -2.645   0.106  0.00  0.00    -0.018 A 
ATOM     25  C   UNL d   1       0.313  -3.604   0.922  0.00  0.00     0.013 A 
ATOM     26  C   UNL d   1      -0.055  -4.953   0.867  0.00  0.00     0.001 A 
ATOM     27  C   UNL d   1      -1.099  -5.360   0.041  0.00  0.00     0.000 A 
ATOM     28  C   UNL d   1      -1.782  -4.416  -0.719  0.00  0.00     0.001 A 
ATOM     29  C   UNL d   1      -1.385  -3.075  -0.694  0.00  0.00     0.013 A 
ENDBRANCH   4  24
TORSDOF 4
