REMARK  2 active torsions:
REMARK  status: ('A' for Active; 'I' for Inactive)
REMARK    1  A    between atoms: S_16  and  C_5 
REMARK    2  A    between atoms: C_15  and  C_7 
ROOT
ATOM      1  C   UNL d   1       1.395  -0.365  -0.013  0.00  0.00     0.107 A 
ATOM      2  C   UNL d   1       0.325  -1.407   0.012  0.00  0.00     0.089 A 
ATOM      3  N   UNL d   1      -0.257   1.402  -0.046  0.00  0.00    -0.335 N 
ATOM      4  HN  UNL d   1      -0.471   2.398  -0.093  1.00  0.00     0.168 HD
ATOM      5  C   UNL d   1       1.055   0.956  -0.043  0.00  0.00     0.094 A 
ATOM      6  N   UNL d   1      -0.963  -0.846   0.044  0.00  0.00    -0.339 N 
ATOM      7  C   UNL d   1      -1.208   0.514   0.013  0.00  0.00     0.117 A 
ATOM      8  C   UNL d   1       0.534  -2.755   0.004  0.00  0.00     0.152 C 
ATOM      9  C   UNL d   1       2.780  -0.724   0.001  0.00  0.00     0.104 C 
ATOM     10  C   UNL d   1       1.804  -3.401  -0.011  0.00  0.00     0.113 C 
ATOM     11  C   UNL d   1      -0.575  -3.651   0.015  0.00  0.00     0.113 C 
ATOM     12  N   UNL d   1       3.910  -1.004   0.014  0.00  0.00    -0.191 NA
ATOM     13  N   UNL d   1      -1.511  -4.336   0.020  0.00  0.00    -0.191 NA
ATOM     14  N   UNL d   1       2.816  -3.966  -0.017  0.00  0.00    -0.191 NA
ATOM     15  H   UNL d   1      -1.762  -1.470  -0.023  0.00  0.00     0.167 HD
ENDROOT
BRANCH   5  16
ATOM     16  S   UNL d   1       2.374   2.149  -0.071  0.00  0.00    -0.115 SA
ATOM     17  C   UNL d   1       1.502   3.711  -0.121  0.00  0.00     0.097 C 
ENDBRANCH   5  16
BRANCH   7  18
ATOM     18  C   UNL d   1      -2.629   1.012   0.043  0.00  0.00     0.008 A 
ATOM     19  C   UNL d   1      -2.957   2.215  -0.600  0.00  0.00     0.015 A 
ATOM     20  C   UNL d   1      -4.272   2.693  -0.583  0.00  0.00     0.001 A 
ATOM     21  C   UNL d   1      -5.266   1.980   0.086  0.00  0.00     0.000 A 
ATOM     22  C   UNL d   1      -4.944   0.790   0.742  0.00  0.00     0.001 A 
ATOM     23  C   UNL d   1      -3.630   0.304   0.722  0.00  0.00     0.015 A 
ENDBRANCH   7  18
TORSDOF 2
