REMARK  4 active torsions:
REMARK  status: ('A' for Active; 'I' for Inactive)
REMARK    1  A    between atoms: N_2  and  S_1 
REMARK    2  A    between atoms: C_4  and  S_1 
REMARK    3  A    between atoms: C_3  and  C_6 
REMARK    4  A    between atoms: C_6  and  N_5 
ROOT
ATOM      1  N   UNL d   1       0.325   1.427   0.361  0.00  0.00    -0.205 NA
ATOM      2  N   UNL d   1       0.292   4.545  -0.490  0.00  0.00     0.093 N 
ATOM      3  C   UNL d   1       1.485   2.366   0.201  0.00  0.00     0.138 C 
ATOM      4  C   UNL d   1       1.171   3.845   0.450  0.00  0.00     0.288 C 
ATOM      5  C   UNL d   1      -1.681   2.908  -0.107  0.00  0.00     0.046 C 
ATOM      6  C   UNL d   1      -0.831   1.721  -0.544  0.00  0.00     0.109 C 
ATOM      7  C   UNL d   1      -1.115   4.331  -0.171  0.00  0.00     0.274 C 
ENDROOT
BRANCH   1   8
ATOM      8  S   UNL d   1       0.847  -0.228   0.151  0.00  0.00     0.243 S 
ATOM      9  O   UNL d   1       1.753  -0.258  -0.984  0.00  0.00    -0.206 OA
ATOM     10  O   UNL d   1      -0.320  -1.087   0.195  0.00  0.00    -0.206 OA
BRANCH   8  11
ATOM     11  C   UNL d   1       1.774  -0.582   1.619  0.00  0.00     0.075 A 
ATOM     12  C   UNL d   1       1.122  -0.487   2.852  0.00  0.00     0.037 A 
ATOM     13  C   UNL d   1       1.769  -0.905   4.022  0.00  0.00    -0.025 A 
ATOM     14  C   UNL d   1       1.128  -0.827   5.268  0.00  0.00     0.012 A 
ATOM     15  C   UNL d   1       3.079  -1.433   3.944  0.00  0.00    -0.026 A 
ATOM     16  C   UNL d   1       1.764  -1.277   6.424  0.00  0.00     0.001 A 
ATOM     17  C   UNL d   1       3.043  -1.821   6.348  0.00  0.00     0.001 A 
ATOM     18  C   UNL d   1       3.696  -1.900   5.117  0.00  0.00     0.012 A 
ATOM     19  C   UNL d   1       3.726  -1.496   2.697  0.00  0.00     0.014 A 
ATOM     20  C   UNL d   1       3.079  -1.067   1.534  0.00  0.00     0.026 A 
ENDBRANCH   8  11
ENDBRANCH   1   8
BRANCH   2  21
ATOM     21  C   UNL d   1       0.577   4.416  -1.925  0.00  0.00     0.315 C 
BRANCH  21  22
ATOM     22  C   UNL d   1       1.935   4.879  -2.395  0.00  0.00     0.030 A 
ATOM     23  C   UNL d   1       2.819   3.940  -2.948  0.00  0.00     0.126 A 
ATOM     24  F   UNL d   1       2.470   2.647  -3.010  0.00  0.00    -0.205 F 
ATOM     25  C   UNL d   1       4.054   4.301  -3.479  0.00  0.00     0.043 A 
ATOM     26  C   UNL d   1       4.433   5.638  -3.485  0.00  0.00     0.005 A 
ATOM     27  C   UNL d   1       3.572   6.596  -2.950  0.00  0.00     0.024 A 
ATOM     28  C   UNL d   1       2.332   6.222  -2.409  0.00  0.00     0.045 A 
ATOM     29 CL   UNL d   1       1.310   7.486  -1.825  0.00  0.00    -0.084 Cl
ENDBRANCH  21  22
ENDBRANCH   2  21
TORSDOF 4
