REMARK  5 active torsions:
REMARK  status: ('A' for Active; 'I' for Inactive)
REMARK    1  A    between atoms: C_8  and  N_1 
REMARK    2  A    between atoms: C_9  and  C_2 
REMARK    3  A    between atoms: S_12  and  C_5 
REMARK    4  A    between atoms: C_10  and  C_11 
REMARK    5  A    between atoms: C_22  and  C_13 
ROOT
ATOM      1  N   UNL d   1      -0.315  -1.268  -0.030  0.00  0.00    -0.275 N 
ATOM      2  C   UNL d   1       0.943  -0.644  -0.017  0.00  0.00     0.139 A 
ATOM      3  N   UNL d   1       0.767   0.666   0.015  0.00  0.00    -0.282 N 
ATOM      4  HN  UNL d   1       1.509   1.362   0.088  1.00  0.00     0.188 HD
ATOM      5  C   UNL d   1      -1.208  -0.208  -0.102  0.00  0.00     0.165 A 
ATOM      6  N   UNL d   1      -0.568   0.936  -0.064  0.00  0.00    -0.278 N 
ATOM      7  HN  UNL d   1      -0.992   1.863  -0.088  1.00  0.00     0.189 HD
ENDROOT
BRANCH   2   8
ATOM      8  C   UNL d   1       2.268  -1.271  -0.093  0.00  0.00     0.010 A 
ATOM      9  C   UNL d   1       2.533  -2.383  -0.898  0.00  0.00     0.016 A 
ATOM     10  C   UNL d   1       3.798  -2.984  -0.898  0.00  0.00     0.009 A 
ATOM     11  C   UNL d   1       4.862  -2.464  -0.135  0.00  0.00    -0.051 A 
ATOM     12  C   UNL d   1       4.601  -1.309   0.616  0.00  0.00     0.009 A 
ATOM     13  C   UNL d   1       3.329  -0.722   0.635  0.00  0.00     0.016 A 
BRANCH  11  14
ATOM     14  C   UNL d   1       6.231  -3.167  -0.141  0.00  0.00    -0.024 C 
ATOM     15  C   UNL d   1       7.306  -2.437   0.694  0.00  0.00     0.019 C 
ATOM     16  C   UNL d   1       6.080  -4.587   0.445  0.00  0.00     0.019 C 
ATOM     17  C   UNL d   1       6.768  -3.269  -1.585  0.00  0.00     0.019 C 
ENDBRANCH  11  14
ENDBRANCH   2   8
BRANCH   1  18
ATOM     18  C   UNL d   1      -0.584  -2.666   0.026  0.00  0.00     0.043 A 
ATOM     19  C   UNL d   1       0.186  -3.497   0.852  0.00  0.00     0.031 A 
ATOM     20  C   UNL d   1       0.002  -4.883   0.830  0.00  0.00     0.010 A 
ATOM     21  C   UNL d   1      -0.969  -5.466   0.006  0.00  0.00    -0.055 A 
ATOM     22  C   UNL d   1      -1.765  -4.624  -0.785  0.00  0.00     0.010 A 
ATOM     23  C   UNL d   1      -1.570  -3.238  -0.785  0.00  0.00     0.031 A 
BRANCH  21  24
ATOM     24  C   UNL d   1      -1.153  -6.972  -0.071  0.00  0.00     0.010 C 
ATOM     25  C   UNL d   1       0.089  -7.654  -0.652  0.00  0.00     0.015 C 
ATOM     26  C   UNL d   1      -1.520  -7.575   1.286  0.00  0.00     0.015 C 
ENDBRANCH  21  24
ENDBRANCH   1  18
BRANCH   5  27
ATOM     27  S   UNL d   1      -2.942  -0.290  -0.061  0.00  0.00    -0.105 SA
ATOM     28  H   UNL d   1      -3.105  -1.532   0.409  0.00  0.00     0.110 HD
ENDBRANCH   5  27
TORSDOF 5
