REMARK  4 active torsions:
REMARK  status: ('A' for Active; 'I' for Inactive)
REMARK    1  A    between atoms: C_3  and  S_1 
REMARK    2  A    between atoms: C_8  and  S_1 
REMARK    3  A    between atoms: C_6  and  C_3 
REMARK    4  A    between atoms: C_5  and  N_7 
REMARK       I    between atoms: N_7  and  C_6 
ROOT
ATOM      1  C   UNL d   1       0.805   2.356   1.269  0.00  0.00     0.236 C 
ATOM      2  N   UNL d   1       2.074   2.077   1.742  0.00  0.00    -0.324 N 
ATOM      3  O   UNL d   1       0.094   3.264   1.702  0.00  0.00    -0.272 OA
ATOM      4  H   UNL d   1       2.675   1.488   1.159  0.00  0.00     0.169 HD
ENDROOT
BRANCH   1   5
ATOM      5  C   UNL d   1       0.314   1.634   0.049  0.00  0.00     0.248 C 
BRANCH   5   6
ATOM      6  S   UNL d   1       0.937   0.029  -0.236  0.00  0.00     0.183 S 
ATOM      7  O   UNL d   1       2.359   0.030   0.082  0.00  0.00    -0.222 OA
ATOM      8  O   UNL d   1       0.499  -0.338  -1.572  0.00  0.00    -0.222 OA
BRANCH   6   9
ATOM      9  C   UNL d   1       0.158  -1.116   0.872  0.00  0.00     0.059 A 
ATOM     10  C   UNL d   1      -0.406  -0.732   2.087  0.00  0.00     0.024 A 
ATOM     11  C   UNL d   1      -1.074  -1.686   2.864  0.00  0.00     0.008 A 
ATOM     12  C   UNL d   1      -1.187  -3.015   2.430  0.00  0.00    -0.062 A 
ATOM     13  C   UNL d   1      -0.592  -3.392   1.223  0.00  0.00     0.008 A 
ATOM     14  C   UNL d   1      -1.966  -4.011   3.240  0.00  0.00     0.048 C 
ATOM     15  C   UNL d   1       0.076  -2.448   0.445  0.00  0.00     0.024 A 
ENDBRANCH   6   9
ENDBRANCH   5   6
ENDBRANCH   1   5
BRANCH   2  16
ATOM     16  C   UNL d   1       2.717   2.771   2.801  0.00  0.00     0.077 A 
ATOM     17  C   UNL d   1       2.044   3.450   3.830  0.00  0.00     0.184 A 
ATOM     18  C   UNL d   1       2.742   4.242   4.735  0.00  0.00     0.195 A 
ATOM     19  F   UNL d   1       0.730   3.282   4.030  0.00  0.00    -0.200 F 
ATOM     20  F   UNL d   1       2.080   4.915   5.687  0.00  0.00    -0.199 F 
ATOM     21  C   UNL d   1       4.123   4.326   4.659  0.00  0.00     0.158 A 
ATOM     22  C   UNL d   1       4.822   3.587   3.711  0.00  0.00     0.048 A 
ATOM     23  F   UNL d   1       4.799   5.108   5.512  0.00  0.00    -0.203 F 
ATOM     24  C   UNL d   1       4.121   2.799   2.788  0.00  0.00     0.036 A 
ENDBRANCH   2  16
TORSDOF 4
