REMARK  8 active torsions:
REMARK  status: ('A' for Active; 'I' for Inactive)
REMARK    1  A    between atoms: C_2  and  S_1 
REMARK    2  A    between atoms: N_7  and  S_1 
REMARK       I    between atoms: C_5  and  N_6 
REMARK    3  A    between atoms: C_18  and  C_5 
REMARK    4  A    between atoms: N_6  and  C_14 
REMARK    5  A    between atoms: C_8  and  C_19 
REMARK    6  A    between atoms: O_15  and  C_8 
REMARK    7  A    between atoms: S_13  and  C_18 
REMARK    8  A    between atoms: C_19  and  S_13 
ROOT
ATOM      1  C   UNL d   1       0.524   1.708   0.455  0.00  0.00     0.074 A 
ATOM      2  C   UNL d   1      -0.379   1.905   1.500  0.00  0.00     0.027 A 
ATOM      3  C   UNL d   1       1.051   2.795  -0.241  0.00  0.00     0.027 A 
ATOM      4  C   UNL d   1      -0.296   4.304   1.103  0.00  0.00     0.034 A 
ATOM      5  C   UNL d   1      -0.777   3.205   1.828  0.00  0.00     0.031 A 
ATOM      6  C   UNL d   1       0.636   4.088   0.083  0.00  0.00     0.031 A 
ENDROOT
BRANCH   4   7
ATOM      7  N   UNL d   1      -0.780   5.582   1.455  0.00  0.00    -0.327 N 
ATOM      8  C   UNL d   1      -0.624   6.746   0.729  0.00  0.00     0.231 C 
ATOM      9  O   UNL d   1      -0.083   6.847  -0.375  0.00  0.00    -0.272 OA
ATOM     10  H   UNL d   1      -1.348   5.628   2.294  0.00  0.00     0.169 HD
BRANCH   8  11
ATOM     11  C   UNL d   1      -1.143   7.993   1.422  0.00  0.00     0.177 C 
BRANCH  11  12
ATOM     12  S   UNL d   1       0.212   8.847   2.292  0.00  0.00    -0.149 SA
BRANCH  12  13
ATOM     13  C   UNL d   1       1.432   9.064   0.949  0.00  0.00     0.184 C 
BRANCH  13  14
ATOM     14  C   UNL d   1       0.908   9.909  -0.191  0.00  0.00     0.149 C 
ATOM     15  O   UNL d   1       0.911  11.132  -0.189  0.00  0.00    -0.649 OA
BRANCH  14  16
ATOM     16  O   UNL d   1       0.409   9.204  -1.233  0.00  0.00    -0.776 OA
ATOM     17  H   UNL d   1       0.396   8.223  -1.106  0.00  0.00     0.167 HD
ENDBRANCH  14  16
ENDBRANCH  13  14
ENDBRANCH  12  13
ENDBRANCH  11  12
ENDBRANCH   8  11
ENDBRANCH   4   7
BRANCH   1  18
ATOM     18  S   UNL d   1       0.998   0.074  -0.021  0.00  0.00     0.239 S 
ATOM     19  O   UNL d   1       0.170  -0.884   0.674  0.00  0.00    -0.206 OA
ATOM     20  O   UNL d   1       2.441  -0.003  -0.034  0.00  0.00    -0.206 OA
BRANCH  18  21
ATOM     21  N   UNL d   1       0.503   0.017  -1.624  0.00  0.00    -0.225 NA
ATOM     22  H   UNL d   1      -0.243  -0.671  -1.735  0.00  0.00     0.136 HD
ATOM     23  H   UNL d   1       1.306  -0.144  -2.232  0.00  0.00     0.136 HD
ENDBRANCH  18  21
ENDBRANCH   1  18
TORSDOF 8
