REMARK  6 active torsions:
REMARK  status: ('A' for Active; 'I' for Inactive)
REMARK    1  A    between atoms: C_3  and  S_1 
REMARK    2  A    between atoms: O_4  and  S_1 
REMARK    3  A    between atoms: S_2  and  C_3 
REMARK    4  A    between atoms: O_5  and  S_2 
REMARK    5  A    between atoms: C_10  and  O_4 
REMARK    6  A    between atoms: C_11  and  O_5 
ROOT
ATOM      1  C   UNL d   1       0.728   1.685   0.255  0.00  0.00     0.341 C 
ENDROOT
BRANCH   1   2
ATOM      2  S   UNL d   1       1.132   2.277   1.850  0.00  0.00     0.285 S 
ATOM      3  O   UNL d   1       0.283   1.629   2.831  0.00  0.00    -0.197 OA
ATOM      4  O   UNL d   1       2.571   2.347   2.000  0.00  0.00    -0.197 OA
BRANCH   2   5
ATOM      5  O   UNL d   1       0.574   3.800   1.631  0.00  0.00    -0.232 OA
BRANCH   5   6
ATOM      6  C   UNL d   1       0.736   4.759   2.604  0.00  0.00     0.089 A 
ATOM      7  C   UNL d   1       0.775   6.085   2.165  0.00  0.00     0.039 A 
ATOM      8  C   UNL d   1       0.948   7.127   3.082  0.00  0.00     0.021 A 
ATOM      9  C   UNL d   1       1.069   6.841   4.441  0.00  0.00     0.006 A 
ATOM     10  C   UNL d   1       1.004   5.523   4.888  0.00  0.00     0.021 A 
ATOM     11  I   UNL d   1       1.347   8.378   5.809  0.00  0.00    -0.045 I 
ATOM     12  C   UNL d   1       0.832   4.484   3.970  0.00  0.00     0.039 A 
ENDBRANCH   5   6
ENDBRANCH   2   5
ENDBRANCH   1   2
BRANCH   1  13
ATOM     13  S   UNL d   1       1.077  -0.028   0.126  0.00  0.00     0.285 S 
ATOM     14  O   UNL d   1       2.447  -0.285   0.511  0.00  0.00    -0.197 OA
ATOM     15  O   UNL d   1       0.584  -0.458  -1.171  0.00  0.00    -0.197 OA
BRANCH  13  16
ATOM     16  O   UNL d   1       0.049  -0.568   1.266  0.00  0.00    -0.232 OA
BRANCH  16  17
ATOM     17  C   UNL d   1       0.147  -1.831   1.785  0.00  0.00     0.089 A 
ATOM     18  C   UNL d   1      -0.142  -1.955   3.146  0.00  0.00     0.039 A 
ATOM     19  C   UNL d   1      -0.144  -3.212   3.754  0.00  0.00     0.021 A 
ATOM     20  C   UNL d   1       0.135  -4.344   2.990  0.00  0.00     0.006 A 
ATOM     21  C   UNL d   1       0.425  -4.224   1.631  0.00  0.00     0.021 A 
ATOM     22  I   UNL d   1       0.091  -6.223   3.878  0.00  0.00    -0.045 I 
ATOM     23  C   UNL d   1       0.430  -2.964   1.024  0.00  0.00     0.039 A 
ENDBRANCH  16  17
ENDBRANCH  13  16
ENDBRANCH   1  13
TORSDOF 6
