REMARK  5 active torsions:
REMARK  status: ('A' for Active; 'I' for Inactive)
REMARK    1  A    between atoms: C_14  and  N_2 
REMARK       I    between atoms: C_3  and  N_10 
REMARK       I    between atoms: N_5  and  C_3 
REMARK    2  A    between atoms: C_8  and  N_5 
REMARK    3  A    between atoms: N_10  and  C_16 
REMARK    4  A    between atoms: S_13  and  C_11 
REMARK    5  A    between atoms: C_16  and  C_14 
ROOT
ATOM      1  C   UNL d   1      -3.622  -4.051  -1.215  0.00  0.00     0.320 C 
ATOM      2  N   UNL d   1      -4.433  -2.940  -1.255  0.00  0.00    -0.309 N 
ATOM      3  O   UNL d   1      -3.978  -5.222  -1.240  0.00  0.00    -0.247 OA
ATOM      4  N   UNL d   1      -2.293  -3.697  -1.125  0.00  0.00    -0.341 N 
ATOM      5  H   UNL d   1      -3.990  -2.069  -0.991  0.00  0.00     0.170 HD
ATOM      6  H   UNL d   1      -2.024  -2.843  -1.592  0.00  0.00     0.164 HD
ENDROOT
BRANCH   4   7
ATOM      7  C   UNL d   1      -1.264  -4.731  -1.098  0.00  0.00     0.144 C 
BRANCH   7   8
ATOM      8  C   UNL d   1      -1.079  -5.441  -2.450  0.00  0.00     0.147 C 
BRANCH   8   9
ATOM      9  N   UNL d   1      -0.793  -4.516  -3.536  0.00  0.00    -0.331 N 
ATOM     10  C   UNL d   1       0.364  -3.744  -3.607  0.00  0.00     0.318 C 
ATOM     11  N   UNL d   1       0.413  -3.187  -4.875  0.00  0.00    -0.341 N 
ATOM     12  O   UNL d   1       1.187  -3.560  -2.729  0.00  0.00    -0.247 OA
ATOM     13  C   UNL d   1      -0.797  -3.470  -5.599  0.00  0.00     0.144 C 
ATOM     14  H   UNL d   1       1.088  -2.464  -5.084  0.00  0.00     0.164 HD
ATOM     15  C   UNL d   1      -1.364  -4.672  -4.857  0.00  0.00     0.147 C 
ENDBRANCH   8   9
ENDBRANCH   7   8
ENDBRANCH   4   7
BRANCH   2  16
ATOM     16  C   UNL d   1      -5.832  -2.911  -1.457  0.00  0.00     0.037 A 
ATOM     17  C   UNL d   1      -6.579  -4.042  -1.802  0.00  0.00     0.048 A 
ATOM     18  C   UNL d   1      -7.956  -3.964  -2.043  0.00  0.00     0.002 A 
ATOM     19  C   UNL d   1      -8.589  -2.724  -1.914  0.00  0.00     0.018 A 
ATOM     20  C   UNL d   1      -7.860  -1.588  -1.558  0.00  0.00     0.004 A 
ATOM     21  C   UNL d   1      -6.486  -1.681  -1.335  0.00  0.00     0.029 A 
BRANCH  18  22
ATOM     22  S   UNL d   1      -8.972  -5.358  -2.529  0.00  0.00    -0.134 SA
ATOM     23  C   UNL d   1      -7.774  -6.716  -2.666  0.00  0.00     0.095 C 
ENDBRANCH  18  22
ENDBRANCH   2  16
TORSDOF 5
