REMARK  3 active torsions:
REMARK  status: ('A' for Active; 'I' for Inactive)
REMARK    1  A    between atoms: C_2  and  N_1 
REMARK    2  A    between atoms: C_7  and  C_3 
REMARK    3  A    between atoms: O_15  and  C_7 
ROOT
ATOM      1  C   UNL d   1      -1.964  -2.040  -0.086  0.00  0.00     0.060 C 
ATOM      2  C   UNL d   1      -2.203  -3.082   0.796  0.00  0.00     0.107 C 
ATOM      3  S   UNL d   1      -3.585  -3.994   0.335  0.00  0.00    -0.094 SA
ATOM      4  C   UNL d   1      -3.036  -1.898  -1.025  0.00  0.00     0.038 C 
ATOM      5  C   UNL d   1      -3.962  -2.911  -0.928  0.00  0.00     0.053 C 
ENDROOT
BRANCH   1   6
ATOM      6  N   UNL d   1      -0.865  -1.217  -0.072  0.00  0.00    -0.315 N 
ATOM      7  C   UNL d   1      -0.797   0.128  -0.190  0.00  0.00     0.234 A 
ATOM      8  O   UNL d   1      -1.634   0.985  -0.359  0.00  0.00    -0.272 OA
ATOM      9  C   UNL d   1       0.744   0.092   0.028  0.00  0.00     0.051 A 
ATOM     10  C   UNL d   1       0.547  -1.449   0.176  0.00  0.00     0.150 A 
ATOM     11  C   UNL d   1       1.512   0.570  -1.198  0.00  0.00     0.027 C 
ATOM     12  C   UNL d   1       1.236   0.750   1.313  0.00  0.00     0.027 C 
ENDBRANCH   1   6
BRANCH   2  13
ATOM     13  C   UNL d   1      -1.562  -3.420   2.050  0.00  0.00     0.302 C 
ATOM     14  O   UNL d   1      -1.490  -4.537   2.555  0.00  0.00    -0.259 OA
BRANCH  13  15
ATOM     15  O   UNL d   1      -1.107  -2.284   2.655  0.00  0.00    -0.322 OA
ATOM     16  C   UNL d   1      -0.568  -2.464   3.963  0.00  0.00     0.213 C 
ENDBRANCH  13  15
ENDBRANCH   2  13
TORSDOF 3
