REMARK  5 active torsions:
REMARK  status: ('A' for Active; 'I' for Inactive)
REMARK    1  A    between atoms: S_6  and  C_1 
REMARK    2  A    between atoms: C_12  and  S_6 
REMARK    3  A    between atoms: O_15  and  N_7 
REMARK    4  A    between atoms: C_9  and  C_10 
REMARK    5  A    between atoms: C_14  and  C_12 
ROOT
ATOM      1  C   UNL d   1       0.010   1.290  -0.187  0.00  0.00     0.144 A 
ATOM      2  N   UNL d   1      -1.173   0.886  -0.667  0.00  0.00    -0.336 N 
ATOM      3  HN  UNL d   1      -1.866   1.543  -1.025  1.00  0.00     0.168 HD
ATOM      4  N   UNL d   1       0.961   0.468   0.289  0.00  0.00    -0.347 N 
ATOM      5  HN  UNL d   1       1.850   0.828   0.638  1.00  0.00     0.167 HD
ATOM      6  C   UNL d   1      -1.387  -0.445  -0.645  0.00  0.00     0.052 A 
ATOM      7  C   UNL d   1       0.690  -0.851   0.286  0.00  0.00     0.092 A 
ATOM      8  C   UNL d   1      -0.489  -1.374  -0.174  0.00  0.00     0.048 A 
ENDROOT
BRANCH   1   9
ATOM      9  S   UNL d   1       0.381   3.026  -0.185  0.00  0.00    -0.089 SA
BRANCH   9  10
ATOM     10  C   UNL d   1      -1.299   3.695   0.007  0.00  0.00     0.121 C 
BRANCH  10  11
ATOM     11  C   UNL d   1      -1.298   5.206   0.062  0.00  0.00    -0.048 A 
ATOM     12  C   UNL d   1      -1.417   5.960  -1.117  0.00  0.00     0.009 A 
ATOM     13  C   UNL d   1      -1.399   7.356  -1.074  0.00  0.00     0.024 A 
ATOM     14  C   UNL d   1      -1.256   8.010   0.148  0.00  0.00     0.034 A 
ATOM     15  C   UNL d   1      -1.140   7.278   1.328  0.00  0.00     0.024 A 
ATOM     16 CL   UNL d   1      -1.216   9.729   0.198  0.00  0.00    -0.084 Cl
ATOM     17  C   UNL d   1      -1.160   5.881   1.286  0.00  0.00     0.009 A 
ENDBRANCH  10  11
ENDBRANCH   9  10
ENDBRANCH   1   9
BRANCH   6  18
ATOM     18  C   UNL d   1      -2.702  -0.865  -1.169  0.00  0.00     0.143 C 
ATOM     19  N   UNL d   1      -3.081  -2.104  -1.183  0.00  0.00    -0.278 N 
ATOM     20  HN  UNL d   1      -2.533  -2.898  -0.851  1.00  0.00     0.193 HD
BRANCH  19  21
ATOM     21  O   UNL d   1      -4.369  -2.174  -1.728  0.00  0.00    -0.290 OA
ATOM     22  H   UNL d   1      -4.565  -3.129  -1.692  0.00  0.00     0.244 HD
ENDBRANCH  19  21
ENDBRANCH   6  18
TORSDOF 5
