REMARK  5 active torsions:
REMARK  status: ('A' for Active; 'I' for Inactive)
REMARK    1  A    between atoms: C_4  and  C_1 
REMARK    2  A    between atoms: N_14  and  C_4 
REMARK    3  A    between atoms: O_12  and  N_6 
REMARK    4  A    between atoms: C_8  and  O_12 
REMARK       I    between atoms: N_11  and  C_8 
REMARK    5  A    between atoms: C_15  and  N_11 
ROOT
ATOM      1  C   UNL d   1      -2.562  -1.352  -0.386  0.00  0.00     0.127 C 
ATOM      2  N   UNL d   1      -3.788  -0.930  -0.344  0.00  0.00    -0.243 N 
ATOM      3  HN  UNL d   1      -4.586  -1.495  -0.634  1.00  0.00     0.196 HD
ENDROOT
BRANCH   2   4
ATOM      4  O   UNL d   1      -3.905   0.384   0.141  0.00  0.00    -0.179 OA
BRANCH   4   5
ATOM      5  C   UNL d   1      -5.218   0.765   0.075  0.00  0.00     0.387 C 
ATOM      6  N   UNL d   1      -5.752   1.268   1.233  0.00  0.00    -0.301 N 
ATOM      7  H   UNL d   1      -6.755   1.362   1.151  0.00  0.00     0.171 HD
ATOM      8  O   UNL d   1      -5.929   0.626  -0.920  0.00  0.00    -0.236 OA
BRANCH   6   9
ATOM      9  C   UNL d   1      -5.178   1.518   2.491  0.00  0.00     0.037 A 
ATOM     10  C   UNL d   1      -3.805   1.611   2.736  0.00  0.00     0.031 A 
ATOM     11  C   UNL d   1      -3.330   1.905   4.021  0.00  0.00     0.026 A 
ATOM     12  C   UNL d   1      -4.226   2.102   5.068  0.00  0.00     0.034 A 
ATOM     13  C   UNL d   1      -5.595   2.000   4.844  0.00  0.00     0.026 A 
ATOM     14 CL   UNL d   1      -3.640   2.487   6.638  0.00  0.00    -0.084 Cl
ATOM     15  C   UNL d   1      -6.067   1.717   3.559  0.00  0.00     0.031 A 
ENDBRANCH   6   9
ENDBRANCH   4   5
ENDBRANCH   2   4
BRANCH   1  16
ATOM     16  C   UNL d   1      -1.357  -0.545  -0.180  0.00  0.00     0.097 A 
ATOM     17  N   UNL d   1      -0.245  -1.100   0.339  0.00  0.00    -0.258 N 
ATOM     18  O   UNL d   1       0.700  -0.094   0.390  0.00  0.00    -0.242 OA
ATOM     19  HN  UNL d   1      -0.125  -2.069   0.635  1.00  0.00     0.195 HD
ATOM     20  C   UNL d   1       0.172   1.052  -0.113  0.00  0.00     0.074 A 
ATOM     21  C   UNL d   1      -1.122   0.819  -0.500  0.00  0.00     0.069 A 
ATOM     22  C   UNL d   1       1.058   2.229  -0.136  0.00  0.00     0.079 C 
ENDBRANCH   1  16
BRANCH   1  23
ATOM     23  N   UNL d   1      -2.287  -2.675  -0.619  0.00  0.00    -0.285 NA
ATOM     24  H   UNL d   1      -1.415  -2.993  -0.200  0.00  0.00     0.125 HD
ATOM     25  H   UNL d   1      -3.077  -3.275  -0.409  0.00  0.00     0.125 HD
ENDBRANCH   1  23
TORSDOF 5
