REMARK  4 active torsions:
REMARK  status: ('A' for Active; 'I' for Inactive)
REMARK    1  A    between atoms: C_3  and  C_1 
REMARK    2  A    between atoms: O_9  and  C_2 
REMARK    3  A    between atoms: O_16  and  C_3 
REMARK    4  A    between atoms: C_10  and  O_9 
ROOT
ATOM      1  C   UNL d   1       0.783   0.785   1.138  0.00  0.00     0.049 C 
ATOM      2  C   UNL d   1      -1.501   0.415   0.095  0.00  0.00     0.072 C 
ATOM      3  C   UNL d   1      -0.723   1.093   1.243  0.00  0.00     0.059 C 
ATOM      4  C   UNL d   1       0.959  -0.750   1.267  0.00  0.00     0.025 C 
ATOM      5  C   UNL d   1       1.309   1.220  -0.250  0.00  0.00     0.025 C 
ATOM      6  C   UNL d   1       0.187  -1.479   0.155  0.00  0.00    -0.010 C 
ATOM      7  C   UNL d   1       0.560   0.481  -1.372  0.00  0.00    -0.010 C 
ATOM      8  C   UNL d   1      -0.935   0.824  -1.284  0.00  0.00     0.043 C 
ATOM      9  C   UNL d   1      -1.305  -1.113   0.243  0.00  0.00     0.043 C 
ATOM     10  C   UNL d   1       0.743  -1.034  -1.206  0.00  0.00     0.009 C 
ENDROOT
BRANCH   1  11
ATOM     11  C   UNL d   1       1.557   1.495   2.248  0.00  0.00     0.148 C 
ATOM     12  O   UNL d   1       2.240   0.921   3.085  0.00  0.00    -0.649 OA
BRANCH  11  13
ATOM     13  O   UNL d   1       1.440   2.841   2.246  0.00  0.00    -0.776 OA
ATOM     14  H   UNL d   1       0.871   3.216   1.547  0.00  0.00     0.167 HD
ENDBRANCH  11  13
ENDBRANCH   1  11
BRANCH   2  15
ATOM     15  O   UNL d   1      -2.921   0.671   0.189  0.00  0.00    -0.310 OA
BRANCH  15  16
ATOM     16  C   UNL d   1      -3.382   1.949   0.110  0.00  0.00     0.255 C 
ATOM     17  O   UNL d   1      -2.695   2.952  -0.038  0.00  0.00    -0.266 OA
ATOM     18  C   UNL d   1      -4.872   1.992   0.240  0.00  0.00     0.126 C 
ENDBRANCH  15  16
ENDBRANCH   2  15
TORSDOF 4
