REMARK  4 active torsions:
REMARK  status: ('A' for Active; 'I' for Inactive)
REMARK    1  A    between atoms: N_3  and  C_1 
REMARK    2  A    between atoms: O_10  and  C_4 
REMARK    3  A    between atoms: C_16  and  O_10 
REMARK    4  A    between atoms: C_11  and  C_12 
ROOT
ATOM      1  O   UNL d   1       0.106  -2.472  -0.091  0.00  0.00    -0.288 OA
ENDROOT
BRANCH   1   2
ATOM      2  C   UNL d   1      -0.489  -1.945   0.980  0.00  0.00     0.194 A 
ATOM      3  S   UNL d   1      -1.256  -0.410   0.882  0.00  0.00    -0.021 SA
ATOM      4  C   UNL d   1      -1.619  -0.517   2.538  0.00  0.00     0.162 A 
ATOM      5  C   UNL d   1      -1.196  -1.715   3.060  0.00  0.00     0.134 A 
ATOM      6  N   UNL d   1      -0.550  -2.538   2.156  0.00  0.00    -0.338 N 
ATOM      7  HN  UNL d   1      -0.178  -3.465   2.367  1.00  0.00     0.168 HD
BRANCH   4   8
ATOM      8  N   UNL d   1      -2.271   0.540   3.242  0.00  0.00    -0.107 N 
ATOM      9  O   UNL d   1      -2.475   0.350   4.449  0.00  0.00    -0.531 OA
ATOM     10  O   UNL d   1      -2.577   1.561   2.614  0.00  0.00    -0.531 OA
ENDBRANCH   4   8
ENDBRANCH   1   2
BRANCH   1  11
ATOM     11  C   UNL d   1       1.132  -3.380   0.028  0.00  0.00     0.078 A 
ATOM     12  C   UNL d   1       1.260  -4.322  -0.993  0.00  0.00     0.038 A 
ATOM     13  C   UNL d   1       2.309  -5.245  -0.965  0.00  0.00     0.018 A 
ATOM     14  C   UNL d   1       3.250  -5.219   0.075  0.00  0.00     0.009 A 
ATOM     15  C   UNL d   1       3.118  -4.275   1.098  0.00  0.00     0.018 A 
ATOM     16  C   UNL d   1       2.072  -3.350   1.064  0.00  0.00     0.038 A 
BRANCH  14  17
ATOM     17  C   UNL d   1       4.361  -6.208   0.051  0.00  0.00     0.155 C 
ATOM     18  O   UNL d   1       4.203  -7.277  -0.538  0.00  0.00    -0.293 OA
ATOM     19  C   UNL d   1       5.676  -5.872   0.708  0.00  0.00     0.096 C 
ENDBRANCH  14  17
ENDBRANCH   1  11
TORSDOF 4
