REMARK  5 active torsions:
REMARK  status: ('A' for Active; 'I' for Inactive)
REMARK    1  A    between atoms: C_3  and  C_1 
REMARK    2  A    between atoms: O_9  and  C_1 
REMARK    3  A    between atoms: C_8  and  C_3 
REMARK    4  A    between atoms: C_4  and  S_6 
REMARK    5  A    between atoms: S_6  and  C_8 
ROOT
ATOM      1  C   UNL d   1       2.738   4.552   2.934  0.00  0.00    -0.009 A 
ATOM      2  C   UNL d   1       1.530   4.872   2.246  0.00  0.00     0.011 A 
ATOM      3  C   UNL d   1       3.601   5.614   3.312  0.00  0.00    -0.025 A 
ATOM      4  C   UNL d   1       2.046   7.239   2.390  0.00  0.00     0.002 A 
ATOM      5  C   UNL d   1       1.197   6.211   1.993  0.00  0.00     0.019 A 
ATOM      6  C   UNL d   1       3.148   3.237   3.271  0.00  0.00     0.013 A 
ATOM      7  C   UNL d   1       3.240   6.941   3.039  0.00  0.00     0.012 A 
ATOM      8  C   UNL d   1       4.817   5.343   3.961  0.00  0.00     0.012 A 
ATOM      9  C   UNL d   1       4.362   2.983   3.918  0.00  0.00     0.001 A 
ATOM     10  C   UNL d   1       5.200   4.036   4.254  0.00  0.00     0.001 A 
ENDROOT
BRANCH   2  11
ATOM     11  S   UNL d   1       0.366   3.604   1.707  0.00  0.00    -0.129 SA
BRANCH  11  12
ATOM     12  C   UNL d   1       0.327   3.896  -0.103  0.00  0.00     0.090 C 
BRANCH  12  13
ATOM     13  C   UNL d   1       1.663   3.557  -0.750  0.00  0.00     0.120 C 
BRANCH  13  14
ATOM     14  C   UNL d   1       1.589   3.709  -2.249  0.00  0.00     0.140 C 
ATOM     15  O   UNL d   1       0.596   4.039  -2.876  0.00  0.00    -0.650 OA
BRANCH  14  16
ATOM     16  O   UNL d   1       2.769   3.433  -2.850  0.00  0.00    -0.776 OA
ATOM     17  H   UNL d   1       3.482   3.187  -2.230  0.00  0.00     0.167 HD
ENDBRANCH  14  16
ENDBRANCH  13  14
ENDBRANCH  12  13
ENDBRANCH  11  12
ENDBRANCH   2  11
TORSDOF 5
