REMARK  4 active torsions:
REMARK  status: ('A' for Active; 'I' for Inactive)
REMARK    1  A    between atoms: N_2  and  C_1 
REMARK    2  A    between atoms: C_5  and  C_7 
REMARK    3  A    between atoms: O_10  and  C_6 
REMARK    4  A    between atoms: C_7  and  O_10 
ROOT
ATOM      1  C   UNL d   1      -0.984   1.230   0.027  0.00  0.00     0.207 A 
ATOM      2  N   UNL d   1       0.388   1.150   0.011  0.00  0.00    -0.339 N 
ATOM      3  HN  UNL d   1       0.963   1.993  -0.001  1.00  0.00     0.167 HD
ATOM      4  C   UNL d   1      -1.825   0.109   0.053  0.00  0.00     0.119 A 
ATOM      5  C   UNL d   1       0.950  -0.076   0.011  0.00  0.00     0.007 A 
ATOM      6  C   UNL d   1      -1.206  -1.142   0.039  0.00  0.00     0.043 A 
ATOM      7  C   UNL d   1       0.189  -1.237   0.022  0.00  0.00     0.027 A 
ATOM      8  C   UNL d   1       2.447  -0.150  -0.005  0.00  0.00     0.068 C 
ENDROOT
BRANCH   4   9
ATOM      9  O   UNL d   1      -3.183   0.285   0.011  0.00  0.00    -0.343 OA
BRANCH   9  10
ATOM     10  C   UNL d   1      -3.995  -0.749   0.576  0.00  0.00     0.219 C 
BRANCH  10  11
ATOM     11  C   UNL d   1      -5.450  -0.393   0.422  0.00  0.00     0.026 A 
ATOM     12  C   UNL d   1      -6.249  -0.231   1.559  0.00  0.00     0.126 A 
ATOM     13  F   UNL d   1      -5.710  -0.373   2.779  0.00  0.00    -0.205 F 
ATOM     14  C   UNL d   1      -7.612   0.049   1.471  0.00  0.00     0.043 A 
ATOM     15  C   UNL d   1      -8.211   0.177   0.221  0.00  0.00     0.005 A 
ATOM     16  C   UNL d   1      -7.439   0.020  -0.929  0.00  0.00     0.024 A 
ATOM     17  C   UNL d   1      -6.071  -0.267  -0.831  0.00  0.00     0.045 A 
ATOM     18 CL   UNL d   1      -5.200  -0.501  -2.306  0.00  0.00    -0.084 Cl
ENDBRANCH  10  11
ENDBRANCH   9  10
ENDBRANCH   4   9
BRANCH   1  19
ATOM     19  N   UNL d   1      -1.637   2.546   0.030  0.00  0.00    -0.095 N 
ATOM     20  O   UNL d   1      -2.343   2.838   1.010  0.00  0.00    -0.530 OA
ATOM     21  O   UNL d   1      -1.407   3.295  -0.932  0.00  0.00    -0.530 OA
ENDBRANCH   1  19
TORSDOF 4
