REMARK  4 active torsions:
REMARK  status: ('A' for Active; 'I' for Inactive)
REMARK    1  A    between atoms: C_3  and  N_1 
REMARK    2  A    between atoms: C_2  and  C_5 
REMARK       I    between atoms: N_4  and  C_2 
REMARK    3  A    between atoms: N_8  and  N_4 
REMARK       I    between atoms: C_9  and  N_8 
REMARK    4  A    between atoms: C_16  and  C_9 
ROOT
ATOM      1  C   UNL d   1       0.301  -1.799  -4.639  0.00  0.00     0.270 C 
ATOM      2  N   UNL d   1      -0.567  -1.926  -5.706  0.00  0.00    -0.263 N 
ATOM      3  O   UNL d   1       1.348  -2.442  -4.579  0.00  0.00    -0.266 OA
ATOM      4  H   UNL d   1      -1.409  -1.380  -5.861  0.00  0.00     0.190 HD
ENDROOT
BRANCH   1   5
ATOM      5  C   UNL d   1      -0.077  -0.869  -3.529  0.00  0.00     0.036 A 
ATOM      6  C   UNL d   1       0.822  -0.733  -2.458  0.00  0.00     0.053 A 
ATOM      7  C   UNL d   1       0.496   0.090  -1.369  0.00  0.00     0.103 A 
ATOM      8  C   UNL d   1      -0.720   0.781  -1.336  0.00  0.00     0.036 A 
ATOM      9  C   UNL d   1      -1.607   0.655  -2.403  0.00  0.00     0.003 A 
ATOM     10  C   UNL d   1      -1.289  -0.162  -3.496  0.00  0.00     0.017 A 
BRANCH   7  11
ATOM     11  N   UNL d   1       1.438   0.231  -0.251  0.00  0.00    -0.116 N 
ATOM     12  O   UNL d   1       2.524  -0.358  -0.332  0.00  0.00    -0.532 OA
ATOM     13  O   UNL d   1       1.089   0.931   0.712  0.00  0.00    -0.532 OA
ENDBRANCH   7  11
ENDBRANCH   1   5
BRANCH   2  14
ATOM     14  N   UNL d   1      -0.245  -2.842  -6.715  0.00  0.00    -0.267 N 
ATOM     15  C   UNL d   1      -0.798  -2.657  -7.968  0.00  0.00     0.235 C 
ATOM     16  O   UNL d   1      -1.591  -1.750  -8.215  0.00  0.00    -0.272 OA
ATOM     17  H   UNL d   1       0.580  -3.420  -6.554  0.00  0.00     0.190 HD
BRANCH  15  18
ATOM     18  C   UNL d   1      -0.387  -3.728  -8.959  0.00  0.00     0.100 C 
ATOM     19  C   UNL d   1      -0.905  -3.461 -10.361  0.00  0.00     0.014 C 
ENDBRANCH  15  18
ENDBRANCH   2  14
TORSDOF 4
