REMARK  8 active torsions:
REMARK  status: ('A' for Active; 'I' for Inactive)
REMARK    1  A    between atoms: C_3  and  C_1 
REMARK    2  A    between atoms: C_4  and  C_1 
REMARK    3  A    between atoms: N_6  and  C_2 
REMARK    4  A    between atoms: O_13  and  C_3 
REMARK    5  A    between atoms: O_12  and  C_4 
REMARK    6  A    between atoms: C_8  and  N_6 
REMARK    7  A    between atoms: C_16  and  O_12 
REMARK    8  A    between atoms: C_17  and  O_13 
ROOT
ATOM      1  C   UNL d   1       1.007  -0.078  -0.086  0.00  0.00     0.129 C 
ATOM      2  C   UNL d   1       0.347  -0.757   0.879  0.00  0.00     0.107 C 
ENDROOT
BRANCH   2   3
ATOM      3  N   UNL d   1       0.857  -1.511   1.913  0.00  0.00    -0.385 N 
ATOM      4  H   UNL d   1       1.879  -1.639   1.930  0.00  0.00     0.159 HD
BRANCH   3   5
ATOM      5  C   UNL d   1       0.120  -2.211   2.966  0.00  0.00     0.173 C 
ATOM      6  C   UNL d   1       0.952  -2.250   4.270  0.00  0.00     0.240 C 
ATOM      7  N   UNL d   1       0.355  -2.771   5.387  0.00  0.00    -0.359 N 
ATOM      8  O   UNL d   1       2.114  -1.851   4.350  0.00  0.00    -0.271 OA
ATOM      9  C   UNL d   1      -1.003  -3.251   5.496  0.00  0.00     0.122 C 
ATOM     10  H   UNL d   1       0.947  -2.765   6.210  0.00  0.00     0.162 HD
ATOM     11  C   UNL d   1      -1.242  -4.511   4.673  0.00  0.00     0.020 C 
ATOM     12  C   UNL d   1      -1.401  -4.252   3.176  0.00  0.00     0.004 C 
ATOM     13  C   UNL d   1      -0.181  -3.636   2.493  0.00  0.00     0.035 C 
ENDBRANCH   3   5
ENDBRANCH   2   3
BRANCH   1  14
ATOM     14  C   UNL d   1       0.258   0.794  -1.034  0.00  0.00     0.300 C 
ATOM     15  O   UNL d   1       0.737   1.728  -1.657  0.00  0.00    -0.259 OA
BRANCH  14  16
ATOM     16  O   UNL d   1      -1.064   0.465  -1.057  0.00  0.00    -0.318 OA
BRANCH  16  17
ATOM     17  C   UNL d   1      -1.942   1.503  -1.518  0.00  0.00     0.174 C 
ATOM     18  C   UNL d   1      -2.318   2.349  -0.315  0.00  0.00     0.034 C 
ENDBRANCH  16  17
ENDBRANCH  14  16
ENDBRANCH   1  14
BRANCH   1  19
ATOM     19  C   UNL d   1       2.488  -0.090  -0.026  0.00  0.00     0.300 C 
ATOM     20  O   UNL d   1       3.146  -0.947   0.547  0.00  0.00    -0.259 OA
BRANCH  19  21
ATOM     21  O   UNL d   1       3.009   1.042  -0.562  0.00  0.00    -0.318 OA
BRANCH  21  22
ATOM     22  C   UNL d   1       4.306   1.411  -0.083  0.00  0.00     0.174 C 
ATOM     23  C   UNL d   1       4.106   2.295   1.136  0.00  0.00     0.034 C 
ENDBRANCH  21  22
ENDBRANCH  19  21
ENDBRANCH   1  19
TORSDOF 8
