REMARK  8 active torsions:
REMARK  status: ('A' for Active; 'I' for Inactive)
REMARK    1  A    between atoms: C_2  and  C_1 
REMARK    2  A    between atoms: N_10  and  C_5 
REMARK    3  A    between atoms: N_18  and  C_6 
REMARK    4  A    between atoms: C_20  and  N_10 
REMARK    5  A    between atoms: N_17  and  C_23 
REMARK    6  A    between atoms: C_24  and  N_18 
REMARK    7  A    between atoms: C_21  and  C_24 
REMARK    8  A    between atoms: C_23  and  C_21 
ROOT
ATOM      1  C   UNL d   1      -0.993  -4.516  -6.409  0.00  0.00     0.034 C 
ENDROOT
BRANCH   1   2
ATOM      2  C   UNL d   1      -0.772  -3.293  -5.522  0.00  0.00     0.095 C 
BRANCH   2   3
ATOM      3  N   UNL d   1      -2.028  -2.571  -5.347  0.00  0.00    -0.277 NA
ATOM      4  H   UNL d   1      -2.677  -3.031  -4.711  0.00  0.00     0.129 HD
BRANCH   3   5
ATOM      5  C   UNL d   1      -1.929  -1.209  -5.024  0.00  0.00     0.102 A 
ATOM      6  N   UNL d   1      -0.714  -0.617  -5.051  0.00  0.00    -0.355 N 
ATOM      7  C   UNL d   1      -0.636   0.717  -4.841  0.00  0.00     0.105 A 
ATOM      8  HN  UNL d   1       0.128  -1.165  -5.225  1.00  0.00     0.166 HD
ATOM      9  C   UNL d   1      -1.732   1.530  -4.607  0.00  0.00     0.065 A 
ATOM     10  C   UNL d   1      -2.987   0.921  -4.574  0.00  0.00     0.044 A 
ATOM     11  C   UNL d   1      -3.089  -0.455  -4.784  0.00  0.00     0.073 A 
ATOM     12 CL   UNL d   1      -4.657  -1.182  -4.748  0.00  0.00    -0.081 Cl
BRANCH   9  13
ATOM     13  C   UNL d   1      -1.530   2.999  -4.414  0.00  0.00     0.418 C 
ATOM     14  F   UNL d   1      -2.688   3.685  -4.213  0.00  0.00    -0.166 F 
ATOM     15  F   UNL d   1      -0.928   3.586  -5.485  0.00  0.00    -0.166 F 
ATOM     16  F   UNL d   1      -0.739   3.277  -3.342  0.00  0.00    -0.166 F 
ENDBRANCH   9  13
ENDBRANCH   3   5
ENDBRANCH   2   3
ENDBRANCH   1   2
BRANCH   1  17
ATOM     17  C   UNL d   1      -1.580  -4.183  -7.780  0.00  0.00     0.123 C 
BRANCH  17  18
ATOM     18  N   UNL d   1      -0.796  -3.259  -8.592  0.00  0.00    -0.367 N 
ATOM     19  C   UNL d   1       0.166  -3.567  -9.504  0.00  0.00     0.172 C 
ATOM     20  S   UNL d   1       1.054  -4.983  -9.532  0.00  0.00    -0.041 SA
ATOM     21  H   UNL d   1      -0.895  -2.278  -8.361  0.00  0.00     0.161 HD
BRANCH  19  22
ATOM     22  N   UNL d   1       0.432  -2.636 -10.467  0.00  0.00    -0.332 N 
ATOM     23  H   UNL d   1       1.277  -2.842 -10.989  0.00  0.00     0.168 HD
BRANCH  22  24
ATOM     24  C   UNL d   1      -0.382  -1.613 -11.008  0.00  0.00     0.049 A 
ATOM     25  C   UNL d   1      -1.722  -1.392 -10.701  0.00  0.00     0.117 A 
ATOM     26  N   UNL d   1      -2.490  -0.418 -11.255  0.00  0.00    -0.373 N 
ATOM     27  C   UNL d   1      -1.905   0.358 -12.188  0.00  0.00     0.088 A 
ATOM     28  HN  UNL d   1      -3.462  -0.281 -10.977  1.00  0.00     0.164 HD
ATOM     29  C   UNL d   1      -0.592   0.203 -12.595  0.00  0.00     0.019 A 
ATOM     30  C   UNL d   1       0.175  -0.796 -11.996  0.00  0.00     0.032 A 
ENDBRANCH  22  24
ENDBRANCH  19  22
ENDBRANCH  17  18
ENDBRANCH   1  17
TORSDOF 8
