REMARK  5 active torsions:
REMARK  status: ('A' for Active; 'I' for Inactive)
REMARK    1  A    between atoms: C_5  and  C_1 
REMARK    2  A    between atoms: C_2  and  C_3 
REMARK    3  A    between atoms: O_12  and  C_4 
REMARK    4  A    between atoms: C_6  and  C_5 
REMARK    5  A    between atoms: C_18  and  O_12 
ROOT
ATOM      1  C   UNL d   1       1.029  -0.273  -0.786  0.00  0.00     0.097 C 
ATOM      2  C   UNL d   1       0.621  -1.219   0.087  0.00  0.00     0.048 C 
ATOM      3  C   UNL d   1       2.124  -0.460  -1.677  0.00  0.00     0.103 C 
ATOM      4  N   UNL d   1       3.030  -0.592  -2.392  0.00  0.00    -0.191 NA
ENDROOT
BRANCH   1   5
ATOM      5  C   UNL d   1       0.238   1.001  -0.858  0.00  0.00     0.209 C 
ATOM      6  O   UNL d   1      -0.948   0.971  -0.521  0.00  0.00    -0.285 OA
BRANCH   5   7
ATOM      7  C   UNL d   1       0.892   2.217  -1.338  0.00  0.00     0.056 A 
ATOM      8  S   UNL d   1      -0.055   3.403  -2.143  0.00  0.00    -0.098 SA
ATOM      9  C   UNL d   1       1.296   4.417  -2.397  0.00  0.00     0.050 A 
ATOM     10  C   UNL d   1       2.446   3.886  -1.862  0.00  0.00     0.009 A 
ATOM     11  C   UNL d   1       2.213   2.624  -1.241  0.00  0.00     0.023 A 
ENDBRANCH   5   7
ENDBRANCH   1   5
BRANCH   2  12
ATOM     12  C   UNL d   1       1.264  -2.489   0.160  0.00  0.00     0.040 C 
ATOM     13  C   UNL d   1       2.157  -2.993   1.091  0.00  0.00     0.093 C 
ATOM     14  C   UNL d   1       2.712  -4.246   0.680  0.00  0.00     0.046 C 
ATOM     15  C   UNL d   1       2.105  -4.739  -0.451  0.00  0.00     0.053 C 
ATOM     16  S   UNL d   1       0.913  -3.677  -1.046  0.00  0.00    -0.099 SA
BRANCH  13  17
ATOM     17  O   UNL d   1       2.492  -2.279   2.204  0.00  0.00    -0.309 OA
BRANCH  17  18
ATOM     18  C   UNL d   1       3.079  -2.897   3.286  0.00  0.00     0.076 A 
ATOM     19  C   UNL d   1       4.153  -2.249   3.894  0.00  0.00     0.037 A 
ATOM     20  C   UNL d   1       4.818  -2.858   4.961  0.00  0.00     0.003 A 
ATOM     21  C   UNL d   1       4.403  -4.108   5.423  0.00  0.00     0.000 A 
ATOM     22  C   UNL d   1       3.300  -4.734   4.847  0.00  0.00     0.003 A 
ATOM     23  C   UNL d   1       2.622  -4.118   3.795  0.00  0.00     0.037 A 
ENDBRANCH  17  18
ENDBRANCH  13  17
ENDBRANCH   2  12
TORSDOF 5
