REMARK  4 active torsions:
REMARK  status: ('A' for Active; 'I' for Inactive)
REMARK    1  A    between atoms: C_3  and  C_6 
REMARK       I    between atoms: N_7  and  C_3 
REMARK    2  A    between atoms: N_4  and  N_7 
REMARK    3  A    between atoms: C_10  and  C_9 
REMARK    4  A    between atoms: O_16  and  C_11 
ROOT
ATOM      1  N   UNL d   1       6.313   1.857  -3.752  0.00  0.00    -0.197 NA
ATOM      2  C   UNL d   1       6.112   2.110  -2.636  0.00  0.00     0.068 C 
ATOM      3  C   UNL d   1       5.781   2.421  -1.251  0.00  0.00     0.228 C 
ENDROOT
BRANCH   3   4
ATOM      4  C   UNL d   1       4.301   2.382  -0.942  0.00  0.00     0.249 C 
ATOM      5  N   UNL d   1       3.429   2.090  -1.984  0.00  0.00    -0.270 N 
ATOM      6  H   UNL d   1       3.741   1.906  -2.935  0.00  0.00     0.190 HD
ATOM      7  O   UNL d   1       3.930   2.613   0.213  0.00  0.00    -0.271 OA
BRANCH   5   8
ATOM      8  N   UNL d   1       2.095   2.033  -1.717  0.00  0.00    -0.308 N 
ATOM      9  C   UNL d   1       1.306   1.769  -2.709  0.00  0.00     0.118 C 
ATOM     10  HN  UNL d   1       1.733   2.191  -0.777  1.00  0.00     0.186 HD
BRANCH   9  11
ATOM     11  C   UNL d   1      -0.155   1.679  -2.505  0.00  0.00    -0.019 A 
ATOM     12  C   UNL d   1      -0.698   1.851  -1.228  0.00  0.00     0.015 A 
ATOM     13  C   UNL d   1      -2.079   1.758  -1.032  0.00  0.00     0.037 A 
ATOM     14  C   UNL d   1      -2.920   1.490  -2.112  0.00  0.00     0.068 A 
ATOM     15  C   UNL d   1      -2.373   1.340  -3.390  0.00  0.00     0.037 A 
ATOM     16  C   UNL d   1      -0.991   1.424  -3.592  0.00  0.00     0.015 A 
BRANCH  14  17
ATOM     17  O   UNL d   1      -4.283   1.387  -2.046  0.00  0.00    -0.356 OA
ATOM     18  C   UNL d   1      -4.819   1.040  -0.773  0.00  0.00     0.210 C 
ENDBRANCH  14  17
ENDBRANCH   9  11
ENDBRANCH   5   8
ENDBRANCH   3   4
TORSDOF 4
