REMARK  2 active torsions:
REMARK  status: ('A' for Active; 'I' for Inactive)
REMARK    1  A    between atoms: C_2  and  C_1 
REMARK       I    between atoms: N_4  and  C_2 
REMARK    2  A    between atoms: C_8  and  C_3 
ROOT
ATOM      1  C   UNL d   1       0.993   0.147  -0.050  0.00  0.00     0.113 C 
ATOM      2  C   UNL d   1       0.299  -0.945   0.338  0.00  0.00     0.039 C 
ATOM      3  C   UNL d   1       0.344   1.356  -0.411  0.00  0.00     0.105 C 
ATOM      4  N   UNL d   1      -0.205   2.326  -0.739  0.00  0.00    -0.191 NA
ENDROOT
BRANCH   1   5
ATOM      5  C   UNL d   1       2.484   0.049   0.032  0.00  0.00     0.264 C 
ATOM      6  N   UNL d   1       3.302   0.745  -0.841  0.00  0.00    -0.343 N 
ATOM      7  C   UNL d   1       2.931   1.521  -2.037  0.00  0.00     0.152 C 
ATOM      8  C   UNL d   1       4.758   0.679  -0.642  0.00  0.00     0.152 C 
ATOM      9  C   UNL d   1       3.722   1.053  -3.268  0.00  0.00     0.187 C 
ATOM     10  O   UNL d   1       5.134   1.040  -3.022  0.00  0.00    -0.388 OA
ATOM     11  C   UNL d   1       5.449   0.183  -1.915  0.00  0.00     0.187 C 
ATOM     12  O   UNL d   1       2.966  -0.688   0.898  0.00  0.00    -0.267 OA
ENDBRANCH   1   5
BRANCH   2  13
ATOM     13  C   UNL d   1      -1.165  -1.019   0.366  0.00  0.00    -0.033 A 
ATOM     14  C   UNL d   1      -1.851  -1.592  -0.709  0.00  0.00     0.037 A 
ATOM     15  C   UNL d   1      -3.251  -1.604  -0.726  0.00  0.00     0.056 A 
ATOM     16 CL   UNL d   1      -4.028  -2.312  -2.098  0.00  0.00    -0.083 Cl
ATOM     17  C   UNL d   1      -3.967  -1.045   0.337  0.00  0.00     0.055 A 
ATOM     18  C   UNL d   1      -3.281  -0.488   1.420  0.00  0.00     0.026 A 
ATOM     19 CL   UNL d   1      -5.694  -1.004   0.372  0.00  0.00    -0.083 Cl
ATOM     20  C   UNL d   1      -1.883  -0.476   1.436  0.00  0.00     0.013 A 
ENDBRANCH   2  13
TORSDOF 2
