REMARK  7 active torsions:
REMARK  status: ('A' for Active; 'I' for Inactive)
REMARK    1  A    between atoms: C_5  and  C_1 
REMARK    2  A    between atoms: N_7  and  C_2 
REMARK    3  A    between atoms: O_14  and  C_5 
REMARK       I    between atoms: C_8  and  N_7 
REMARK    4  A    between atoms: C_9  and  C_8 
REMARK    5  A    between atoms: C_10  and  C_9 
REMARK    6  A    between atoms: O_15  and  C_10 
REMARK    7  A    between atoms: C_17  and  O_15 
ROOT
ATOM      1  C   UNL d   1      -0.829   1.264   0.081  0.00  0.00     0.107 C 
ATOM      2  C   UNL d   1       0.467   1.340   0.588  0.00  0.00     0.064 C 
ATOM      3  S   UNL d   1      -1.504  -0.292   0.332  0.00  0.00    -0.093 SA
ATOM      4  C   UNL d   1       0.787   0.185   1.395  0.00  0.00    -0.027 C 
ATOM      5  C   UNL d   1      -0.172  -0.801   1.254  0.00  0.00     0.059 C 
ATOM      6  C   UNL d   1       1.944   0.040   2.329  0.00  0.00     0.051 C 
ENDROOT
BRANCH   2   7
ATOM      7  N   UNL d   1       1.290   2.457   0.379  0.00  0.00    -0.325 N 
ATOM      8  C   UNL d   1       2.545   2.308  -0.187  0.00  0.00     0.231 C 
ATOM      9  O   UNL d   1       3.046   1.212  -0.459  0.00  0.00    -0.273 OA
ATOM     10  H   UNL d   1       0.808   3.329   0.141  0.00  0.00     0.169 HD
BRANCH   8  11
ATOM     11  C   UNL d   1       3.325   3.559  -0.536  0.00  0.00     0.214 C 
BRANCH  11  12
ATOM     12  C   UNL d   1       2.755   4.902  -0.193  0.00  0.00     0.267 C 
ATOM     13  O   UNL d   1       1.641   5.103   0.266  0.00  0.00    -0.265 OA
BRANCH  12  14
ATOM     14  O   UNL d   1       3.662   5.877  -0.498  0.00  0.00    -0.322 OA
BRANCH  14  15
ATOM     15  C   UNL d   1       3.244   7.234  -0.269  0.00  0.00     0.174 C 
ATOM     16  C   UNL d   1       3.498   7.631   1.174  0.00  0.00     0.034 C 
ENDBRANCH  14  15
ENDBRANCH  12  14
ENDBRANCH  11  12
ENDBRANCH   8  11
ENDBRANCH   2   7
BRANCH   1  17
ATOM     17  C   UNL d   1      -1.555   2.291  -0.637  0.00  0.00     0.302 C 
ATOM     18  O   UNL d   1      -1.086   3.389  -0.947  0.00  0.00    -0.259 OA
BRANCH  17  19
ATOM     19  O   UNL d   1      -2.840   1.916  -0.895  0.00  0.00    -0.322 OA
ATOM     20  C   UNL d   1      -3.639   2.917  -1.528  0.00  0.00     0.213 C 
ENDBRANCH  17  19
ENDBRANCH   1  17
TORSDOF 7
