REMARK  4 active torsions:
REMARK  status: ('A' for Active; 'I' for Inactive)
REMARK    1  A    between atoms: C_5  and  C_1 
REMARK    2  A    between atoms: C_7  and  C_2 
REMARK       I    between atoms: N_8  and  C_5 
REMARK    3  A    between atoms: C_10  and  C_6 
REMARK    4  A    between atoms: C_16  and  N_8 
ROOT
ATOM      1  C   UNL d   1       1.130   0.693   0.121  0.00  0.00     0.073 A 
ATOM      2  C   UNL d   1      -0.169   1.160  -0.041  0.00  0.00     0.175 A 
ATOM      3  O   UNL d   1      -1.050   0.108   0.009  0.00  0.00    -0.304 OA
ATOM      4  C   UNL d   1       0.994  -0.718   0.324  0.00  0.00     0.058 A 
ATOM      5  C   UNL d   1      -0.339  -1.036   0.215  0.00  0.00     0.087 A 
ENDROOT
BRANCH   1   6
ATOM      6  C   UNL d   1       2.426   1.372   0.107  0.00  0.00     0.259 C 
ATOM      7  N   UNL d   1       2.493   2.574  -0.566  0.00  0.00    -0.322 N 
ATOM      8  H   UNL d   1       1.633   3.022  -0.852  0.00  0.00     0.169 HD
ATOM      9  O   UNL d   1       3.389   0.820   0.629  0.00  0.00    -0.267 OA
BRANCH   7  10
ATOM     10  C   UNL d   1       3.677   3.261  -0.924  0.00  0.00     0.050 A 
ATOM     11  C   UNL d   1       4.974   2.792  -0.720  0.00  0.00     0.117 A 
ATOM     12  N   UNL d   1       6.095   3.448  -1.117  0.00  0.00    -0.373 N 
ATOM     13  C   UNL d   1       5.922   4.628  -1.744  0.00  0.00     0.088 A 
ATOM     14  HN  UNL d   1       7.025   3.065  -0.949  1.00  0.00     0.164 HD
ATOM     15  C   UNL d   1       4.680   5.185  -1.992  0.00  0.00     0.019 A 
ATOM     16  C   UNL d   1       3.545   4.489  -1.577  0.00  0.00     0.032 A 
ENDBRANCH   7  10
ENDBRANCH   1   6
BRANCH   2  17
ATOM     17  C   UNL d   1      -0.797   2.488  -0.240  0.00  0.00     0.440 C 
ATOM     18  F   UNL d   1       0.117   3.494  -0.183  0.00  0.00    -0.164 F 
ATOM     19  F   UNL d   1      -1.385   2.592  -1.459  0.00  0.00    -0.164 F 
ATOM     20  F   UNL d   1      -1.742   2.769   0.690  0.00  0.00    -0.164 F 
ENDBRANCH   2  17
BRANCH   5  21
ATOM     21  C   UNL d   1      -1.085  -2.289   0.255  0.00  0.00    -0.002 A 
ATOM     22  C   UNL d   1      -2.476  -2.312   0.425  0.00  0.00     0.014 A 
ATOM     23  C   UNL d   1      -3.172  -3.524   0.471  0.00  0.00     0.001 A 
ATOM     24  C   UNL d   1      -2.485  -4.729   0.341  0.00  0.00     0.000 A 
ATOM     25  C   UNL d   1      -1.105  -4.726   0.164  0.00  0.00     0.001 A 
ATOM     26  C   UNL d   1      -0.411  -3.514   0.122  0.00  0.00     0.014 A 
ENDBRANCH   5  21
TORSDOF 4
