REMARK  3 active torsions:
REMARK  status: ('A' for Active; 'I' for Inactive)
REMARK    1  A    between atoms: O_4  and  C_1 
REMARK    2  A    between atoms: C_3  and  C_2 
REMARK       I    between atoms: N_8  and  C_3 
REMARK    3  A    between atoms: C_9  and  O_4 
ROOT
ATOM      1  C   UNL d   1      -0.550   1.135   0.046  0.00  0.00     0.163 A 
ATOM      2  C   UNL d   1       0.831   1.169   0.230  0.00  0.00     0.083 A 
ATOM      3  N   UNL d   1      -1.238   0.004  -0.274  0.00  0.00    -0.346 N 
ATOM      4  HN  UNL d   1      -2.245   0.026  -0.438  1.00  0.00     0.167 HD
ATOM      5  C   UNL d   1       1.516  -0.050   0.126  0.00  0.00     0.023 A 
ATOM      6  C   UNL d   1      -0.539  -1.145  -0.367  0.00  0.00     0.090 A 
ATOM      7  C   UNL d   1       0.826  -1.224  -0.169  0.00  0.00     0.018 A 
ENDROOT
BRANCH   1   8
ATOM      8  O   UNL d   1      -1.280   2.311   0.147  0.00  0.00    -0.293 OA
BRANCH   8   9
ATOM      9  C   UNL d   1      -2.544   2.239   0.689  0.00  0.00     0.077 A 
ATOM     10  C   UNL d   1      -2.867   1.436   1.788  0.00  0.00     0.039 A 
ATOM     11  C   UNL d   1      -4.165   1.445   2.303  0.00  0.00     0.026 A 
ATOM     12  C   UNL d   1      -5.128   2.278   1.737  0.00  0.00     0.034 A 
ATOM     13  C   UNL d   1      -4.803   3.107   0.664  0.00  0.00     0.026 A 
ATOM     14 CL   UNL d   1      -6.727   2.288   2.372  0.00  0.00    -0.084 Cl
ATOM     15  C   UNL d   1      -3.507   3.091   0.143  0.00  0.00     0.039 A 
ENDBRANCH   8   9
ENDBRANCH   1   8
BRANCH   2  16
ATOM     16  C   UNL d   1       1.633   2.382   0.541  0.00  0.00     0.253 C 
ATOM     17  O   UNL d   1       2.842   2.305   0.735  0.00  0.00    -0.268 OA
ATOM     18  N   UNL d   1       1.017   3.597   0.609  0.00  0.00    -0.366 N 
ATOM     19  H   UNL d   1       0.026   3.735   0.460  0.00  0.00     0.159 HD
ATOM     20  H   UNL d   1       1.591   4.404   0.817  0.00  0.00     0.159 HD
ENDBRANCH   2  16
TORSDOF 3
