REMARK  2 active torsions:
REMARK  status: ('A' for Active; 'I' for Inactive)
REMARK    1  A    between atoms: C_8  and  N_1 
REMARK    2  A    between atoms: C_12  and  C_7 
ROOT
ATOM      1  N   UNL d   1      -0.294  -1.109   0.113  0.00  0.00    -0.241 N 
ATOM      2  N   UNL d   1       0.950  -0.601   0.281  0.00  0.00    -0.235 N 
ATOM      3  HN  UNL d   1       1.794  -1.144   0.459  1.00  0.00     0.209 HD
ATOM      4  C   UNL d   1      -1.211  -0.064   0.011  0.00  0.00     0.061 A 
ATOM      5  N   UNL d   1       0.890   0.713   0.178  0.00  0.00    -0.283 N 
ATOM      6  HN  UNL d   1       1.685   1.352   0.216  1.00  0.00     0.188 HD
ATOM      7  C   UNL d   1      -0.417   1.074   0.013  0.00  0.00     0.084 A 
ATOM      8  C   UNL d   1      -2.687  -0.220   0.049  0.00  0.00     0.073 C 
ENDROOT
BRANCH   1   9
ATOM      9  C   UNL d   1      -0.481  -2.513   0.031  0.00  0.00     0.096 A 
ATOM     10  C   UNL d   1       0.409  -3.374   0.689  0.00  0.00     0.148 A 
ATOM     11  C   UNL d   1       0.258  -4.755   0.618  0.00  0.00     0.087 A 
ATOM     12  F   UNL d   1       1.395  -2.904   1.467  0.00  0.00    -0.203 F 
ATOM     13  C   UNL d   1      -0.780  -5.284  -0.134  0.00  0.00     0.119 A 
ATOM     14  C   UNL d   1      -1.667  -4.454  -0.812  0.00  0.00     0.045 A 
ATOM     15  F   UNL d   1      -0.931  -6.612  -0.210  0.00  0.00    -0.206 F 
ATOM     16  C   UNL d   1      -1.522  -3.065  -0.734  0.00  0.00     0.038 A 
ENDBRANCH   1   9
BRANCH   7  17
ATOM     17  C   UNL d   1      -0.824   2.470  -0.039  0.00  0.00    -0.006 A 
ATOM     18  C   UNL d   1      -0.021   3.433   0.595  0.00  0.00     0.014 A 
ATOM     19  C   UNL d   1      -0.368   4.786   0.572  0.00  0.00     0.001 A 
ATOM     20  C   UNL d   1      -1.522   5.196  -0.088  0.00  0.00     0.000 A 
ATOM     21  C   UNL d   1      -2.321   4.256  -0.735  0.00  0.00     0.001 A 
ATOM     22  C   UNL d   1      -1.970   2.902  -0.718  0.00  0.00     0.014 A 
ENDBRANCH   7  17
TORSDOF 2
