REMARK  3 active torsions:
REMARK  status: ('A' for Active; 'I' for Inactive)
REMARK    1  A    between atoms: C_5  and  N_3 
REMARK    2  A    between atoms: N_8  and  C_5 
REMARK    3  A    between atoms: C_16  and  N_8 
ROOT
ATOM      1  N   UNL d   1      -2.620  -1.994   1.179  0.00  0.00    -0.322 N 
ATOM      2  C   UNL d   1      -3.026  -1.458  -0.096  0.00  0.00     0.226 A 
ATOM      3  N   UNL d   1      -4.180  -2.242  -0.558  0.00  0.00    -0.332 N 
ATOM      4  C   UNL d   1      -1.270  -2.254   1.254  0.00  0.00     0.256 A 
ATOM      5  C   UNL d   1      -1.726  -1.294  -0.814  0.00  0.00    -0.000 A 
ATOM      6  C   UNL d   1      -0.698  -1.825  -0.033  0.00  0.00     0.042 A 
ATOM      7  O   UNL d   1      -0.627  -2.662   2.200  0.00  0.00    -0.267 OA
ATOM      8  C   UNL d   1      -3.562  -1.971   2.272  0.00  0.00     0.130 C 
ATOM      9  C   UNL d   1      -5.290  -2.030   0.401  0.00  0.00     0.129 C 
ATOM     10  C   UNL d   1      -4.923  -2.500   1.825  0.00  0.00     0.040 C 
ATOM     11  C   UNL d   1      -1.402  -0.507  -1.911  0.00  0.00     0.012 A 
ATOM     12  C   UNL d   1       0.640  -1.712  -0.365  0.00  0.00     0.018 A 
ATOM     13  C   UNL d   1      -0.053  -0.373  -2.270  0.00  0.00     0.001 A 
ATOM     14  C   UNL d   1       0.958  -0.988  -1.515  0.00  0.00     0.001 A 
ENDROOT
BRANCH   3  15
ATOM     15  C   UNL d   1      -4.054  -3.502  -1.141  0.00  0.00     0.172 C 
ATOM     16  S   UNL d   1      -4.939  -4.891  -0.773  0.00  0.00    -0.041 SA
BRANCH  15  17
ATOM     17  N   UNL d   1      -3.160  -3.691  -2.148  0.00  0.00    -0.363 N 
ATOM     18  H   UNL d   1      -3.107  -4.685  -2.350  0.00  0.00     0.162 HD
BRANCH  17  19
ATOM     19  C   UNL d   1      -3.097  -2.902  -3.378  0.00  0.00     0.075 C 
ATOM     20  C   UNL d   1      -1.772  -3.199  -4.076  0.00  0.00     0.032 C 
ATOM     21  C   UNL d   1      -4.265  -3.211  -4.316  0.00  0.00     0.032 C 
ENDBRANCH  17  19
ENDBRANCH  15  17
ENDBRANCH   3  15
TORSDOF 3
