REMARK  4 active torsions:
REMARK  status: ('A' for Active; 'I' for Inactive)
REMARK    1  A    between atoms: C_6  and  C_1 
REMARK    2  A    between atoms: C_7  and  C_2 
REMARK    3  A    between atoms: O_15  and  C_6 
REMARK    4  A    between atoms: O_14  and  C_7 
ROOT
ATOM      1  C   UNL d   1       1.421  -1.235  -0.007  0.00  0.00     0.081 A 
ATOM      2  C   UNL d   1       2.263  -0.057  -0.074  0.00  0.00     0.080 A 
ATOM      3  C   UNL d   1       0.122  -0.772   0.083  0.00  0.00     0.039 A 
ATOM      4  N   UNL d   1       0.141   0.590   0.061  0.00  0.00    -0.342 N 
ATOM      5  C   UNL d   1       1.416   1.062  -0.031  0.00  0.00     0.026 A 
ATOM      6  S   UNL d   1      -2.406  -0.016  -0.035  0.00  0.00    -0.143 SA
ATOM      7  C   UNL d   1      -1.131   1.280   0.105  0.00  0.00     0.203 C 
ATOM      8  C   UNL d   1      -1.219  -1.404   0.149  0.00  0.00     0.134 C 
ATOM      9  C   UNL d   1       1.707   2.522  -0.043  0.00  0.00     0.069 C 
ENDROOT
BRANCH   1  10
ATOM     10  C   UNL d   1       1.763  -2.654  -0.050  0.00  0.00     0.296 C 
ATOM     11  O   UNL d   1       1.039  -3.524   0.423  0.00  0.00    -0.259 OA
BRANCH  10  12
ATOM     12  O   UNL d   1       2.920  -2.909  -0.724  0.00  0.00    -0.322 OA
ATOM     13  C   UNL d   1       3.272  -4.290  -0.765  0.00  0.00     0.213 C 
ENDBRANCH  10  12
ENDBRANCH   1  10
BRANCH   2  14
ATOM     14  C   UNL d   1       3.724   0.017  -0.161  0.00  0.00     0.296 C 
ATOM     15  O   UNL d   1       4.321   0.922  -0.730  0.00  0.00    -0.259 OA
BRANCH  14  16
ATOM     16  O   UNL d   1       4.343  -1.000   0.504  0.00  0.00    -0.322 OA
ATOM     17  C   UNL d   1       5.766  -0.965   0.415  0.00  0.00     0.213 C 
ENDBRANCH  14  16
ENDBRANCH   2  14
TORSDOF 4
