REMARK  4 active torsions:
REMARK  status: ('A' for Active; 'I' for Inactive)
REMARK    1  A    between atoms: S_3  and  C_1 
REMARK    2  A    between atoms: C_2  and  S_3 
REMARK    3  A    between atoms: C_16  and  C_7 
REMARK    4  A    between atoms: S_17  and  C_10 
ROOT
ATOM      1  C   UNL d   1       2.148   2.808   0.026  0.00  0.00     0.051 A 
ATOM      2  N   UNL d   1       4.290   2.503  -1.027  0.00  0.00    -0.335 N 
ATOM      3  HN  UNL d   1       4.855   2.190  -1.817  1.00  0.00     0.168 HD
ATOM      4  C   UNL d   1       2.932   2.405  -1.054  0.00  0.00     0.063 A 
ATOM      5  C   UNL d   1       4.862   3.022   0.067  0.00  0.00     0.141 A 
ATOM      6  N   UNL d   1       4.204   3.469   1.140  0.00  0.00    -0.345 N 
ATOM      7  HN  UNL d   1       4.683   3.881   1.940  1.00  0.00     0.167 HD
ATOM      8  C   UNL d   1       2.860   3.338   1.092  0.00  0.00     0.111 A 
ENDROOT
BRANCH   1   9
ATOM      9  S   UNL d   1       0.374   2.726   0.145  0.00  0.00    -0.050 SA
BRANCH   9  10
ATOM     10  C   UNL d   1       0.215   1.176   0.910  0.00  0.00     0.151 A 
ATOM     11  N   UNL d   1      -0.897   0.385   0.782  0.00  0.00    -0.341 N 
ATOM     12  C   UNL d   1      -0.696  -0.725   1.567  0.00  0.00     0.109 A 
ATOM     13  C   UNL d   1      -2.083   0.596  -0.012  0.00  0.00     0.158 C 
ATOM     14  C   UNL d   1       0.545  -0.546   2.129  0.00  0.00     0.107 A 
ATOM     15  N   UNL d   1       1.099   0.638   1.718  0.00  0.00    -0.345 N 
ATOM     16  HN  UNL d   1       2.007   1.021   1.984  1.00  0.00     0.167 HD
ENDBRANCH   9  10
ENDBRANCH   1   9
BRANCH   4  17
ATOM     17  C   UNL d   1       2.430   1.852  -2.338  0.00  0.00    -0.008 A 
ATOM     18  C   UNL d   1       3.126   0.803  -2.975  0.00  0.00     0.014 A 
ATOM     19  C   UNL d   1       2.716   0.291  -4.210  0.00  0.00     0.001 A 
ATOM     20  C   UNL d   1       1.588   0.808  -4.836  0.00  0.00     0.000 A 
ATOM     21  C   UNL d   1       0.884   1.848  -4.238  0.00  0.00     0.001 A 
ATOM     22  C   UNL d   1       1.313   2.374  -3.014  0.00  0.00     0.014 A 
ENDBRANCH   4  17
BRANCH   5  23
ATOM     23  S   UNL d   1       6.624   3.137   0.099  0.00  0.00    -0.107 SA
ATOM     24  H   UNL d   1       6.652   3.669   1.326  0.00  0.00     0.110 HD
ENDBRANCH   5  23
TORSDOF 4
