REMARK  3 active torsions:
REMARK  status: ('A' for Active; 'I' for Inactive)
REMARK    1  A    between atoms: S_4  and  C_3 
REMARK    2  A    between atoms: C_5  and  S_4 
REMARK    3  A    between atoms: N_9  and  C_7 
ROOT
ATOM      1  N   UNL d   1      -3.433  -0.504  -2.670  0.00  0.00    -0.359 N 
ATOM      2  HN  UNL d   1      -2.516  -0.059  -2.624  1.00  0.00     0.166 HD
ATOM      3  C   UNL d   1      -4.246  -0.561  -1.592  0.00  0.00     0.074 A 
ATOM      4  C   UNL d   1      -3.893  -1.066  -3.813  0.00  0.00     0.112 A 
ATOM      5  C   UNL d   1      -5.106  -1.741  -3.940  0.00  0.00     0.021 A 
ATOM      6  C   UNL d   1      -5.504  -1.148  -1.632  0.00  0.00     0.039 A 
ATOM      7  C   UNL d   1      -5.941  -1.724  -2.826  0.00  0.00     0.027 A 
ENDROOT
BRANCH   3   8
ATOM      8  S   UNL d   1      -3.617   0.099  -0.063  0.00  0.00    -0.073 SA
BRANCH   8   9
ATOM      9  C   UNL d   1      -4.145   1.799  -0.153  0.00  0.00     0.007 A 
ATOM     10  C   UNL d   1      -4.901   2.333   0.896  0.00  0.00     0.019 A 
ATOM     11  C   UNL d   1      -5.280   3.678   0.886  0.00  0.00     0.008 A 
ATOM     12  C   UNL d   1      -4.901   4.514  -0.171  0.00  0.00    -0.062 A 
ATOM     13  C   UNL d   1      -4.145   3.980  -1.220  0.00  0.00     0.008 A 
ATOM     14  C   UNL d   1      -5.297   5.961  -0.159  0.00  0.00     0.048 C 
ATOM     15  C   UNL d   1      -3.767   2.634  -1.209  0.00  0.00     0.019 A 
ENDBRANCH   8   9
ENDBRANCH   3   8
BRANCH   5  16
ATOM     16  N   UNL d   1      -5.574  -2.206  -5.173  0.00  0.00    -0.302 NA
ATOM     17  H   UNL d   1      -4.838  -2.465  -5.825  0.00  0.00     0.124 HD
ATOM     18  H   UNL d   1      -6.286  -2.926  -5.099  0.00  0.00     0.124 HD
ENDBRANCH   5  16
TORSDOF 3
