REMARK  1 active torsions:
REMARK  status: ('A' for Active; 'I' for Inactive)
REMARK    1  A    between atoms: C_11  and  N_5 
ROOT
ATOM      1  C   UNL d   1      -3.068  -1.246   2.235  0.00  0.00    -0.087 C 
ATOM      2  C   UNL d   1      -3.575  -2.257   2.639  0.00  0.00     0.013 C 
ATOM      3  C   UNL d   1      -2.391  -0.031   1.758  0.00  0.00     0.364 C 
ENDROOT
BRANCH   3   4
ATOM      4  N   UNL d   1      -2.145  -0.047   0.305  0.00  0.00     0.101 N 
ATOM      5  C   UNL d   1      -1.505   1.193  -0.166  0.00  0.00     0.288 C 
ATOM      6  C   UNL d   1      -0.082   1.413   0.323  0.00  0.00     0.170 C 
ATOM      7  S   UNL d   1       0.961   0.037  -0.094  0.00  0.00     0.147 S 
ATOM      8  C   UNL d   1      -0.014  -1.379   0.344  0.00  0.00     0.170 C 
ATOM      9  O   UNL d   1       2.107   0.072   0.795  0.00  0.00    -0.228 OA
ATOM     10  O   UNL d   1       1.147   0.032  -1.533  0.00  0.00    -0.228 OA
ATOM     11  C   UNL d   1      -1.424  -1.229  -0.194  0.00  0.00     0.288 C 
ENDBRANCH   3   4
TORSDOF 1
