REMARK  3 active torsions:
REMARK  status: ('A' for Active; 'I' for Inactive)
REMARK    1  A    between atoms: C_4  and  N_3 
REMARK    2  A    between atoms: C_11  and  C_5 
REMARK    3  A    between atoms: C_8  and  C_12 
ROOT
ATOM      1  C   UNL d   1       2.044   1.593  -0.264  0.00  0.00     0.703 A 
ATOM      2  N   UNL d   1       3.244   1.006  -0.468  0.00  0.00    -0.185 N 
ATOM      3  HN  UNL d   1       3.325  -0.005  -0.578  1.00  0.00     0.184 HD
ATOM      4  C   UNL d   1       4.339   1.805  -0.522  0.00  0.00     0.133 A 
ATOM      5  N   UNL d   1       1.873   2.925  -0.114  0.00  0.00    -0.200 N 
ATOM      6  HN  UNL d   1       0.948   3.336   0.013  1.00  0.00     0.183 HD
ATOM      7  C   UNL d   1       4.245   3.174  -0.342  0.00  0.00     0.052 A 
ATOM      8  C   UNL d   1       2.983   3.682  -0.139  0.00  0.00     0.108 A 
ENDROOT
BRANCH   1   9
ATOM      9  N   UNL d   1       0.883   0.752  -0.165  0.00  0.00    -0.097 N 
ATOM     10  N   UNL d   1       0.975  -0.606  -0.117  0.00  0.00    -0.279 N 
ATOM     11  C   UNL d   1      -0.273  -1.026   0.118  0.00  0.00     0.067 A 
ATOM     12  HN  UNL d   1       1.811  -1.177  -0.236  1.00  0.00     0.188 HD
ATOM     13  C   UNL d   1      -1.195   0.043   0.112  0.00  0.00     0.052 A 
ATOM     14  C   UNL d   1      -0.428   1.171  -0.060  0.00  0.00     0.137 A 
BRANCH  11  15
ATOM     15  C   UNL d   1      -0.572  -2.469   0.397  0.00  0.00     0.033 A 
ATOM     16  S   UNL d   1      -2.127  -3.093   0.732  0.00  0.00    -0.100 SA
ATOM     17  C   UNL d   1      -1.506  -4.664   1.008  0.00  0.00     0.050 A 
ATOM     18  C   UNL d   1      -0.142  -4.719   0.825  0.00  0.00     0.008 A 
ATOM     19  C   UNL d   1       0.396  -3.451   0.457  0.00  0.00     0.021 A 
ENDBRANCH  11  15
ENDBRANCH   1   9
BRANCH   4  20
ATOM     20  C   UNL d   1       5.704   1.190  -0.797  0.00  0.00     0.433 C 
ATOM     21  F   UNL d   1       5.693  -0.156  -0.988  0.00  0.00    -0.165 F 
ATOM     22  F   UNL d   1       6.290   1.721  -1.911  0.00  0.00    -0.165 F 
ATOM     23  F   UNL d   1       6.587   1.419   0.219  0.00  0.00    -0.165 F 
ENDBRANCH   4  20
TORSDOF 3
