REMARK  1 active torsions:
REMARK  status: ('A' for Active; 'I' for Inactive)
REMARK    1  A    between atoms: C_12  and  C_6 
ROOT
ATOM      1  C   UNL d   1      -1.758   1.673   0.608  0.00  0.00     0.026 C 
ATOM      2  N   UNL d   1      -2.800   1.408   1.334  0.00  0.00    -0.357 N 
ATOM      3  HN  UNL d   1      -2.860   1.616   2.331  1.00  0.00     0.166 HD
ATOM      4  C   UNL d   1      -1.420   3.112   0.355  0.00  0.00     0.059 C 
ATOM      5  S   UNL d   1      -4.252   3.293  -0.659  0.00  0.00    -0.117 SA
ATOM      6  C   UNL d   1      -2.425   3.701  -0.684  0.00  0.00     0.095 C 
ATOM      7  C   UNL d   1      -0.954   0.828  -0.278  0.00  0.00    -0.007 A 
ATOM      8  C   UNL d   1      -0.004   3.033  -0.260  0.00  0.00     0.051 C 
ATOM      9  C   UNL d   1       0.043   1.643  -0.820  0.00  0.00    -0.045 A 
ATOM     10  C   UNL d   1      -3.829   0.808   0.609  0.00  0.00     0.049 C 
ATOM     11  C   UNL d   1      -4.395   1.501  -0.485  0.00  0.00     0.028 C 
ATOM     12  C   UNL d   1      -1.038  -0.517  -0.583  0.00  0.00     0.014 A 
ATOM     13  C   UNL d   1       0.971   1.129  -1.712  0.00  0.00     0.008 A 
ATOM     14  C   UNL d   1      -4.316  -0.448   0.973  0.00  0.00     0.031 C 
ATOM     15  C   UNL d   1      -5.284   0.823  -1.323  0.00  0.00     0.021 C 
ATOM     16  C   UNL d   1      -0.109  -1.041  -1.487  0.00  0.00     0.001 A 
ATOM     17  C   UNL d   1       0.883  -0.223  -2.053  0.00  0.00     0.001 A 
ATOM     18  C   UNL d   1      -5.685  -0.481  -1.015  0.00  0.00     0.002 C 
ATOM     19  C   UNL d   1      -5.249  -1.090   0.162  0.00  0.00     0.002 C 
ENDROOT
BRANCH   6  20
ATOM     20  C   UNL d   1      -2.299   5.231  -0.642  0.00  0.00    -0.043 A 
ATOM     21  C   UNL d   1      -2.583   5.942   0.542  0.00  0.00     0.011 A 
ATOM     22  C   UNL d   1      -2.379   7.319   0.614  0.00  0.00     0.043 A 
ATOM     23  C   UNL d   1      -1.911   7.997  -0.502  0.00  0.00     0.116 A 
ATOM     24  C   UNL d   1      -1.657   7.325  -1.693  0.00  0.00     0.043 A 
ATOM     25  F   UNL d   1      -1.696   9.317  -0.430  0.00  0.00    -0.206 F 
ATOM     26  C   UNL d   1      -1.853   5.944  -1.767  0.00  0.00     0.011 A 
ENDBRANCH   6  20
TORSDOF 1
