REMARK  7 active torsions:
REMARK  status: ('A' for Active; 'I' for Inactive)
REMARK       I    between atoms: N_2  and  C_1 
REMARK    1  A    between atoms: O_5  and  C_1 
REMARK    2  A    between atoms: C_4  and  N_2 
REMARK    3  A    between atoms: C_3  and  C_4 
REMARK       I    between atoms: N_10  and  C_3 
REMARK    4  A    between atoms: C_7  and  C_4 
REMARK    5  A    between atoms: C_9  and  O_5 
REMARK    6  A    between atoms: C_11  and  C_7 
REMARK    7  A    between atoms: C_15  and  N_10 
ROOT
ATOM      1  C   UNL d   1       1.164   0.606   2.288  0.00  0.00     0.183 C 
ENDROOT
BRANCH   1   2
ATOM      2  C   UNL d   1       1.951   1.934   2.177  0.00  0.00     0.240 C 
ATOM      3  O   UNL d   1       1.486   3.021   2.511  0.00  0.00    -0.271 OA
ATOM      4  N   UNL d   1       3.200   1.792   1.602  0.00  0.00    -0.360 N 
ATOM      5  H   UNL d   1       3.348   0.941   1.059  0.00  0.00     0.162 HD
BRANCH   4   6
ATOM      6  C   UNL d   1       4.029   2.932   1.274  0.00  0.00     0.118 C 
ATOM      7  C   UNL d   1       3.753   3.426  -0.134  0.00  0.00     0.026 C 
ENDBRANCH   4   6
ENDBRANCH   1   2
BRANCH   1   8
ATOM      8  N   UNL d   1       0.474   0.357   1.025  0.00  0.00    -0.323 N 
ATOM      9  C   UNL d   1       1.126   0.005  -0.113  0.00  0.00     0.362 C 
ATOM     10  O   UNL d   1       2.342  -0.113  -0.194  0.00  0.00    -0.238 OA
ATOM     11  H   UNL d   1      -0.537   0.355   0.986  0.00  0.00     0.165 HD
BRANCH   9  12
ATOM     12  O   UNL d   1       0.237  -0.138  -1.120  0.00  0.00    -0.294 OA
BRANCH  12  13
ATOM     13  C   UNL d   1       0.698  -0.307  -2.488  0.00  0.00     0.061 C 
ATOM     14  C   UNL d   1       1.516  -1.591  -2.665  0.00  0.00     0.046 C 
ATOM     15  C   UNL d   1      -0.580  -0.425  -3.335  0.00  0.00     0.046 C 
ATOM     16  C   UNL d   1       1.471   0.933  -2.953  0.00  0.00     0.046 C 
ENDBRANCH  12  13
ENDBRANCH   9  12
ENDBRANCH   1   8
BRANCH   1  17
ATOM     17  C   UNL d   1       0.187   0.720   3.472  0.00  0.00     0.073 C 
BRANCH  17  18
ATOM     18  C   UNL d   1      -0.588  -0.545   3.757  0.00  0.00    -0.056 A 
ATOM     19  C   UNL d   1       0.069  -1.718   4.154  0.00  0.00     0.007 A 
ATOM     20  C   UNL d   1      -0.656  -2.881   4.415  0.00  0.00     0.001 A 
ATOM     21  C   UNL d   1      -2.044  -2.882   4.291  0.00  0.00     0.000 A 
ATOM     22  C   UNL d   1      -2.709  -1.718   3.914  0.00  0.00     0.001 A 
ATOM     23  C   UNL d   1      -1.986  -0.554   3.650  0.00  0.00     0.007 A 
ENDBRANCH  17  18
ENDBRANCH   1  17
TORSDOF 7
