REMARK  4 active torsions:
REMARK  status: ('A' for Active; 'I' for Inactive)
REMARK    1  A    between atoms: C_4  and  N_1 
REMARK    2  A    between atoms: C_3  and  C_7 
REMARK    3  A    between atoms: O_9  and  C_3 
REMARK    4  A    between atoms: N_5  and  O_9 
ROOT
ATOM      1  C   UNL d   1      -4.591   6.313  -6.223  0.00  0.00     0.164 C 
ATOM      2  N   UNL d   1      -1.609   4.497  -4.020  0.00  0.00    -0.266 N 
ATOM      3  HN  UNL d   1      -1.812   4.254  -3.050  1.00  0.00     0.194 HD
ATOM      4  O   UNL d   1      -4.381   7.735  -6.229  0.00  0.00    -0.353 OA
ATOM      5  O   UNL d   1      -5.778   6.003  -6.969  0.00  0.00    -0.353 OA
ATOM      6  C   UNL d   1      -2.317   5.354  -4.689  0.00  0.00     0.011 C 
ATOM      7  C   UNL d   1      -4.757   5.837  -4.776  0.00  0.00     0.074 C 
ATOM      8  C   UNL d   1      -3.400   5.612  -6.896  0.00  0.00     0.074 C 
ATOM      9  C   UNL d   1      -3.477   6.018  -3.967  0.00  0.00     0.060 C 
ATOM     10  C   UNL d   1      -2.096   5.787  -6.119  0.00  0.00     0.060 C 
ATOM     11  C   UNL d   1      -6.374   7.263  -7.277  0.00  0.00     0.197 C 
ATOM     12  C   UNL d   1      -5.212   8.217  -7.285  0.00  0.00     0.197 C 
ENDROOT
BRANCH   2  13
ATOM     13  O   UNL d   1      -0.535   3.926  -4.737  0.00  0.00    -0.195 OA
BRANCH  13  14
ATOM     14  C   UNL d   1       0.124   3.054  -3.904  0.00  0.00     0.315 C 
ATOM     15  O   UNL d   1      -0.153   2.807  -2.735  0.00  0.00    -0.257 OA
BRANCH  14  16
ATOM     16  C   UNL d   1       1.278   2.378  -4.570  0.00  0.00     0.043 A 
ATOM     17  C   UNL d   1       1.655   2.607  -5.897  0.00  0.00     0.053 A 
ATOM     18  C   UNL d   1       2.761   1.912  -6.429  0.00  0.00     0.103 A 
ATOM     19  C   UNL d   1       3.489   0.999  -5.653  0.00  0.00     0.036 A 
ATOM     20  C   UNL d   1       3.112   0.774  -4.332  0.00  0.00     0.003 A 
ATOM     21  C   UNL d   1       2.017   1.458  -3.797  0.00  0.00     0.018 A 
BRANCH  18  22
ATOM     22  N   UNL d   1       3.166   2.143  -7.824  0.00  0.00    -0.116 N 
ATOM     23  O   UNL d   1       2.510   2.960  -8.481  0.00  0.00    -0.532 OA
ATOM     24  O   UNL d   1       4.136   1.507  -8.258  0.00  0.00    -0.532 OA
ENDBRANCH  18  22
ENDBRANCH  14  16
ENDBRANCH  13  14
ENDBRANCH   2  13
TORSDOF 4
