REMARK  3 active torsions:
REMARK  status: ('A' for Active; 'I' for Inactive)
REMARK    1  A    between atoms: C_3  and  C_1 
REMARK       I    between atoms: N_10  and  C_3 
REMARK    2  A    between atoms: C_16  and  C_6 
REMARK    3  A    between atoms: C_13  and  N_10 
ROOT
ATOM      1  C   UNL d   1      -0.170  -1.258  -0.217  0.00  0.00     0.092 C 
ATOM      2  N   UNL d   1      -1.137   0.806  -0.312  0.00  0.00    -0.259 N 
ATOM      3  HN  UNL d   1      -1.827   1.555  -0.362  1.00  0.00     0.195 HD
ATOM      4  C   UNL d   1      -1.370  -0.509  -0.485  0.00  0.00     0.083 C 
ATOM      5  O   UNL d   1       0.197   0.947  -0.057  0.00  0.00    -0.241 OA
ATOM      6  C   UNL d   1       0.786  -0.269  -0.037  0.00  0.00     0.090 C 
ATOM      7  C   UNL d   1       2.258  -0.239   0.097  0.00  0.00     0.080 C 
ENDROOT
BRANCH   1   8
ATOM      8  C   UNL d   1       0.088  -2.688  -0.217  0.00  0.00     0.256 C 
ATOM      9  N   UNL d   1       1.044  -3.106   0.695  0.00  0.00    -0.351 N 
ATOM     10  H   UNL d   1       1.326  -2.443   1.410  0.00  0.00     0.163 HD
ATOM     11  O   UNL d   1      -0.476  -3.477  -0.966  0.00  0.00    -0.267 OA
BRANCH   9  12
ATOM     12  C   UNL d   1       1.580  -4.458   0.792  0.00  0.00     0.099 C 
ATOM     13  C   UNL d   1       2.258  -4.958  -0.483  0.00  0.00     0.165 C 
ATOM     14  S   UNL d   1       2.490  -6.704  -0.195  0.00  0.00     0.146 S 
ATOM     15  O   UNL d   1       3.822  -6.902   0.340  0.00  0.00    -0.228 OA
ATOM     16  O   UNL d   1       2.000  -7.442  -1.339  0.00  0.00    -0.228 OA
ATOM     17  C   UNL d   1       1.321  -6.859   1.148  0.00  0.00     0.142 C 
ATOM     18  C   UNL d   1       0.562  -5.534   1.189  0.00  0.00     0.041 C 
ENDBRANCH   9  12
ENDBRANCH   1   8
BRANCH   4  19
ATOM     19  C   UNL d   1      -2.717  -0.906  -0.912  0.00  0.00    -0.006 A 
ATOM     20  C   UNL d   1      -2.920  -1.853  -1.922  0.00  0.00     0.014 A 
ATOM     21  C   UNL d   1      -4.201  -2.077  -2.443  0.00  0.00     0.001 A 
ATOM     22  C   UNL d   1      -5.292  -1.354  -1.965  0.00  0.00     0.000 A 
ATOM     23  C   UNL d   1      -5.112  -0.422  -0.948  0.00  0.00     0.001 A 
ATOM     24  C   UNL d   1      -3.835  -0.203  -0.423  0.00  0.00     0.014 A 
ENDBRANCH   4  19
TORSDOF 3
