REMARK  2 active torsions:
REMARK  status: ('A' for Active; 'I' for Inactive)
REMARK    1  A    between atoms: S_5  and  C_2 
REMARK    2  A    between atoms: C_7  and  S_5 
ROOT
ATOM      1  C   UNL d   1       0.456   0.627  -0.940  0.00  0.00     0.083 A 
ATOM      2  C   UNL d   1       1.110   1.475  -0.023  0.00  0.00     0.028 A 
ATOM      3  C   UNL d   1      -0.151   1.149  -2.128  0.00  0.00     0.102 C 
ATOM      4  N   UNL d   1      -0.636   1.564  -3.099  0.00  0.00    -0.191 NA
ATOM      5  C   UNL d   1       0.445  -0.760  -0.711  0.00  0.00     0.056 A 
ATOM      6 CL   UNL d   1      -0.346  -1.867  -1.782  0.00  0.00    -0.083 Cl
ATOM      7  C   UNL d   1       1.766   0.908   1.083  0.00  0.00     0.020 A 
ATOM      8  C   UNL d   1       1.767  -0.473   1.289  0.00  0.00     0.003 A 
ATOM      9  C   UNL d   1       1.100  -1.306   0.397  0.00  0.00     0.025 A 
ENDROOT
BRANCH   2  10
ATOM     10  S   UNL d   1       1.311   3.245  -0.238  0.00  0.00    -0.089 SA
BRANCH  10  11
ATOM     11  C   UNL d   1      -0.332   3.894   0.009  0.00  0.00     0.005 A 
ATOM     12  C   UNL d   1      -0.840   4.116   1.294  0.00  0.00     0.020 A 
ATOM     13  C   UNL d   1      -2.081   4.743   1.464  0.00  0.00     0.025 A 
ATOM     14  C   UNL d   1      -2.817   5.144   0.350  0.00  0.00     0.034 A 
ATOM     15  C   UNL d   1      -2.325   4.923  -0.932  0.00  0.00     0.025 A 
ATOM     16 CL   UNL d   1      -4.328   5.940   0.559  0.00  0.00    -0.084 Cl
ATOM     17  C   UNL d   1      -1.079   4.312  -1.099  0.00  0.00     0.020 A 
ENDBRANCH  10  11
ENDBRANCH   2  10
TORSDOF 2
