REMARK  1 active torsions:
REMARK  status: ('A' for Active; 'I' for Inactive)
REMARK    1  A    between atoms: C_2  and  N_1 
ROOT
ATOM      1  C   UNL d   1       0.174  -1.024  -0.618  0.00  0.00     0.121 A 
ATOM      2  C   UNL d   1      -0.955  -0.660  -1.410  0.00  0.00     0.024 A 
ATOM      3  C   UNL d   1      -1.737  -1.699  -1.951  0.00  0.00     0.044 A 
ATOM      4  C   UNL d   1       0.540  -2.359  -0.367  0.00  0.00    -0.028 A 
ATOM      5  N   UNL d   1      -2.831  -1.482  -2.699  0.00  0.00    -0.365 N 
ATOM      6  HN  UNL d   1      -3.372  -2.264  -3.070  1.00  0.00     0.165 HD
ATOM      7  C   UNL d   1      -0.254  -3.354  -0.942  0.00  0.00     0.011 A 
ATOM      8  C   UNL d   1      -1.370  -3.016  -1.711  0.00  0.00     0.031 A 
ATOM      9  C   UNL d   1      -1.373   0.661  -1.716  0.00  0.00     0.017 A 
ATOM     10  C   UNL d   1      -3.199  -0.209  -2.950  0.00  0.00     0.088 A 
ATOM     11  C   UNL d   1       1.718  -2.790   0.460  0.00  0.00     0.050 C 
ATOM     12  C   UNL d   1      -2.505   0.889  -2.489  0.00  0.00     0.018 A 
ENDROOT
BRANCH   1  13
ATOM     13  N   UNL d   1       0.970   0.044  -0.035  0.00  0.00    -0.114 N 
ATOM     14  O   UNL d   1       0.442   0.715   0.864  0.00  0.00    -0.532 OA
ATOM     15  O   UNL d   1       2.115   0.202  -0.477  0.00  0.00    -0.532 OA
ENDBRANCH   1  13
TORSDOF 1
