REMARK  2 active torsions:
REMARK  status: ('A' for Active; 'I' for Inactive)
REMARK       I    between atoms: N_2  and  C_1 
REMARK    1  A    between atoms: C_3  and  C_1 
REMARK    2  A    between atoms: C_4  and  N_2 
ROOT
ATOM      1  C   UNL d   1       1.146  -0.062   0.052  0.00  0.00     0.256 C 
ATOM      2  N   UNL d   1       0.479   1.027  -0.485  0.00  0.00    -0.323 N 
ATOM      3  O   UNL d   1       2.362  -0.229   0.072  0.00  0.00    -0.267 OA
ATOM      4  H   UNL d   1      -0.498   1.137  -0.251  0.00  0.00     0.169 HD
ENDROOT
BRANCH   1   5
ATOM      5  C   UNL d   1       0.301  -1.103   0.703  0.00  0.00     0.032 A 
ATOM      6  C   UNL d   1      -0.998  -1.392   0.268  0.00  0.00     0.018 A 
ATOM      7  C   UNL d   1      -1.718  -2.430   0.872  0.00  0.00     0.025 A 
ATOM      8  C   UNL d   1      -1.141  -3.177   1.899  0.00  0.00     0.034 A 
ATOM      9  C   UNL d   1       0.149  -2.893   2.339  0.00  0.00     0.025 A 
ATOM     10 CL   UNL d   1      -2.020  -4.472   2.612  0.00  0.00    -0.084 Cl
ATOM     11  C   UNL d   1       0.870  -1.858   1.739  0.00  0.00     0.018 A 
ENDBRANCH   1   5
BRANCH   2  12
ATOM     12  C   UNL d   1       1.079   2.094  -1.189  0.00  0.00     0.037 A 
ATOM     13  C   UNL d   1       2.387   2.056  -1.676  0.00  0.00     0.071 A 
ATOM     14  C   UNL d   1       2.918   3.163  -2.333  0.00  0.00     0.118 A 
ATOM     15  F   UNL d   1       4.175   3.115  -2.793  0.00  0.00    -0.206 F 
ATOM     16  C   UNL d   1       2.168   4.316  -2.522  0.00  0.00     0.042 A 
ATOM     17  C   UNL d   1       0.855   4.357  -2.060  0.00  0.00     0.005 A 
ATOM     18  C   UNL d   1       0.309   3.245  -1.406  0.00  0.00     0.029 A 
ENDBRANCH   2  12
TORSDOF 2
