REMARK  4 active torsions:
REMARK  status: ('A' for Active; 'I' for Inactive)
REMARK    1  A    between atoms: C_14  and  C_2 
REMARK    2  A    between atoms: S_15  and  C_5 
REMARK    3  A    between atoms: C_10  and  C_16 
REMARK    4  A    between atoms: C_16  and  S_15 
ROOT
ATOM      1  N   UNL d   1      -1.166  -0.082  -0.026  0.00  0.00    -0.324 N 
ATOM      2  C   UNL d   1      -0.354   1.025   0.052  0.00  0.00     0.105 A 
ATOM      3  N   UNL d   1       0.896   0.613   0.159  0.00  0.00    -0.286 N 
ATOM      4  HN  UNL d   1       1.716   1.214   0.244  1.00  0.00     0.188 HD
ATOM      5  C   UNL d   1      -0.336  -1.155   0.011  0.00  0.00     0.160 A 
ATOM      6  N   UNL d   1       0.907  -0.766   0.137  0.00  0.00    -0.278 N 
ATOM      7  HN  UNL d   1       1.728  -1.368   0.204  1.00  0.00     0.189 HD
ATOM      8  H   UNL d   1      -2.171  -0.113  -0.087  0.00  0.00     0.169 HD
ENDROOT
BRANCH   5   9
ATOM      9  S   UNL d   1      -0.936  -2.759  -0.110  0.00  0.00    -0.086 SA
BRANCH   9  10
ATOM     10  C   UNL d   1      -0.935  -3.235   1.647  0.00  0.00     0.140 C 
BRANCH  10  11
ATOM     11  C   UNL d   1      -1.962  -2.484   2.439  0.00  0.00     0.026 A 
ATOM     12  N   UNL d   1      -3.289  -2.490   2.022  0.00  0.00    -0.356 N 
ATOM     13  C   UNL d   1      -4.037  -1.806   2.860  0.00  0.00     0.047 A 
ATOM     14  HN  UNL d   1      -3.634  -2.959   1.184  1.00  0.00     0.166 HD
ATOM     15  C   UNL d   1      -5.508  -1.628   2.716  0.00  0.00     0.076 C 
ATOM     16  S   UNL d   1      -3.201  -1.089   4.176  0.00  0.00    -0.087 SA
ATOM     17  C   UNL d   1      -1.736  -1.764   3.600  0.00  0.00     0.077 A 
ENDBRANCH  10  11
ENDBRANCH   9  10
ENDBRANCH   5   9
BRANCH   2  18
ATOM     18  C   UNL d   1      -0.854   2.449   0.035  0.00  0.00     0.009 C 
ATOM     19  C   UNL d   1      -1.713   2.714   1.282  0.00  0.00     0.023 C 
ATOM     20  C   UNL d   1       0.339   3.425   0.042  0.00  0.00     0.023 C 
ATOM     21  C   UNL d   1      -1.687   2.714  -1.231  0.00  0.00     0.023 C 
ENDBRANCH   2  18
TORSDOF 4
