REMARK  4 active torsions:
REMARK  status: ('A' for Active; 'I' for Inactive)
REMARK    1  A    between atoms: C_4  and  C_1 
REMARK    2  A    between atoms: C_2  and  C_6 
REMARK       I    between atoms: N_11  and  C_6 
REMARK    3  A    between atoms: O_13  and  C_8 
REMARK    4  A    between atoms: N_12  and  N_11 
ROOT
ATOM      1  C   UNL d   1       1.512  -0.712  -0.240  0.00  0.00     0.181 C 
ATOM      2  C   UNL d   1       1.940   0.742  -0.056  0.00  0.00     0.122 C 
ATOM      3  O   UNL d   1       0.077  -0.706  -0.281  0.00  0.00    -0.310 OA
ATOM      4  C   UNL d   1      -0.405   0.558  -0.309  0.00  0.00     0.260 C 
ATOM      5  C   UNL d   1       0.692   1.564  -0.298  0.00  0.00     0.128 C 
ATOM      6  O   UNL d   1      -1.595   0.826  -0.333  0.00  0.00    -0.265 OA
ENDROOT
BRANCH   1   7
ATOM      7  C   UNL d   1       1.977  -1.727   0.783  0.00  0.00     0.005 A 
ATOM      8  C   UNL d   1       3.157  -2.474   0.633  0.00  0.00     0.077 A 
ATOM      9  C   UNL d   1       3.521  -3.425   1.597  0.00  0.00     0.037 A 
ATOM     10  C   UNL d   1       2.729  -3.637   2.725  0.00  0.00     0.003 A 
ATOM     11  C   UNL d   1       1.552  -2.919   2.884  0.00  0.00     0.001 A 
ATOM     12  C   UNL d   1       1.181  -1.979   1.923  0.00  0.00     0.012 A 
BRANCH   8  13
ATOM     13  O   UNL d   1       3.911  -2.481  -0.511  0.00  0.00    -0.355 OA
ATOM     14  C   UNL d   1       4.639  -1.282  -0.754  0.00  0.00     0.210 C 
ENDBRANCH   8  13
ENDBRANCH   1   7
BRANCH   2  15
ATOM     15  C   UNL d   1       2.636   1.092   1.252  0.00  0.00     0.239 C 
ATOM     16  O   UNL d   1       3.834   1.370   1.272  0.00  0.00    -0.272 OA
ATOM     17  N   UNL d   1       1.869   1.073   2.403  0.00  0.00    -0.294 N 
ATOM     18  H   UNL d   1       0.865   0.909   2.392  0.00  0.00     0.183 HD
BRANCH  17  19
ATOM     19  N   UNL d   1       2.483   1.356   3.640  0.00  0.00    -0.247 NA
ATOM     20  H   UNL d   1       3.415   1.742   3.433  0.00  0.00     0.143 HD
ATOM     21  H   UNL d   1       2.691   0.464   4.102  0.00  0.00     0.143 HD
ENDBRANCH  17  19
ENDBRANCH   2  15
TORSDOF 4
