REMARK  4 active torsions:
REMARK  status: ('A' for Active; 'I' for Inactive)
REMARK    1  A    between atoms: C_2  and  S_1 
REMARK    2  A    between atoms: N_5  and  S_1 
REMARK    3  A    between atoms: C_4  and  N_5 
REMARK    4  A    between atoms: C_17  and  C_8 
ROOT
ATOM      1  N   UNL d   1       0.630   1.502   0.505  0.00  0.00    -0.160 NA
ATOM      2  H   UNL d   1       1.243   0.689   0.428  0.00  0.00     0.148 HD
ENDROOT
BRANCH   1   3
ATOM      3  C   UNL d   1       0.923   2.208   1.693  0.00  0.00     0.138 C 
ATOM      4  N   UNL d   1       2.093   2.046   2.257  0.00  0.00    -0.339 N 
ATOM      5  C   UNL d   1       2.094   2.645   3.517  0.00  0.00     0.057 C 
ATOM      6  HN  UNL d   1       2.884   1.557   1.838  1.00  0.00     0.167 HD
ATOM      7  C   UNL d   1       0.857   3.133   3.923  0.00  0.00     0.009 C 
ATOM      8  S   UNL d   1      -0.240   3.064   2.595  0.00  0.00    -0.062 SA
ATOM      9  C   UNL d   1       0.379   3.631   5.247  0.00  0.00     0.059 C 
BRANCH   5  10
ATOM     10  C   UNL d   1       3.316   2.652   4.323  0.00  0.00    -0.007 A 
ATOM     11  C   UNL d   1       4.249   1.616   4.189  0.00  0.00     0.038 A 
ATOM     12  C   UNL d   1       5.440   1.624   4.929  0.00  0.00     0.040 A 
ATOM     13 CL   UNL d   1       6.546   0.318   4.697  0.00  0.00    -0.084 Cl
ATOM     14  C   UNL d   1       5.726   2.668   5.822  0.00  0.00    -0.040 A 
ATOM     15  C   UNL d   1       4.798   3.708   5.946  0.00  0.00     0.009 A 
ATOM     16  C   UNL d   1       6.995   2.717   6.626  0.00  0.00     0.050 C 
ATOM     17  C   UNL d   1       3.618   3.706   5.195  0.00  0.00     0.014 A 
ENDBRANCH   5  10
ENDBRANCH   1   3
BRANCH   1  18
ATOM     18  S   UNL d   1       0.820   2.429  -0.892  0.00  0.00     0.249 S 
ATOM     19  O   UNL d   1       0.493   1.589  -2.023  0.00  0.00    -0.205 OA
ATOM     20  O   UNL d   1       0.156   3.708  -0.713  0.00  0.00    -0.205 OA
BRANCH  18  21
ATOM     21  C   UNL d   1       2.543   2.744  -0.996  0.00  0.00     0.105 A 
ATOM     22  C   UNL d   1       3.502   1.717  -1.042  0.00  0.00     0.108 A 
ATOM     23  C   UNL d   1       4.922   2.011  -1.197  0.00  0.00     0.086 A 
ATOM     24  N   UNL d   1       3.361   0.387  -0.964  0.00  0.00    -0.238 N 
ATOM     25  N   UNL d   1       5.593   0.856  -1.232  0.00  0.00    -0.239 N 
ATOM     26  C   UNL d   1       5.420   3.328  -1.296  0.00  0.00     0.034 A 
ATOM     27  O   UNL d   1       4.639  -0.138  -1.104  0.00  0.00    -0.156 OA
ATOM     28  HN  UNL d   1       6.601   0.732  -1.332  1.00  0.00     0.197 HD
ATOM     29  C   UNL d   1       4.436   4.334  -1.244  0.00  0.00     0.004 A 
ATOM     30  C   UNL d   1       3.053   4.056  -1.101  0.00  0.00     0.027 A 
ATOM     31  HN  UNL d   1       2.494  -0.132  -0.830  1.00  0.00     0.197 HD
ENDBRANCH  18  21
ENDBRANCH   1  18
TORSDOF 4
