REMARK  1 active torsions:
REMARK  status: ('A' for Active; 'I' for Inactive)
REMARK    1  A    between atoms: C_12  and  C_6 
ROOT
ATOM      1  C   UNL d   1      -1.779   1.669   0.610  0.00  0.00     0.026 C 
ATOM      2  N   UNL d   1      -2.815   1.405   1.342  0.00  0.00    -0.357 N 
ATOM      3  HN  UNL d   1      -2.869   1.613   2.339  1.00  0.00     0.166 HD
ATOM      4  C   UNL d   1      -1.449   3.109   0.347  0.00  0.00     0.059 C 
ATOM      5  S   UNL d   1      -4.277   3.268  -0.673  0.00  0.00    -0.117 SA
ATOM      6  C   UNL d   1      -2.459   3.693  -0.690  0.00  0.00     0.095 C 
ATOM      7  C   UNL d   1      -0.968   0.826  -0.276  0.00  0.00    -0.007 A 
ATOM      8  C   UNL d   1      -0.038   3.038  -0.274  0.00  0.00     0.051 C 
ATOM      9  C   UNL d   1       0.017   1.646  -0.824  0.00  0.00    -0.045 A 
ATOM     10  C   UNL d   1      -3.853   0.805   0.622  0.00  0.00     0.049 C 
ATOM     11  C   UNL d   1      -4.389   1.476  -0.499  0.00  0.00     0.028 C 
ATOM     12  C   UNL d   1      -1.044  -0.521  -0.576  0.00  0.00     0.014 A 
ATOM     13  C   UNL d   1       0.945   1.138  -1.724  0.00  0.00     0.008 A 
ATOM     14  C   UNL d   1      -4.363  -0.433   1.006  0.00  0.00     0.031 C 
ATOM     15  C   UNL d   1      -5.240   0.776  -1.359  0.00  0.00     0.021 C 
ATOM     16  C   UNL d   1      -0.110  -1.040  -1.488  0.00  0.00     0.001 A 
ATOM     17  C   UNL d   1       0.867  -0.213  -2.058  0.00  0.00     0.001 A 
ATOM     18  C   UNL d   1      -5.648  -0.520  -1.037  0.00  0.00     0.002 C 
ATOM     19  C   UNL d   1      -5.268  -1.094   0.178  0.00  0.00     0.002 C 
ENDROOT
BRANCH   6  20
ATOM     20  C   UNL d   1      -2.349   5.223  -0.643  0.00  0.00    -0.043 A 
ATOM     21  C   UNL d   1      -2.645   5.929   0.539  0.00  0.00     0.010 A 
ATOM     22  C   UNL d   1      -2.460   7.309   0.613  0.00  0.00     0.024 A 
ATOM     23  C   UNL d   1      -1.998   8.001  -0.502  0.00  0.00     0.034 A 
ATOM     24  C   UNL d   1      -1.735   7.326  -1.693  0.00  0.00     0.024 A 
ATOM     25 CL   UNL d   1      -1.737   9.699  -0.404  0.00  0.00    -0.084 Cl
ATOM     26  C   UNL d   1      -1.913   5.942  -1.766  0.00  0.00     0.010 A 
ENDBRANCH   6  20
TORSDOF 1
