REMARK  8 active torsions:
REMARK  status: ('A' for Active; 'I' for Inactive)
REMARK    1  A    between atoms: C_3  and  C_1 
REMARK    2  A    between atoms: C_8  and  C_2 
REMARK    3  A    between atoms: O_14  and  C_3 
REMARK    4  A    between atoms: O_16  and  C_6 
REMARK    5  A    between atoms: O_10  and  C_7 
REMARK    6  A    between atoms: C_15  and  O_10 
REMARK    7  A    between atoms: C_18  and  O_14 
REMARK    8  A    between atoms: C_17  and  C_15 
ROOT
ATOM      1  C   UNL d   1       0.768   0.677   0.406  0.00  0.00     0.120 C 
ATOM      2  C   UNL d   1       0.323   0.569  -0.859  0.00  0.00     0.040 C 
ATOM      3  C   UNL d   1       1.875   1.496   0.771  0.00  0.00     0.105 C 
ATOM      4  N   UNL d   1       2.772   2.176   1.058  0.00  0.00    -0.191 NA
ENDROOT
BRANCH   1   5
ATOM      5  C   UNL d   1      -0.007  -0.019   1.459  0.00  0.00     0.303 C 
ATOM      6  O   UNL d   1      -1.020  -0.672   1.254  0.00  0.00    -0.258 OA
BRANCH   5   7
ATOM      7  O   UNL d   1       0.516   0.272   2.674  0.00  0.00    -0.317 OA
BRANCH   7   8
ATOM      8  C   UNL d   1      -0.348   0.061   3.798  0.00  0.00     0.174 C 
ATOM      9  C   UNL d   1      -1.183   1.315   3.989  0.00  0.00     0.034 C 
ENDBRANCH   7   8
ENDBRANCH   5   7
ENDBRANCH   1   5
BRANCH   2  10
ATOM     10  C   UNL d   1       0.929   1.304  -1.966  0.00  0.00    -0.032 A 
ATOM     11  C   UNL d   1       2.012   0.761  -2.662  0.00  0.00     0.051 A 
ATOM     12  C   UNL d   1       2.650   1.502  -3.664  0.00  0.00     0.102 A 
ATOM     13  C   UNL d   1       2.156   2.772  -4.007  0.00  0.00     0.102 A 
ATOM     14  C   UNL d   1       1.096   3.323  -3.275  0.00  0.00     0.040 A 
ATOM     15  C   UNL d   1       0.479   2.590  -2.265  0.00  0.00     0.014 A 
BRANCH  12  16
ATOM     16  O   UNL d   1       3.727   1.026  -4.371  0.00  0.00    -0.353 OA
ATOM     17  C   UNL d   1       4.575   0.126  -3.660  0.00  0.00     0.210 C 
ENDBRANCH  12  16
BRANCH  13  18
ATOM     18  O   UNL d   1       2.769   3.428  -5.049  0.00  0.00    -0.344 OA
BRANCH  18  19
ATOM     19  C   UNL d   1       1.962   4.420  -5.694  0.00  0.00     0.214 C 
BRANCH  19  20
ATOM     20  C   UNL d   1       2.441   4.731  -7.089  0.00  0.00    -0.034 A 
ATOM     21  C   UNL d   1       3.122   3.784  -7.865  0.00  0.00     0.009 A 
ATOM     22  C   UNL d   1       3.470   4.071  -9.185  0.00  0.00     0.001 A 
ATOM     23  C   UNL d   1       3.139   5.300  -9.748  0.00  0.00     0.000 A 
ATOM     24  C   UNL d   1       2.453   6.249  -8.989  0.00  0.00     0.001 A 
ATOM     25  C   UNL d   1       2.102   5.962  -7.668  0.00  0.00     0.009 A 
ENDBRANCH  19  20
ENDBRANCH  18  19
ENDBRANCH  13  18
ENDBRANCH   2  10
TORSDOF 8
