REMARK  5 active torsions:
REMARK  status: ('A' for Active; 'I' for Inactive)
REMARK    1  A    between atoms: N_2  and  C_1 
REMARK    2  A    between atoms: N_3  and  C_1 
REMARK    3  A    between atoms: C_4  and  C_1 
REMARK    4  A    between atoms: C_5  and  C_1 
REMARK       I    between atoms: C_6  and  N_3 
REMARK    5  A    between atoms: C_8  and  C_6 
ROOT
ATOM      1  C   UNL d   1       1.040   0.003  -0.050  0.00  0.00     0.310 C 
ENDROOT
BRANCH   1   2
ATOM      2  N   UNL d   1       0.564  -1.168   0.828  0.00  0.00    -0.310 N 
ATOM      3  C   UNL d   1       0.236  -1.096   2.174  0.00  0.00     0.222 C 
ATOM      4  O   UNL d   1       0.170  -0.074   2.841  0.00  0.00    -0.273 OA
ATOM      5  C   UNL d   1      -0.016  -2.488   2.693  0.00  0.00     0.105 C 
ATOM      6  C   UNL d   1      -0.183  -3.298   1.417  0.00  0.00     0.029 C 
ATOM      7  C   UNL d   1       0.680  -2.555   0.415  0.00  0.00     0.129 C 
ENDBRANCH   1   2
BRANCH   1   8
ATOM      8  N   UNL d   1       0.652   1.256   0.670  0.00  0.00    -0.315 N 
ATOM      9  C   UNL d   1       1.033   2.500   0.226  0.00  0.00     0.255 C 
ATOM     10  O   UNL d   1       1.696   2.651  -0.801  0.00  0.00    -0.268 OA
ATOM     11  H   UNL d   1       0.392   1.149   1.650  0.00  0.00     0.165 HD
BRANCH   9  12
ATOM     12  C   UNL d   1       0.619   3.653   1.054  0.00  0.00     0.047 A 
ATOM     13  C   UNL d   1       1.334   4.844   0.975  0.00  0.00     0.104 A 
ATOM     14  N   UNL d   1       1.016   5.958   1.687  0.00  0.00    -0.374 N 
ATOM     15  C   UNL d   1      -0.061   5.882   2.499  0.00  0.00     0.087 A 
ATOM     16  HN  UNL d   1       1.567   6.813   1.611  1.00  0.00     0.164 HD
ATOM     17  C   UNL d   1      -0.836   4.742   2.630  0.00  0.00     0.018 A 
ATOM     18  C   UNL d   1      -0.494   3.612   1.902  0.00  0.00     0.020 A 
ENDBRANCH   9  12
ENDBRANCH   1   8
BRANCH   1  19
ATOM     19  C   UNL d   1       0.307  -0.054  -1.448  0.00  0.00     0.441 C 
ATOM     20  F   UNL d   1      -0.816  -0.831  -1.352  0.00  0.00    -0.166 F 
ATOM     21  F   UNL d   1      -0.155   1.145  -1.871  0.00  0.00    -0.166 F 
ATOM     22  F   UNL d   1       1.026  -0.597  -2.450  0.00  0.00    -0.166 F 
ENDBRANCH   1  19
BRANCH   1  23
ATOM     23  C   UNL d   1       2.595  -0.064  -0.315  0.00  0.00     0.441 C 
ATOM     24  F   UNL d   1       3.098  -1.279   0.047  0.00  0.00    -0.166 F 
ATOM     25  F   UNL d   1       2.979   0.126  -1.591  0.00  0.00    -0.166 F 
ATOM     26  F   UNL d   1       3.286   0.823   0.449  0.00  0.00    -0.166 F 
ENDBRANCH   1  23
TORSDOF 5
