REMARK  6 active torsions:
REMARK  status: ('A' for Active; 'I' for Inactive)
REMARK    1  A    between atoms: C_2  and  S_1 
REMARK    2  A    between atoms: N_8  and  S_1 
REMARK    3  A    between atoms: C_12  and  C_4 
REMARK    4  A    between atoms: C_5  and  C_13 
REMARK    5  A    between atoms: C_18  and  N_8 
REMARK    6  A    between atoms: S_23  and  C_10 
ROOT
ATOM      1  C   UNL d   1       0.317   1.595   0.179  0.00  0.00     0.116 A 
ATOM      2  S   UNL d   1       1.289   2.955  -0.171  0.00  0.00    -0.075 SA
ATOM      3  C   UNL d   1       0.066   4.063   0.313  0.00  0.00     0.033 A 
ATOM      4  C   UNL d   1      -0.949   1.972   0.578  0.00  0.00     0.034 A 
ATOM      5  C   UNL d   1      -1.100   3.388   0.630  0.00  0.00     0.023 A 
ENDROOT
BRANCH   1   6
ATOM      6  S   UNL d   1       1.056  -0.012  -0.032  0.00  0.00     0.252 S 
ATOM      7  O   UNL d   1       0.247  -0.905   0.773  0.00  0.00    -0.205 OA
ATOM      8  O   UNL d   1       2.471   0.136   0.226  0.00  0.00    -0.205 OA
BRANCH   6   9
ATOM      9  N   UNL d   1       0.901  -0.482  -1.658  0.00  0.00    -0.181 NA
ATOM     10  H   UNL d   1       1.521  -1.279  -1.807  0.00  0.00     0.146 HD
BRANCH   9  11
ATOM     11  C   UNL d   1      -0.429  -0.692  -2.133  0.00  0.00     0.023 A 
ATOM     12  C   UNL d   1      -1.059  -1.930  -1.979  0.00  0.00     0.040 A 
ATOM     13  C   UNL d   1      -2.372  -2.115  -2.442  0.00  0.00     0.049 A 
ATOM     14  C   UNL d   1      -3.043  -1.034  -3.037  0.00  0.00     0.016 A 
ATOM     15  C   UNL d   1      -2.417   0.206  -3.165  0.00  0.00     0.003 A 
ATOM     16  C   UNL d   1      -1.111   0.377  -2.711  0.00  0.00     0.024 A 
BRANCH  13  17
ATOM     17  C   UNL d   1      -3.070  -3.449  -2.324  0.00  0.00     0.417 C 
ATOM     18  F   UNL d   1      -2.314  -4.412  -1.728  0.00  0.00    -0.166 F 
ATOM     19  F   UNL d   1      -4.222  -3.374  -1.602  0.00  0.00    -0.166 F 
ATOM     20  F   UNL d   1      -3.424  -3.954  -3.538  0.00  0.00    -0.166 F 
ENDBRANCH  13  17
ENDBRANCH   9  11
ENDBRANCH   6   9
ENDBRANCH   1   6
BRANCH   3  21
ATOM     21  C   UNL d   1       0.309   5.514   0.351  0.00  0.00     0.052 A 
ATOM     22  N   UNL d   1      -0.789   6.267   0.127  0.00  0.00    -0.336 N 
ATOM     23  C   UNL d   1      -0.642   7.598   0.222  0.00  0.00     0.144 A 
ATOM     24  HN  UNL d   1      -1.688   5.844  -0.103  1.00  0.00     0.168 HD
ATOM     25  N   UNL d   1       0.506   8.219   0.536  0.00  0.00    -0.347 N 
ATOM     26  C   UNL d   1       1.571   7.432   0.760  0.00  0.00     0.092 A 
ATOM     27  HN  UNL d   1       0.566   9.235   0.602  1.00  0.00     0.167 HD
ATOM     28  C   UNL d   1       1.532   6.062   0.676  0.00  0.00     0.048 A 
BRANCH  23  29
ATOM     29  S   UNL d   1      -2.094   8.578  -0.082  0.00  0.00    -0.098 SA
ATOM     30  C   UNL d   1      -1.442  10.238   0.231  0.00  0.00     0.099 C 
ENDBRANCH  23  29
ENDBRANCH   3  21
TORSDOF 6
