REMARK  6 active torsions:
REMARK  status: ('A' for Active; 'I' for Inactive)
REMARK    1  A    between atoms: C_3  and  N_1 
REMARK    2  A    between atoms: C_2  and  C_10 
REMARK    3  A    between atoms: C_4  and  C_14 
REMARK    4  A    between atoms: C_21  and  C_5 
REMARK    5  A    between atoms: O_17  and  C_12 
REMARK    6  A    between atoms: C_26  and  O_17 
ROOT
ATOM      1  C   UNL d   1      -0.257  -9.653   1.016  0.00  0.00     0.055 C 
ATOM      2  C   UNL d   1       0.070  -8.518   0.361  0.00  0.00     0.034 C 
ATOM      3  C   UNL d   1      -0.595 -10.841   0.290  0.00  0.00     0.100 C 
ATOM      4  N   UNL d   1      -0.856 -11.818  -0.286  0.00  0.00    -0.191 NA
ENDROOT
BRANCH   1   5
ATOM      5  C   UNL d   1      -0.279  -9.680   2.507  0.00  0.00    -0.015 A 
ATOM      6  C   UNL d   1      -0.684  -8.556   3.247  0.00  0.00     0.016 A 
ATOM      7  C   UNL d   1      -0.765  -8.597   4.643  0.00  0.00     0.038 A 
ATOM      8  C   UNL d   1      -0.418  -9.756   5.337  0.00  0.00     0.077 A 
ATOM      9  C   UNL d   1      -0.039 -10.890   4.621  0.00  0.00     0.038 A 
ATOM     10  C   UNL d   1       0.035 -10.851   3.220  0.00  0.00     0.016 A 
BRANCH   8  11
ATOM     11  O   UNL d   1      -0.506  -9.879   6.707  0.00  0.00    -0.294 OA
BRANCH  11  12
ATOM     12  C   UNL d   1      -0.181  -8.767   7.472  0.00  0.00     0.148 A 
ATOM     13  C   UNL d   1      -0.885  -8.579   8.655  0.00  0.00     0.059 A 
ATOM     14  C   UNL d   1      -0.616  -7.439   9.415  0.00  0.00     0.041 A 
ATOM     15  C   UNL d   1       0.356  -6.543   8.960  0.00  0.00     0.118 A 
ATOM     16  C   UNL d   1       1.039  -6.827   7.789  0.00  0.00     0.126 A 
ATOM     17  N   UNL d   1       0.796  -7.930   7.043  0.00  0.00    -0.344 N 
ATOM     18  HN  UNL d   1       1.325  -8.124   6.193  1.00  0.00     0.167 HD
BRANCH  15  19
ATOM     19  N   UNL d   1       0.648  -5.313   9.682  0.00  0.00    -0.114 N 
ATOM     20  O   UNL d   1       1.490  -4.546   9.195  0.00  0.00    -0.532 OA
ATOM     21  O   UNL d   1       0.028  -5.103  10.733  0.00  0.00    -0.532 OA
ENDBRANCH  15  19
ENDBRANCH  11  12
ENDBRANCH   8  11
ENDBRANCH   1   5
BRANCH   2  22
ATOM     22  C   UNL d   1       0.039  -8.348  -1.096  0.00  0.00    -0.035 A 
ATOM     23  C   UNL d   1      -1.143  -7.934  -1.720  0.00  0.00     0.012 A 
ATOM     24  C   UNL d   1      -1.187  -7.766  -3.106  0.00  0.00     0.017 A 
ATOM     25  C   UNL d   1      -0.049  -8.009  -3.889  0.00  0.00     0.048 A 
ATOM     26  C   UNL d   1       1.132  -8.428  -3.255  0.00  0.00     0.017 A 
ATOM     27  C   UNL d   1       1.177  -8.595  -1.868  0.00  0.00     0.012 A 
BRANCH  25  28
ATOM     28  C   UNL d   1      -0.077  -7.819  -5.386  0.00  0.00     0.417 C 
ATOM     29  F   UNL d   1      -1.290  -7.425  -5.865  0.00  0.00    -0.166 F 
ATOM     30  F   UNL d   1       0.811  -6.872  -5.803  0.00  0.00    -0.166 F 
ATOM     31  F   UNL d   1       0.242  -8.954  -6.066  0.00  0.00    -0.166 F 
ENDBRANCH  25  28
ENDBRANCH   2  22
TORSDOF 6
