REMARK  3 active torsions:
REMARK  status: ('A' for Active; 'I' for Inactive)
REMARK    1  A    between atoms: C_2  and  N_1 
REMARK    2  A    between atoms: O_4  and  C_3 
REMARK    3  A    between atoms: C_5  and  O_4 
ROOT
ATOM      1  C   UNL d   1      -0.949  -2.523   0.664  0.00  0.00     0.154 A 
ATOM      2  C   UNL d   1      -0.646  -1.320   0.052  0.00  0.00     0.181 A 
ATOM      3  N   UNL d   1       0.061  -0.348   0.687  0.00  0.00    -0.345 N 
ATOM      4  HN  UNL d   1       0.253   0.548   0.238  1.00  0.00     0.167 HD
ATOM      5  C   UNL d   1      -0.492  -2.785   1.957  0.00  0.00     0.042 A 
ATOM      6  C   UNL d   1       0.501  -0.615   1.939  0.00  0.00     0.090 A 
ATOM      7  C   UNL d   1       0.259  -1.808   2.604  0.00  0.00     0.020 A 
ENDROOT
BRANCH   2   8
ATOM      8  O   UNL d   1      -1.120  -1.059  -1.221  0.00  0.00    -0.290 OA
BRANCH   8   9
ATOM      9  C   UNL d   1      -0.332  -0.295  -2.056  0.00  0.00     0.099 A 
ATOM     10  C   UNL d   1      -0.962   0.610  -2.921  0.00  0.00     0.069 A 
ATOM     11  C   UNL d   1      -0.208   1.372  -3.817  0.00  0.00     0.050 A 
ATOM     12 CL   UNL d   1      -2.677   0.815  -2.911  0.00  0.00    -0.081 Cl
ATOM     13  C   UNL d   1       1.176   1.221  -3.853  0.00  0.00     0.035 A 
ATOM     14  C   UNL d   1       1.812   0.307  -3.015  0.00  0.00     0.026 A 
ATOM     15 CL   UNL d   1       2.112   2.161  -4.949  0.00  0.00    -0.084 Cl
ATOM     16  C   UNL d   1       1.057  -0.463  -2.129  0.00  0.00     0.041 A 
ENDBRANCH   8   9
ENDBRANCH   2   8
BRANCH   1  17
ATOM     17  N   UNL d   1      -1.708  -3.525  -0.036  0.00  0.00    -0.111 N 
ATOM     18  O   UNL d   1      -1.283  -3.900  -1.137  0.00  0.00    -0.532 OA
ATOM     19  O   UNL d   1      -2.700  -3.985   0.545  0.00  0.00    -0.532 OA
ENDBRANCH   1  17
TORSDOF 3
