REMARK  6 active torsions:
REMARK  status: ('A' for Active; 'I' for Inactive)
REMARK    1  A    between atoms: C_5  and  C_1 
REMARK    2  A    between atoms: C_13  and  C_4 
REMARK       I    between atoms: N_10  and  C_5 
REMARK    3  A    between atoms: C_9  and  O_16 
REMARK    4  A    between atoms: N_12  and  N_10 
REMARK       I    between atoms: C_11  and  N_12 
REMARK    5  A    between atoms: C_14  and  C_11 
REMARK    6  A    between atoms: O_16  and  C_25 
ROOT
ATOM      1  C   UNL d   1       0.613  -1.053   0.005  0.00  0.00     0.241 A 
ATOM      2  N   UNL d   1       1.300   0.071  -0.062  0.00  0.00    -0.315 N 
ATOM      3  HN  UNL d   1       2.307   0.199  -0.168  1.00  0.00     0.169 HD
ATOM      4  C   UNL d   1       0.309   1.033   0.045  0.00  0.00     0.138 A 
ATOM      5  N   UNL d   1      -0.926   0.523   0.190  0.00  0.00    -0.242 N 
ATOM      6  HN  UNL d   1      -1.805   1.029   0.296  1.00  0.00     0.196 HD
ATOM      7  O   UNL d   1      -0.727  -0.855   0.162  0.00  0.00    -0.212 OA
ENDROOT
BRANCH   1   8
ATOM      8  C   UNL d   1       1.110  -2.410  -0.095  0.00  0.00     0.313 C 
ATOM      9  N   UNL d   1       2.485  -2.522  -0.249  0.00  0.00    -0.260 N 
ATOM     10  H   UNL d   1       3.115  -1.720  -0.231  0.00  0.00     0.190 HD
ATOM     11  O   UNL d   1       0.401  -3.418  -0.062  0.00  0.00    -0.262 OA
BRANCH   9  12
ATOM     12  N   UNL d   1       3.058  -3.802  -0.360  0.00  0.00    -0.263 N 
ATOM     13  C   UNL d   1       4.435  -3.909  -0.398  0.00  0.00     0.270 C 
ATOM     14  O   UNL d   1       5.160  -2.914  -0.365  0.00  0.00    -0.266 OA
ATOM     15  H   UNL d   1       2.406  -4.574  -0.474  0.00  0.00     0.190 HD
BRANCH  13  16
ATOM     16  C   UNL d   1       5.031  -5.280  -0.481  0.00  0.00     0.033 A 
ATOM     17  C   UNL d   1       4.282  -6.458  -0.341  0.00  0.00     0.019 A 
ATOM     18  C   UNL d   1       4.913  -7.708  -0.396  0.00  0.00     0.025 A 
ATOM     19  C   UNL d   1       6.292  -7.790  -0.587  0.00  0.00     0.034 A 
ATOM     20  C   UNL d   1       7.047  -6.629  -0.729  0.00  0.00     0.025 A 
ATOM     21 CL   UNL d   1       7.061  -9.327  -0.635  0.00  0.00    -0.084 Cl
ATOM     22  C   UNL d   1       6.420  -5.382  -0.676  0.00  0.00     0.019 A 
ENDBRANCH  13  16
ENDBRANCH   9  12
ENDBRANCH   1   8
BRANCH   4  23
ATOM     23  C   UNL d   1       0.592   2.465  -0.012  0.00  0.00     0.010 A 
ATOM     24  C   UNL d   1       1.903   2.921  -0.203  0.00  0.00     0.018 A 
ATOM     25  C   UNL d   1       2.190   4.293  -0.276  0.00  0.00     0.038 A 
ATOM     26  C   UNL d   1       1.175   5.232  -0.118  0.00  0.00     0.078 A 
ATOM     27  C   UNL d   1      -0.140   4.786   0.038  0.00  0.00     0.038 A 
ATOM     28  C   UNL d   1      -0.432   3.418   0.096  0.00  0.00     0.018 A 
BRANCH  26  29
ATOM     29  O   UNL d   1       1.318   6.583  -0.172  0.00  0.00    -0.255 OA
BRANCH  29  30
ATOM     30  C   UNL d   1       2.513   7.187   0.307  0.00  0.00     0.530 C 
ATOM     31  F   UNL d   1       3.386   6.329   0.875  0.00  0.00    -0.144 F 
ATOM     32  F   UNL d   1       3.131   7.819  -0.715  0.00  0.00    -0.144 F 
ATOM     33  F   UNL d   1       2.183   8.113   1.235  0.00  0.00    -0.144 F 
ENDBRANCH  29  30
ENDBRANCH  26  29
ENDBRANCH   4  23
TORSDOF 6
