REMARK  2 active torsions:
REMARK  status: ('A' for Active; 'I' for Inactive)
REMARK    1  A    between atoms: C_2  and  C_1 
REMARK       I    between atoms: N_3  and  C_1 
REMARK    2  A    between atoms: C_9  and  N_3 
ROOT
ATOM      1  C   UNL d   1      -4.173   0.057   1.276  0.00  0.00    -0.078 C 
ATOM      2  C   UNL d   1      -4.803  -0.411   2.179  0.00  0.00     0.018 C 
ATOM      3  C   UNL d   1      -1.147   0.896  -0.728  0.00  0.00     0.036 A 
ATOM      4  C   UNL d   1      -3.362   0.567   0.212  0.00  0.00     0.019 A 
ATOM      5  C   UNL d   1      -1.971   0.469   0.314  0.00  0.00     0.050 A 
ATOM      6  C   UNL d   1      -3.128   1.599  -1.951  0.00  0.00     0.004 A 
ATOM      7  C   UNL d   1      -1.736   1.495  -1.849  0.00  0.00     0.029 A 
ATOM      8  C   UNL d   1      -3.943   1.121  -0.924  0.00  0.00     0.021 A 
ENDROOT
BRANCH   3   9
ATOM      9  N   UNL d   1       0.258   0.735  -0.722  0.00  0.00    -0.323 N 
ATOM     10  C   UNL d   1       1.002   0.017   0.207  0.00  0.00     0.259 C 
ATOM     11  O   UNL d   1       0.552  -0.603   1.163  0.00  0.00    -0.267 OA
ATOM     12  H   UNL d   1       0.758   1.179  -1.484  0.00  0.00     0.169 HD
BRANCH  10  13
ATOM     13  C   UNL d   1       2.475  -0.003   0.006  0.00  0.00     0.075 A 
ATOM     14  C   UNL d   1       3.202   1.176  -0.235  0.00  0.00     0.051 A 
ATOM     15 CL   UNL d   1       2.472   2.740  -0.370  0.00  0.00    -0.083 Cl
ATOM     16  C   UNL d   1       4.599   1.142  -0.345  0.00  0.00     0.025 A 
ATOM     17  C   UNL d   1       5.292  -0.055  -0.190  0.00  0.00     0.003 A 
ATOM     18  C   UNL d   1       4.588  -1.228   0.062  0.00  0.00     0.025 A 
ATOM     19  C   UNL d   1       3.189  -1.210   0.152  0.00  0.00     0.051 A 
ATOM     20 CL   UNL d   1       2.434  -2.751   0.389  0.00  0.00    -0.083 Cl
ENDBRANCH  10  13
ENDBRANCH   3   9
TORSDOF 2
