REMARK  5 active torsions:
REMARK  status: ('A' for Active; 'I' for Inactive)
REMARK    1  A    between atoms: C_11  and  N_3 
REMARK    2  A    between atoms: S_12  and  C_7 
REMARK    3  A    between atoms: C_8  and  C_19 
REMARK    4  A    between atoms: C_19  and  S_12 
REMARK       I    between atoms: C_14  and  N_15 
REMARK    5  A    between atoms: N_15  and  C_20 
ROOT
ATOM      1  N   UNL d   1      -0.492  -1.197  -0.144  0.00  0.00    -0.259 N 
ATOM      2  HN  UNL d   1      -0.738  -2.146  -0.425  1.00  0.00     0.191 HD
ATOM      3  N   UNL d   1       0.726  -0.665   0.163  0.00  0.00    -0.178 N 
ATOM      4  N   UNL d   1       0.675   0.640   0.531  0.00  0.00     0.003 NA
ATOM      5  N   UNL d   1      -0.597   0.989   0.428  0.00  0.00    -0.261 N 
ATOM      6  HN  UNL d   1      -0.993   1.911   0.612  1.00  0.00     0.186 HD
ATOM      7  C   UNL d   1      -1.273  -0.125   0.026  0.00  0.00     0.173 A 
ENDROOT
BRANCH   7   8
ATOM      8  S   UNL d   1      -2.977  -0.074  -0.334  0.00  0.00    -0.087 SA
BRANCH   8   9
ATOM      9  C   UNL d   1      -3.534  -1.716   0.195  0.00  0.00     0.123 C 
BRANCH   9  10
ATOM     10  C   UNL d   1      -5.045  -1.824   0.112  0.00  0.00    -0.013 A 
ATOM     11  C   UNL d   1      -5.876  -1.526   1.208  0.00  0.00     0.087 A 
ATOM     12  C   UNL d   1      -7.271  -1.630   1.104  0.00  0.00     0.001 A 
ATOM     13  O   UNL d   1      -5.275  -1.149   2.381  0.00  0.00    -0.325 OA
ATOM     14  C   UNL d   1      -8.135  -1.324   2.292  0.00  0.00     0.212 C 
ATOM     15  C   UNL d   1      -7.851  -1.989  -0.117  0.00  0.00     0.036 A 
ATOM     16  O   UNL d   1      -7.373  -1.370   3.492  0.00  0.00    -0.362 OA
ATOM     17  C   UNL d   1      -6.188  -0.601   3.333  0.00  0.00     0.345 C 
ATOM     18  C   UNL d   1      -7.038  -2.262  -1.215  0.00  0.00     0.035 A 
ATOM     19  C   UNL d   1      -5.649  -2.186  -1.106  0.00  0.00     0.034 A 
ATOM     20 CL   UNL d   1      -7.758  -2.692  -2.717  0.00  0.00    -0.084 Cl
ENDBRANCH   9  10
ENDBRANCH   8   9
ENDBRANCH   7   8
BRANCH   3  21
ATOM     21  C   UNL d   1       1.948  -1.385   0.105  0.00  0.00     0.075 A 
ATOM     22  C   UNL d   1       1.959  -2.733  -0.289  0.00  0.00     0.062 A 
ATOM     23  C   UNL d   1       3.163  -3.446  -0.336  0.00  0.00     0.036 A 
ATOM     24  C   UNL d   1       4.355  -2.796   0.016  0.00  0.00     0.029 A 
ATOM     25  C   UNL d   1       4.351  -1.454   0.400  0.00  0.00     0.005 A 
ATOM     26  C   UNL d   1       3.151  -0.746   0.444  0.00  0.00     0.033 A 
BRANCH  23  27
ATOM     27  N   UNL d   1       3.267  -4.801  -0.716  0.00  0.00    -0.327 N 
ATOM     28  C   UNL d   1       2.245  -5.640  -1.120  0.00  0.00     0.218 C 
ATOM     29  O   UNL d   1       1.058  -5.351  -1.228  0.00  0.00    -0.274 OA
ATOM     30  C   UNL d   1       2.715  -7.037  -1.443  0.00  0.00     0.117 C 
ATOM     31  H   UNL d   1       4.199  -5.193  -0.696  0.00  0.00     0.169 HD
ENDBRANCH  23  27
ENDBRANCH   3  21
TORSDOF 5
