REMARK  7 active torsions:
REMARK  status: ('A' for Active; 'I' for Inactive)
REMARK    1  A    between atoms: C_3  and  C_1 
REMARK    2  A    between atoms: C_11  and  C_2 
REMARK    3  A    between atoms: O_23  and  C_11 
REMARK    4  A    between atoms: C_22  and  C_12 
REMARK    5  A    between atoms: C_14  and  O_21 
REMARK    6  A    between atoms: O_21  and  C_22 
REMARK    7  A    between atoms: C_27  and  O_23 
ROOT
ATOM      1  C   UNL d   1       0.357  -2.728  -0.065  0.00  0.00     0.054 A 
ATOM      2  N   UNL d   1       1.205  -3.192   0.921  0.00  0.00    -0.351 N 
ATOM      3  HN  UNL d   1       1.598  -2.621   1.669  1.00  0.00     0.166 HD
ATOM      4  C   UNL d   1       0.025  -3.655  -1.030  0.00  0.00     0.082 A 
ATOM      5  C   UNL d   1       1.433  -4.482   0.753  0.00  0.00     0.075 A 
ATOM      6  S   UNL d   1       0.725  -5.172  -0.656  0.00  0.00    -0.084 SA
ENDROOT
BRANCH   1   7
ATOM      7  C   UNL d   1      -0.074  -1.333  -0.022  0.00  0.00     0.057 A 
ATOM      8  C   UNL d   1      -0.281  -0.520   1.133  0.00  0.00     0.144 A 
ATOM      9  N   UNL d   1      -0.633   0.725   0.759  0.00  0.00    -0.254 N 
ATOM     10  O   UNL d   1      -0.676   0.727  -0.615  0.00  0.00    -0.241 OA
ATOM     11  HN  UNL d   1      -0.830   1.513   1.376  1.00  0.00     0.195 HD
ATOM     12  C   UNL d   1      -0.336  -0.499  -1.086  0.00  0.00     0.087 A 
ATOM     13  C   UNL d   1      -0.287  -0.625  -2.555  0.00  0.00     0.080 C 
BRANCH   8  14
ATOM     14  C   UNL d   1      -0.177  -0.832   2.560  0.00  0.00     0.312 C 
ATOM     15  O   UNL d   1       0.065   0.013   3.419  0.00  0.00    -0.258 OA
BRANCH  14  16
ATOM     16  O   UNL d   1      -0.424  -2.144   2.851  0.00  0.00    -0.317 OA
BRANCH  16  17
ATOM     17  C   UNL d   1      -0.261  -2.518   4.226  0.00  0.00     0.175 C 
ATOM     18  C   UNL d   1       1.208  -2.703   4.563  0.00  0.00     0.034 C 
ENDBRANCH  16  17
ENDBRANCH  14  16
ENDBRANCH   8  14
ENDBRANCH   1   7
BRANCH   5  19
ATOM     19  C   UNL d   1       2.261  -5.334   1.666  0.00  0.00     0.240 C 
BRANCH  19  20
ATOM     20  O   UNL d   1       1.371  -5.928   2.617  0.00  0.00    -0.345 OA
BRANCH  20  21
ATOM     21  C   UNL d   1       1.934  -6.705   3.593  0.00  0.00     0.072 A 
ATOM     22  C   UNL d   1       3.283  -7.052   3.681  0.00  0.00     0.060 A 
ATOM     23  C   UNL d   1       3.725  -7.863   4.730  0.00  0.00     0.038 A 
ATOM     24 CL   UNL d   1       5.391  -8.290   4.824  0.00  0.00    -0.084 Cl
ATOM     25  C   UNL d   1       2.840  -8.332   5.695  0.00  0.00     0.048 A 
ATOM     26  C   UNL d   1       1.497  -7.983   5.604  0.00  0.00     0.038 A 
ATOM     27  C   UNL d   1       1.041  -7.176   4.560  0.00  0.00     0.060 A 
ATOM     28 CL   UNL d   1       0.387  -8.554   6.789  0.00  0.00    -0.084 Cl
ENDBRANCH  20  21
ENDBRANCH  19  20
ENDBRANCH   5  19
TORSDOF 7
