REMARK  4 active torsions:
REMARK  status: ('A' for Active; 'I' for Inactive)
REMARK    1  A    between atoms: N_2  and  C_1 
REMARK       I    between atoms: C_4  and  N_2 
REMARK       I    between atoms: N_9  and  C_4 
REMARK    2  A    between atoms: C_11  and  N_8 
REMARK    3  A    between atoms: C_14  and  N_9 
REMARK    4  A    between atoms: C_17  and  C_11 
ROOT
ATOM      1  N   UNL d   1       4.007   1.562   2.403  0.00  0.00    -0.303 N 
ATOM      2  C   UNL d   1       4.715   0.847   1.473  0.00  0.00     0.321 C 
ATOM      3  N   UNL d   1       4.195   0.836   0.211  0.00  0.00    -0.338 N 
ATOM      4  O   UNL d   1       5.761   0.218   1.643  0.00  0.00    -0.247 OA
ATOM      5  H   UNL d   1       3.237   2.116   2.067  0.00  0.00     0.171 HD
ATOM      6  H   UNL d   1       4.774   0.283  -0.411  0.00  0.00     0.164 HD
ENDROOT
BRANCH   3   7
ATOM      7  C   UNL d   1       2.896   1.300  -0.273  0.00  0.00     0.089 C 
ATOM      8  C   UNL d   1       2.384   0.402  -1.400  0.00  0.00     0.055 C 
ATOM      9  C   UNL d   1       2.916   0.807  -2.767  0.00  0.00     0.275 C 
ATOM     10  N   UNL d   1       2.530   2.196  -3.045  0.00  0.00     0.092 N 
ATOM     11  C   UNL d   1       3.238   3.092  -2.119  0.00  0.00     0.275 C 
ATOM     12  C   UNL d   1       2.904   2.788  -0.652  0.00  0.00     0.055 C 
BRANCH  10  13
ATOM     13  C   UNL d   1       2.814   2.514  -4.459  0.00  0.00     0.311 C 
BRANCH  13  14
ATOM     14  C   UNL d   1       2.316   3.874  -4.900  0.00  0.00    -0.030 A 
ATOM     15  C   UNL d   1       3.216   4.837  -5.383  0.00  0.00     0.009 A 
ATOM     16  C   UNL d   1       2.762   6.094  -5.785  0.00  0.00     0.001 A 
ATOM     17  C   UNL d   1       1.405   6.402  -5.714  0.00  0.00     0.000 A 
ATOM     18  C   UNL d   1       0.498   5.451  -5.249  0.00  0.00     0.001 A 
ATOM     19  C   UNL d   1       0.950   4.192  -4.846  0.00  0.00     0.009 A 
ENDBRANCH  13  14
ENDBRANCH  10  13
ENDBRANCH   3   7
BRANCH   1  20
ATOM     20  C   UNL d   1       4.353   1.774   3.729  0.00  0.00     0.079 C 
ATOM     21  S   UNL d   1       5.714   1.051   4.429  0.00  0.00    -0.072 SA
ATOM     22  C   UNL d   1       5.603   2.020   5.840  0.00  0.00     0.017 A 
ATOM     23  C   UNL d   1       6.551   2.113   6.875  0.00  0.00     0.020 A 
ATOM     24  C   UNL d   1       4.417   2.755   5.857  0.00  0.00    -0.016 A 
ATOM     25  C   UNL d   1       6.298   2.975   7.941  0.00  0.00     0.001 A 
ATOM     26  C   UNL d   1       5.102   3.678   8.011  0.00  0.00     0.001 A 
ATOM     27  C   UNL d   1       4.152   3.565   6.988  0.00  0.00     0.013 A 
ATOM     28  C   UNL d   1       3.687   2.577   4.630  0.00  0.00     0.050 C 
ENDBRANCH   1  20
TORSDOF 4
