REMARK  4 active torsions:
REMARK  status: ('A' for Active; 'I' for Inactive)
REMARK       I    between atoms: N_3  and  C_1 
REMARK    1  A    between atoms: C_5  and  C_1 
REMARK    2  A    between atoms: C_2  and  S_6 
REMARK    3  A    between atoms: C_13  and  N_3 
REMARK    4  A    between atoms: S_6  and  C_14 
ROOT
ATOM      1  C   UNL d   1       1.248   1.557  -1.824  0.00  0.00     0.035 A 
ATOM      2  C   UNL d   1       2.615   3.039  -3.795  0.00  0.00     0.006 A 
ATOM      3  C   UNL d   1       2.323   1.001  -2.523  0.00  0.00     0.031 A 
ATOM      4  C   UNL d   1       0.815   2.840  -2.173  0.00  0.00     0.031 A 
ATOM      5  C   UNL d   1       1.503   3.581  -3.146  0.00  0.00     0.021 A 
ATOM      6  C   UNL d   1       2.998   1.731  -3.504  0.00  0.00     0.021 A 
ENDROOT
BRANCH   1   7
ATOM      7  N   UNL d   1       0.579   0.875  -0.777  0.00  0.00    -0.323 N 
ATOM      8  C   UNL d   1       1.087  -0.222  -0.101  0.00  0.00     0.256 C 
ATOM      9  O   UNL d   1       2.213  -0.693  -0.246  0.00  0.00    -0.267 OA
ATOM     10  H   UNL d   1      -0.250   1.320  -0.406  0.00  0.00     0.169 HD
BRANCH   8  11
ATOM     11  C   UNL d   1       0.219  -0.857   0.928  0.00  0.00     0.032 A 
ATOM     12  C   UNL d   1      -1.179  -0.851   0.856  0.00  0.00     0.018 A 
ATOM     13  C   UNL d   1      -1.926  -1.566   1.802  0.00  0.00     0.025 A 
ATOM     14  C   UNL d   1      -1.281  -2.284   2.811  0.00  0.00     0.034 A 
ATOM     15  C   UNL d   1       0.108  -2.286   2.896  0.00  0.00     0.025 A 
ATOM     16 CL   UNL d   1      -2.203  -3.195   3.941  0.00  0.00    -0.084 Cl
ATOM     17  C   UNL d   1       0.854  -1.574   1.956  0.00  0.00     0.018 A 
ENDBRANCH   8  11
ENDBRANCH   1   7
BRANCH   2  18
ATOM     18  S   UNL d   1       3.517   3.980  -5.007  0.00  0.00    -0.083 SA
BRANCH  18  19
ATOM     19  C   UNL d   1       4.718   4.762  -3.977  0.00  0.00     0.046 A 
ATOM     20  S   UNL d   1       5.319   6.316  -4.388  0.00  0.00    -0.095 SA
ATOM     21  C   UNL d   1       6.369   6.347  -3.040  0.00  0.00     0.051 A 
ATOM     22  C   UNL d   1       6.277   5.197  -2.291  0.00  0.00     0.009 A 
ATOM     23  C   UNL d   1       5.329   4.279  -2.836  0.00  0.00     0.027 A 
ENDBRANCH  18  19
ENDBRANCH   2  18
TORSDOF 4
