REMARK  2 active torsions:
REMARK  status: ('A' for Active; 'I' for Inactive)
REMARK    1  A    between atoms: C_2  and  C_1 
REMARK    2  A    between atoms: O_10  and  C_1 
ROOT
ATOM      1  C   UNL d   1       0.272   1.304   0.397  0.00  0.00     0.038 A 
ATOM      2  C   UNL d   1      -0.847   1.232   1.242  0.00  0.00     0.028 A 
ATOM      3  C   UNL d   1      -1.480   2.412   1.590  0.00  0.00    -0.022 A 
ATOM      4  C   UNL d   1      -1.014   3.632   1.129  0.00  0.00     0.075 A 
ATOM      5  O   UNL d   1      -1.742   4.703   1.576  0.00  0.00    -0.350 OA
ATOM      6  C   UNL d   1       0.726   2.551  -0.085  0.00  0.00     0.021 A 
ATOM      7  C   UNL d   1       0.085   3.732   0.300  0.00  0.00     0.038 A 
ATOM      8  C   UNL d   1      -2.934   4.098   2.130  0.00  0.00     0.180 C 
ATOM      9  C   UNL d   1      -2.640   2.638   2.483  0.00  0.00     0.068 C 
ENDROOT
BRANCH   1  10
ATOM     10  C   UNL d   1       0.925   0.032  -0.000  0.00  0.00     0.176 C 
ATOM     11  O   UNL d   1       0.313  -1.016  -0.125  0.00  0.00    -0.646 OA
BRANCH  10  12
ATOM     12  O   UNL d   1       2.260   0.132  -0.167  0.00  0.00    -0.773 OA
ATOM     13  H   UNL d   1       2.652   0.970   0.141  0.00  0.00     0.167 HD
ENDBRANCH  10  12
ENDBRANCH   1  10
TORSDOF 2
