REMARK  4 active torsions:
REMARK  status: ('A' for Active; 'I' for Inactive)
REMARK    1  A    between atoms: O_10  and  C_4 
REMARK    2  A    between atoms: O_11  and  C_5 
REMARK    3  A    between atoms: C_13  and  C_7 
REMARK    4  A    between atoms: C_12  and  C_13 
ROOT
ATOM      1  N   UNL d   1      -1.191   5.169  -1.477  0.00  0.00    -0.197 NA
ATOM      2  C   UNL d   1      -0.678   4.130  -1.436  0.00  0.00     0.059 C 
ATOM      3  C   UNL d   1      -0.021   2.815  -1.412  0.00  0.00     0.128 C 
ENDROOT
BRANCH   3   4
ATOM      4  C   UNL d   1       0.198   2.316   0.018  0.00  0.00     0.054 C 
BRANCH   4   5
ATOM      5  C   UNL d   1       0.918   0.983   0.041  0.00  0.00    -0.037 A 
ATOM      6  C   UNL d   1       0.272  -0.257   0.009  0.00  0.00     0.020 A 
ATOM      7  C   UNL d   1       1.010  -1.452  -0.004  0.00  0.00     0.059 A 
ATOM      8 BR   UNL d   1      -1.622  -0.414  -0.035  0.00  0.00    -0.050 Br
ATOM      9  C   UNL d   1       2.412  -1.446   0.005  0.00  0.00     0.102 A 
ATOM     10  C   UNL d   1       3.076  -0.209   0.033  0.00  0.00     0.102 A 
ATOM     11  C   UNL d   1       2.323   0.980   0.051  0.00  0.00     0.048 A 
BRANCH   9  12
ATOM     12  O   UNL d   1       3.165  -2.589  -0.021  0.00  0.00    -0.353 OA
ATOM     13  C   UNL d   1       2.503  -3.847  -0.034  0.00  0.00     0.210 C 
ENDBRANCH   9  12
BRANCH  10  14
ATOM     14  O   UNL d   1       4.424   0.042   0.037  0.00  0.00    -0.353 OA
ATOM     15  C   UNL d   1       5.334  -1.048   0.050  0.00  0.00     0.210 C 
ENDBRANCH  10  14
ENDBRANCH   4   5
ENDBRANCH   3   4
TORSDOF 4
