REMARK  7 active torsions:
REMARK  status: ('A' for Active; 'I' for Inactive)
REMARK    1  A    between atoms: C_3  and  C_7 
REMARK    2  A    between atoms: C_4  and  C_10 
REMARK    3  A    between atoms: C_8  and  N_26 
REMARK       I    between atoms: C_9  and  N_11 
REMARK       I    between atoms: N_25  and  C_9 
REMARK    4  A    between atoms: N_11  and  C_13 
REMARK    5  A    between atoms: C_30  and  N_25 
REMARK    6  A    between atoms: N_26  and  C_31 
REMARK    7  A    between atoms: C_31  and  C_30 
ROOT
ATOM      1  C   UNL d   1      -4.071  -1.167  -0.112  0.00  0.00     0.320 C 
ATOM      2  N   UNL d   1      -3.339  -0.019   0.117  0.00  0.00    -0.307 N 
ATOM      3  O   UNL d   1      -3.597  -2.269  -0.360  0.00  0.00    -0.247 OA
ATOM      4  N   UNL d   1      -5.422  -0.947   0.058  0.00  0.00    -0.342 N 
ATOM      5  H   UNL d   1      -3.788   0.618   0.757  0.00  0.00     0.170 HD
ATOM      6  H   UNL d   1      -5.748  -0.017  -0.167  0.00  0.00     0.164 HD
ENDROOT
BRANCH   4   7
ATOM      7  C   UNL d   1      -6.376  -2.037  -0.109  0.00  0.00     0.139 C 
BRANCH   7   8
ATOM      8  C   UNL d   1      -7.338  -2.184   1.082  0.00  0.00     0.115 C 
BRANCH   8   9
ATOM      9  N   UNL d   1      -8.195  -3.345   0.886  0.00  0.00    -0.263 NA
ATOM     10  H   UNL d   1      -7.708  -4.226   0.740  0.00  0.00     0.130 HD
BRANCH   9  11
ATOM     11  C   UNL d   1      -9.122  -3.586   1.887  0.00  0.00     0.157 A 
ATOM     12  N   UNL d   1      -9.417  -4.870   2.108  0.00  0.00    -0.329 N 
ATOM     13  C   UNL d   1     -10.349  -5.163   3.055  0.00  0.00     0.120 A 
ATOM     14  HN  UNL d   1      -8.956  -5.612   1.580  1.00  0.00     0.168 HD
ATOM     15  C   UNL d   1     -10.974  -4.166   3.784  0.00  0.00     0.051 A 
ATOM     16  C   UNL d   1     -10.598  -2.883   3.491  0.00  0.00     0.093 A 
ATOM     17  N   UNL d   1      -9.679  -2.572   2.558  0.00  0.00    -0.343 N 
ATOM     18  HN  UNL d   1      -9.419  -1.603   2.371  1.00  0.00     0.167 HD
BRANCH  13  19
ATOM     19  C   UNL d   1     -10.725  -6.610   3.326  0.00  0.00     0.432 C 
ATOM     20  F   UNL d   1     -10.056  -7.522   2.571  0.00  0.00    -0.165 F 
ATOM     21  F   UNL d   1     -10.502  -6.968   4.627  0.00  0.00    -0.165 F 
ATOM     22  F   UNL d   1     -12.053  -6.849   3.112  0.00  0.00    -0.165 F 
ENDBRANCH  13  19
ENDBRANCH   9  11
ENDBRANCH   8   9
ENDBRANCH   7   8
ENDBRANCH   4   7
BRANCH   2  23
ATOM     23  C   UNL d   1      -1.921  -0.028   0.111  0.00  0.00     0.058 A 
ATOM     24  C   UNL d   1      -1.188   0.568   1.144  0.00  0.00     0.032 A 
ATOM     25  N   UNL d   1       0.172   0.580   1.172  0.00  0.00    -0.354 N 
ATOM     26  C   UNL d   1      -1.859   1.143   2.357  0.00  0.00     0.070 C 
ATOM     27  C   UNL d   1       0.854  -0.019   0.154  0.00  0.00     0.117 A 
ATOM     28  HN  UNL d   1       0.672   1.028   1.940  1.00  0.00     0.166 HD
ATOM     29  C   UNL d   1       0.187  -0.623  -0.911  0.00  0.00     0.036 A 
ATOM     30  C   UNL d   1      -1.208  -0.628  -0.928  0.00  0.00     0.034 A 
BRANCH  27  31
ATOM     31  C   UNL d   1       2.377  -0.033   0.178  0.00  0.00     0.432 C 
ATOM     32  F   UNL d   1       2.929   0.512   1.300  0.00  0.00    -0.165 F 
ATOM     33  F   UNL d   1       2.893  -1.294   0.090  0.00  0.00    -0.165 F 
ATOM     34  F   UNL d   1       2.920   0.654  -0.871  0.00  0.00    -0.165 F 
ENDBRANCH  27  31
ENDBRANCH   2  23
TORSDOF 7
