REMARK  6 active torsions:
REMARK  status: ('A' for Active; 'I' for Inactive)
REMARK    1  A    between atoms: C_4  and  C_1 
REMARK    2  A    between atoms: C_5  and  C_2 
REMARK    3  A    between atoms: N_9  and  C_3 
REMARK    4  A    between atoms: O_16  and  C_4 
REMARK    5  A    between atoms: C_15  and  C_5 
REMARK    6  A    between atoms: C_6  and  N_9 
ROOT
ATOM      1  C   UNL d   1       3.656   3.905  -0.093  0.00  0.00     0.110 C 
ATOM      2  C   UNL d   1       2.545   3.148  -0.186  0.00  0.00     0.115 C 
ATOM      3  C   UNL d   1       3.568   5.305   0.135  0.00  0.00     0.105 C 
ATOM      4  N   UNL d   1       3.464   6.447   0.298  0.00  0.00    -0.191 NA
ENDROOT
BRANCH   1   5
ATOM      5  C   UNL d   1       5.000   3.236  -0.187  0.00  0.00     0.204 C 
ATOM      6  O   UNL d   1       5.148   2.052   0.110  0.00  0.00    -0.286 OA
BRANCH   5   7
ATOM      7  C   UNL d   1       6.191   4.028  -0.619  0.00  0.00     0.015 A 
ATOM      8  C   UNL d   1       7.438   3.762  -0.033  0.00  0.00     0.015 A 
ATOM      9  C   UNL d   1       8.562   4.515  -0.392  0.00  0.00     0.001 A 
ATOM     10  C   UNL d   1       8.450   5.526  -1.345  0.00  0.00     0.000 A 
ATOM     11  C   UNL d   1       7.224   5.764  -1.965  0.00  0.00     0.001 A 
ATOM     12  C   UNL d   1       6.102   5.007  -1.617  0.00  0.00     0.015 A 
ENDBRANCH   5   7
ENDBRANCH   1   5
BRANCH   2  13
ATOM     13  N   UNL d   1       1.203   3.522  -0.132  0.00  0.00    -0.363 N 
ATOM     14  H   UNL d   1       1.050   4.524   0.015  0.00  0.00     0.165 HD
BRANCH  13  15
ATOM     15  C   UNL d   1       0.091   2.725  -0.211  0.00  0.00     0.055 A 
ATOM     16  C   UNL d   1      -1.224   3.176  -0.114  0.00  0.00     0.106 A 
ATOM     17  S   UNL d   1      -2.338   1.854  -0.206  0.00  0.00    -0.094 SA
ATOM     18  C   UNL d   1      -1.100   0.719  -0.433  0.00  0.00     0.053 A 
ATOM     19  C   UNL d   1       0.142   1.308  -0.419  0.00  0.00     0.038 A 
BRANCH  16  20
ATOM     20  C   UNL d   1      -1.827   4.493   0.039  0.00  0.00     0.302 C 
ATOM     21  O   UNL d   1      -3.033   4.725   0.088  0.00  0.00    -0.259 OA
BRANCH  20  22
ATOM     22  O   UNL d   1      -0.875   5.474   0.099  0.00  0.00    -0.322 OA
ATOM     23  C   UNL d   1      -1.410   6.803   0.205  0.00  0.00     0.213 C 
ENDBRANCH  20  22
ENDBRANCH  16  20
ENDBRANCH  13  15
ENDBRANCH   2  13
TORSDOF 6
