REMARK  4 active torsions:
REMARK  status: ('A' for Active; 'I' for Inactive)
REMARK    1  A    between atoms: S_2  and  C_1 
REMARK    2  A    between atoms: N_8  and  S_2 
REMARK    3  A    between atoms: S_4  and  C_3 
REMARK    4  A    between atoms: N_9  and  S_4 
ROOT
ATOM      1  C   UNL d   1      -0.316   1.575   0.517  0.00  0.00     0.105 A 
ATOM      2  C   UNL d   1      -2.131   0.104   0.493  0.00  0.00     0.118 A 
ATOM      3  C   UNL d   1      -1.739   1.429   0.554  0.00  0.00     0.059 A 
ATOM      4  C   UNL d   1       0.307   0.353   0.533  0.00  0.00     0.098 A 
ATOM      5  S   UNL d   1      -0.786  -0.950   0.556  0.00  0.00    -0.063 SA
ATOM      6 CL   UNL d   1       1.988  -0.006   0.482  0.00  0.00    -0.075 Cl
ENDROOT
BRANCH   1   7
ATOM      7  S   UNL d   1       0.485   3.094   0.323  0.00  0.00     0.246 S 
ATOM      8  O   UNL d   1       1.118   2.961  -0.969  0.00  0.00    -0.206 OA
ATOM      9  O   UNL d   1      -0.553   4.077   0.550  0.00  0.00    -0.206 OA
BRANCH   7  10
ATOM     10  N   UNL d   1       1.674   3.285   1.511  0.00  0.00    -0.202 NA
ATOM     11  C   UNL d   1       1.200   3.619   2.892  0.00  0.00     0.134 C 
ATOM     12  C   UNL d   1       0.972   5.129   3.072  0.00  0.00     0.183 C 
ATOM     13  O   UNL d   1       2.132   5.889   2.704  0.00  0.00    -0.389 OA
ATOM     14  C   UNL d   1       2.483   5.643   1.335  0.00  0.00     0.183 C 
ATOM     15  C   UNL d   1       2.826   4.165   1.131  0.00  0.00     0.134 C 
ENDBRANCH   7  10
ENDBRANCH   1   7
BRANCH   2  16
ATOM     16  S   UNL d   1      -3.734  -0.650   0.307  0.00  0.00     0.250 S 
ATOM     17  O   UNL d   1      -3.896  -1.507   1.459  0.00  0.00    -0.205 OA
ATOM     18  O   UNL d   1      -4.623   0.468   0.074  0.00  0.00    -0.205 OA
BRANCH  16  19
ATOM     19  N   UNL d   1      -3.724  -1.612  -1.093  0.00  0.00    -0.202 NA
ATOM     20  C   UNL d   1      -3.363  -0.949  -2.384  0.00  0.00     0.134 C 
ATOM     21  C   UNL d   1      -4.563  -0.261  -3.045  0.00  0.00     0.183 C 
ATOM     22  O   UNL d   1      -5.659  -1.169  -3.213  0.00  0.00    -0.389 OA
ATOM     23  C   UNL d   1      -6.079  -1.692  -1.945  0.00  0.00     0.183 C 
ATOM     24  C   UNL d   1      -4.940  -2.470  -1.275  0.00  0.00     0.134 C 
ENDBRANCH  16  19
ENDBRANCH   2  16
TORSDOF 4
