REMARK  6 active torsions:
REMARK  status: ('A' for Active; 'I' for Inactive)
REMARK    1  A    between atoms: N_6  and  C_1 
REMARK    2  A    between atoms: C_12  and  N_2 
REMARK    3  A    between atoms: C_9  and  C_4 
REMARK       I    between atoms: C_7  and  N_6 
REMARK    4  A    between atoms: C_8  and  C_7 
REMARK    5  A    between atoms: O_24  and  C_9 
REMARK    6  A    between atoms: C_29  and  O_24 
ROOT
ATOM      1  C   UNL d   1       0.203  -1.094  -0.104  0.00  0.00     0.137 A 
ATOM      2  N   UNL d   1       1.266  -0.221   0.167  0.00  0.00    -0.290 N 
ATOM      3  C   UNL d   1      -0.925  -0.309  -0.316  0.00  0.00     0.097 A 
ATOM      4  C   UNL d   1       0.828   1.092   0.057  0.00  0.00     0.124 A 
ATOM      5  C   UNL d   1      -0.538   1.067  -0.205  0.00  0.00    -0.004 A 
ATOM      6  C   UNL d   1      -2.276  -0.757  -0.507  0.00  0.00     0.104 C 
ATOM      7  N   UNL d   1      -3.405  -1.021  -0.612  0.00  0.00    -0.191 NA
ATOM      8  C   UNL d   1      -1.422   2.270  -0.269  0.00  0.00     0.052 C 
ENDROOT
BRANCH   1   9
ATOM      9  N   UNL d   1       0.419  -2.466  -0.124  0.00  0.00    -0.307 N 
ATOM     10  C   UNL d   1      -0.370  -3.412  -0.743  0.00  0.00     0.259 C 
ATOM     11  O   UNL d   1      -1.264  -3.214  -1.550  0.00  0.00    -0.267 OA
ATOM     12  H   UNL d   1       1.305  -2.803   0.232  0.00  0.00     0.170 HD
BRANCH  10  13
ATOM     13  C   UNL d   1       0.089  -4.801  -0.472  0.00  0.00     0.054 A 
ATOM     14  C   UNL d   1       0.293  -5.280   0.831  0.00  0.00     0.051 A 
ATOM     15  C   UNL d   1       0.902  -6.521   1.032  0.00  0.00     0.048 A 
ATOM     16 CL   UNL d   1      -0.180  -4.394   2.238  0.00  0.00    -0.083 Cl
ATOM     17  C   UNL d   1       1.286  -7.288  -0.065  0.00  0.00     0.035 A 
ATOM     18  C   UNL d   1       1.036  -6.845  -1.364  0.00  0.00     0.025 A 
ATOM     19 CL   UNL d   1       2.094  -8.785   0.188  0.00  0.00    -0.084 Cl
ATOM     20  C   UNL d   1       0.431  -5.602  -1.571  0.00  0.00     0.020 A 
ENDBRANCH  10  13
ENDBRANCH   1   9
BRANCH   2  21
ATOM     21  C   UNL d   1       2.614  -0.598   0.454  0.00  0.00     0.041 A 
ATOM     22  C   UNL d   1       3.665   0.034  -0.222  0.00  0.00     0.030 A 
ATOM     23  C   UNL d   1       4.979  -0.155   0.201  0.00  0.00     0.009 A 
ATOM     24  C   UNL d   1       5.259  -1.004   1.277  0.00  0.00    -0.062 A 
ATOM     25  C   UNL d   1       4.211  -1.697   1.896  0.00  0.00     0.009 A 
ATOM     26  C   UNL d   1       6.656  -1.072   1.820  0.00  0.00     0.048 C 
ATOM     27  C   UNL d   1       2.888  -1.490   1.496  0.00  0.00     0.030 A 
ENDBRANCH   2  21
BRANCH   4  28
ATOM     28  C   UNL d   1       1.676   2.238   0.303  0.00  0.00     0.311 C 
ATOM     29  O   UNL d   1       2.455   2.356   1.238  0.00  0.00    -0.258 OA
BRANCH  28  30
ATOM     30  O   UNL d   1       1.578   3.105  -0.742  0.00  0.00    -0.317 OA
BRANCH  30  31
ATOM     31  C   UNL d   1       2.686   4.007  -0.895  0.00  0.00     0.175 C 
ATOM     32  C   UNL d   1       2.654   5.159   0.091  0.00  0.00     0.034 C 
ENDBRANCH  30  31
ENDBRANCH  28  30
ENDBRANCH   4  28
TORSDOF 6
