REMARK  6 active torsions:
REMARK  status: ('A' for Active; 'I' for Inactive)
REMARK    1  A    between atoms: S_3  and  C_1 
REMARK    2  A    between atoms: N_8  and  C_2 
REMARK    3  A    between atoms: C_17  and  S_3 
REMARK    4  A    between atoms: C_7  and  C_4 
REMARK       I    between atoms: N_10  and  C_7 
REMARK       I    between atoms: C_9  and  N_13 
REMARK       I    between atoms: N_14  and  C_9 
REMARK    5  A    between atoms: N_13  and  N_10 
REMARK    6  A    between atoms: C_22  and  N_14 
ROOT
ATOM      1  C   UNL d   1      -0.413   2.616   0.320  0.00  0.00     0.279 C 
ATOM      2  N   UNL d   1      -1.692   2.883  -0.132  0.00  0.00    -0.261 N 
ATOM      3  O   UNL d   1       0.226   3.498   0.891  0.00  0.00    -0.265 OA
ATOM      4  H   UNL d   1      -2.249   2.224  -0.674  0.00  0.00     0.190 HD
ENDROOT
BRANCH   1   5
ATOM      5  C   UNL d   1       0.098   1.259   0.086  0.00  0.00     0.102 A 
ATOM      6  C   UNL d   1       1.421   0.803  -0.001  0.00  0.00     0.083 A 
ATOM      7  C   UNL d   1       1.476  -0.648   0.018  0.00  0.00     0.094 A 
ATOM      8  C   UNL d   1       0.208  -1.201   0.014  0.00  0.00     0.076 A 
ATOM      9  S   UNL d   1      -1.026  -0.038   0.036  0.00  0.00    -0.092 SA
BRANCH   6  10
ATOM     10  N   UNL d   1       2.530   1.721  -0.092  0.00  0.00    -0.330 N 
ATOM     11  C   UNL d   1       2.515   2.927  -0.776  0.00  0.00     0.097 A 
ATOM     12  C   UNL d   1       3.688   3.607  -0.543  0.00  0.00     0.019 A 
ATOM     13  C   UNL d   1       4.490   2.774   0.257  0.00  0.00     0.019 A 
ATOM     14  C   UNL d   1       3.772   1.622   0.498  0.00  0.00     0.097 A 
ENDBRANCH   6  10
BRANCH   7  15
ATOM     15  S   UNL d   1       2.859  -1.721  -0.081  0.00  0.00     0.181 S 
ATOM     16  O   UNL d   1       2.321  -2.948  -0.635  0.00  0.00    -0.222 OA
ATOM     17  O   UNL d   1       3.872  -0.971  -0.785  0.00  0.00    -0.222 OA
BRANCH  15  18
ATOM     18  C   UNL d   1       3.361  -2.026   1.625  0.00  0.00     0.105 C 
ATOM     19  C   UNL d   1       2.283  -2.752   2.425  0.00  0.00     0.026 C 
ATOM     20  C   UNL d   1       4.653  -2.842   1.647  0.00  0.00     0.026 C 
ENDBRANCH  15  18
ENDBRANCH   7  15
ENDBRANCH   1   5
BRANCH   2  21
ATOM     21  N   UNL d   1      -2.184   4.202  -0.029  0.00  0.00    -0.248 N 
ATOM     22  C   UNL d   1      -3.143   4.590  -0.951  0.00  0.00     0.339 C 
ATOM     23  N   UNL d   1      -3.515   5.911  -0.783  0.00  0.00    -0.308 N 
ATOM     24  O   UNL d   1      -3.610   3.786  -1.752  0.00  0.00    -0.245 OA
ATOM     25  H   UNL d   1      -2.981   6.441  -0.111  0.00  0.00     0.170 HD
ATOM     26  H   UNL d   1      -1.508   4.874   0.329  0.00  0.00     0.192 HD
BRANCH  23  27
ATOM     27  C   UNL d   1      -4.600   6.576  -1.394  0.00  0.00     0.036 A 
ATOM     28  C   UNL d   1      -5.504   5.954  -2.258  0.00  0.00     0.031 A 
ATOM     29  C   UNL d   1      -6.604   6.652  -2.768  0.00  0.00     0.026 A 
ATOM     30  C   UNL d   1      -6.802   7.984  -2.421  0.00  0.00     0.034 A 
ATOM     31  C   UNL d   1      -5.899   8.629  -1.581  0.00  0.00     0.026 A 
ATOM     32 CL   UNL d   1      -8.173   8.832  -3.021  0.00  0.00    -0.084 Cl
ATOM     33  C   UNL d   1      -4.800   7.926  -1.070  0.00  0.00     0.031 A 
ENDBRANCH  23  27
ENDBRANCH   2  21
TORSDOF 6
