REMARK  6 active torsions:
REMARK  status: ('A' for Active; 'I' for Inactive)
REMARK    1  A    between atoms: C_7  and  C_1 
REMARK    2  A    between atoms: C_2  and  C_7 
REMARK    3  A    between atoms: O_22  and  C_3 
REMARK    4  A    between atoms: O_21  and  C_4 
REMARK    5  A    between atoms: C_16  and  C_7 
REMARK    6  A    between atoms: N_8  and  C_15 
ROOT
ATOM      1  C   UNL d   1       3.100  -1.621  -0.008  0.00  0.00     0.102 C 
ENDROOT
BRANCH   1   2
ATOM      2  C   UNL d   1       3.068  -2.611  -1.179  0.00  0.00     0.065 A 
ATOM      3  C   UNL d   1       3.519  -2.412  -2.434  0.00  0.00     0.092 A 
ATOM      4  C   UNL d   1       3.485  -3.490  -3.424  0.00  0.00     0.032 A 
ATOM      5  C   UNL d   1       3.961  -3.343  -4.732  0.00  0.00     0.017 A 
ATOM      6  C   UNL d   1       2.952  -4.719  -3.058  0.00  0.00     0.092 A 
ATOM      7  C   UNL d   1       3.891  -4.406  -5.639  0.00  0.00     0.001 A 
ATOM      8  C   UNL d   1       3.345  -5.628  -5.248  0.00  0.00     0.003 A 
ATOM      9  C   UNL d   1       2.872  -5.789  -3.949  0.00  0.00     0.038 A 
ATOM     10  O   UNL d   1       2.463  -4.936  -1.763  0.00  0.00    -0.274 OA
ATOM     11  C   UNL d   1       2.492  -3.937  -0.812  0.00  0.00     0.298 A 
ATOM     12  O   UNL d   1       2.035  -4.128   0.315  0.00  0.00    -0.259 OA
BRANCH   3  13
ATOM     13  O   UNL d   1       4.059  -1.232  -2.899  0.00  0.00    -0.359 OA
ATOM     14  H   UNL d   1       3.763  -0.468  -2.358  0.00  0.00     0.217 HD
ENDBRANCH   3  13
ENDBRANCH   1   2
BRANCH   1  15
ATOM     15  C   UNL d   1       1.808  -0.805   0.005  0.00  0.00     0.065 C 
ATOM     16  C   UNL d   1       0.708  -1.137   0.712  0.00  0.00     0.092 C 
ATOM     17  C   UNL d   1      -0.506  -0.323   0.646  0.00  0.00     0.032 A 
ATOM     18  C   UNL d   1      -1.719  -0.702   1.236  0.00  0.00     0.017 A 
ATOM     19  C   UNL d   1      -0.464   0.879  -0.048  0.00  0.00     0.092 A 
ATOM     20  C   UNL d   1      -2.845   0.123   1.145  0.00  0.00     0.001 A 
ATOM     21  C   UNL d   1      -2.767   1.344   0.475  0.00  0.00     0.003 A 
ATOM     22  C   UNL d   1      -1.570   1.727  -0.127  0.00  0.00     0.038 A 
ATOM     23  O   UNL d   1       0.691   1.262  -0.744  0.00  0.00    -0.274 OA
ATOM     24  C   UNL d   1       1.758   0.391  -0.876  0.00  0.00     0.298 C 
ATOM     25  O   UNL d   1       2.665   0.622  -1.674  0.00  0.00    -0.259 OA
BRANCH  16  26
ATOM     26  O   UNL d   1       0.599  -2.241   1.532  0.00  0.00    -0.359 OA
ATOM     27  H   UNL d   1       1.204  -2.964   1.260  0.00  0.00     0.217 HD
ENDBRANCH  16  26
ENDBRANCH   1  15
BRANCH   1  28
ATOM     28  C   UNL d   1       4.456  -0.906   0.211  0.00  0.00    -0.044 A 
ATOM     29  C   UNL d   1       4.561   0.386   0.756  0.00  0.00     0.011 A 
ATOM     30  C   UNL d   1       5.813   0.964   1.013  0.00  0.00     0.036 A 
ATOM     31  C   UNL d   1       6.983   0.239   0.759  0.00  0.00     0.102 A 
ATOM     32  C   UNL d   1       6.908  -1.056   0.245  0.00  0.00     0.036 A 
ATOM     33  C   UNL d   1       5.656  -1.620  -0.012  0.00  0.00     0.011 A 
BRANCH  31  34
ATOM     34  N   UNL d   1       8.293   0.824   1.064  0.00  0.00    -0.116 N 
ATOM     35  O   UNL d   1       8.315   1.964   1.550  0.00  0.00    -0.532 OA
ATOM     36  O   UNL d   1       9.300   0.142   0.830  0.00  0.00    -0.532 OA
ENDBRANCH  31  34
ENDBRANCH   1  28
TORSDOF 6
