REMARK  4 active torsions:
REMARK  status: ('A' for Active; 'I' for Inactive)
REMARK    1  A    between atoms: C_3  and  C_1 
REMARK    2  A    between atoms: C_6  and  CA_2 
REMARK       I    between atoms: N_8  and  C_3 
REMARK    3  A    between atoms: OXT_21  and  C_6 
REMARK    4  A    between atoms: C_15  and  N_8 
ROOT
ATOM      1  C   UNL d   1      -1.474  -2.494   0.273  0.00  0.00     0.275 C 
ATOM      2  N   UNL d   1      -0.962  -3.779   0.386  0.00  0.00    -0.322 N 
ATOM      3  O   UNL d   1      -0.776  -1.482   0.215  0.00  0.00    -0.266 OA
ATOM      4  H   UNL d   1      -1.599  -4.565   0.259  0.00  0.00     0.169 HD
ENDROOT
BRANCH   1   5
ATOM      5  C   UNL d   1      -2.959  -2.275   0.192  0.00  0.00     0.134 A 
ATOM      6  CA  UNL d   1      -3.908  -3.054  -0.458  0.00  0.00     0.139 A 
ATOM      7  N   UNL d   1      -5.213  -2.633  -0.655  0.00  0.00    -0.357 N 
ATOM      8  C   UNL d   1      -5.524  -1.416  -0.155  0.00  0.00     0.105 A 
ATOM      9  HN  UNL d   1      -5.897  -3.207  -1.148  1.00  0.00     0.165 HD
ATOM     10  C   UNL d   1      -4.604  -0.648   0.523  0.00  0.00     0.105 A 
ATOM     11  N   UNL d   1      -3.332  -1.057   0.708  0.00  0.00    -0.358 N 
ATOM     12  HN  UNL d   1      -2.664  -0.478   1.217  1.00  0.00     0.165 HD
BRANCH   6  13
ATOM     13  C   UNL d   1      -3.677  -4.409  -1.028  0.00  0.00     0.196 C 
ATOM     14  O   UNL d   1      -2.720  -5.125  -0.809  0.00  0.00    -0.645 OA
BRANCH  13  15
ATOM     15  OXT UNL d   1      -4.735  -4.795  -1.783  0.00  0.00    -0.772 OA
ATOM     16  HXT UNL d   1      -5.438  -4.103  -1.748  0.00  0.00     0.167 HD
ENDBRANCH  13  15
ENDBRANCH   6  13
ENDBRANCH   1   5
BRANCH   2  17
ATOM     17  C   UNL d   1       0.412  -4.126   0.347  0.00  0.00     0.036 A 
ATOM     18  C   UNL d   1       1.449  -3.201   0.484  0.00  0.00     0.048 A 
ATOM     19  C   UNL d   1       2.743  -3.638   0.258  0.00  0.00     0.050 A 
ATOM     20  C   UNL d   1       3.974  -2.857   0.266  0.00  0.00     0.294 A 
ATOM     21  C   UNL d   1       3.045  -4.942  -0.068  0.00  0.00    -0.018 A 
ATOM     22  O   UNL d   1       4.979  -3.716  -0.091  0.00  0.00    -0.313 OA
ATOM     23  O   UNL d   1       4.095  -1.681   0.537  0.00  0.00    -0.259 OA
ATOM     24  C   UNL d   1       4.488  -5.048  -0.352  0.00  0.00     0.218 A 
ATOM     25  C   UNL d   1       2.046  -5.895  -0.126  0.00  0.00     0.012 A 
ATOM     26  C   UNL d   1       0.724  -5.480   0.091  0.00  0.00     0.030 A 
ENDBRANCH   2  17
TORSDOF 4
