REMARK  8 active torsions:
REMARK  status: ('A' for Active; 'I' for Inactive)
REMARK    1  A    between atoms: C_10  and  N_1 
REMARK    2  A    between atoms: N_2  and  C_11 
REMARK    3  A    between atoms: C_7  and  O_19 
REMARK    4  A    between atoms: O_20  and  C_9 
REMARK    5  A    between atoms: O_19  and  C_25 
REMARK    6  A    between atoms: C_26  and  O_20 
REMARK    7  A    between atoms: C_25  and  C_27 
REMARK    8  A    between atoms: C_28  and  C_26 
ROOT
ATOM      1  C   UNL d   1      -2.159  -5.798  -7.289  0.00  0.00     0.083 A 
ATOM      2  O   UNL d   1      -2.393  -5.277  -8.532  0.00  0.00    -0.336 OA
ATOM      3  C   UNL d   1      -1.620  -4.928  -6.345  0.00  0.00     0.077 A 
ATOM      4  C   UNL d   1      -2.401  -7.131  -6.967  0.00  0.00    -0.000 A 
ATOM      5  C   UNL d   1      -1.350  -5.376  -5.047  0.00  0.00     0.105 A 
ATOM      6  C   UNL d   1      -2.901  -8.037  -7.993  0.00  0.00     0.013 C 
ATOM      7  C   UNL d   1      -1.694  -6.692  -4.684  0.00  0.00     0.103 A 
ATOM      8  C   UNL d   1      -3.340  -5.991  -9.358  0.00  0.00     0.078 C 
ATOM      9  C   UNL d   1      -2.164  -7.576  -5.665  0.00  0.00     0.054 A 
ATOM     10  C   UNL d   1      -3.351  -7.487  -9.124  0.00  0.00     0.011 C 
ATOM     11  C   UNL d   1      -4.731  -5.403  -9.089  0.00  0.00     0.051 C 
ATOM     12  C   UNL d   1      -2.925  -5.701 -10.804  0.00  0.00     0.051 C 
ENDROOT
BRANCH   5  13
ATOM     13  O   UNL d   1      -0.778  -4.576  -4.087  0.00  0.00    -0.344 OA
BRANCH  13  14
ATOM     14  C   UNL d   1       0.048  -3.522  -4.594  0.00  0.00     0.214 C 
BRANCH  14  15
ATOM     15  C   UNL d   1       1.063  -3.120  -3.550  0.00  0.00    -0.034 A 
ATOM     16  C   UNL d   1       1.915  -4.088  -2.994  0.00  0.00     0.012 A 
ATOM     17  C   UNL d   1       2.884  -3.728  -2.057  0.00  0.00     0.037 A 
ATOM     18  C   UNL d   1       3.005  -2.387  -1.673  0.00  0.00     0.102 A 
ATOM     19  C   UNL d   1       2.174  -1.407  -2.232  0.00  0.00     0.037 A 
ATOM     20  C   UNL d   1       1.209  -1.778  -3.172  0.00  0.00     0.012 A 
BRANCH  18  21
ATOM     21  N   UNL d   1       4.010  -2.005  -0.676  0.00  0.00    -0.116 N 
ATOM     22  O   UNL d   1       4.079  -0.810  -0.354  0.00  0.00    -0.532 OA
ATOM     23  O   UNL d   1       4.734  -2.899  -0.212  0.00  0.00    -0.532 OA
ENDBRANCH  18  21
ENDBRANCH  14  15
ENDBRANCH  13  14
ENDBRANCH   5  13
BRANCH   7  24
ATOM     24  O   UNL d   1      -1.534  -7.050  -3.362  0.00  0.00    -0.344 OA
BRANCH  24  25
ATOM     25  C   UNL d   1      -2.341  -8.154  -2.934  0.00  0.00     0.214 C 
BRANCH  25  26
ATOM     26  C   UNL d   1      -2.539  -8.186  -1.433  0.00  0.00    -0.034 A 
ATOM     27  C   UNL d   1      -2.537  -7.014  -0.663  0.00  0.00     0.012 A 
ATOM     28  C   UNL d   1      -2.809  -7.063   0.707  0.00  0.00     0.037 A 
ATOM     29  C   UNL d   1      -3.097  -8.293   1.313  0.00  0.00     0.102 A 
ATOM     30  C   UNL d   1      -3.117  -9.471   0.556  0.00  0.00     0.037 A 
ATOM     31  C   UNL d   1      -2.842  -9.411  -0.812  0.00  0.00     0.012 A 
BRANCH  29  32
ATOM     32  N   UNL d   1      -3.394  -8.348   2.749  0.00  0.00    -0.116 N 
ATOM     33  O   UNL d   1      -3.378  -7.284   3.383  0.00  0.00    -0.532 OA
ATOM     34  O   UNL d   1      -3.648  -9.456   3.245  0.00  0.00    -0.532 OA
ENDBRANCH  29  32
ENDBRANCH  25  26
ENDBRANCH  24  25
ENDBRANCH   7  24
TORSDOF 8
