REMARK  6 active torsions:
REMARK  status: ('A' for Active; 'I' for Inactive)
REMARK    1  A    between atoms: C_8  and  C_1 
REMARK    2  A    between atoms: C_3  and  C_2 
REMARK       I    between atoms: C_4  and  N_12 
REMARK    3  A    between atoms: C_13  and  C_4 
REMARK    4  A    between atoms: N_14  and  C_7 
REMARK    5  A    between atoms: O_22  and  C_8 
REMARK    6  A    between atoms: N_12  and  N_14 
ROOT
ATOM      1  C   UNL d   1      -0.073  -1.476  -0.001  0.00  0.00     0.086 A 
ATOM      2  C   UNL d   1       1.132  -0.796  -0.034  0.00  0.00     0.136 A 
ATOM      3  N   UNL d   1       1.165   0.575  -0.115  0.00  0.00    -0.327 N 
ATOM      4  HN  UNL d   1       2.058   1.066  -0.148  1.00  0.00     0.168 HD
ATOM      5  C   UNL d   1       0.012   1.263  -0.149  0.00  0.00     0.176 A 
ATOM      6  N   UNL d   1      -1.188   0.673  -0.077  0.00  0.00    -0.340 N 
ATOM      7  HN  UNL d   1      -2.052   1.216  -0.080  1.00  0.00     0.167 HD
ATOM      8  C   UNL d   1      -1.200  -0.680   0.001  0.00  0.00     0.110 A 
ENDROOT
BRANCH   5   9
ATOM      9  N   UNL d   1       0.122   2.651  -0.320  0.00  0.00    -0.172 NA
ATOM     10  H   UNL d   1       1.056   2.935  -0.013  0.00  0.00     0.156 HD
BRANCH   9  11
ATOM     11  N   UNL d   1      -0.915   3.408   0.254  0.00  0.00    -0.282 N 
ATOM     12  C   UNL d   1      -0.572   4.650   0.768  0.00  0.00     0.265 C 
ATOM     13  O   UNL d   1       0.610   4.995   0.879  0.00  0.00    -0.269 OA
ATOM     14  H   UNL d   1      -1.861   3.169  -0.042  0.00  0.00     0.184 HD
BRANCH  12  15
ATOM     15  C   UNL d   1      -1.719   5.582   1.141  0.00  0.00     0.271 C 
ATOM     16 CL   UNL d   1      -2.272   6.425  -0.319  0.00  0.00    -0.098 Cl
ATOM     17 CL   UNL d   1      -3.059   4.692   1.892  0.00  0.00    -0.098 Cl
ENDBRANCH  12  15
ENDBRANCH   9  11
ENDBRANCH   5   9
BRANCH   2  18
ATOM     18  C   UNL d   1       2.493  -1.460   0.039  0.00  0.00     0.433 C 
ATOM     19  F   UNL d   1       2.502  -2.791   0.323  0.00  0.00    -0.165 F 
ATOM     20  F   UNL d   1       3.198  -1.321  -1.121  0.00  0.00    -0.165 F 
ATOM     21  F   UNL d   1       3.277  -0.905   1.012  0.00  0.00    -0.165 F 
ENDBRANCH   2  18
BRANCH   1  22
ATOM     22  C   UNL d   1      -0.276  -2.926   0.064  0.00  0.00     0.296 C 
ATOM     23  O   UNL d   1      -1.129  -3.438   0.763  0.00  0.00    -0.259 OA
BRANCH  22  24
ATOM     24  O   UNL d   1       0.532  -3.556  -0.821  0.00  0.00    -0.322 OA
ATOM     25  C   UNL d   1       0.442  -4.986  -0.767  0.00  0.00     0.213 C 
ENDBRANCH  22  24
ENDBRANCH   1  22
TORSDOF 6
