REMARK  4 active torsions:
REMARK  status: ('A' for Active; 'I' for Inactive)
REMARK    1  A    between atoms: N_2  and  S_1 
REMARK    2  A    between atoms: C_4  and  S_1 
REMARK    3  A    between atoms: C_3  and  N_2 
REMARK    4  A    between atoms: C_14  and  C_3 
ROOT
ATOM      1  N   UNL d   1       0.482   1.402   0.720  0.00  0.00    -0.264 N 
ATOM      2  H   UNL d   1      -0.323   1.296   1.343  0.00  0.00     0.180 HD
ENDROOT
BRANCH   1   3
ATOM      3  S   UNL d   1       1.083  -0.030   0.133  0.00  0.00     0.264 S 
ATOM      4  O   UNL d   1       0.518  -1.091   0.938  0.00  0.00    -0.200 OA
ATOM      5  O   UNL d   1       2.512   0.103  -0.049  0.00  0.00    -0.200 OA
BRANCH   3   6
ATOM      6  C   UNL d   1       0.359  -0.135  -1.494  0.00  0.00     0.081 A 
ATOM      7  C   UNL d   1       1.000   0.465  -2.589  0.00  0.00     0.035 A 
ATOM      8  C   UNL d   1       0.486   0.284  -3.882  0.00  0.00    -0.021 A 
ATOM      9  C   UNL d   1       1.143   0.893  -5.084  0.00  0.00     0.051 C 
ATOM     10  C   UNL d   1      -0.656  -0.509  -4.053  0.00  0.00     0.128 A 
ATOM     11  C   UNL d   1      -1.293  -1.124  -2.970  0.00  0.00    -0.021 A 
ATOM     12  F   UNL d   1      -1.139  -0.694  -5.292  0.00  0.00    -0.205 F 
ATOM     13  C   UNL d   1      -0.776  -0.929  -1.682  0.00  0.00     0.035 A 
ATOM     14  C   UNL d   1      -2.485  -2.009  -3.169  0.00  0.00     0.051 C 
ENDBRANCH   3   6
ENDBRANCH   1   3
BRANCH   1  15
ATOM     15  C   UNL d   1       1.100   2.660   0.721  0.00  0.00     0.135 C 
ATOM     16  N   UNL d   1       2.237   2.882   0.156  0.00  0.00    -0.383 N 
ATOM     17  H   UNL d   1       2.628   1.995  -0.192  0.00  0.00     0.157 HD
ATOM     18  HN  UNL d   1       2.682   3.796   0.068  1.00  0.00     0.157 HD
BRANCH  15  19
ATOM     19  C   UNL d   1       0.345   3.740   1.428  0.00  0.00     0.076 A 
ATOM     20  N   UNL d   1      -0.806   3.376   2.063  0.00  0.00    -0.363 N 
ATOM     21  C   UNL d   1      -1.457   4.373   2.716  0.00  0.00     0.088 A 
ATOM     22  HN  UNL d   1      -1.156   2.418   2.047  1.00  0.00     0.165 HD
ATOM     23  C   UNL d   1      -1.028   5.694   2.756  0.00  0.00     0.017 A 
ATOM     24  C   UNL d   1       0.151   6.027   2.097  0.00  0.00     0.004 A 
ATOM     25  C   UNL d   1       0.855   5.035   1.426  0.00  0.00     0.033 A 
ENDBRANCH  15  19
ENDBRANCH   1  15
TORSDOF 4
