REMARK  3 active torsions:
REMARK  status: ('A' for Active; 'I' for Inactive)
REMARK    1  A    between atoms: C_2  and  C_1 
REMARK       I    between atoms: N_6  and  C_2 
REMARK    2  A    between atoms: C_4  and  N_7 
REMARK    3  A    between atoms: N_7  and  N_6 
ROOT
ATOM      1  C   UNL d   1       0.365   2.354   0.657  0.00  0.00     0.274 C 
ATOM      2  N   UNL d   1       1.010   3.449   0.095  0.00  0.00    -0.282 N 
ATOM      3  O   UNL d   1       0.968   1.293   0.829  0.00  0.00    -0.266 OA
ATOM      4  H   UNL d   1       0.454   4.192  -0.313  0.00  0.00     0.184 HD
ENDROOT
BRANCH   2   5
ATOM      5  N   UNL d   1       2.317   3.283  -0.401  0.00  0.00    -0.201 NA
ATOM      6  H   UNL d   1       2.715   2.378  -0.104  0.00  0.00     0.153 HD
BRANCH   5   7
ATOM      7  C   UNL d   1       3.202   4.351  -0.065  0.00  0.00     0.051 A 
ATOM      8  C   UNL d   1       2.758   5.685  -0.015  0.00  0.00     0.050 A 
ATOM      9  C   UNL d   1       3.651   6.732   0.224  0.00  0.00     0.035 A 
ATOM     10 CL   UNL d   1       3.064   8.349   0.293  0.00  0.00    -0.084 Cl
ATOM     11  C   UNL d   1       5.009   6.482   0.392  0.00  0.00     0.026 A 
ATOM     12  C   UNL d   1       5.480   5.173   0.309  0.00  0.00     0.027 A 
ATOM     13  C   UNL d   1       4.589   4.120   0.070  0.00  0.00     0.057 A 
ATOM     14 CL   UNL d   1       5.234   2.520  -0.040  0.00  0.00    -0.082 Cl
ENDBRANCH   5   7
ENDBRANCH   2   5
BRANCH   1  15
ATOM     15  C   UNL d   1      -1.034   2.574   1.015  0.00  0.00     0.095 A 
ATOM     16  C   UNL d   1      -1.979   1.652   1.431  0.00  0.00     0.057 A 
ATOM     17  C   UNL d   1      -3.233   2.256   1.753  0.00  0.00     0.032 A 
ATOM     18 CL   UNL d   1      -1.767  -0.041   1.582  0.00  0.00    -0.083 Cl
ATOM     19  C   UNL d   1      -3.219   3.619   1.566  0.00  0.00     0.052 A 
ATOM     20  S   UNL d   1      -1.710   4.162   0.988  0.00  0.00    -0.095 SA
ENDBRANCH   1  15
TORSDOF 3
