REMARK  3 active torsions:
REMARK  status: ('A' for Active; 'I' for Inactive)
REMARK    1  A    between atoms: C_3  and  C_6 
REMARK       I    between atoms: N_7  and  C_3 
REMARK    2  A    between atoms: N_4  and  N_7 
REMARK    3  A    between atoms: C_10  and  C_9 
ROOT
ATOM      1  N   UNL d   1       6.316  -3.868  -1.968  0.00  0.00    -0.197 NA
ATOM      2  C   UNL d   1       6.120  -2.799  -1.561  0.00  0.00     0.068 C 
ATOM      3  C   UNL d   1       5.806  -1.468  -1.058  0.00  0.00     0.228 C 
ENDROOT
BRANCH   3   4
ATOM      4  C   UNL d   1       4.330  -1.141  -1.026  0.00  0.00     0.249 C 
ATOM      5  N   UNL d   1       3.440  -2.107  -1.478  0.00  0.00    -0.270 N 
ATOM      6  H   UNL d   1       3.735  -3.015  -1.828  0.00  0.00     0.190 HD
ATOM      7  O   UNL d   1       3.979  -0.035  -0.602  0.00  0.00    -0.271 OA
BRANCH   5   8
ATOM      8  N   UNL d   1       2.107  -1.833  -1.421  0.00  0.00    -0.308 N 
ATOM      9  C   UNL d   1       1.296  -2.748  -1.846  0.00  0.00     0.118 C 
ATOM     10  HN  UNL d   1       1.762  -0.944  -1.060  1.00  0.00     0.186 HD
BRANCH   9  11
ATOM     11  C   UNL d   1      -0.167  -2.536  -1.806  0.00  0.00    -0.019 A 
ATOM     12  C   UNL d   1      -0.690  -1.342  -1.298  0.00  0.00     0.013 A 
ATOM     13  C   UNL d   1      -2.071  -1.148  -1.253  0.00  0.00     0.001 A 
ATOM     14  C   UNL d   1      -2.928  -2.145  -1.717  0.00  0.00     0.000 A 
ATOM     15  C   UNL d   1      -2.408  -3.336  -2.227  0.00  0.00     0.001 A 
ATOM     16  C   UNL d   1      -1.025  -3.536  -2.273  0.00  0.00     0.013 A 
ENDBRANCH   9  11
ENDBRANCH   5   8
ENDBRANCH   3   4
TORSDOF 3
