REMARK  4 active torsions:
REMARK  status: ('A' for Active; 'I' for Inactive)
REMARK    1  A    between atoms: C_2  and  C_1 
REMARK       I    between atoms: N_3  and  C_2 
REMARK    2  A    between atoms: C_10  and  N_3 
REMARK    3  A    between atoms: O_8  and  C_4 
REMARK    4  A    between atoms: C_7  and  O_8 
ROOT
ATOM      1  C   UNL d   1      -1.089  -5.503  -0.747  0.00  0.00     0.175 C 
ATOM      2  C   UNL d   1      -1.299  -4.555   0.258  0.00  0.00     0.087 C 
ATOM      3  N   UNL d   1       0.089  -6.162  -0.902  0.00  0.00    -0.345 N 
ATOM      4  HN  UNL d   1       0.245  -6.786  -1.694  1.00  0.00     0.167 HD
ATOM      5  C   UNL d   1      -0.311  -4.426   1.240  0.00  0.00     0.035 C 
ATOM      6  C   UNL d   1       1.043  -5.962   0.026  0.00  0.00     0.090 C 
ATOM      7  C   UNL d   1       0.883  -5.131   1.120  0.00  0.00     0.019 C 
ENDROOT
BRANCH   2   8
ATOM      8  N   UNL d   1      -2.410  -3.706   0.371  0.00  0.00    -0.319 N 
ATOM      9  C   UNL d   1      -3.002  -2.888  -0.566  0.00  0.00     0.258 C 
ATOM     10  O   UNL d   1      -3.956  -2.204  -0.191  0.00  0.00    -0.267 OA
ATOM     11  H   UNL d   1      -2.690  -3.426   1.305  0.00  0.00     0.169 HD
BRANCH   9  12
ATOM     12  C   UNL d   1      -2.424  -2.633  -1.922  0.00  0.00     0.054 A 
ATOM     13  C   UNL d   1      -3.251  -2.336  -3.020  0.00  0.00     0.051 A 
ATOM     14  C   UNL d   1      -2.692  -1.938  -4.244  0.00  0.00     0.048 A 
ATOM     15 CL   UNL d   1      -4.977  -2.447  -2.973  0.00  0.00    -0.083 Cl
ATOM     16  C   UNL d   1      -1.311  -1.856  -4.387  0.00  0.00     0.035 A 
ATOM     17  C   UNL d   1      -0.477  -2.148  -3.314  0.00  0.00     0.025 A 
ATOM     18 CL   UNL d   1      -0.630  -1.369  -5.889  0.00  0.00    -0.084 Cl
ATOM     19  C   UNL d   1      -1.032  -2.505  -2.081  0.00  0.00     0.020 A 
ENDBRANCH   9  12
ENDBRANCH   2   8
BRANCH   1  20
ATOM     20  O   UNL d   1      -2.159  -5.854  -1.567  0.00  0.00    -0.291 OA
BRANCH  20  21
ATOM     21  C   UNL d   1      -2.217  -7.170  -1.984  0.00  0.00     0.084 A 
ATOM     22  C   UNL d   1      -2.628  -7.433  -3.279  0.00  0.00    -0.017 A 
ATOM     23  C   UNL d   1      -2.611  -8.742  -3.791  0.00  0.00    -0.043 A 
ATOM     24  C   UNL d   1      -3.048  -6.449  -4.324  0.00  0.00     0.042 C 
ATOM     25  C   UNL d   1      -2.990  -8.751  -5.240  0.00  0.00     0.040 C 
ATOM     26  C   UNL d   1      -2.207  -9.822  -3.013  0.00  0.00    -0.055 A 
ATOM     27  C   UNL d   1      -3.601  -7.357  -5.431  0.00  0.00     0.009 C 
ATOM     28  C   UNL d   1      -1.889  -9.570  -1.671  0.00  0.00     0.010 A 
ATOM     29  C   UNL d   1      -2.103 -11.207  -3.579  0.00  0.00     0.049 C 
ATOM     30  C   UNL d   1      -1.910  -8.262  -1.161  0.00  0.00     0.038 A 
ENDBRANCH  20  21
ENDBRANCH   1  20
TORSDOF 4
