REMARK  5 active torsions:
REMARK  status: ('A' for Active; 'I' for Inactive)
REMARK    1  A    between atoms: C_9  and  C_2 
REMARK    2  A    between atoms: S_7  and  C_3 
REMARK    3  A    between atoms: C_10  and  C_4 
REMARK    4  A    between atoms: C_14  and  S_7 
REMARK    5  A    between atoms: C_13  and  C_14 
ROOT
ATOM      1  C   UNL d   1      -0.705  -0.022  -0.014  0.00  0.00     0.080 A 
ATOM      2  C   UNL d   1       1.317  -1.212   0.109  0.00  0.00     0.064 A 
ATOM      3  C   UNL d   1       0.202   1.016   0.066  0.00  0.00     0.064 A 
ATOM      4  C   UNL d   1      -0.074  -1.333   0.027  0.00  0.00     0.018 A 
ATOM      5  S   UNL d   1       1.796   0.435   0.180  0.00  0.00    -0.077 SA
ATOM      6  C   UNL d   1      -2.118   0.209  -0.149  0.00  0.00     0.102 C 
ATOM      7  N   UNL d   1      -3.254   0.423  -0.224  0.00  0.00    -0.191 NA
ENDROOT
BRANCH   3   8
ATOM      8  S   UNL d   1      -0.078   2.759  -0.016  0.00  0.00    -0.114 SA
BRANCH   8   9
ATOM      9  C   UNL d   1      -1.044   3.092   1.479  0.00  0.00     0.157 C 
BRANCH   9  10
ATOM     10  C   UNL d   1      -0.257   2.766   2.727  0.00  0.00     0.132 C 
ATOM     11  O   UNL d   1      -0.307   1.649   3.244  0.00  0.00    -0.298 OA
ATOM     12  C   UNL d   1       0.617   3.853   3.297  0.00  0.00     0.091 C 
ENDBRANCH   9  10
ENDBRANCH   8   9
ENDBRANCH   3   8
BRANCH   4  13
ATOM     13  C   UNL d   1      -0.776  -2.633  -0.045  0.00  0.00    -0.023 A 
ATOM     14  C   UNL d   1      -1.953  -2.845   0.691  0.00  0.00     0.012 A 
ATOM     15  C   UNL d   1      -2.655  -4.052   0.601  0.00  0.00     0.001 A 
ATOM     16  C   UNL d   1      -2.171  -5.084  -0.198  0.00  0.00     0.000 A 
ATOM     17  C   UNL d   1      -0.999  -4.898  -0.924  0.00  0.00     0.001 A 
ATOM     18  C   UNL d   1      -0.321  -3.674  -0.868  0.00  0.00     0.012 A 
ENDBRANCH   4  13
BRANCH   2  19
ATOM     19  C   UNL d   1       2.353  -2.243   0.212  0.00  0.00     0.163 C 
ATOM     20  O   UNL d   1       2.159  -3.335   0.752  0.00  0.00    -0.292 OA
ATOM     21  C   UNL d   1       3.718  -1.999  -0.404  0.00  0.00     0.097 C 
ENDBRANCH   2  19
TORSDOF 5
