REMARK  5 active torsions:
REMARK  status: ('A' for Active; 'I' for Inactive)
REMARK    1  A    between atoms: C_9  and  C_3 
REMARK    2  A    between atoms: C_12  and  C_15 
REMARK    3  A    between atoms: S_20  and  C_13 
REMARK    4  A    between atoms: C_15  and  C_22 
REMARK    5  A    between atoms: C_22  and  S_20 
ROOT
ATOM      1  C   UNL d   1      -3.717   0.497  -0.081  0.00  0.00     0.053 A 
ATOM      2  N   UNL d   1      -4.423  -0.241   0.801  0.00  0.00    -0.336 N 
ATOM      3  HN  UNL d   1      -3.958  -0.856   1.470  1.00  0.00     0.168 HD
ATOM      4  C   UNL d   1      -5.755  -0.135   0.762  0.00  0.00     0.144 A 
ATOM      5  N   UNL d   1      -6.435   0.639  -0.097  0.00  0.00    -0.347 N 
ATOM      6  HN  UNL d   1      -7.454   0.678  -0.095  1.00  0.00     0.167 HD
ATOM      7  C   UNL d   1      -4.325   1.334  -0.993  0.00  0.00     0.048 A 
ATOM      8  C   UNL d   1      -5.700   1.360  -0.961  0.00  0.00     0.092 A 
ENDROOT
BRANCH   4   9
ATOM      9  S   UNL d   1      -6.724  -1.096   1.899  0.00  0.00    -0.086 SA
BRANCH   9  10
ATOM     10  C   UNL d   1      -5.405  -2.064   2.687  0.00  0.00     0.166 C 
BRANCH  10  11
ATOM     11  C   UNL d   1      -6.002  -3.087   3.630  0.00  0.00     0.170 C 
ATOM     12  O   UNL d   1      -6.389  -2.776   4.754  0.00  0.00    -0.291 OA
BRANCH  11  13
ATOM     13  C   UNL d   1      -6.127  -4.500   3.160  0.00  0.00     0.032 A 
ATOM     14  C   UNL d   1      -5.911  -5.592   4.016  0.00  0.00     0.049 A 
ATOM     15  C   UNL d   1      -6.079  -6.901   3.544  0.00  0.00     0.048 A 
ATOM     16 CL   UNL d   1      -5.367  -5.430   5.649  0.00  0.00    -0.083 Cl
ATOM     17  C   UNL d   1      -6.454  -7.123   2.222  0.00  0.00     0.035 A 
ATOM     18  C   UNL d   1      -6.663  -6.051   1.361  0.00  0.00     0.025 A 
ATOM     19 CL   UNL d   1      -6.655  -8.730   1.645  0.00  0.00    -0.084 Cl
ATOM     20  C   UNL d   1      -6.503  -4.744   1.828  0.00  0.00     0.018 A 
ENDBRANCH  11  13
ENDBRANCH  10  11
ENDBRANCH   9  10
ENDBRANCH   4   9
BRANCH   1  21
ATOM     21  C   UNL d   1      -2.250   0.305   0.007  0.00  0.00     0.039 A 
ATOM     22  S   UNL d   1      -1.310   0.423  -1.447  0.00  0.00    -0.079 SA
ATOM     23  C   UNL d   1       0.075   0.032  -0.618  0.00  0.00     0.059 A 
ATOM     24  C   UNL d   1      -0.095  -0.185   0.700  0.00  0.00     0.003 A 
ATOM     25  S   UNL d   1       1.643  -0.146  -1.161  0.00  0.00    -0.074 SA
ATOM     26  C   UNL d   1      -1.447  -0.018   1.124  0.00  0.00    -0.030 A 
ATOM     27  C   UNL d   1       1.116  -0.543   1.375  0.00  0.00    -0.025 A 
ATOM     28  C   UNL d   1      -2.020  -0.154   2.497  0.00  0.00     0.050 C 
ATOM     29  C   UNL d   1       1.360  -0.882   2.809  0.00  0.00     0.051 C 
ATOM     30  C   UNL d   1       2.134  -0.549   0.425  0.00  0.00     0.059 A 
ATOM     31 BR   UNL d   1       3.938  -0.970   0.784  0.00  0.00    -0.042 Br
ENDBRANCH   1  21
TORSDOF 5
