REMARK  3 active torsions:
REMARK  status: ('A' for Active; 'I' for Inactive)
REMARK    1  A    between atoms: N_14  and  C_4 
REMARK    2  A    between atoms: C_13  and  C_9 
REMARK    3  A    between atoms: C_12  and  C_11 
ROOT
ATOM      1  C   UNL d   1       0.186  -0.803   0.016  0.00  0.00     0.153 A 
ATOM      2  N   UNL d   1       0.241   0.598   0.011  0.00  0.00    -0.222 N 
ATOM      3  C   UNL d   1       1.495  -1.239   0.017  0.00  0.00     0.104 A 
ATOM      4  C   UNL d   1      -0.970   1.369   0.022  0.00  0.00     0.128 A 
ATOM      5  N   UNL d   1       1.537   1.029  -0.026  0.00  0.00    -0.292 N 
ATOM      6  HN  UNL d   1       1.860   1.995  -0.066  1.00  0.00     0.187 HD
ATOM      7  N   UNL d   1      -0.985  -1.505   0.020  0.00  0.00    -0.336 N 
ATOM      8  HN  UNL d   1      -0.994  -2.525   0.025  1.00  0.00     0.167 HD
ATOM      9  C   UNL d   1       2.300  -0.076  -0.000  0.00  0.00     0.059 A 
ATOM     10  C   UNL d   1      -2.135   0.683   0.018  0.00  0.00     0.084 A 
ATOM     11  C   UNL d   1      -2.092  -0.813   0.017  0.00  0.00     0.121 A 
ATOM     12 CL   UNL d   1       1.994  -2.864   0.026  0.00  0.00    -0.078 Cl
ENDROOT
BRANCH   9  13
ATOM     13  C   UNL d   1       3.826   0.045  -0.004  0.00  0.00    -0.005 C 
ATOM     14  C   UNL d   1       4.418  -0.599  -1.274  0.00  0.00     0.021 C 
ATOM     15  C   UNL d   1       4.288   1.523   0.017  0.00  0.00     0.021 C 
ATOM     16  C   UNL d   1       4.435  -0.631   1.243  0.00  0.00     0.021 C 
ENDBRANCH   9  13
BRANCH   4  17
ATOM     17  N   UNL d   1      -0.951   2.784   0.032  0.00  0.00    -0.374 N 
ATOM     18  C   UNL d   1      -2.000   3.613  -0.573  0.00  0.00     0.150 C 
ATOM     19  C   UNL d   1       0.139   3.575   0.609  0.00  0.00     0.150 C 
ENDBRANCH   4  17
BRANCH  11  20
ATOM     20  C   UNL d   1      -3.440  -1.538   0.016  0.00  0.00     0.432 C 
ATOM     21  F   UNL d   1      -4.501  -0.683   0.005  0.00  0.00    -0.165 F 
ATOM     22  F   UNL d   1      -3.594  -2.341  -1.073  0.00  0.00    -0.165 F 
ATOM     23  F   UNL d   1      -3.605  -2.328   1.111  0.00  0.00    -0.165 F 
ENDBRANCH  11  20
TORSDOF 3
