REMARK  2 active torsions:
REMARK  status: ('A' for Active; 'I' for Inactive)
REMARK    1  A    between atoms: C_2  and  C_1 
REMARK       I    between atoms: N_3  and  C_2 
REMARK    2  A    between atoms: C_14  and  N_3 
ROOT
ATOM      1  C   UNL d   1      -3.014   0.193   0.128  0.00  0.00     0.231 C 
ATOM      2  N   UNL d   1      -3.620   1.433   0.033  0.00  0.00    -0.327 N 
ATOM      3  O   UNL d   1      -3.620  -0.860   0.325  0.00  0.00    -0.272 OA
ATOM      4  H   UNL d   1      -3.059   2.202  -0.307  0.00  0.00     0.169 HD
ENDROOT
BRANCH   1   5
ATOM      5  C   UNL d   1      -1.476   0.187  -0.013  0.00  0.00     0.042 C 
ATOM      6  C   UNL d   1      -0.811   0.979   1.140  0.00  0.00     0.024 C 
ATOM      7  C   UNL d   1       0.725   0.894   1.038  0.00  0.00    -0.013 C 
ATOM      8  C   UNL d   1       1.167  -0.577   1.113  0.00  0.00     0.009 C 
ATOM      9  C   UNL d   1       1.179   1.482  -0.308  0.00  0.00     0.009 C 
ATOM     10  C   UNL d   1       0.542  -1.371  -0.044  0.00  0.00    -0.013 C 
ATOM     11  C   UNL d   1      -0.984  -1.286   0.066  0.00  0.00     0.024 C 
ATOM     12  C   UNL d   1       0.978  -0.768  -1.387  0.00  0.00     0.009 C 
ATOM     13  C   UNL d   1       0.537   0.702  -1.469  0.00  0.00    -0.013 C 
ATOM     14  C   UNL d   1      -0.999   0.786  -1.356  0.00  0.00     0.024 C 
ENDBRANCH   1   5
BRANCH   2  15
ATOM     15  C   UNL d   1      -4.980   1.722   0.299  0.00  0.00     0.034 A 
ATOM     16  C   UNL d   1      -5.858   0.820   0.914  0.00  0.00     0.032 A 
ATOM     17  C   UNL d   1      -7.179   1.185   1.197  0.00  0.00     0.044 A 
ATOM     18  C   UNL d   1      -7.625   2.453   0.857  0.00  0.00     0.116 A 
ATOM     19  C   UNL d   1      -6.777   3.361   0.237  0.00  0.00     0.044 A 
ATOM     20  F   UNL d   1      -8.886   2.807   1.137  0.00  0.00    -0.206 F 
ATOM     21  C   UNL d   1      -5.454   2.998  -0.038  0.00  0.00     0.032 A 
ENDBRANCH   2  15
TORSDOF 2
