REMARK  3 active torsions:
REMARK  status: ('A' for Active; 'I' for Inactive)
REMARK    1  A    between atoms: C_7  and  C_1 
REMARK    2  A    between atoms: O_13  and  C_7 
REMARK    3  A    between atoms: C_16  and  O_13 
ROOT
ATOM      1  C   UNL d   1       2.371   0.691  -0.085  0.00  0.00     0.154 A 
ATOM      2  C   UNL d   1       2.490  -0.642  -0.052  0.00  0.00     0.099 A 
ATOM      3  C   UNL d   1      -0.010  -0.744  -0.015  0.00  0.00     0.049 A 
ATOM      4  C   UNL d   1       1.272  -1.463  -0.003  0.00  0.00     0.187 A 
ATOM      5  O   UNL d   1       1.166   1.376  -0.093  0.00  0.00    -0.303 OA
ATOM      6  C   UNL d   1       0.007   0.648  -0.058  0.00  0.00     0.090 A 
ATOM      7  C   UNL d   1      -1.222  -1.440   0.013  0.00  0.00     0.036 A 
ATOM      8  O   UNL d   1       1.335  -2.683   0.059  0.00  0.00    -0.287 OA
ATOM      9  C   UNL d   1      -1.191   1.361  -0.069  0.00  0.00     0.039 A 
ATOM     10  C   UNL d   1      -2.417  -0.722  -0.011  0.00  0.00     0.007 A 
ATOM     11  C   UNL d   1      -2.407   0.675  -0.050  0.00  0.00     0.021 A 
ATOM     12  I   UNL d   1      -4.231  -1.736  -0.003  0.00  0.00    -0.045 I 
ENDROOT
BRANCH   1  13
ATOM     13  C   UNL d   1       3.627   1.490  -0.037  0.00  0.00     0.317 C 
ATOM     14  O   UNL d   1       4.752   1.018   0.013  0.00  0.00    -0.257 OA
BRANCH  13  15
ATOM     15  O   UNL d   1       3.304   2.806   0.049  0.00  0.00    -0.316 OA
BRANCH  15  16
ATOM     16  C   UNL d   1       4.345   3.672   0.517  0.00  0.00     0.175 C 
ATOM     17  C   UNL d   1       4.282   3.701   2.034  0.00  0.00     0.034 C 
ENDBRANCH  15  16
ENDBRANCH  13  15
ENDBRANCH   1  13
TORSDOF 3
