REMARK  8 active torsions:
REMARK  status: ('A' for Active; 'I' for Inactive)
REMARK    1  A    between atoms: N_3  and  S_1 
REMARK    2  A    between atoms: C_6  and  S_1 
REMARK    3  A    between atoms: C_2  and  C_5 
REMARK    4  A    between atoms: C_5  and  N_3 
REMARK    5  A    between atoms: O_9  and  C_4 
REMARK    6  A    between atoms: C_13  and  O_9 
REMARK    7  A    between atoms: O_25  and  C_15 
REMARK    8  A    between atoms: O_24  and  C_16 
ROOT
ATOM      1  C   UNL d   1       0.441   1.905  -3.181  0.00  0.00     0.011 A 
ATOM      2  C   UNL d   1       0.431   0.856  -4.127  0.00  0.00     0.085 A 
ATOM      3  C   UNL d   1       0.178   3.203  -3.682  0.00  0.00     0.044 A 
ATOM      4 CL   UNL d   1       0.343   4.626  -2.704  0.00  0.00    -0.084 Cl
ATOM      5  C   UNL d   1       0.022   1.076  -5.452  0.00  0.00     0.038 A 
ATOM      6  C   UNL d   1      -0.300   2.353  -5.895  0.00  0.00     0.004 A 
ATOM      7  C   UNL d   1      -0.195   3.421  -5.014  0.00  0.00     0.024 A 
ENDROOT
BRANCH   1   8
ATOM      8  C   UNL d   1       0.793   1.742  -1.711  0.00  0.00     0.147 C 
BRANCH   8   9
ATOM      9  N   UNL d   1       0.386   0.477  -1.048  0.00  0.00    -0.211 NA
ATOM     10  H   UNL d   1      -0.549   0.192  -1.345  0.00  0.00     0.140 HD
BRANCH   9  11
ATOM     11  S   UNL d   1       0.384   0.588   0.646  0.00  0.00     0.241 S 
ATOM     12  O   UNL d   1      -1.011   0.521   1.029  0.00  0.00    -0.206 OA
ATOM     13  O   UNL d   1       1.223   1.697   1.044  0.00  0.00    -0.206 OA
BRANCH  11  14
ATOM     14  C   UNL d   1       1.172  -0.905   1.203  0.00  0.00     0.074 A 
ATOM     15  C   UNL d   1       2.543  -0.895   1.475  0.00  0.00     0.027 A 
ATOM     16  C   UNL d   1       3.130  -1.992   2.107  0.00  0.00     0.038 A 
ATOM     17  C   UNL d   1       2.358  -3.093   2.496  0.00  0.00     0.068 A 
ATOM     18  C   UNL d   1       0.993  -3.105   2.203  0.00  0.00     0.038 A 
ATOM     19  C   UNL d   1       0.397  -2.011   1.564  0.00  0.00     0.027 A 
BRANCH  17  20
ATOM     20  O   UNL d   1       3.048  -4.070   3.159  0.00  0.00    -0.356 OA
ATOM     21  C   UNL d   1       2.281  -5.093   3.782  0.00  0.00     0.210 C 
ENDBRANCH  17  20
ENDBRANCH  11  14
ENDBRANCH   9  11
ENDBRANCH   8   9
ENDBRANCH   1   8
BRANCH   2  22
ATOM     22  O   UNL d   1       0.780  -0.452  -3.864  0.00  0.00    -0.310 OA
BRANCH  22  23
ATOM     23  C   UNL d   1       2.029  -0.701  -3.339  0.00  0.00     0.076 C 
ATOM     24  C   UNL d   1       2.137  -1.868  -2.581  0.00  0.00     0.040 C 
ATOM     25  C   UNL d   1       3.293  -2.110  -1.842  0.00  0.00     0.039 C 
ATOM     26  C   UNL d   1       4.337  -1.185  -1.856  0.00  0.00     0.068 C 
ATOM     27  C   UNL d   1       4.281  -0.088  -2.716  0.00  0.00     0.039 C 
ATOM     28  C   UNL d   1       3.133   0.144  -3.476  0.00  0.00     0.040 C 
BRANCH  26  29
ATOM     29  O   UNL d   1       5.370  -1.438  -0.997  0.00  0.00    -0.356 OA
ATOM     30  C   UNL d   1       5.962  -0.270  -0.431  0.00  0.00     0.210 C 
ENDBRANCH  26  29
ENDBRANCH  22  23
ENDBRANCH   2  22
TORSDOF 8
