REMARK  7 active torsions:
REMARK  status: ('A' for Active; 'I' for Inactive)
REMARK    1  A    between atoms: S_5  and  C_1 
REMARK    2  A    between atoms: C_2  and  C_13 
REMARK       I    between atoms: N_7  and  C_2 
REMARK    3  A    between atoms: N_3  and  N_7 
REMARK    4  A    between atoms: C_15  and  S_5 
REMARK    5  A    between atoms: N_12  and  C_6 
REMARK    6  A    between atoms: C_13  and  O_14 
REMARK    7  A    between atoms: O_14  and  C_16 
ROOT
ATOM      1  O   UNL d   1       1.982   6.616  -0.079  0.00  0.00    -0.342 OA
ENDROOT
BRANCH   1   2
ATOM      2  C   UNL d   1       1.503   7.720  -0.835  0.00  0.00     0.280 C 
BRANCH   2   3
ATOM      3  C   UNL d   1       2.204   9.054  -0.575  0.00  0.00     0.260 C 
ATOM      4  N   UNL d   1       3.124   9.046   0.461  0.00  0.00    -0.267 N 
ATOM      5  H   UNL d   1       3.325   8.188   0.963  0.00  0.00     0.190 HD
ATOM      6  O   UNL d   1       1.913  10.045  -1.249  0.00  0.00    -0.269 OA
BRANCH   4   7
ATOM      7  N   UNL d   1       3.757  10.211   0.785  0.00  0.00    -0.294 N 
ATOM      8  C   UNL d   1       4.632  10.173   1.736  0.00  0.00     0.194 C 
ATOM      9  HN  UNL d   1       3.547  11.081   0.294  1.00  0.00     0.187 HD
BRANCH   8  10
ATOM     10  N   UNL d   1       5.370  11.244   2.189  0.00  0.00    -0.385 N 
ATOM     11  C   UNL d   1       6.309  11.139   3.291  0.00  0.00     0.149 C 
ATOM     12  C   UNL d   1       5.134  12.591   1.687  0.00  0.00     0.149 C 
ENDBRANCH   8  10
ENDBRANCH   4   7
ENDBRANCH   2   3
ENDBRANCH   1   2
BRANCH   1  13
ATOM     13  C   UNL d   1       1.390   5.412  -0.377  0.00  0.00     0.069 A 
ATOM     14  C   UNL d   1       2.163   4.278  -0.118  0.00  0.00     0.038 A 
ATOM     15  C   UNL d   1       1.659   2.993  -0.366  0.00  0.00     0.021 A 
ATOM     16  C   UNL d   1       0.369   2.826  -0.874  0.00  0.00     0.009 A 
ATOM     17  C   UNL d   1      -0.416   3.960  -1.104  0.00  0.00     0.021 A 
ATOM     18  C   UNL d   1       0.092   5.245  -0.862  0.00  0.00     0.038 A 
BRANCH  16  19
ATOM     19  S   UNL d   1      -0.352   1.218  -1.134  0.00  0.00    -0.016 SA
BRANCH  19  20
ATOM     20  C   UNL d   1       0.760   0.503  -2.353  0.00  0.00     0.448 C 
ATOM     21  F   UNL d   1       1.711   1.359  -2.796  0.00  0.00    -0.160 F 
ATOM     22  F   UNL d   1       0.070   0.080  -3.441  0.00  0.00    -0.160 F 
ATOM     23  F   UNL d   1       1.401  -0.577  -1.844  0.00  0.00    -0.160 F 
ENDBRANCH  19  20
ENDBRANCH  16  19
ENDBRANCH   1  13
TORSDOF 7
