REMARK  3 active torsions:
REMARK  status: ('A' for Active; 'I' for Inactive)
REMARK    1  A    between atoms: C_2  and  C_1 
REMARK       I    between atoms: C_3  and  N_4 
REMARK    2  A    between atoms: C_6  and  C_3 
REMARK    3  A    between atoms: N_4  and  C_5 
ROOT
ATOM      1  C   UNL d   1      -0.841  -1.849  -1.333  0.00  0.00     0.256 C 
ATOM      2  N   UNL d   1      -0.447  -0.941  -2.297  0.00  0.00    -0.322 N 
ATOM      3  O   UNL d   1      -1.539  -2.835  -1.566  0.00  0.00    -0.267 OA
ATOM      4  H   UNL d   1       0.460  -0.499  -2.189  0.00  0.00     0.169 HD
ENDROOT
BRANCH   2   5
ATOM      5  C   UNL d   1      -1.239  -0.558  -3.407  0.00  0.00     0.050 A 
ATOM      6  C   UNL d   1      -0.688   0.195  -4.459  0.00  0.00     0.074 A 
ATOM      7  C   UNL d   1      -1.533   0.636  -5.501  0.00  0.00     0.018 A 
ATOM      8  C   UNL d   1      -2.899   0.361  -5.489  0.00  0.00     0.001 A 
ATOM      9  C   UNL d   1      -3.442  -0.370  -4.444  0.00  0.00     0.002 A 
ATOM     10  C   UNL d   1      -2.618  -0.830  -3.417  0.00  0.00     0.030 A 
BRANCH   6  11
ATOM     11  C   UNL d   1       0.778   0.515  -4.564  0.00  0.00     0.419 C 
ATOM     12  F   UNL d   1       1.470   0.346  -3.397  0.00  0.00    -0.166 F 
ATOM     13  F   UNL d   1       1.012   1.808  -4.934  0.00  0.00    -0.166 F 
ATOM     14  F   UNL d   1       1.419  -0.253  -5.490  0.00  0.00    -0.166 F 
ENDBRANCH   6  11
ENDBRANCH   2   5
BRANCH   1  15
ATOM     15  C   UNL d   1      -0.478  -1.532   0.084  0.00  0.00     0.033 A 
ATOM     16  C   UNL d   1      -1.070  -2.338   1.073  0.00  0.00     0.027 A 
ATOM     17  C   UNL d   1      -1.054  -1.892   2.378  0.00  0.00    -0.022 A 
ATOM     18  C   UNL d   1      -1.686  -2.465   3.588  0.00  0.00     0.068 C 
ATOM     19  C   UNL d   1      -0.420  -0.709   2.720  0.00  0.00     0.075 A 
ATOM     20  C   UNL d   1      -1.751  -1.176   4.406  0.00  0.00     0.180 C 
ATOM     21  O   UNL d   1      -0.613  -0.355   4.033  0.00  0.00    -0.350 OA
ATOM     22  C   UNL d   1       0.268   0.048   1.794  0.00  0.00     0.038 A 
ATOM     23  C   UNL d   1       0.223  -0.362   0.456  0.00  0.00     0.020 A 
ENDBRANCH   1  15
TORSDOF 3
