REMARK  7 active torsions:
REMARK  status: ('A' for Active; 'I' for Inactive)
REMARK    1  A    between atoms: C_16  and  N_1 
REMARK    2  A    between atoms: S_15  and  C_2 
REMARK    3  A    between atoms: O_22  and  C_3 
REMARK    4  A    between atoms: C_13  and  C_8 
REMARK    5  A    between atoms: C_12  and  C_21 
REMARK    6  A    between atoms: C_21  and  S_15 
REMARK    7  A    between atoms: C_23  and  C_16 
ROOT
ATOM      1  N   UNL d   1      -0.054  -1.296  -0.088  0.00  0.00    -0.287 N 
ATOM      2  C   UNL d   1       1.204  -0.755  -0.086  0.00  0.00     0.165 A 
ATOM      3  C   UNL d   1      -0.901  -0.219  -0.069  0.00  0.00     0.240 A 
ATOM      4  N   UNL d   1       1.131   0.553  -0.032  0.00  0.00    -0.277 N 
ATOM      5  HN  UNL d   1       1.920   1.201  -0.012  1.00  0.00     0.189 HD
ATOM      6  N   UNL d   1      -0.206   0.895  -0.008  0.00  0.00    -0.263 N 
ATOM      7  HN  UNL d   1      -0.585   1.840   0.046  1.00  0.00     0.190 HD
ENDROOT
BRANCH   2   8
ATOM      8  S   UNL d   1       2.650  -1.695  -0.194  0.00  0.00    -0.086 SA
BRANCH   8   9
ATOM      9  C   UNL d   1       3.791  -0.728   0.838  0.00  0.00     0.140 C 
BRANCH   9  10
ATOM     10  C   UNL d   1       3.463  -0.853   2.292  0.00  0.00     0.026 A 
ATOM     11  N   UNL d   1       3.855  -1.996   2.986  0.00  0.00    -0.352 N 
ATOM     12  C   UNL d   1       3.463  -1.933   4.246  0.00  0.00     0.091 A 
ATOM     13  HN  UNL d   1       4.372  -2.773   2.577  1.00  0.00     0.166 HD
ATOM     14  S   UNL d   1       2.651  -0.476   4.670  0.00  0.00    -0.081 SA
ATOM     15  C   UNL d   1       2.782   0.073   3.058  0.00  0.00     0.077 A 
BRANCH  12  16
ATOM     16  C   UNL d   1       3.667  -3.041   5.156  0.00  0.00     0.038 A 
ATOM     17  S   UNL d   1       3.230  -3.002   6.818  0.00  0.00    -0.099 SA
ATOM     18  C   UNL d   1       3.698  -4.626   7.064  0.00  0.00     0.050 A 
ATOM     19  C   UNL d   1       4.210  -5.192   5.920  0.00  0.00     0.008 A 
ATOM     20  C   UNL d   1       4.207  -4.275   4.827  0.00  0.00     0.022 A 
ENDBRANCH  12  16
ENDBRANCH   9  10
ENDBRANCH   8   9
ENDBRANCH   2   8
BRANCH   1  21
ATOM     21  C   UNL d   1      -0.434  -2.688   0.039  0.00  0.00     0.173 C 
BRANCH  21  22
ATOM     22  C   UNL d   1      -0.983  -3.277  -1.240  0.00  0.00    -0.040 A 
ATOM     23  C   UNL d   1      -0.373  -3.056  -2.485  0.00  0.00     0.009 A 
ATOM     24  C   UNL d   1      -0.891  -3.635  -3.645  0.00  0.00     0.001 A 
ATOM     25  C   UNL d   1      -2.011  -4.459  -3.576  0.00  0.00     0.000 A 
ATOM     26  C   UNL d   1      -2.609  -4.714  -2.345  0.00  0.00     0.001 A 
ATOM     27  C   UNL d   1      -2.095  -4.133  -1.183  0.00  0.00     0.009 A 
ENDBRANCH  21  22
ENDBRANCH   1  21
BRANCH   3  28
ATOM     28  O   UNL d   1      -2.224  -0.259  -0.080  0.00  0.00    -0.331 OA
ATOM     29  H   UNL d   1      -2.512  -1.119  -0.427  0.00  0.00     0.221 HD
ENDBRANCH   3  28
TORSDOF 7
