REMARK  6 active torsions:
REMARK  status: ('A' for Active; 'I' for Inactive)
REMARK    1  A    between atoms: C_6  and  C_1 
REMARK    2  A    between atoms: C_10  and  C_3 
REMARK    3  A    between atoms: O_12  and  C_3 
REMARK    4  A    between atoms: C_9  and  C_5 
REMARK    5  A    between atoms: O_15  and  C_6 
REMARK    6  A    between atoms: C_22  and  O_15 
ROOT
ATOM      1  C   UNL d   1      -0.848  -1.107   0.103  0.00  0.00     0.188 C 
ATOM      2  C   UNL d   1       1.235   0.338   0.027  0.00  0.00     0.151 C 
ATOM      3  C   UNL d   1       0.700  -1.136   0.169  0.00  0.00     0.124 C 
ATOM      4  S   UNL d   1      -1.383   0.618   0.355  0.00  0.00    -0.140 SA
ATOM      5  C   UNL d   1       0.113   1.313  -0.386  0.00  0.00     0.102 C 
ATOM      6  C   UNL d   1       2.425   0.469  -0.828  0.00  0.00     0.069 C 
ATOM      7  N   UNL d   1       3.337   0.580  -1.533  0.00  0.00    -0.197 NA
ENDROOT
BRANCH   3   8
ATOM      8  C   UNL d   1       1.244  -1.762   1.468  0.00  0.00    -0.021 A 
ATOM      9  C   UNL d   1       0.974  -1.190   2.728  0.00  0.00     0.010 A 
ATOM     10  C   UNL d   1       1.455  -1.768   3.907  0.00  0.00     0.001 A 
ATOM     11  C   UNL d   1       2.217  -2.930   3.855  0.00  0.00     0.000 A 
ATOM     12  C   UNL d   1       2.501  -3.512   2.624  0.00  0.00     0.001 A 
ATOM     13  C   UNL d   1       2.022  -2.934   1.445  0.00  0.00     0.010 A 
ENDBRANCH   3   8
BRANCH   3  14
ATOM     14  O   UNL d   1       1.138  -1.963  -0.932  0.00  0.00    -0.382 OA
ATOM     15  H   UNL d   1       1.210  -1.461  -1.760  0.00  0.00     0.211 HD
ENDBRANCH   3  14
BRANCH   5  16
ATOM     16  C   UNL d   1      -0.090   1.662  -1.851  0.00  0.00    -0.043 A 
ATOM     17  C   UNL d   1      -0.029   3.018  -2.229  0.00  0.00     0.010 A 
ATOM     18  C   UNL d   1      -0.199   3.408  -3.561  0.00  0.00     0.024 A 
ATOM     19  C   UNL d   1      -0.439   2.449  -4.537  0.00  0.00     0.034 A 
ATOM     20  C   UNL d   1      -0.519   1.105  -4.188  0.00  0.00     0.024 A 
ATOM     21 CL   UNL d   1      -0.643   2.922  -6.176  0.00  0.00    -0.084 Cl
ATOM     22  C   UNL d   1      -0.348   0.716  -2.855  0.00  0.00     0.010 A 
ENDBRANCH   5  16
BRANCH   1  23
ATOM     23  C   UNL d   1      -1.617  -2.119   0.933  0.00  0.00     0.276 C 
ATOM     24  O   UNL d   1      -1.868  -3.251   0.535  0.00  0.00    -0.264 OA
BRANCH  23  25
ATOM     25  O   UNL d   1      -2.080  -1.593   2.100  0.00  0.00    -0.321 OA
BRANCH  25  26
ATOM     26  C   UNL d   1      -3.218  -2.252   2.671  0.00  0.00     0.174 C 
ATOM     27  C   UNL d   1      -4.467  -1.619   2.079  0.00  0.00     0.034 C 
ENDBRANCH  25  26
ENDBRANCH  23  25
ENDBRANCH   1  23
TORSDOF 6
