REMARK  7 active torsions:
REMARK  status: ('A' for Active; 'I' for Inactive)
REMARK    1  A    between atoms: C_9  and  C_1 
REMARK    2  A    between atoms: S_8  and  C_2 
REMARK    3  A    between atoms: N_7  and  C_10 
REMARK    4  A    between atoms: C_16  and  S_8 
REMARK    5  A    between atoms: O_23  and  C_9 
REMARK    6  A    between atoms: C_12  and  C_14 
REMARK    7  A    between atoms: C_14  and  C_16 
ROOT
ATOM      1  C   UNL d   1      -0.405   1.496  -0.740  0.00  0.00     0.121 A 
ATOM      2  C   UNL d   1      -0.216  -1.331  -0.462  0.00  0.00     0.084 A 
ATOM      3  C   UNL d   1       0.775   0.830  -1.041  0.00  0.00     0.176 A 
ATOM      4  C   UNL d   1      -1.483   0.747  -0.279  0.00  0.00     0.176 A 
ATOM      5  C   UNL d   1       0.869  -0.559  -0.907  0.00  0.00     0.175 A 
ATOM      6  C   UNL d   1      -1.387  -0.639  -0.137  0.00  0.00     0.175 A 
ATOM      7  F   UNL d   1       1.852   1.520  -1.451  0.00  0.00    -0.202 F 
ATOM      8  F   UNL d   1      -2.634   1.336   0.074  0.00  0.00    -0.202 F 
ATOM      9  F   UNL d   1       2.039  -1.143  -1.213  0.00  0.00    -0.201 F 
ATOM     10  F   UNL d   1      -2.460  -1.283   0.342  0.00  0.00    -0.201 F 
ENDROOT
BRANCH   2  11
ATOM     11  S   UNL d   1       0.017  -3.106  -0.326  0.00  0.00    -0.116 SA
BRANCH  11  12
ATOM     12  C   UNL d   1      -1.662  -3.756  -0.022  0.00  0.00     0.163 C 
BRANCH  12  13
ATOM     13  C   UNL d   1      -1.644  -5.273  -0.049  0.00  0.00     0.169 C 
ATOM     14  O   UNL d   1      -1.987  -5.892  -1.057  0.00  0.00    -0.291 OA
BRANCH  13  15
ATOM     15  C   UNL d   1      -1.208  -6.043   1.162  0.00  0.00     0.013 A 
ATOM     16  C   UNL d   1      -0.785  -5.422   2.342  0.00  0.00     0.051 A 
ATOM     17  C   UNL d   1      -0.329  -6.205   3.415  0.00  0.00     0.103 A 
ATOM     18  C   UNL d   1      -0.312  -7.603   3.331  0.00  0.00     0.036 A 
ATOM     19  C   UNL d   1      -0.759  -8.221   2.164  0.00  0.00     0.003 A 
ATOM     20  C   UNL d   1      -1.202  -7.446   1.088  0.00  0.00     0.015 A 
BRANCH  17  21
ATOM     21  N   UNL d   1       0.159  -5.545   4.633  0.00  0.00    -0.116 N 
ATOM     22  O   UNL d   1       0.127  -4.305   4.664  0.00  0.00    -0.532 OA
ATOM     23  O   UNL d   1       0.576  -6.261   5.552  0.00  0.00    -0.532 OA
ENDBRANCH  17  21
ENDBRANCH  13  15
ENDBRANCH  12  13
ENDBRANCH  11  12
ENDBRANCH   2  11
BRANCH   1  24
ATOM     24  C   UNL d   1      -0.560   2.952  -0.929  0.00  0.00     0.182 C 
ATOM     25  O   UNL d   1      -1.643   3.477  -1.109  0.00  0.00    -0.646 OA
BRANCH  24  26
ATOM     26  O   UNL d   1       0.583   3.667  -0.867  0.00  0.00    -0.772 OA
ATOM     27  H   UNL d   1       1.423   3.172  -0.791  0.00  0.00     0.167 HD
ENDBRANCH  24  26
ENDBRANCH   1  24
TORSDOF 7
