REMARK  8 active torsions:
REMARK  status: ('A' for Active; 'I' for Inactive)
REMARK    1  A    between atoms: C_7  and  C_2 
REMARK    2  A    between atoms: C_13  and  N_3 
REMARK    3  A    between atoms: O_17  and  C_7 
REMARK    4  A    between atoms: C_8  and  N_15 
REMARK    5  A    between atoms: N_12  and  C_8 
REMARK    6  A    between atoms: N_10  and  C_9 
REMARK    7  A    between atoms: N_15  and  N_10 
REMARK    8  A    between atoms: C_18  and  N_12 
ROOT
ATOM      1  C   UNL d   1       0.846  -0.763   0.400  0.00  0.00     0.091 C 
ATOM      2  C   UNL d   1      -0.503  -1.027   0.623  0.00  0.00     0.086 C 
ATOM      3  N   UNL d   1       0.930   0.591   0.105  0.00  0.00    -0.255 N 
ATOM      4  N   UNL d   1      -0.296   1.126  -0.118  0.00  0.00    -0.303 N 
ATOM      5  HN  UNL d   1      -0.518   2.040  -0.512  1.00  0.00     0.186 HD
ATOM      6  C   UNL d   1      -1.143   0.188   0.295  0.00  0.00     0.127 C 
ATOM      7  C   UNL d   1       1.961  -1.664   0.347  0.00  0.00     0.139 C 
ENDROOT
BRANCH   2   8
ATOM      8  C   UNL d   1      -1.187  -2.250   1.005  0.00  0.00     0.296 C 
ATOM      9  O   UNL d   1      -2.379  -2.266   1.286  0.00  0.00    -0.259 OA
BRANCH   8  10
ATOM     10  O   UNL d   1      -0.391  -3.351   0.982  0.00  0.00    -0.322 OA
ATOM     11  C   UNL d   1      -0.974  -4.570   1.446  0.00  0.00     0.213 C 
ENDBRANCH   8  10
ENDBRANCH   2   8
BRANCH   3  12
ATOM     12  C   UNL d   1       2.087   1.417   0.033  0.00  0.00     0.057 A 
ATOM     13  C   UNL d   1       2.046   2.592  -0.732  0.00  0.00     0.031 A 
ATOM     14  C   UNL d   1       3.173   3.412  -0.816  0.00  0.00     0.002 A 
ATOM     15  C   UNL d   1       4.331   3.084  -0.112  0.00  0.00     0.000 A 
ATOM     16  C   UNL d   1       4.364   1.938   0.681  0.00  0.00     0.002 A 
ATOM     17  C   UNL d   1       3.247   1.102   0.754  0.00  0.00     0.031 A 
ENDBRANCH   3  12
BRANCH   7  18
ATOM     18  N   UNL d   1       2.221  -2.477   1.315  0.00  0.00    -0.307 N 
ATOM     19  HN  UNL d   1       1.731  -2.444   2.209  1.00  0.00     0.186 HD
BRANCH  18  20
ATOM     20  N   UNL d   1       3.205  -3.386   1.047  0.00  0.00    -0.276 N 
ATOM     21  H   UNL d   1       3.432  -3.596   0.080  0.00  0.00     0.189 HD
BRANCH  20  22
ATOM     22  C   UNL d   1       3.806  -4.149   2.026  0.00  0.00     0.191 C 
ATOM     23  S   UNL d   1       3.884  -3.760   3.649  0.00  0.00    -0.039 SA
BRANCH  22  24
ATOM     24  N   UNL d   1       4.486  -5.254   1.569  0.00  0.00    -0.332 N 
ATOM     25  H   UNL d   1       5.205  -5.600   2.196  0.00  0.00     0.168 HD
BRANCH  24  26
ATOM     26  C   UNL d   1       4.118  -6.116   0.513  0.00  0.00     0.034 A 
ATOM     27  C   UNL d   1       5.085  -6.982  -0.002  0.00  0.00     0.029 A 
ATOM     28  C   UNL d   1       4.760  -7.867  -1.034  0.00  0.00     0.002 A 
ATOM     29  C   UNL d   1       3.457  -7.920  -1.527  0.00  0.00     0.000 A 
ATOM     30  C   UNL d   1       2.478  -7.090  -0.988  0.00  0.00     0.002 A 
ATOM     31  C   UNL d   1       2.808  -6.187   0.025  0.00  0.00     0.029 A 
ENDBRANCH  24  26
ENDBRANCH  22  24
ENDBRANCH  20  22
ENDBRANCH  18  20
ENDBRANCH   7  18
TORSDOF 8
