REMARK  6 active torsions:
REMARK  status: ('A' for Active; 'I' for Inactive)
REMARK    1  A    between atoms: S_8  and  C_2 
REMARK    2  A    between atoms: C_6  and  C_4 
REMARK    3  A    between atoms: O_14  and  C_6 
REMARK    4  A    between atoms: C_16  and  S_8 
REMARK    5  A    between atoms: C_11  and  C_16 
REMARK    6  A    between atoms: C_18  and  O_14 
ROOT
ATOM      1  C   UNL d   1       0.518   0.658  -0.071  0.00  0.00     0.041 A 
ATOM      2  C   UNL d   1       1.888   0.865  -0.127  0.00  0.00     0.056 A 
ATOM      3  C   UNL d   1       0.183  -0.754  -0.033  0.00  0.00    -0.019 A 
ATOM      4  C   UNL d   1       1.310  -1.561   0.013  0.00  0.00     0.088 A 
ATOM      5  S   UNL d   1       2.729  -0.625  -0.110  0.00  0.00    -0.076 SA
ATOM      6  C   UNL d   1      -0.534   1.685  -0.028  0.00  0.00     0.162 C 
ATOM      7  O   UNL d   1      -0.325   2.888  -0.168  0.00  0.00    -0.292 OA
ATOM      8  C   UNL d   1      -1.244  -1.230   0.029  0.00  0.00     0.042 C 
ATOM      9  C   UNL d   1      -1.940   1.189   0.275  0.00  0.00     0.084 C 
ATOM     10  C   UNL d   1      -2.221  -0.141  -0.422  0.00  0.00     0.012 C 
ENDROOT
BRANCH   4  11
ATOM     11  C   UNL d   1       1.380  -3.003   0.213  0.00  0.00     0.300 C 
ATOM     12  O   UNL d   1       0.415  -3.731   0.418  0.00  0.00    -0.259 OA
BRANCH  11  13
ATOM     13  O   UNL d   1       2.676  -3.425   0.249  0.00  0.00    -0.317 OA
BRANCH  13  14
ATOM     14  C   UNL d   1       2.918  -4.670   0.914  0.00  0.00     0.174 C 
ATOM     15  C   UNL d   1       3.027  -4.401   2.405  0.00  0.00     0.034 C 
ENDBRANCH  13  14
ENDBRANCH  11  13
ENDBRANCH   4  11
BRANCH   2  16
ATOM     16  S   UNL d   1       2.755   2.406  -0.115  0.00  0.00    -0.118 SA
BRANCH  16  17
ATOM     17  C   UNL d   1       4.298   2.025  -0.992  0.00  0.00     0.106 C 
BRANCH  17  18
ATOM     18  C   UNL d   1       5.138   3.260  -1.100  0.00  0.00    -0.026 C 
ATOM     19  C   UNL d   1       6.383   3.369  -0.611  0.00  0.00     0.007 C 
ENDBRANCH  17  18
ENDBRANCH  16  17
ENDBRANCH   2  16
TORSDOF 6
