REMARK  8 active torsions:
REMARK  status: ('A' for Active; 'I' for Inactive)
REMARK    1  A    between atoms: C_7  and  C_1 
REMARK    2  A    between atoms: C_12  and  N_2 
REMARK    3  A    between atoms: C_17  and  C_3 
REMARK       I    between atoms: N_16  and  C_7 
REMARK    4  A    between atoms: N_10  and  C_18 
REMARK    5  A    between atoms: C_20  and  N_16 
REMARK    6  A    between atoms: C_23  and  C_17 
REMARK    7  A    between atoms: C_18  and  C_19 
REMARK    8  A    between atoms: C_19  and  C_20 
ROOT
ATOM      1  C   UNL d   1      -0.300   1.219   0.008  0.00  0.00     0.073 A 
ATOM      2  N   UNL d   1       0.924  -0.657   0.060  0.00  0.00    -0.260 N 
ATOM      3  C   UNL d   1       1.010   0.735  -0.009  0.00  0.00     0.051 A 
ATOM      4  N   UNL d   1      -0.373  -1.052   0.185  0.00  0.00    -0.304 N 
ATOM      5  HN  UNL d   1      -0.720  -2.000   0.331  1.00  0.00     0.186 HD
ATOM      6  C   UNL d   1      -1.089   0.059   0.075  0.00  0.00     0.126 A 
ENDROOT
BRANCH   1   7
ATOM      7  C   UNL d   1      -0.713   2.619  -0.014  0.00  0.00     0.255 C 
ATOM      8  O   UNL d   1       0.082   3.546  -0.091  0.00  0.00    -0.268 OA
ATOM      9  N   UNL d   1      -2.076   2.843   0.068  0.00  0.00    -0.357 N 
ATOM     10  H   UNL d   1      -2.716   2.067   0.142  0.00  0.00     0.162 HD
BRANCH   9  11
ATOM     11  C   UNL d   1      -2.616   4.187   0.063  0.00  0.00     0.124 C 
BRANCH  11  12
ATOM     12  C   UNL d   1      -2.730   4.765  -1.345  0.00  0.00     0.040 C 
BRANCH  12  13
ATOM     13  C   UNL d   1      -3.722   3.979  -2.197  0.00  0.00     0.130 C 
BRANCH  13  14
ATOM     14  N   UNL d   1      -3.868   4.533  -3.526  0.00  0.00    -0.352 N 
ATOM     15  C   UNL d   1      -4.784   5.471  -3.905  0.00  0.00     0.182 A 
ATOM     16  N   UNL d   1      -4.687   5.740  -5.188  0.00  0.00    -0.361 N 
ATOM     17  C   UNL d   1      -3.672   4.941  -5.648  0.00  0.00     0.106 A 
ATOM     18  HN  UNL d   1      -5.248   6.401  -5.725  1.00  0.00     0.166 HD
ATOM     19  C   UNL d   1      -3.148   4.181  -4.631  0.00  0.00     0.108 A 
ENDBRANCH  13  14
ENDBRANCH  12  13
ENDBRANCH  11  12
ENDBRANCH   9  11
ENDBRANCH   1   7
BRANCH   3  20
ATOM     20  C   UNL d   1       2.284   1.531   0.017  0.00  0.00     0.060 C 
BRANCH  20  21
ATOM     21  C   UNL d   1       2.671   2.046  -1.374  0.00  0.00     0.002 C 
ATOM     22  C   UNL d   1       3.930   2.897  -1.322  0.00  0.00     0.005 C 
ENDBRANCH  20  21
ENDBRANCH   3  20
BRANCH   2  23
ATOM     23  C   UNL d   1       1.920  -1.679  -0.019  0.00  0.00     0.056 A 
ATOM     24  C   UNL d   1       1.625  -2.947   0.516  0.00  0.00     0.031 A 
ATOM     25  C   UNL d   1       2.520  -4.009   0.371  0.00  0.00     0.002 A 
ATOM     26  C   UNL d   1       3.709  -3.826  -0.329  0.00  0.00     0.000 A 
ATOM     27  C   UNL d   1       4.018  -2.572  -0.850  0.00  0.00     0.002 A 
ATOM     28  C   UNL d   1       3.135  -1.499  -0.685  0.00  0.00     0.031 A 
ENDBRANCH   2  23
TORSDOF 8
