REMARK  7 active torsions:
REMARK  status: ('A' for Active; 'I' for Inactive)
REMARK    1  A    between atoms: C_4  and  C_1 
REMARK    2  A    between atoms: N_6  and  C_5 
REMARK       I    between atoms: C_10  and  N_6 
REMARK    3  A    between atoms: C_8  and  C_15 
REMARK    4  A    between atoms: O_16  and  C_10 
REMARK    5  A    between atoms: N_11  and  O_16 
REMARK    6  A    between atoms: C_17  and  C_13 
REMARK    7  A    between atoms: N_28  and  C_13 
ROOT
ATOM      1  N   UNL d   1       3.130   1.246  -0.217  0.00  0.00    -0.286 N 
ATOM      2  C   UNL d   1       1.990   0.614   0.200  0.00  0.00     0.388 C 
ATOM      3  O   UNL d   1       0.929   1.240   0.178  0.00  0.00    -0.236 OA
ATOM      4  H   UNL d   1       2.967   2.213  -0.456  0.00  0.00     0.172 HD
ENDROOT
BRANCH   2   5
ATOM      5  O   UNL d   1       2.132  -0.683   0.614  0.00  0.00    -0.179 OA
BRANCH   5   6
ATOM      6  N   UNL d   1       1.115  -0.984   1.549  0.00  0.00    -0.244 N 
ATOM      7  C   UNL d   1       0.634  -2.176   1.382  0.00  0.00     0.109 C 
ATOM      8  HN  UNL d   1       0.796  -0.337   2.271  1.00  0.00     0.196 HD
BRANCH   7   9
ATOM      9  C   UNL d   1      -0.386  -2.648   2.369  0.00  0.00     0.004 A 
ATOM     10  C   UNL d   1      -1.192  -1.721   3.039  0.00  0.00     0.015 A 
ATOM     11  C   UNL d   1      -2.146  -2.158   3.963  0.00  0.00     0.017 A 
ATOM     12  C   UNL d   1      -2.296  -3.526   4.236  0.00  0.00     0.048 A 
ATOM     13  C   UNL d   1      -1.466  -4.448   3.575  0.00  0.00     0.017 A 
ATOM     14  C   UNL d   1      -0.517  -4.012   2.647  0.00  0.00     0.015 A 
BRANCH  12  15
ATOM     15  C   UNL d   1      -3.340  -4.017   5.210  0.00  0.00     0.417 C 
ATOM     16  F   UNL d   1      -3.993  -3.017   5.865  0.00  0.00    -0.166 F 
ATOM     17  F   UNL d   1      -4.308  -4.754   4.597  0.00  0.00    -0.166 F 
ATOM     18  F   UNL d   1      -2.819  -4.820   6.179  0.00  0.00    -0.166 F 
ENDBRANCH  12  15
ENDBRANCH   7   9
BRANCH   7  19
ATOM     19  N   UNL d   1       0.980  -3.012   0.346  0.00  0.00    -0.286 NA
ATOM     20  H   UNL d   1       1.512  -2.528  -0.370  0.00  0.00     0.125 HD
ATOM     21  H   UNL d   1       0.217  -3.554  -0.043  0.00  0.00     0.125 HD
ENDBRANCH   7  19
ENDBRANCH   5   6
ENDBRANCH   2   5
BRANCH   1  22
ATOM     22  C   UNL d   1       4.433   0.812  -0.143  0.00  0.00     0.117 A 
ATOM     23  N   UNL d   1       4.793  -0.476   0.170  0.00  0.00    -0.336 N 
ATOM     24  C   UNL d   1       6.105  -0.614   0.249  0.00  0.00     0.087 A 
ATOM     25  HN  UNL d   1       4.128  -1.235   0.322  1.00  0.00     0.168 HD
ATOM     26  S   UNL d   1       6.960   0.859  -0.104  0.00  0.00    -0.080 SA
ATOM     27  C   UNL d   1       5.487   1.668  -0.370  0.00  0.00     0.100 A 
BRANCH  24  28
ATOM     28  C   UNL d   1       6.849  -1.860   0.612  0.00  0.00     0.021 A 
ATOM     29  C   UNL d   1       6.226  -3.013   1.150  0.00  0.00     0.068 A 
ATOM     30  C   UNL d   1       7.000  -4.146   1.491  0.00  0.00     0.056 A 
ATOM     31 CL   UNL d   1       4.511  -3.089   1.425  0.00  0.00    -0.082 Cl
ATOM     32 CL   UNL d   1       6.308  -5.592   2.156  0.00  0.00    -0.083 Cl
ATOM     33  C   UNL d   1       8.383  -4.154   1.310  0.00  0.00     0.026 A 
ATOM     34  C   UNL d   1       9.011  -3.042   0.776  0.00  0.00     0.003 A 
ATOM     35  C   UNL d   1       8.255  -1.921   0.428  0.00  0.00     0.016 A 
ENDBRANCH  24  28
ENDBRANCH   1  22
TORSDOF 7
