REMARK  5 active torsions:
REMARK  status: ('A' for Active; 'I' for Inactive)
REMARK    1  A    between atoms: C_5  and  N_1 
REMARK    2  A    between atoms: C_12  and  C_18 
REMARK       I    between atoms: N_14  and  C_12 
REMARK    3  A    between atoms: S_15  and  C_13 
REMARK    4  A    between atoms: C_19  and  N_14 
REMARK    5  A    between atoms: C_18  and  S_15 
ROOT
ATOM      1  C   UNL d   1       2.053  -1.479  -0.028  0.00  0.00     0.141 A 
ATOM      2  N   UNL d   1       3.140  -1.223   0.732  0.00  0.00    -0.283 N 
ATOM      3  HN  UNL d   1       3.069  -0.570   1.512  1.00  0.00     0.188 HD
ATOM      4  N   UNL d   1       4.333  -1.832   0.463  0.00  0.00    -0.293 N 
ATOM      5  HN  UNL d   1       5.150  -1.631   1.040  1.00  0.00     0.187 HD
ATOM      6  C   UNL d   1       4.433  -2.698  -0.566  0.00  0.00     0.085 A 
ATOM      7  C   UNL d   1       2.118  -2.408  -1.063  0.00  0.00     0.054 A 
ATOM      8  C   UNL d   1       3.334  -3.031  -1.337  0.00  0.00     0.042 A 
ENDROOT
BRANCH   6   9
ATOM      9  S   UNL d   1       6.078  -3.249  -0.921  0.00  0.00    -0.102 SA
BRANCH   9  10
ATOM     10  C   UNL d   1       6.306  -2.500  -2.558  0.00  0.00     0.184 C 
BRANCH  10  11
ATOM     11  C   UNL d   1       6.225  -0.980  -2.655  0.00  0.00     0.231 C 
ATOM     12  N   UNL d   1       6.144  -0.265  -1.478  0.00  0.00    -0.327 N 
ATOM     13  H   UNL d   1       6.248  -0.788  -0.613  0.00  0.00     0.169 HD
ATOM     14  O   UNL d   1       6.247  -0.478  -3.781  0.00  0.00    -0.272 OA
BRANCH  12  15
ATOM     15  C   UNL d   1       5.842   1.110  -1.338  0.00  0.00     0.034 A 
ATOM     16  C   UNL d   1       5.512   1.948  -2.405  0.00  0.00     0.031 A 
ATOM     17  C   UNL d   1       5.170   3.288  -2.190  0.00  0.00     0.026 A 
ATOM     18  C   UNL d   1       5.164   3.803  -0.898  0.00  0.00     0.034 A 
ATOM     19  C   UNL d   1       5.497   2.986   0.178  0.00  0.00     0.026 A 
ATOM     20 CL   UNL d   1       4.732   5.446  -0.632  0.00  0.00    -0.084 Cl
ATOM     21  C   UNL d   1       5.830   1.643  -0.040  0.00  0.00     0.031 A 
ENDBRANCH  12  15
ENDBRANCH  10  11
ENDBRANCH   9  10
ENDBRANCH   6   9
BRANCH   1  22
ATOM     22  N   UNL d   1       0.836  -0.780   0.229  0.00  0.00    -0.243 N 
ATOM     23  N   UNL d   1      -0.285  -1.091  -0.489  0.00  0.00    -0.297 N 
ATOM     24  C   UNL d   1      -1.253  -0.323   0.012  0.00  0.00     0.024 A 
ATOM     25  HN  UNL d   1      -0.365  -1.768  -1.248  1.00  0.00     0.187 HD
ATOM     26  C   UNL d   1      -2.636  -0.405  -0.513  0.00  0.00     0.070 C 
ATOM     27  C   UNL d   1      -0.774   0.515   1.032  0.00  0.00     0.052 A 
ATOM     28  C   UNL d   1       0.575   0.239   1.143  0.00  0.00     0.034 A 
ATOM     29  C   UNL d   1       1.552   0.899   2.049  0.00  0.00     0.070 C 
ENDBRANCH   1  22
TORSDOF 5
