REMARK  6 active torsions:
REMARK  status: ('A' for Active; 'I' for Inactive)
REMARK    1  A    between atoms: C_11  and  C_1 
REMARK    2  A    between atoms: C_10  and  C_2 
REMARK    3  A    between atoms: S_16  and  C_9 
REMARK    4  A    between atoms: C_12  and  C_19 
REMARK       I    between atoms: N_15  and  C_12 
REMARK    5  A    between atoms: C_20  and  N_15 
REMARK    6  A    between atoms: C_19  and  S_16 
ROOT
ATOM      1  N   UNL d   1      -1.134   3.272  -0.609  0.00  0.00    -0.334 N 
ATOM      2  HN  UNL d   1      -0.375   3.150  -1.279  1.00  0.00     0.168 HD
ATOM      3  C   UNL d   1      -1.744   4.452  -0.440  0.00  0.00     0.145 A 
ATOM      4  C   UNL d   1      -1.579   2.254   0.156  0.00  0.00     0.071 A 
ATOM      5  N   UNL d   1      -2.744   4.691   0.418  0.00  0.00    -0.347 N 
ATOM      6  HN  UNL d   1      -3.176   5.611   0.499  1.00  0.00     0.167 HD
ATOM      7  C   UNL d   1      -2.587   2.399   1.086  0.00  0.00     0.049 A 
ATOM      8  C   UNL d   1      -3.146   3.651   1.167  0.00  0.00     0.092 A 
ENDROOT
BRANCH   3   9
ATOM      9  S   UNL d   1      -1.009   5.823  -1.287  0.00  0.00    -0.085 SA
BRANCH   9  10
ATOM     10  C   UNL d   1      -0.870   6.961   0.119  0.00  0.00     0.185 C 
BRANCH  10  11
ATOM     11  C   UNL d   1       0.042   6.514   1.256  0.00  0.00     0.231 C 
ATOM     12  N   UNL d   1       0.795   5.373   1.057  0.00  0.00    -0.327 N 
ATOM     13  H   UNL d   1       0.787   4.986   0.116  0.00  0.00     0.169 HD
ATOM     14  O   UNL d   1       0.077   7.206   2.280  0.00  0.00    -0.272 OA
BRANCH  12  15
ATOM     15  C   UNL d   1       1.531   4.654   2.023  0.00  0.00     0.034 A 
ATOM     16  C   UNL d   1       1.537   4.972   3.382  0.00  0.00     0.031 A 
ATOM     17  C   UNL d   1       2.247   4.187   4.299  0.00  0.00     0.026 A 
ATOM     18  C   UNL d   1       2.960   3.076   3.857  0.00  0.00     0.034 A 
ATOM     19  C   UNL d   1       2.971   2.749   2.505  0.00  0.00     0.026 A 
ATOM     20 CL   UNL d   1       3.816   2.108   4.988  0.00  0.00    -0.084 Cl
ATOM     21  C   UNL d   1       2.254   3.534   1.591  0.00  0.00     0.031 A 
ENDBRANCH  12  15
ENDBRANCH  10  11
ENDBRANCH   9  10
ENDBRANCH   3   9
BRANCH   4  22
ATOM     22  C   UNL d   1      -0.907   0.992  -0.093  0.00  0.00     0.127 A 
ATOM     23  C   UNL d   1       0.057   0.583  -0.982  0.00  0.00     0.074 A 
ATOM     24  C   UNL d   1       0.264  -0.793  -0.704  0.00  0.00     0.069 A 
ATOM     25  N   UNL d   1      -0.555  -1.188   0.286  0.00  0.00    -0.260 N 
ATOM     26  O   UNL d   1      -1.274  -0.072   0.668  0.00  0.00    -0.235 OA
ATOM     27  HN  UNL d   1      -0.632  -2.127   0.677  1.00  0.00     0.195 HD
BRANCH  24  28
ATOM     28  C   UNL d   1       1.156  -1.737  -1.382  0.00  0.00     0.014 A 
ATOM     29  C   UNL d   1       2.440  -1.400  -1.844  0.00  0.00     0.046 A 
ATOM     30 CL   UNL d   1       3.190   0.133  -1.545  0.00  0.00    -0.083 Cl
ATOM     31  C   UNL d   1       3.209  -2.337  -2.549  0.00  0.00     0.025 A 
ATOM     32  C   UNL d   1       2.722  -3.623  -2.780  0.00  0.00     0.002 A 
ATOM     33  C   UNL d   1       1.469  -3.983  -2.297  0.00  0.00     0.001 A 
ATOM     34  C   UNL d   1       0.693  -3.050  -1.605  0.00  0.00     0.015 A 
ENDBRANCH  24  28
ENDBRANCH   4  22
TORSDOF 6
