REMARK  3 active torsions:
REMARK  status: ('A' for Active; 'I' for Inactive)
REMARK    1  A    between atoms: C_12  and  C_5 
REMARK    2  A    between atoms: C_13  and  C_6 
REMARK    3  A    between atoms: C_15  and  C_7 
ROOT
ATOM      1  N   UNL d   1       0.163  -0.652  -0.030  0.00  0.00    -0.185 N 
ATOM      2  C   UNL d   1       0.269   0.696  -0.022  0.00  0.00     0.159 A 
ATOM      3  N   UNL d   1      -0.972  -1.385  -0.038  0.00  0.00    -0.287 N 
ATOM      4  HN  UNL d   1      -0.955  -2.405  -0.038  1.00  0.00     0.188 HD
ATOM      5  C   UNL d   1      -0.983   1.481  -0.029  0.00  0.00     0.035 A 
ATOM      6  C   UNL d   1      -2.156   0.806  -0.042  0.00  0.00     0.018 A 
ATOM      7  C   UNL d   1      -2.088  -0.717  -0.047  0.00  0.00     0.071 A 
ATOM      8  N   UNL d   1       1.495   1.137  -0.002  0.00  0.00    -0.279 N 
ATOM      9  HN  UNL d   1       1.814   2.106   0.009  1.00  0.00     0.189 HD
ATOM     10  C   UNL d   1       1.450  -1.149  -0.003  0.00  0.00     0.362 A 
ATOM     11  N   UNL d   1       2.259  -0.003   0.003  0.00  0.00    -0.248 N 
ATOM     12  O   UNL d   1       1.851  -2.299   0.013  0.00  0.00    -0.243 OA
ATOM     13  H   UNL d   1       3.267   0.009   0.034  0.00  0.00     0.192 HD
ENDROOT
BRANCH   5  14
ATOM     14  C   UNL d   1      -0.914   2.956  -0.018  0.00  0.00    -0.021 A 
ATOM     15  C   UNL d   1      -0.920   3.661   1.192  0.00  0.00     0.012 A 
ATOM     16  C   UNL d   1      -0.984   5.057   1.189  0.00  0.00     0.001 A 
ATOM     17  C   UNL d   1      -1.036   5.752  -0.019  0.00  0.00     0.000 A 
ATOM     18  C   UNL d   1      -1.004   5.056  -1.226  0.00  0.00     0.001 A 
ATOM     19  C   UNL d   1      -0.935   3.663  -1.227  0.00  0.00     0.012 A 
ENDBRANCH   5  14
BRANCH   6  20
ATOM     20  C   UNL d   1      -3.428   1.557  -0.005  0.00  0.00    -0.023 A 
ATOM     21  C   UNL d   1      -3.993   2.040  -1.197  0.00  0.00     0.012 A 
ATOM     22  C   UNL d   1      -5.215   2.712  -1.178  0.00  0.00     0.001 A 
ATOM     23  C   UNL d   1      -5.856   2.949   0.036  0.00  0.00     0.000 A 
ATOM     24  C   UNL d   1      -5.277   2.517   1.229  0.00  0.00     0.001 A 
ATOM     25  C   UNL d   1      -4.069   1.817   1.211  0.00  0.00     0.012 A 
ENDBRANCH   6  20
BRANCH   7  26
ATOM     26  C   UNL d   1      -3.358  -1.520  -0.007  0.00  0.00    -0.007 A 
ATOM     27  C   UNL d   1      -4.496  -1.197  -0.752  0.00  0.00     0.014 A 
ATOM     28  C   UNL d   1      -5.686  -1.910  -0.593  0.00  0.00     0.001 A 
ATOM     29  C   UNL d   1      -5.726  -3.014   0.252  0.00  0.00     0.000 A 
ATOM     30  C   UNL d   1      -4.571  -3.415   0.919  0.00  0.00     0.001 A 
ATOM     31  C   UNL d   1      -3.393  -2.670   0.796  0.00  0.00     0.014 A 
ENDBRANCH   7  26
TORSDOF 3
