REMARK  2 active torsions:
REMARK  status: ('A' for Active; 'I' for Inactive)
REMARK    1  A    between atoms: C_3  and  N_1 
REMARK       I    between atoms: C_4  and  N_1 
REMARK    2  A    between atoms: C_8  and  C_4 
ROOT
ATOM      1  N   UNL d   1       2.865  -3.414  -0.997  0.00  0.00    -0.197 NA
ATOM      2  C   UNL d   1       2.356  -2.489  -1.475  0.00  0.00     0.068 C 
ATOM      3  C   UNL d   1       1.755  -1.301  -2.078  0.00  0.00     0.226 C 
ENDROOT
BRANCH   3   4
ATOM      4  C   UNL d   1       0.659  -0.782  -1.177  0.00  0.00     0.235 C 
ATOM      5  N   UNL d   1       1.067   0.230  -0.322  0.00  0.00    -0.325 N 
ATOM      6  H   UNL d   1       1.967   0.672  -0.489  0.00  0.00     0.169 HD
ATOM      7  O   UNL d   1      -0.477  -1.242  -1.246  0.00  0.00    -0.272 OA
BRANCH   5   8
ATOM      8  C   UNL d   1       0.290   0.845   0.691  0.00  0.00     0.056 A 
ATOM      9  C   UNL d   1       0.737   2.061   1.244  0.00  0.00     0.062 A 
ATOM     10  C   UNL d   1      -0.005   2.724   2.224  0.00  0.00     0.050 A 
ATOM     11 CL   UNL d   1       2.209   2.793   0.700  0.00  0.00    -0.082 Cl
ATOM     12  C   UNL d   1      -1.193   2.159   2.678  0.00  0.00     0.035 A 
ATOM     13  C   UNL d   1      -1.634   0.941   2.170  0.00  0.00     0.026 A 
ATOM     14 CL   UNL d   1      -2.123   2.971   3.875  0.00  0.00    -0.084 Cl
ATOM     15  C   UNL d   1      -0.895   0.286   1.179  0.00  0.00     0.033 A 
ENDBRANCH   5   8
ENDBRANCH   3   4
TORSDOF 2
