REMARK  9 active torsions:
REMARK  status: ('A' for Active; 'I' for Inactive)
REMARK    1  A    between atoms: N_14  and  C_1 
REMARK    2  A    between atoms: S_6  and  C_13 
REMARK    3  A    between atoms: C_19  and  S_6 
REMARK    4  A    between atoms: S_7  and  C_12 
REMARK    5  A    between atoms: C_20  and  S_7 
REMARK    6  A    between atoms: C_12  and  C_21 
REMARK    7  A    between atoms: C_13  and  C_22 
REMARK    8  A    between atoms: C_21  and  N_14 
REMARK    9  A    between atoms: C_22  and  N_14 
ROOT
ATOM      1  N   UNL d   1      -1.283   2.280  -0.010  0.00  0.00    -0.216 N 
ENDROOT
BRANCH   1   2
ATOM      2  C   UNL d   1      -0.667   1.042  -0.060  0.00  0.00     0.682 A 
ATOM      3  N   UNL d   1       0.648   0.929   0.059  0.00  0.00    -0.181 N 
ATOM      4  C   UNL d   1       1.161  -0.307   0.032  0.00  0.00     0.094 A 
ATOM      5  HN  UNL d   1       1.245   1.749   0.168  1.00  0.00     0.185 HD
ATOM      6  C   UNL d   1       2.650  -0.447   0.045  0.00  0.00     0.089 C 
ATOM      7  N   UNL d   1       0.448  -1.429  -0.025  0.00  0.00    -0.335 N 
ATOM      8  C   UNL d   1      -0.857  -1.230  -0.132  0.00  0.00     0.094 A 
ATOM      9  HN  UNL d   1       0.867  -2.358   0.011  1.00  0.00     0.168 HD
ATOM     10  N   UNL d   1      -1.428  -0.031  -0.208  0.00  0.00    -0.181 N 
ATOM     11  C   UNL d   1      -1.783  -2.402  -0.079  0.00  0.00     0.089 C 
ATOM     12  HN  UNL d   1      -2.430   0.059  -0.377  1.00  0.00     0.185 HD
ENDBRANCH   1   2
BRANCH   1  13
ATOM     13  C   UNL d   1      -0.509   3.549   0.066  0.00  0.00     0.156 C 
BRANCH  13  14
ATOM     14  C   UNL d   1       0.803   3.591  -0.715  0.00  0.00     0.166 C 
BRANCH  14  15
ATOM     15  S   UNL d   1       1.561   5.196  -0.650  0.00  0.00     0.177 S 
ATOM     16  O   UNL d   1       0.726   6.134  -1.374  0.00  0.00    -0.223 OA
ATOM     17  O   UNL d   1       1.964   5.463   0.719  0.00  0.00    -0.223 OA
BRANCH  15  18
ATOM     18  C   UNL d   1       3.056   4.963  -1.602  0.00  0.00     0.059 A 
ATOM     19  C   UNL d   1       3.052   5.247  -2.970  0.00  0.00     0.023 A 
ATOM     20  C   UNL d   1       4.217   5.053  -3.716  0.00  0.00     0.002 A 
ATOM     21  C   UNL d   1       5.377   4.588  -3.096  0.00  0.00     0.000 A 
ATOM     22  C   UNL d   1       5.383   4.329  -1.726  0.00  0.00     0.002 A 
ATOM     23  C   UNL d   1       4.223   4.518  -0.971  0.00  0.00     0.023 A 
ENDBRANCH  15  18
ENDBRANCH  14  15
ENDBRANCH  13  14
ENDBRANCH   1  13
BRANCH   1  24
ATOM     24  C   UNL d   1      -2.776   2.381  -0.022  0.00  0.00     0.156 C 
BRANCH  24  25
ATOM     25  C   UNL d   1      -3.533   1.333   0.799  0.00  0.00     0.166 C 
BRANCH  25  26
ATOM     26  S   UNL d   1      -5.290   1.545   0.744  0.00  0.00     0.177 S 
ATOM     27  O   UNL d   1      -5.636   2.729   1.511  0.00  0.00    -0.223 OA
ATOM     28  O   UNL d   1      -5.734   1.387  -0.627  0.00  0.00    -0.223 OA
BRANCH  26  29
ATOM     29  C   UNL d   1      -5.878   0.118   1.651  0.00  0.00     0.059 A 
ATOM     30  C   UNL d   1      -6.111   0.227   3.026  0.00  0.00     0.023 A 
ATOM     31  C   UNL d   1      -6.565  -0.885   3.739  0.00  0.00     0.002 A 
ATOM     32  C   UNL d   1      -6.794  -2.094   3.080  0.00  0.00     0.000 A 
ATOM     33  C   UNL d   1      -6.572  -2.196   1.706  0.00  0.00     0.002 A 
ATOM     34  C   UNL d   1      -6.116  -1.090   0.983  0.00  0.00     0.023 A 
ENDBRANCH  26  29
ENDBRANCH  25  26
ENDBRANCH  24  25
ENDBRANCH   1  24
TORSDOF 9
