REMARK  5 active torsions:
REMARK  status: ('A' for Active; 'I' for Inactive)
REMARK    1  A    between atoms: C_2  and  S_1 
REMARK    2  A    between atoms: N_10  and  N_3 
REMARK    3  A    between atoms: C_5  and  O_11 
REMARK    4  A    between atoms: C_15  and  N_10 
REMARK    5  A    between atoms: O_11  and  C_16 
ROOT
ATOM      1  C   UNL d   1       0.146  -0.610   1.674  0.00  0.00     0.223 C 
ATOM      2  N   UNL d   1      -0.477   0.329   2.333  0.00  0.00    -0.281 N 
ATOM      3  HN  UNL d   1      -0.714   0.193   3.316  1.00  0.00     0.188 HD
ATOM      4  C   UNL d   1       0.534  -0.392   0.310  0.00  0.00     0.131 C 
ATOM      5  N   UNL d   1       0.803  -0.139  -0.796  0.00  0.00    -0.189 NA
ENDROOT
BRANCH   1   6
ATOM      6  S   UNL d   1       0.463  -2.171   2.392  0.00  0.00     0.198 S 
ATOM      7  O   UNL d   1       1.205  -1.942   3.618  0.00  0.00    -0.221 OA
ATOM      8  O   UNL d   1       0.989  -3.030   1.347  0.00  0.00    -0.221 OA
ATOM      9  C   UNL d   1      -1.156  -2.764   2.808  0.00  0.00     0.169 C 
ENDBRANCH   1   6
BRANCH   2  10
ATOM     10  N   UNL d   1      -0.808   1.490   1.704  0.00  0.00    -0.299 N 
ATOM     11  H   UNL d   1      -0.447   1.780   0.791  0.00  0.00     0.187 HD
BRANCH  10  12
ATOM     12  C   UNL d   1      -1.415   2.529   2.430  0.00  0.00     0.048 A 
ATOM     13  C   UNL d   1      -1.226   2.704   3.804  0.00  0.00     0.034 A 
ATOM     14  C   UNL d   1      -1.871   3.740   4.495  0.00  0.00     0.039 A 
ATOM     15  C   UNL d   1      -2.782   4.561   3.836  0.00  0.00     0.078 A 
ATOM     16  C   UNL d   1      -2.977   4.390   2.464  0.00  0.00     0.039 A 
ATOM     17  C   UNL d   1      -2.299   3.386   1.767  0.00  0.00     0.034 A 
BRANCH  15  18
ATOM     18  O   UNL d   1      -3.476   5.594   4.383  0.00  0.00    -0.255 OA
BRANCH  18  19
ATOM     19  C   UNL d   1      -3.908   5.524   5.735  0.00  0.00     0.530 C 
ATOM     20  F   UNL d   1      -3.591   4.378   6.370  0.00  0.00    -0.144 F 
ATOM     21  F   UNL d   1      -3.376   6.559   6.421  0.00  0.00    -0.144 F 
ATOM     22  F   UNL d   1      -5.254   5.653   5.763  0.00  0.00    -0.144 F 
ENDBRANCH  18  19
ENDBRANCH  15  18
ENDBRANCH  10  12
ENDBRANCH   2  10
TORSDOF 5
