REMARK  1 active torsions:
REMARK  status: ('A' for Active; 'I' for Inactive)
REMARK       I    between atoms: N_2  and  C_1 
REMARK    1  A    between atoms: C_3  and  C_1 
ROOT
ATOM      1  C   UNL d   1       0.131  -0.703  -1.011  0.00  0.00     0.032 A 
ATOM      2  C   UNL d   1      -0.985  -0.215  -1.704  0.00  0.00     0.027 A 
ATOM      3  C   UNL d   1      -1.726  -1.108  -2.453  0.00  0.00    -0.022 A 
ATOM      4  C   UNL d   1      -1.319  -2.423  -2.603  0.00  0.00     0.075 A 
ATOM      5  O   UNL d   1      -2.160  -3.168  -3.387  0.00  0.00    -0.350 OA
ATOM      6  C   UNL d   1       0.561  -2.034  -1.197  0.00  0.00     0.020 A 
ATOM      7  C   UNL d   1      -0.168  -2.905  -2.013  0.00  0.00     0.038 A 
ATOM      8  C   UNL d   1      -3.346  -2.344  -3.492  0.00  0.00     0.180 C 
ATOM      9  C   UNL d   1      -2.974  -0.886  -3.215  0.00  0.00     0.068 C 
ENDROOT
BRANCH   1  10
ATOM     10  C   UNL d   1       0.901   0.166  -0.085  0.00  0.00     0.253 C 
ATOM     11  N   UNL d   1       0.227   0.928   0.869  0.00  0.00    -0.344 N 
ATOM     12  C   UNL d   1       0.975   1.950   1.606  0.00  0.00     0.152 C 
ATOM     13  C   UNL d   1      -1.225   0.960   1.096  0.00  0.00     0.152 C 
ATOM     14  C   UNL d   1       0.536   2.020   3.071  0.00  0.00     0.187 C 
ATOM     15  O   UNL d   1      -0.884   2.207   3.176  0.00  0.00    -0.388 OA
ATOM     16  C   UNL d   1      -1.573   1.101   2.577  0.00  0.00     0.187 C 
ATOM     17  O   UNL d   1       2.127   0.152  -0.184  0.00  0.00    -0.267 OA
ENDBRANCH   1  10
TORSDOF 1
