REMARK  2 active torsions:
REMARK  status: ('A' for Active; 'I' for Inactive)
REMARK    1  A    between atoms: C_4  and  C_1 
REMARK    2  A    between atoms: C_13  and  C_5 
ROOT
ATOM      1  N   UNL d   1      -2.818  -2.505   0.908  0.00  0.00    -0.345 N 
ATOM      2  HN  UNL d   1      -2.124  -2.797   1.595  1.00  0.00     0.167 HD
ATOM      3  C   UNL d   1      -2.641  -1.545   0.018  0.00  0.00     0.103 A 
ATOM      4  C   UNL d   1      -4.089  -3.061   0.772  0.00  0.00     0.085 A 
ATOM      5  S   UNL d   1      -3.969  -1.276  -1.040  0.00  0.00    -0.080 SA
ATOM      6  C   UNL d   1      -4.834  -2.530  -0.265  0.00  0.00     0.085 A 
ENDROOT
BRANCH   3   7
ATOM      7  C   UNL d   1      -1.365  -0.754  -0.055  0.00  0.00     0.091 A 
ATOM      8  N   UNL d   1      -1.188   0.286  -0.882  0.00  0.00    -0.258 N 
ATOM      9  O   UNL d   1       0.102   0.733  -0.654  0.00  0.00    -0.242 OA
ATOM     10  HN  UNL d   1      -1.864   0.669  -1.542  1.00  0.00     0.195 HD
ATOM     11  C   UNL d   1       0.692  -0.047   0.290  0.00  0.00     0.074 A 
ATOM     12  C   UNL d   1      -0.203  -0.998   0.714  0.00  0.00     0.068 A 
ATOM     13  C   UNL d   1       2.089   0.280   0.625  0.00  0.00     0.079 C 
ENDBRANCH   3   7
BRANCH   4  14
ATOM     14  C   UNL d   1      -4.588  -4.115   1.661  0.00  0.00     0.172 C 
ATOM     15  O   UNL d   1      -5.705  -4.609   1.504  0.00  0.00    -0.291 OA
ATOM     16  C   UNL d   1      -3.720  -4.570   2.807  0.00  0.00     0.098 C 
ENDBRANCH   4  14
TORSDOF 2
