REMARK  4 active torsions:
REMARK  status: ('A' for Active; 'I' for Inactive)
REMARK    1  A    between atoms: C_4  and  C_1 
REMARK    2  A    between atoms: N_3  and  C_2 
REMARK       I    between atoms: N_6  and  C_4 
REMARK       I    between atoms: C_8  and  N_6 
REMARK       I    between atoms: N_11  and  C_8 
REMARK    3  A    between atoms: C_16  and  N_11 
REMARK    4  A    between atoms: C_12  and  C_16 
ROOT
ATOM      1  C   UNL d   1       2.697  -1.751  -0.360  0.00  0.00     0.260 C 
ATOM      2  N   UNL d   1       2.296  -3.053  -0.608  0.00  0.00    -0.275 N 
ATOM      3  C   UNL d   1       1.197  -3.738  -0.178  0.00  0.00     0.323 C 
ATOM      4  N   UNL d   1       0.080  -3.034   0.133  0.00  0.00    -0.338 N 
ATOM      5  O   UNL d   1       1.934  -0.856  -0.019  0.00  0.00    -0.267 OA
ATOM      6  O   UNL d   1       1.285  -4.962  -0.108  0.00  0.00    -0.247 OA
ATOM      7  H   UNL d   1       3.002  -3.719  -0.867  0.00  0.00     0.173 HD
ATOM      8  H   UNL d   1       0.167  -2.030   0.255  0.00  0.00     0.164 HD
ENDROOT
BRANCH   1   9
ATOM      9  C   UNL d   1       4.130  -1.501  -0.639  0.00  0.00     0.042 A 
ATOM     10  C   UNL d   1       4.728  -0.197  -0.830  0.00  0.00     0.061 A 
ATOM     11  C   UNL d   1       6.070  -0.270  -1.149  0.00  0.00     0.144 A 
ATOM     12  S   UNL d   1       6.655  -1.860  -1.148  0.00  0.00    -0.077 SA
ATOM     13  C   UNL d   1       5.112  -2.478  -0.742  0.00  0.00     0.069 A 
BRANCH  11  14
ATOM     14  N   UNL d   1       6.955   0.823  -1.453  0.00  0.00    -0.108 N 
ATOM     15  O   UNL d   1       6.535   1.960  -1.198  0.00  0.00    -0.531 OA
ATOM     16  O   UNL d   1       8.057   0.563  -1.960  0.00  0.00    -0.531 OA
ENDBRANCH  11  14
ENDBRANCH   1   9
BRANCH   4  17
ATOM     17  C   UNL d   1      -1.077  -3.712   0.696  0.00  0.00     0.164 C 
BRANCH  17  18
ATOM     18  C   UNL d   1      -2.410  -3.369   0.069  0.00  0.00    -0.019 A 
ATOM     19  C   UNL d   1      -3.606  -3.825   0.660  0.00  0.00     0.042 A 
ATOM     20 CL   UNL d   1      -3.602  -4.765   2.115  0.00  0.00    -0.084 Cl
ATOM     21  C   UNL d   1      -4.850  -3.552   0.081  0.00  0.00     0.024 A 
ATOM     22  C   UNL d   1      -4.923  -2.829  -1.106  0.00  0.00     0.002 A 
ATOM     23  C   UNL d   1      -3.753  -2.391  -1.719  0.00  0.00     0.001 A 
ATOM     24  C   UNL d   1      -2.507  -2.663  -1.142  0.00  0.00     0.010 A 
ENDBRANCH  17  18
ENDBRANCH   4  17
TORSDOF 4
