REMARK  11 active torsions:
REMARK  status: ('A' for Active; 'I' for Inactive)
REMARK    1  A    between atoms: C_5  and  C_1 
REMARK    2  A    between atoms: S_12  and  C_6 
REMARK    3  A    between atoms: C_9  and  C_18 
REMARK    4  A    between atoms: C_10  and  C_20 
REMARK    5  A    between atoms: O_16  and  C_11 
REMARK    6  A    between atoms: C_17  and  S_12 
REMARK    7  A    between atoms: C_13  and  C_17 
REMARK    8  A    between atoms: C_15  and  C_13 
REMARK    9  A    between atoms: C_18  and  O_16 
REMARK   10  A    between atoms: C_20  and  O_29 
REMARK   11  A    between atoms: O_29  and  C_28 
ROOT
ATOM      1  C   UNL d   1      -0.653  -2.568   0.197  0.00  0.00     0.053 A 
ATOM      2  C   UNL d   1      -1.558  -2.943  -0.824  0.00  0.00     0.083 A 
ATOM      3  C   UNL d   1      -0.112  -3.585   1.013  0.00  0.00     0.055 A 
ATOM      4  C   UNL d   1      -1.837  -4.304  -1.031  0.00  0.00     0.040 A 
ATOM      5  C   UNL d   1      -0.451  -4.928   0.837  0.00  0.00     0.070 A 
ATOM      6  C   UNL d   1      -1.289  -5.288  -0.205  0.00  0.00     0.039 A 
ENDROOT
BRANCH   1   7
ATOM      7  C   UNL d   1      -0.258  -1.175   0.436  0.00  0.00     0.178 A 
ATOM      8  O   UNL d   1       0.633  -0.946   1.464  0.00  0.00    -0.267 OA
ATOM      9  C   UNL d   1       0.767   0.417   1.441  0.00  0.00     0.204 A 
ATOM     10  N   UNL d   1       0.056   0.969   0.481  0.00  0.00    -0.272 N 
ATOM     11  N   UNL d   1      -0.599  -0.057  -0.172  0.00  0.00    -0.277 N 
ATOM     12  HN  UNL d   1      -0.001   1.963   0.262  1.00  0.00     0.189 HD
ATOM     13  HN  UNL d   1      -1.225   0.033  -0.972  1.00  0.00     0.189 HD
BRANCH   9  14
ATOM     14  S   UNL d   1       1.694   1.332   2.592  0.00  0.00    -0.077 SA
BRANCH  14  15
ATOM     15  C   UNL d   1       3.061   0.211   2.963  0.00  0.00     0.162 C 
BRANCH  15  16
ATOM     16  C   UNL d   1       3.747   0.620   4.262  0.00  0.00     0.144 C 
ATOM     17  O   UNL d   1       3.365   0.116   5.325  0.00  0.00    -0.296 OA
BRANCH  16  18
ATOM     18  C   UNL d   1       4.854   1.707   4.264  0.00  0.00     0.010 C 
ATOM     19  C   UNL d   1       4.216   3.093   4.428  0.00  0.00     0.022 C 
ATOM     20  C   UNL d   1       5.781   1.457   5.474  0.00  0.00     0.022 C 
ATOM     21  C   UNL d   1       5.720   1.679   3.000  0.00  0.00     0.022 C 
ENDBRANCH  16  18
ENDBRANCH  15  16
ENDBRANCH  14  15
ENDBRANCH   9  14
ENDBRANCH   1   7
BRANCH   2  22
ATOM     22  O   UNL d   1      -2.145  -1.945  -1.566  0.00  0.00    -0.341 OA
BRANCH  22  23
ATOM     23  C   UNL d   1      -3.050  -2.330  -2.612  0.00  0.00     0.293 C 
BRANCH  23  24
ATOM     24  C   UNL d   1      -3.770  -1.140  -3.230  0.00  0.00     0.408 C 
ATOM     25  F   UNL d   1      -2.954  -0.094  -3.459  0.00  0.00    -0.169 F 
ATOM     26  F   UNL d   1      -4.304  -1.503  -4.425  0.00  0.00    -0.169 F 
ATOM     27  F   UNL d   1      -4.794  -0.725  -2.451  0.00  0.00    -0.169 F 
ENDBRANCH  23  24
ENDBRANCH  22  23
ENDBRANCH   2  22
BRANCH   5  28
ATOM     28  O   UNL d   1       0.138  -5.812   1.698  0.00  0.00    -0.342 OA
BRANCH  28  29
ATOM     29  C   UNL d   1      -0.672  -6.943   2.056  0.00  0.00     0.293 C 
BRANCH  29  30
ATOM     30  C   UNL d   1      -0.046  -7.745   3.194  0.00  0.00     0.408 C 
ATOM     31  F   UNL d   1       1.035  -7.142   3.732  0.00  0.00    -0.169 F 
ATOM     32  F   UNL d   1      -0.941  -7.941   4.191  0.00  0.00    -0.169 F 
ATOM     33  F   UNL d   1       0.342  -8.968   2.760  0.00  0.00    -0.169 F 
ENDBRANCH  29  30
ENDBRANCH  28  29
ENDBRANCH   5  28
TORSDOF 11
