REMARK  8 active torsions:
REMARK  status: ('A' for Active; 'I' for Inactive)
REMARK    1  A    between atoms: O_3  and  C_1 
REMARK    2  A    between atoms: C_14  and  C_2 
REMARK    3  A    between atoms: C_11  and  O_3 
REMARK    4  A    between atoms: O_8  and  C_5 
REMARK    5  A    between atoms: C_12  and  O_8 
REMARK    6  A    between atoms: C_15  and  C_11 
REMARK    7  A    between atoms: C_16  and  C_12 
REMARK    8  A    between atoms: C_17  and  C_14 
ROOT
ATOM      1  N   UNL d   1       0.792  -3.422   3.200  0.00  0.00    -0.197 NA
ATOM      2  C   UNL d   1       0.635  -3.529   2.052  0.00  0.00     0.059 C 
ATOM      3  C   UNL d   1       0.415  -3.670   0.610  0.00  0.00     0.128 C 
ENDROOT
BRANCH   3   4
ATOM      4  C   UNL d   1       0.012  -2.348  -0.041  0.00  0.00     0.057 C 
BRANCH   4   5
ATOM      5  C   UNL d   1       0.916  -1.121   0.034  0.00  0.00    -0.004 A 
ATOM      6  C   UNL d   1       2.341  -1.180   0.002  0.00  0.00     0.110 A 
ATOM      7  C   UNL d   1       3.088   0.031  -0.018  0.00  0.00     0.103 A 
ATOM      8  C   UNL d   1       2.431   1.263   0.084  0.00  0.00     0.041 A 
ATOM      9  C   UNL d   1       1.050   1.330   0.093  0.00  0.00     0.022 A 
ATOM     10  C   UNL d   1       0.299   0.160   0.044  0.00  0.00     0.020 A 
ATOM     11 BR   UNL d   1      -1.589   0.435  -0.048  0.00  0.00    -0.050 Br
BRANCH   6  12
ATOM     12  O   UNL d   1       2.908  -2.439  -0.114  0.00  0.00    -0.343 OA
BRANCH  12  13
ATOM     13  C   UNL d   1       4.206  -2.630   0.479  0.00  0.00     0.214 C 
BRANCH  13  14
ATOM     14  C   UNL d   1       4.732  -4.054   0.379  0.00  0.00    -0.034 A 
ATOM     15  C   UNL d   1       4.453  -4.873  -0.723  0.00  0.00     0.009 A 
ATOM     16  C   UNL d   1       5.093  -6.109  -0.870  0.00  0.00     0.001 A 
ATOM     17  C   UNL d   1       6.028  -6.535   0.072  0.00  0.00     0.000 A 
ATOM     18  C   UNL d   1       6.327  -5.727   1.165  0.00  0.00     0.001 A 
ATOM     19  C   UNL d   1       5.686  -4.494   1.315  0.00  0.00     0.009 A 
ENDBRANCH  13  14
ENDBRANCH  12  13
ENDBRANCH   6  12
BRANCH   7  20
ATOM     20  O   UNL d   1       4.452  -0.016  -0.171  0.00  0.00    -0.344 OA
BRANCH  20  21
ATOM     21  C   UNL d   1       5.074   1.155  -0.705  0.00  0.00     0.214 C 
BRANCH  21  22
ATOM     22  C   UNL d   1       6.450   0.844  -1.236  0.00  0.00    -0.034 A 
ATOM     23  C   UNL d   1       6.626  -0.114  -2.245  0.00  0.00     0.009 A 
ATOM     24  C   UNL d   1       7.885  -0.316  -2.812  0.00  0.00     0.001 A 
ATOM     25  C   UNL d   1       8.976   0.433  -2.376  0.00  0.00     0.000 A 
ATOM     26  C   UNL d   1       8.814   1.378  -1.364  0.00  0.00     0.001 A 
ATOM     27  C   UNL d   1       7.557   1.583  -0.798  0.00  0.00     0.009 A 
ENDBRANCH  21  22
ENDBRANCH  20  21
ENDBRANCH   7  20
ENDBRANCH   4   5
ENDBRANCH   3   4
TORSDOF 8
