REMARK  2 active torsions:
REMARK  status: ('A' for Active; 'I' for Inactive)
REMARK    1  A    between atoms: C_2  and  C_1 
REMARK       I    between atoms: N_3  and  C_1 
REMARK    2  A    between atoms: C_5  and  N_3 
ROOT
ATOM      1  C   UNL d   1      -1.126   0.518   1.145  0.00  0.00     0.035 A 
ATOM      2  C   UNL d   1      -3.274   1.551   1.690  0.00  0.00    -0.024 A 
ATOM      3  C   UNL d   1      -1.871   1.592   1.638  0.00  0.00     0.042 A 
ATOM      4  C   UNL d   1      -3.953   0.397   1.245  0.00  0.00    -0.026 A 
ATOM      5  C   UNL d   1      -3.202  -0.680   0.746  0.00  0.00     0.014 A 
ATOM      6  C   UNL d   1      -1.803  -0.615   0.686  0.00  0.00     0.030 A 
ATOM      7  C   UNL d   1      -4.009   2.643   2.175  0.00  0.00     0.012 A 
ATOM      8  C   UNL d   1      -5.356   0.366   1.308  0.00  0.00     0.012 A 
ATOM      9  C   UNL d   1      -5.402   2.601   2.225  0.00  0.00     0.001 A 
ATOM     10  C   UNL d   1      -6.075   1.461   1.794  0.00  0.00     0.001 A 
ENDROOT
BRANCH   1  11
ATOM     11  N   UNL d   1       0.283   0.532   1.062  0.00  0.00    -0.321 N 
ATOM     12  C   UNL d   1       1.140   1.454   1.643  0.00  0.00     0.279 C 
ATOM     13  O   UNL d   1       0.798   2.341   2.422  0.00  0.00    -0.265 OA
ATOM     14  H   UNL d   1       0.734  -0.220   0.553  0.00  0.00     0.169 HD
BRANCH  12  15
ATOM     15  C   UNL d   1       2.531   1.284   1.273  0.00  0.00     0.142 A 
ATOM     16  O   UNL d   1       2.894   0.338   0.349  0.00  0.00    -0.317 OA
ATOM     17  C   UNL d   1       4.240   0.448   0.181  0.00  0.00     0.143 A 
ATOM     18  C   UNL d   1       4.753   1.434   0.990  0.00  0.00     0.027 A 
ATOM     19  C   UNL d   1       3.654   1.971   1.696  0.00  0.00     0.045 A 
ENDBRANCH  12  15
ENDBRANCH   1  11
TORSDOF 2
