REMARK  5 active torsions:
REMARK  status: ('A' for Active; 'I' for Inactive)
REMARK    1  A    between atoms: C_6  and  C_1 
REMARK       I    between atoms: C_2  and  N_7 
REMARK       I    between atoms: N_4  and  C_2 
REMARK    2  A    between atoms: C_3  and  N_5 
REMARK    3  A    between atoms: S_12  and  C_3 
REMARK    4  A    between atoms: N_5  and  N_4 
REMARK    5  A    between atoms: N_7  and  C_11 
ROOT
ATOM      1  C   UNL d   1       0.115  -4.383  -2.893  0.00  0.00     0.339 C 
ATOM      2  N   UNL d   1       1.247  -4.037  -2.159  0.00  0.00    -0.248 N 
ATOM      3  N   UNL d   1      -0.867  -3.414  -2.787  0.00  0.00    -0.308 N 
ATOM      4  O   UNL d   1       0.002  -5.454  -3.478  0.00  0.00    -0.245 OA
ATOM      5  H   UNL d   1       1.491  -3.054  -2.105  0.00  0.00     0.192 HD
ATOM      6  H   UNL d   1      -0.583  -2.514  -2.424  0.00  0.00     0.170 HD
ENDROOT
BRANCH   3   7
ATOM      7  C   UNL d   1      -2.232  -3.553  -3.123  0.00  0.00     0.037 A 
ATOM      8  C   UNL d   1      -2.816  -4.767  -3.491  0.00  0.00     0.045 A 
ATOM      9  C   UNL d   1      -4.196  -4.868  -3.739  0.00  0.00     0.050 A 
ATOM     10  C   UNL d   1      -4.995  -3.723  -3.624  0.00  0.00     0.016 A 
ATOM     11  C   UNL d   1      -4.422  -2.503  -3.269  0.00  0.00     0.003 A 
ATOM     12  C   UNL d   1      -3.050  -2.419  -3.016  0.00  0.00     0.029 A 
BRANCH   9  13
ATOM     13  C   UNL d   1      -4.821  -6.196  -4.094  0.00  0.00     0.417 C 
ATOM     14  F   UNL d   1      -3.922  -7.205  -4.257  0.00  0.00    -0.166 F 
ATOM     15  F   UNL d   1      -5.536  -6.143  -5.251  0.00  0.00    -0.166 F 
ATOM     16  F   UNL d   1      -5.692  -6.626  -3.138  0.00  0.00    -0.166 F 
ENDBRANCH   9  13
ENDBRANCH   3   7
BRANCH   2  17
ATOM     17  N   UNL d   1       2.375  -4.915  -2.113  0.00  0.00    -0.276 N 
ATOM     18  C   UNL d   1       2.054  -6.254  -1.617  0.00  0.00     0.179 C 
BRANCH  17  19
ATOM     19  C   UNL d   1       3.645  -4.462  -2.459  0.00  0.00     0.154 C 
ATOM     20  S   UNL d   1       5.095  -5.214  -2.077  0.00  0.00    -0.051 SA
BRANCH  19  21
ATOM     21  S   UNL d   1       3.654  -2.966  -3.407  0.00  0.00    -0.103 SA
ATOM     22  C   UNL d   1       3.418  -3.744  -5.030  0.00  0.00     0.098 C 
ENDBRANCH  19  21
ENDBRANCH  17  19
ENDBRANCH   2  17
TORSDOF 5
