REMARK  5 active torsions:
REMARK  status: ('A' for Active; 'I' for Inactive)
REMARK    1  A    between atoms: C_6  and  C_1 
REMARK    2  A    between atoms: C_10  and  N_2 
REMARK       I    between atoms: N_8  and  C_6 
REMARK    3  A    between atoms: C_12  and  N_8 
REMARK    4  A    between atoms: C_13  and  N_9 
REMARK    5  A    between atoms: C_25  and  C_13 
ROOT
ATOM      1  C   UNL d   1      -0.565   2.689   0.842  0.00  0.00     0.255 C 
ATOM      2  N   UNL d   1      -0.099   3.561  -0.137  0.00  0.00    -0.352 N 
ATOM      3  O   UNL d   1       0.232   2.045   1.531  0.00  0.00    -0.268 OA
ATOM      4  H   UNL d   1      -0.730   4.274  -0.460  0.00  0.00     0.163 HD
ENDROOT
BRANCH   1   5
ATOM      5  C   UNL d   1      -1.998   2.524   1.093  0.00  0.00     0.073 A 
ATOM      6  C   UNL d   1      -3.170   3.164   0.672  0.00  0.00     0.048 A 
ATOM      7  N   UNL d   1      -4.227   2.584   1.406  0.00  0.00    -0.260 N 
ATOM      8  C   UNL d   1      -3.367   4.364  -0.184  0.00  0.00     0.071 C 
ATOM      9  N   UNL d   1      -3.785   1.623   2.244  0.00  0.00    -0.304 N 
ATOM     10  C   UNL d   1      -2.477   1.565   2.028  0.00  0.00     0.126 A 
ATOM     11  HN  UNL d   1      -4.334   1.065   2.898  1.00  0.00     0.186 HD
BRANCH   7  12
ATOM     12  C   UNL d   1      -5.588   3.016   1.504  0.00  0.00     0.056 C 
ATOM     13  C   UNL d   1      -6.266   3.539   0.400  0.00  0.00     0.033 C 
ATOM     14  C   UNL d   1      -7.443   4.268   0.578  0.00  0.00     0.026 C 
ATOM     15  C   UNL d   1      -7.983   4.407   1.852  0.00  0.00     0.034 C 
ATOM     16  C   UNL d   1      -7.406   3.744   2.935  0.00  0.00     0.026 C 
ATOM     17 CL   UNL d   1      -9.350   5.422   2.088  0.00  0.00    -0.084 Cl
ATOM     18  C   UNL d   1      -6.214   3.030   2.761  0.00  0.00     0.033 C 
ENDBRANCH   7  12
ENDBRANCH   1   5
BRANCH   2  19
ATOM     19  C   UNL d   1       1.347   3.826  -0.290  0.00  0.00     0.088 C 
ATOM     20  C   UNL d   1       1.676   4.894  -1.347  0.00  0.00     0.055 C 
ATOM     21  C   UNL d   1       1.556   4.396  -2.799  0.00  0.00     0.275 C 
ATOM     22  N   UNL d   1       2.267   3.131  -3.047  0.00  0.00     0.092 N 
ATOM     23  C   UNL d   1       1.876   2.113  -2.054  0.00  0.00     0.275 C 
ATOM     24  C   UNL d   1       2.168   2.577  -0.634  0.00  0.00     0.055 C 
BRANCH  22  25
ATOM     25  C   UNL d   1       1.974   2.582  -4.391  0.00  0.00     0.311 C 
BRANCH  25  26
ATOM     26  C   UNL d   1       2.429   3.407  -5.576  0.00  0.00    -0.030 A 
ATOM     27  C   UNL d   1       3.780   3.722  -5.775  0.00  0.00     0.009 A 
ATOM     28  C   UNL d   1       4.188   4.400  -6.929  0.00  0.00     0.001 A 
ATOM     29  C   UNL d   1       3.252   4.767  -7.896  0.00  0.00     0.000 A 
ATOM     30  C   UNL d   1       1.908   4.457  -7.712  0.00  0.00     0.001 A 
ATOM     31  C   UNL d   1       1.499   3.780  -6.561  0.00  0.00     0.009 A 
ENDBRANCH  25  26
ENDBRANCH  22  25
ENDBRANCH   2  19
TORSDOF 5
