REMARK  6 active torsions:
REMARK  status: ('A' for Active; 'I' for Inactive)
REMARK    1  A    between atoms: C_6  and  C_1 
REMARK    2  A    between atoms: C_7  and  C_2 
REMARK    3  A    between atoms: N_9  and  C_3 
REMARK    4  A    between atoms: S_8  and  C_4 
REMARK    5  A    between atoms: O_11  and  C_6 
REMARK    6  A    between atoms: C_15  and  O_11 
ROOT
ATOM      1  C   UNL d   1      -0.209   1.035  -0.008  0.00  0.00     0.108 A 
ATOM      2  C   UNL d   1      -0.574  -1.305  -0.070  0.00  0.00     0.026 A 
ATOM      3  C   UNL d   1      -1.149   0.023   0.034  0.00  0.00     0.062 A 
ATOM      4  C   UNL d   1       0.813  -1.231  -0.224  0.00  0.00     0.055 A 
ATOM      5  S   UNL d   1       1.360   0.393  -0.196  0.00  0.00    -0.074 SA
ENDROOT
BRANCH   2   6
ATOM      6  C   UNL d   1      -1.331  -2.570  -0.079  0.00  0.00    -0.022 A 
ATOM      7  C   UNL d   1      -2.481  -2.693  -0.875  0.00  0.00     0.012 A 
ATOM      8  C   UNL d   1      -3.222  -3.877  -0.892  0.00  0.00     0.001 A 
ATOM      9  C   UNL d   1      -2.802  -4.971  -0.141  0.00  0.00     0.000 A 
ATOM     10  C   UNL d   1      -1.664  -4.869   0.654  0.00  0.00     0.001 A 
ATOM     11  C   UNL d   1      -0.950  -3.667   0.708  0.00  0.00     0.012 A 
ENDBRANCH   2   6
BRANCH   3  12
ATOM     12  N   UNL d   1      -2.475   0.252   0.185  0.00  0.00    -0.397 N 
ATOM     13  H   UNL d   1      -3.127  -0.482   0.453  0.00  0.00     0.156 HD
ATOM     14  H   UNL d   1      -2.842   1.192   0.294  0.00  0.00     0.156 HD
ENDBRANCH   3  12
BRANCH   4  15
ATOM     15  S   UNL d   1       1.934  -2.586  -0.492  0.00  0.00    -0.126 SA
ATOM     16  C   UNL d   1       3.573  -1.887  -0.206  0.00  0.00     0.096 C 
ENDBRANCH   4  15
BRANCH   1  17
ATOM     17  C   UNL d   1      -0.344   2.474   0.131  0.00  0.00     0.302 C 
ATOM     18  O   UNL d   1       0.570   3.282   0.246  0.00  0.00    -0.259 OA
BRANCH  17  19
ATOM     19  O   UNL d   1      -1.669   2.820   0.190  0.00  0.00    -0.317 OA
BRANCH  19  20
ATOM     20  C   UNL d   1      -1.956   4.131   0.692  0.00  0.00     0.174 C 
ATOM     21  C   UNL d   1      -2.079   4.037   2.201  0.00  0.00     0.034 C 
ENDBRANCH  19  20
ENDBRANCH  17  19
ENDBRANCH   1  17
TORSDOF 6
