REMARK  2 active torsions:
REMARK  status: ('A' for Active; 'I' for Inactive)
REMARK    1  A    between atoms: C_3  and  C_1 
REMARK    2  A    between atoms: C_13  and  N_2 
ROOT
ATOM      1  C   UNL d   1      -0.153  -1.345  -0.142  0.00  0.00     0.150 C 
ATOM      2  N   UNL d   1      -1.023  -0.397  -0.686  0.00  0.00    -0.224 N 
ATOM      3  N   UNL d   1      -0.334   0.759  -0.846  0.00  0.00     0.001 NA
ATOM      4  N   UNL d   1       0.839   0.570  -0.268  0.00  0.00    -0.007 NA
ATOM      5  N   UNL d   1       0.970  -0.718   0.165  0.00  0.00    -0.269 N 
ATOM      6  HN  UNL d   1       1.780  -1.120   0.637  1.00  0.00     0.185 HD
ENDROOT
BRANCH   1   7
ATOM      7  C   UNL d   1      -0.345  -2.799  -0.081  0.00  0.00     0.033 A 
ATOM      8  C   UNL d   1       0.057  -3.602   1.004  0.00  0.00    -0.034 A 
ATOM      9  C   UNL d   1      -0.118  -5.021   0.924  0.00  0.00    -0.003 A 
ATOM     10  C   UNL d   1       0.701  -3.008   2.236  0.00  0.00     0.050 C 
ATOM     11  C   UNL d   1       0.304  -5.936   1.919  0.00  0.00     0.014 A 
ATOM     12  C   UNL d   1      -0.747  -5.545  -0.231  0.00  0.00     0.042 A 
ATOM     13  C   UNL d   1       0.091  -7.309   1.786  0.00  0.00     0.001 A 
ATOM     14  C   UNL d   1      -0.556  -7.797   0.662  0.00  0.00     0.002 A 
ATOM     15  C   UNL d   1      -0.968  -6.911  -0.331  0.00  0.00     0.030 A 
ATOM     16  N   UNL d   1      -1.135  -4.783  -1.257  0.00  0.00    -0.364 N 
ATOM     17  C   UNL d   1      -0.896  -3.456  -1.180  0.00  0.00     0.104 A 
ATOM     18  HN  UNL d   1      -1.597  -5.189  -2.071  1.00  0.00     0.165 HD
ENDBRANCH   1   7
BRANCH   2  19
ATOM     19  C   UNL d   1      -2.383  -0.490  -1.077  0.00  0.00     0.056 A 
ATOM     20  C   UNL d   1      -3.252  -1.412  -0.478  0.00  0.00     0.032 A 
ATOM     21  C   UNL d   1      -4.571  -1.526  -0.930  0.00  0.00     0.020 A 
ATOM     22  C   UNL d   1      -5.022  -0.720  -1.975  0.00  0.00     0.006 A 
ATOM     23  C   UNL d   1      -4.173   0.222  -2.554  0.00  0.00     0.020 A 
ATOM     24  I   UNL d   1      -6.969  -0.925  -2.670  0.00  0.00    -0.045 I 
ATOM     25  C   UNL d   1      -2.860   0.351  -2.095  0.00  0.00     0.032 A 
ENDBRANCH   2  19
TORSDOF 2
