REMARK  3 active torsions:
REMARK  status: ('A' for Active; 'I' for Inactive)
REMARK    1  A    between atoms: C_3  and  C_1 
REMARK    2  A    between atoms: C_4  and  C_3 
REMARK    3  A    between atoms: C_14  and  C_5 
ROOT
ATOM      1  C   UNL d   1       0.669   1.238  -0.300  0.00  0.00     0.200 C 
ATOM      2  C   UNL d   1       1.361  -0.034   0.142  0.00  0.00     0.154 C 
ATOM      3  C   UNL d   1       0.627  -1.340  -0.172  0.00  0.00     0.090 C 
ATOM      4  C   UNL d   1      -0.764   1.220   0.187  0.00  0.00     0.145 C 
ATOM      5  C   UNL d   1      -0.797  -1.272   0.403  0.00  0.00     0.024 C 
ATOM      6  O   UNL d   1       2.483   0.015   0.645  0.00  0.00    -0.296 OA
ATOM      7  C   UNL d   1      -1.567  -0.043  -0.056  0.00  0.00     0.080 C 
ATOM      8  O   UNL d   1      -1.271   2.210   0.711  0.00  0.00    -0.297 OA
ENDROOT
BRANCH   1   9
ATOM      9  C   UNL d   1       0.752   1.403  -1.802  0.00  0.00     0.179 C 
ATOM     10  O   UNL d   1      -0.045   0.821  -2.537  0.00  0.00    -0.291 OA
BRANCH   9  11
ATOM     11  C   UNL d   1       1.881   2.159  -2.421  0.00  0.00     0.033 A 
ATOM     12  C   UNL d   1       1.728   2.840  -3.644  0.00  0.00     0.049 A 
ATOM     13  C   UNL d   1       2.840   3.407  -4.282  0.00  0.00     0.048 A 
ATOM     14 CL   UNL d   1       0.199   3.079  -4.415  0.00  0.00    -0.083 Cl
ATOM     15  C   UNL d   1       4.100   3.311  -3.701  0.00  0.00     0.035 A 
ATOM     16  C   UNL d   1       4.260   2.674  -2.476  0.00  0.00     0.025 A 
ATOM     17 CL   UNL d   1       5.468   3.976  -4.502  0.00  0.00    -0.084 Cl
ATOM     18  C   UNL d   1       3.157   2.103  -1.836  0.00  0.00     0.018 A 
ENDBRANCH   9  11
ENDBRANCH   1   9
BRANCH   3  19
ATOM     19  C   UNL d   1       1.328  -2.592   0.329  0.00  0.00    -0.047 A 
ATOM     20  C   UNL d   1       1.599  -2.788   1.693  0.00  0.00     0.008 A 
ATOM     21  C   UNL d   1       2.138  -3.992   2.147  0.00  0.00     0.001 A 
ATOM     22  C   UNL d   1       2.425  -5.012   1.244  0.00  0.00     0.000 A 
ATOM     23  C   UNL d   1       2.194  -4.821  -0.117  0.00  0.00     0.001 A 
ATOM     24  C   UNL d   1       1.651  -3.618  -0.573  0.00  0.00     0.008 A 
ENDBRANCH   3  19
TORSDOF 3
