REMARK  4 active torsions:
REMARK  status: ('A' for Active; 'I' for Inactive)
REMARK    1  A    between atoms: C_7  and  N_1 
REMARK    2  A    between atoms: S_10  and  C_2 
REMARK    3  A    between atoms: C_16  and  S_10 
REMARK    4  A    between atoms: C_20  and  C_16 
ROOT
ATOM      1  N   UNL d   1       2.400  -0.717  -0.072  0.00  0.00    -0.255 N 
ATOM      2  C   UNL d   1       2.331   0.680  -0.054  0.00  0.00     0.155 A 
ATOM      3  C   UNL d   1       1.230  -1.481  -0.005  0.00  0.00     0.267 A 
ATOM      4  N   UNL d   1       1.223   1.345   0.024  0.00  0.00    -0.335 N 
ATOM      5  HN  UNL d   1       1.233   2.364   0.064  1.00  0.00     0.168 HD
ATOM      6  C   UNL d   1      -0.044  -0.741   0.036  0.00  0.00     0.059 A 
ATOM      7  C   UNL d   1       0.015   0.647   0.051  0.00  0.00     0.049 A 
ATOM      8  O   UNL d   1       1.184  -2.711   0.024  0.00  0.00    -0.267 OA
ATOM      9  C   UNL d   1      -1.275  -1.412   0.029  0.00  0.00     0.019 A 
ATOM     10  C   UNL d   1      -1.180   1.371   0.033  0.00  0.00     0.030 A 
ATOM     11  C   UNL d   1      -2.461  -0.679   0.009  0.00  0.00     0.001 A 
ATOM     12  C   UNL d   1      -2.413   0.714   0.005  0.00  0.00     0.002 A 
ENDROOT
BRANCH   1  13
ATOM     13  C   UNL d   1       3.631  -1.436  -0.183  0.00  0.00     0.083 A 
ATOM     14  C   UNL d   1       4.667  -1.280   0.750  0.00  0.00     0.146 A 
ATOM     15  C   UNL d   1       5.874  -1.958   0.609  0.00  0.00     0.086 A 
ATOM     16  F   UNL d   1       4.490  -0.504   1.831  0.00  0.00    -0.204 F 
ATOM     17  C   UNL d   1       6.042  -2.812  -0.473  0.00  0.00     0.119 A 
ATOM     18  C   UNL d   1       5.021  -3.021  -1.391  0.00  0.00     0.045 A 
ATOM     19  F   UNL d   1       7.206  -3.457  -0.626  0.00  0.00    -0.206 F 
ATOM     20  C   UNL d   1       3.810  -2.341  -1.243  0.00  0.00     0.036 A 
ENDBRANCH   1  13
BRANCH   2  21
ATOM     21  S   UNL d   1       3.797   1.631  -0.312  0.00  0.00    -0.089 SA
BRANCH  21  22
ATOM     22  C   UNL d   1       3.348   3.164   0.550  0.00  0.00     0.121 C 
BRANCH  22  23
ATOM     23  C   UNL d   1       4.421   4.230   0.480  0.00  0.00    -0.049 A 
ATOM     24  C   UNL d   1       4.127   5.486  -0.077  0.00  0.00     0.008 A 
ATOM     25  C   UNL d   1       5.084   6.503  -0.094  0.00  0.00     0.001 A 
ATOM     26  C   UNL d   1       6.348   6.280   0.444  0.00  0.00     0.000 A 
ATOM     27  C   UNL d   1       6.657   5.040   0.998  0.00  0.00     0.001 A 
ATOM     28  C   UNL d   1       5.699   4.022   1.022  0.00  0.00     0.008 A 
ENDBRANCH  22  23
ENDBRANCH  21  22
ENDBRANCH   2  21
TORSDOF 4
