REMARK  4 active torsions:
REMARK  status: ('A' for Active; 'I' for Inactive)
REMARK    1  A    between atoms: C_2  and  C_1 
REMARK    2  A    between atoms: N_9  and  C_5 
REMARK    3  A    between atoms: C_10  and  N_9 
REMARK    4  A    between atoms: O_17  and  N_11 
ROOT
ATOM      1  C   UNL d   1       0.611  -0.421   1.422  0.00  0.00     0.065 A 
ATOM      2  N   UNL d   1       0.268  -1.981   3.233  0.00  0.00    -0.350 N 
ATOM      3  HN  UNL d   1       0.344  -2.933   3.590  1.00  0.00     0.166 HD
ATOM      4  C   UNL d   1      -0.235  -0.991   4.017  0.00  0.00     0.128 A 
ATOM      5  C   UNL d   1       0.112   0.600   2.231  0.00  0.00     0.045 A 
ATOM      6  C   UNL d   1      -0.307   0.325   3.539  0.00  0.00     0.079 A 
ATOM      7  C   UNL d   1       0.667  -1.688   1.972  0.00  0.00     0.106 A 
ATOM      8 CL   UNL d   1      -0.764   1.692   4.491  0.00  0.00    -0.080 Cl
ENDROOT
BRANCH   4   9
ATOM      9  N   UNL d   1      -0.606  -1.434   5.279  0.00  0.00    -0.336 N 
ATOM     10  H   UNL d   1      -0.324  -2.394   5.431  0.00  0.00     0.168 HD
BRANCH   9  11
ATOM     11  C   UNL d   1      -1.586  -0.991   6.103  0.00  0.00     0.205 C 
ATOM     12  N   UNL d   1      -1.909  -1.572   7.215  0.00  0.00    -0.265 N 
ATOM     13  HN  UNL d   1      -1.469  -2.409   7.597  1.00  0.00     0.194 HD
BRANCH  12  14
ATOM     14  O   UNL d   1      -2.962  -0.863   7.806  0.00  0.00    -0.289 OA
ATOM     15  H   UNL d   1      -3.080  -1.332   8.653  0.00  0.00     0.244 HD
ENDBRANCH  12  14
ENDBRANCH   9  11
ENDBRANCH   4   9
BRANCH   1  16
ATOM     16  C   UNL d   1       1.095  -0.188   0.025  0.00  0.00     0.418 C 
ATOM     17  F   UNL d   1       1.035   1.117  -0.355  0.00  0.00    -0.166 F 
ATOM     18  F   UNL d   1       0.374  -0.881  -0.897  0.00  0.00    -0.166 F 
ATOM     19  F   UNL d   1       2.390  -0.569  -0.145  0.00  0.00    -0.166 F 
ENDBRANCH   1  16
TORSDOF 4
