REMARK  4 active torsions:
REMARK  status: ('A' for Active; 'I' for Inactive)
REMARK    1  A    between atoms: C_2  and  C_1 
REMARK       I    between atoms: C_3  and  N_4 
REMARK    2  A    between atoms: C_11  and  C_3 
REMARK    3  A    between atoms: N_4  and  N_5 
REMARK    4  A    between atoms: N_5  and  C_6 
ROOT
ATOM      1  C   UNL d   1      -0.015   1.978   2.696  0.00  0.00     0.070 A 
ATOM      2  C   UNL d   1       0.068   0.761   1.987  0.00  0.00     0.042 A 
ATOM      3  C   UNL d   1      -0.001   3.204   1.991  0.00  0.00     0.018 A 
ATOM      4  C   UNL d   1       0.205   0.829   0.584  0.00  0.00     0.026 A 
ATOM      5  C   UNL d   1       0.107   3.238   0.603  0.00  0.00     0.001 A 
ATOM      6  C   UNL d   1       0.210   2.048  -0.101  0.00  0.00     0.002 A 
ENDROOT
BRANCH   2   7
ATOM      7  N   UNL d   1       0.184  -0.485   2.665  0.00  0.00    -0.203 NA
ATOM      8  H   UNL d   1      -0.225  -0.457   3.615  0.00  0.00     0.153 HD
BRANCH   7   9
ATOM      9  N   UNL d   1      -0.349  -1.576   1.953  0.00  0.00    -0.287 N 
ATOM     10  C   UNL d   1      -1.238  -2.407   2.621  0.00  0.00     0.236 C 
ATOM     11  O   UNL d   1      -1.629  -2.140   3.761  0.00  0.00    -0.272 OA
ATOM     12  H   UNL d   1       0.197  -1.918   1.169  0.00  0.00     0.184 HD
BRANCH  10  13
ATOM     13  C   UNL d   1      -1.673  -3.649   1.788  0.00  0.00     0.079 C 
ATOM     14  C   UNL d   1      -3.192  -3.973   1.770  0.00  0.00     0.014 C 
ATOM     15  C   UNL d   1      -2.818  -5.464   1.788  0.00  0.00     0.002 C 
ATOM     16  C   UNL d   1      -1.470  -5.055   2.411  0.00  0.00     0.014 C 
ENDBRANCH  10  13
ENDBRANCH   7   9
ENDBRANCH   2   7
BRANCH   1  17
ATOM     17  C   UNL d   1      -0.118   2.059   4.198  0.00  0.00     0.419 C 
ATOM     18  F   UNL d   1      -0.280   0.858   4.821  0.00  0.00    -0.166 F 
ATOM     19  F   UNL d   1      -1.172   2.825   4.604  0.00  0.00    -0.166 F 
ATOM     20  F   UNL d   1       0.984   2.626   4.765  0.00  0.00    -0.166 F 
ENDBRANCH   1  17
TORSDOF 4
