REMARK  4 active torsions:
REMARK  status: ('A' for Active; 'I' for Inactive)
REMARK    1  A    between atoms: C_5  and  N_1 
REMARK    2  A    between atoms: C_9  and  C_4 
REMARK    3  A    between atoms: S_6  and  N_12 
REMARK       I    between atoms: N_13  and  C_9 
REMARK    4  A    between atoms: N_12  and  N_13 
ROOT
ATOM      1  N   UNL d   1       0.889  -0.655  -0.047  0.00  0.00    -0.257 N 
ATOM      2  N   UNL d   1       0.941   0.710  -0.060  0.00  0.00    -0.288 N 
ATOM      3  HN  UNL d   1       1.777   1.293  -0.062  1.00  0.00     0.188 HD
ATOM      4  C   UNL d   1      -0.337   1.126  -0.070  0.00  0.00     0.119 A 
ATOM      5  C   UNL d   1      -0.428  -1.098   0.050  0.00  0.00     0.033 A 
ATOM      6  C   UNL d   1      -1.219   0.030  -0.026  0.00  0.00     0.063 A 
ATOM      7  C   UNL d   1      -0.895  -2.492   0.275  0.00  0.00     0.070 C 
ENDROOT
BRANCH   4   8
ATOM      8  C   UNL d   1      -0.726   2.543  -0.101  0.00  0.00     0.288 C 
ATOM      9  N   UNL d   1       0.314   3.436   0.060  0.00  0.00    -0.255 N 
ATOM     10  H   UNL d   1       1.268   3.103   0.210  0.00  0.00     0.191 HD
ATOM     11  O   UNL d   1      -1.895   2.912  -0.246  0.00  0.00    -0.264 OA
BRANCH   9  12
ATOM     12  N   UNL d   1       0.038   4.869   0.032  0.00  0.00    -0.224 N 
ATOM     13  H   UNL d   1      -0.882   5.148  -0.330  0.00  0.00     0.200 HD
BRANCH  12  14
ATOM     14  S   UNL d   1       1.328   5.941   0.008  0.00  0.00     0.240 S 
ATOM     15  O   UNL d   1       2.080   5.742   1.231  0.00  0.00    -0.205 OA
ATOM     16  O   UNL d   1       1.964   5.830  -1.285  0.00  0.00    -0.205 OA
ATOM     17  C   UNL d   1       0.506   7.518   0.098  0.00  0.00     0.187 C 
ENDBRANCH  12  14
ENDBRANCH   9  12
ENDBRANCH   4   8
BRANCH   1  18
ATOM     18  C   UNL d   1       2.101  -1.410  -0.117  0.00  0.00     0.100 A 
ATOM     19  C   UNL d   1       3.242  -1.002   0.610  0.00  0.00     0.066 A 
ATOM     20  C   UNL d   1       4.431  -1.750   0.553  0.00  0.00     0.050 A 
ATOM     21 CL   UNL d   1       3.286   0.341   1.705  0.00  0.00    -0.082 Cl
ATOM     22  C   UNL d   1       4.491  -2.914  -0.198  0.00  0.00     0.037 A 
ATOM     23  C   UNL d   1       3.388  -3.323  -0.934  0.00  0.00     0.050 A 
ATOM     24 CL   UNL d   1       5.942  -3.835  -0.245  0.00  0.00    -0.084 Cl
ATOM     25  C   UNL d   1       2.213  -2.555  -0.930  0.00  0.00     0.066 A 
ATOM     26 CL   UNL d   1       1.053  -3.016  -2.133  0.00  0.00    -0.082 Cl
ENDBRANCH   1  18
TORSDOF 4
