REMARK  7 active torsions:
REMARK  status: ('A' for Active; 'I' for Inactive)
REMARK    1  A    between atoms: C_12  and  C_1 
REMARK    2  A    between atoms: C_2  and  C_4 
REMARK    3  A    between atoms: N_9  and  C_3 
REMARK       I    between atoms: C_4  and  N_9 
REMARK    4  A    between atoms: C_5  and  C_8 
REMARK    5  A    between atoms: O_24  and  C_12 
REMARK    6  A    between atoms: O_25  and  C_15 
REMARK    7  A    between atoms: O_26  and  C_16 
ROOT
ATOM      1  C   UNL d   1       2.515  -2.699  -0.519  0.00  0.00     0.274 C 
ATOM      2  N   UNL d   1       1.241  -2.505   0.010  0.00  0.00    -0.321 N 
ATOM      3  O   UNL d   1       3.135  -1.857  -1.155  0.00  0.00    -0.266 OA
ATOM      4  H   UNL d   1       0.700  -3.361   0.104  0.00  0.00     0.169 HD
ENDROOT
BRANCH   2   5
ATOM      5  C   UNL d   1       0.556  -1.257  -0.043  0.00  0.00     0.054 A 
ATOM      6  C   UNL d   1       1.180   0.004   0.028  0.00  0.00     0.067 A 
ATOM      7  C   UNL d   1       0.431   1.169  -0.174  0.00  0.00     0.060 A 
ATOM      8  C   UNL d   1      -0.952   1.110  -0.335  0.00  0.00     0.102 A 
ATOM      9  C   UNL d   1      -1.609  -0.130  -0.321  0.00  0.00     0.103 A 
ATOM     10  C   UNL d   1      -0.846  -1.305  -0.176  0.00  0.00     0.070 A 
BRANCH   6  11
ATOM     11  C   UNL d   1       2.578   0.245   0.478  0.00  0.00     0.178 C 
ATOM     12  O   UNL d   1       3.290   1.130   0.036  0.00  0.00    -0.646 OA
BRANCH  11  13
ATOM     13  O   UNL d   1       2.891  -0.480   1.580  0.00  0.00    -0.773 OA
ATOM     14  H   UNL d   1       2.187  -1.094   1.853  0.00  0.00     0.167 HD
ENDBRANCH  11  13
ENDBRANCH   6  11
BRANCH   8  15
ATOM     15  O   UNL d   1      -1.537   2.333  -0.539  0.00  0.00    -0.353 OA
ATOM     16  C   UNL d   1      -2.732   2.572   0.195  0.00  0.00     0.210 C 
ENDBRANCH   8  15
BRANCH   9  17
ATOM     17  O   UNL d   1      -2.967  -0.109  -0.493  0.00  0.00    -0.353 OA
ATOM     18  C   UNL d   1      -3.684  -1.330  -0.383  0.00  0.00     0.210 C 
ENDBRANCH   9  17
ENDBRANCH   2   5
BRANCH   1  19
ATOM     19  C   UNL d   1       3.077  -4.071  -0.365  0.00  0.00     0.122 A 
ATOM     20  N   UNL d   1       2.168  -5.085  -0.505  0.00  0.00    -0.359 N 
ATOM     21  C   UNL d   1       2.676  -6.344  -0.558  0.00  0.00     0.105 A 
ATOM     22  HN  UNL d   1       1.165  -4.906  -0.565  1.00  0.00     0.165 HD
ATOM     23  C   UNL d   1       4.029  -6.646  -0.443  0.00  0.00     0.065 A 
ATOM     24  C   UNL d   1       4.915  -5.588  -0.213  0.00  0.00     0.044 A 
ATOM     25  C   UNL d   1       4.443  -4.277  -0.175  0.00  0.00     0.067 A 
ATOM     26 CL   UNL d   1       5.577  -3.029   0.174  0.00  0.00    -0.082 Cl
BRANCH  23  27
ATOM     27  C   UNL d   1       4.501  -8.064  -0.570  0.00  0.00     0.418 C 
ATOM     28  F   UNL d   1       5.854  -8.188  -0.541  0.00  0.00    -0.166 F 
ATOM     29  F   UNL d   1       4.028  -8.858   0.429  0.00  0.00    -0.166 F 
ATOM     30  F   UNL d   1       4.096  -8.641  -1.733  0.00  0.00    -0.166 F 
ENDBRANCH  23  27
ENDBRANCH   1  19
TORSDOF 7
