REMARK  3 active torsions:
REMARK  status: ('A' for Active; 'I' for Inactive)
REMARK    1  A    between atoms: C_2  and  C_1 
REMARK       I    between atoms: N_4  and  C_1 
REMARK    2  A    between atoms: C_3  and  C_15 
REMARK    3  A    between atoms: C_15  and  N_4 
ROOT
ATOM      1  C   UNL d   1       1.036  -0.049   0.036  0.00  0.00     0.251 C 
ATOM      2  N   UNL d   1       1.488   1.195   0.412  0.00  0.00    -0.353 N 
ATOM      3  O   UNL d   1       1.167  -0.510  -1.090  0.00  0.00    -0.268 OA
ATOM      4  H   UNL d   1       1.135   1.612   1.263  0.00  0.00     0.163 HD
ENDROOT
BRANCH   1   5
ATOM      5  C   UNL d   1       0.327  -0.820   1.094  0.00  0.00     0.032 A 
ATOM      6  C   UNL d   1      -0.684  -1.715   0.712  0.00  0.00     0.027 A 
ATOM      7  C   UNL d   1      -1.359  -2.401   1.708  0.00  0.00    -0.022 A 
ATOM      8  C   UNL d   1      -2.435  -3.411   1.602  0.00  0.00     0.068 C 
ATOM      9  C   UNL d   1      -1.019  -2.237   3.042  0.00  0.00     0.075 A 
ATOM     10  C   UNL d   1      -2.853  -3.478   3.073  0.00  0.00     0.180 C 
ATOM     11  O   UNL d   1      -1.766  -2.999   3.901  0.00  0.00    -0.350 OA
ATOM     12  C   UNL d   1      -0.001  -1.397   3.441  0.00  0.00     0.038 A 
ATOM     13  C   UNL d   1       0.678  -0.677   2.454  0.00  0.00     0.020 A 
ENDBRANCH   1   5
BRANCH   2  14
ATOM     14  C   UNL d   1       2.188   2.058  -0.508  0.00  0.00     0.162 C 
BRANCH  14  15
ATOM     15  C   UNL d   1       3.101   2.933   0.294  0.00  0.00    -0.034 A 
ATOM     16  C   UNL d   1       3.015   4.311   0.377  0.00  0.00     0.058 A 
ATOM     17  S   UNL d   1       4.221   4.994   1.382  0.00  0.00    -0.113 SA
ATOM     18  C   UNL d   1       4.885   3.458   1.722  0.00  0.00     0.050 A 
ATOM     19  C   UNL d   1       4.201   2.449   1.083  0.00  0.00     0.016 A 
ENDBRANCH  14  15
ENDBRANCH   2  14
TORSDOF 3
