REMARK  4 active torsions:
REMARK  status: ('A' for Active; 'I' for Inactive)
REMARK    1  A    between atoms: C_7  and  C_1 
REMARK    2  A    between atoms: C_6  and  C_4 
REMARK    3  A    between atoms: S_17  and  C_7 
REMARK    4  A    between atoms: C_20  and  S_17 
ROOT
ATOM      1  C   UNL d   1       1.282   0.754   0.342  0.00  0.00     0.097 A 
ATOM      2  N   UNL d   1       1.438  -0.600  -0.001  0.00  0.00    -0.346 N 
ATOM      3  HN  UNL d   1       2.302  -1.008  -0.357  1.00  0.00     0.167 HD
ATOM      4  C   UNL d   1       0.321  -1.275   0.198  0.00  0.00     0.085 A 
ATOM      5  S   UNL d   1      -0.978  -0.341   0.832  0.00  0.00    -0.081 SA
ATOM      6  C   UNL d   1       0.027   1.038   0.858  0.00  0.00     0.086 A 
ENDROOT
BRANCH   1   7
ATOM      7  C   UNL d   1       2.386   1.723   0.194  0.00  0.00     0.240 C 
ATOM      8  O   UNL d   1       3.572   1.418   0.111  0.00  0.00    -0.278 OA
BRANCH   7   9
ATOM      9  S   UNL d   1       1.861   3.414   0.056  0.00  0.00    -0.044 SA
BRANCH   9  10
ATOM     10  C   UNL d   1       3.010   4.273   1.124  0.00  0.00     0.030 A 
ATOM     11  C   UNL d   1       3.297   3.917   2.454  0.00  0.00     0.052 A 
ATOM     12  C   UNL d   1       4.245   4.631   3.196  0.00  0.00     0.049 A 
ATOM     13 CL   UNL d   1       2.459   2.648   3.283  0.00  0.00    -0.083 Cl
ATOM     14  C   UNL d   1       4.871   5.740   2.636  0.00  0.00     0.035 A 
ATOM     15  C   UNL d   1       4.541   6.160   1.351  0.00  0.00     0.025 A 
ATOM     16 CL   UNL d   1       6.048   6.605   3.543  0.00  0.00    -0.084 Cl
ATOM     17  C   UNL d   1       3.619   5.426   0.598  0.00  0.00     0.022 A 
ENDBRANCH   9  10
ENDBRANCH   7   9
ENDBRANCH   1   7
BRANCH   4  18
ATOM     18  C   UNL d   1       0.166  -2.736   0.036  0.00  0.00     0.000 A 
ATOM     19  C   UNL d   1      -1.053  -3.294  -0.422  0.00  0.00     0.048 A 
ATOM     20  C   UNL d   1      -1.111  -4.702  -0.422  0.00  0.00     0.086 A 
ATOM     21  N   UNL d   1      -2.124  -5.508  -0.761  0.00  0.00    -0.240 N 
ATOM     22  C   UNL d   1       0.011  -5.529  -0.007  0.00  0.00     0.085 A 
ATOM     23  O   UNL d   1      -1.663  -6.799  -0.555  0.00  0.00    -0.156 OA
ATOM     24  HN  UNL d   1      -3.045  -5.229  -1.101  1.00  0.00     0.197 HD
ATOM     25  N   UNL d   1      -0.357  -6.813  -0.096  0.00  0.00    -0.240 N 
ATOM     26  HN  UNL d   1       0.208  -7.632   0.127  1.00  0.00     0.197 HD
ATOM     27  C   UNL d   1       1.236  -4.978   0.407  0.00  0.00     0.035 A 
ATOM     28  C   UNL d   1       1.270  -3.566   0.408  0.00  0.00     0.017 A 
ENDBRANCH   4  18
TORSDOF 4
