REMARK  5 active torsions:
REMARK  status: ('A' for Active; 'I' for Inactive)
REMARK    1  A    between atoms: C_11  and  C_3 
REMARK    2  A    between atoms: S_19  and  C_14 
REMARK    3  A    between atoms: C_16  and  C_23 
REMARK       I    between atoms: N_20  and  C_16 
REMARK    4  A    between atoms: C_23  and  S_19 
REMARK    5  A    between atoms: C_26  and  N_20 
ROOT
ATOM      1  C   UNL d   1       3.394  -1.421  -0.071  0.00  0.00     0.049 A 
ATOM      2  N   UNL d   1       3.897  -1.648   1.156  0.00  0.00    -0.336 N 
ATOM      3  HN  UNL d   1       3.415  -1.318   1.992  1.00  0.00     0.168 HD
ATOM      4  C   UNL d   1       5.052  -2.322   1.245  0.00  0.00     0.145 A 
ATOM      5  N   UNL d   1       5.741  -2.793   0.197  0.00  0.00    -0.347 N 
ATOM      6  HN  UNL d   1       6.620  -3.297   0.311  1.00  0.00     0.167 HD
ATOM      7  C   UNL d   1       4.024  -1.881  -1.211  0.00  0.00     0.047 A 
ATOM      8  C   UNL d   1       5.206  -2.562  -1.015  0.00  0.00     0.092 A 
ENDROOT
BRANCH   1   9
ATOM      9  C   UNL d   1       2.093  -0.726  -0.114  0.00  0.00     0.030 A 
ATOM     10  C   UNL d   1       1.717   0.317   0.669  0.00  0.00     0.046 A 
ATOM     11  N   UNL d   1       0.405   0.810   0.567  0.00  0.00    -0.243 N 
ATOM     12  C   UNL d   1       2.594   1.028   1.668  0.00  0.00     0.071 C 
ATOM     13  C   UNL d   1      -0.514   0.260  -0.336  0.00  0.00     0.129 A 
ATOM     14  N   UNL d   1      -0.164   1.825   1.278  0.00  0.00    -0.297 N 
ATOM     15  N   UNL d   1      -0.191  -0.772  -1.165  0.00  0.00    -0.350 N 
ATOM     16  C   UNL d   1      -1.692   0.946  -0.159  0.00  0.00     0.076 A 
ATOM     17  C   UNL d   1       1.017  -1.226  -1.041  0.00  0.00     0.105 A 
ATOM     18  HN  UNL d   1      -0.854  -1.160  -1.837  1.00  0.00     0.166 HD
ATOM     19  C   UNL d   1      -1.430   1.888   0.852  0.00  0.00     0.026 A 
ATOM     20  C   UNL d   1      -2.374   2.867   1.438  0.00  0.00     0.070 C 
ATOM     21  HN  UNL d   1       0.281   2.411   1.985  1.00  0.00     0.187 HD
ENDBRANCH   1   9
BRANCH   4  22
ATOM     22  S   UNL d   1       5.555  -2.748   2.886  0.00  0.00    -0.085 SA
BRANCH  22  23
ATOM     23  C   UNL d   1       7.368  -2.747   2.705  0.00  0.00     0.185 C 
BRANCH  23  24
ATOM     24  C   UNL d   1       8.083  -3.334   3.923  0.00  0.00     0.227 C 
ATOM     25  N   UNL d   1       7.293  -3.715   4.986  0.00  0.00    -0.357 N 
ATOM     26  H   UNL d   1       6.289  -3.713   4.833  0.00  0.00     0.162 HD
ATOM     27  O   UNL d   1       9.308  -3.443   3.940  0.00  0.00    -0.273 OA
BRANCH  25  28
ATOM     28  C   UNL d   1       7.817  -4.351   6.184  0.00  0.00     0.076 C 
ATOM     29  C   UNL d   1       6.898  -4.071   7.369  0.00  0.00     0.032 C 
ATOM     30  C   UNL d   1       7.975  -5.856   5.974  0.00  0.00     0.032 C 
ENDBRANCH  25  28
ENDBRANCH  23  24
ENDBRANCH  22  23
ENDBRANCH   4  22
TORSDOF 5
