REMARK  1 active torsions:
REMARK  status: ('A' for Active; 'I' for Inactive)
REMARK    1  A    between atoms: N_13  and  C_8 
ROOT
ATOM      1  C   UNL d   1      -0.033  -0.635  -0.058  0.00  0.00     0.117 A 
ATOM      2  N   UNL d   1      -1.153  -1.360  -0.098  0.00  0.00    -0.333 N 
ATOM      3  HN  UNL d   1      -1.103  -2.379  -0.108  1.00  0.00     0.168 HD
ATOM      4  N   UNL d   1       1.116  -1.310  -0.060  0.00  0.00    -0.346 N 
ATOM      5  HN  UNL d   1       1.110  -2.330  -0.076  1.00  0.00     0.167 HD
ATOM      6  C   UNL d   1      -0.058   0.777  -0.025  0.00  0.00     0.014 A 
ATOM      7  C   UNL d   1       1.174   1.477   0.026  0.00  0.00    -0.046 A 
ATOM      8  C   UNL d   1      -2.343  -0.746  -0.123  0.00  0.00     0.079 A 
ATOM      9  C   UNL d   1      -1.323   1.396  -0.061  0.00  0.00     0.019 A 
ATOM     10  C   UNL d   1       2.290  -0.642  -0.041  0.00  0.00     0.007 A 
ATOM     11  C   UNL d   1       2.360   0.740   0.006  0.00  0.00     0.032 A 
ATOM     12  C   UNL d   1      -2.476   0.626  -0.116  0.00  0.00     0.043 A 
ATOM     13  C   UNL d   1       1.302   2.976   0.060  0.00  0.00     0.049 C 
ATOM     14  C   UNL d   1       3.547  -1.456  -0.107  0.00  0.00     0.068 C 
ENDROOT
BRANCH   8  15
ATOM     15  N   UNL d   1      -3.470  -1.560  -0.211  0.00  0.00    -0.289 NA
ATOM     16  H   UNL d   1      -3.143  -2.522  -0.151  0.00  0.00     0.125 HD
ATOM     17  H   UNL d   1      -4.150  -1.347   0.509  0.00  0.00     0.125 HD
ENDBRANCH   8  15
TORSDOF 1
