REMARK  5 active torsions:
REMARK  status: ('A' for Active; 'I' for Inactive)
REMARK       I    between atoms: C_2  and  N_1 
REMARK    1  A    between atoms: C_3  and  N_1 
REMARK       I    between atoms: N_9  and  C_2 
REMARK    2  A    between atoms: C_8  and  C_3 
REMARK    3  A    between atoms: O_12  and  N_4 
REMARK    4  A    between atoms: S_7  and  C_8 
REMARK    5  A    between atoms: C_10  and  S_7 
ROOT
ATOM      1  C   UNL d   1       2.492   0.035   0.057  0.00  0.00     0.115 C 
ATOM      2  N   UNL d   1       1.209   0.051  -0.143  0.00  0.00    -0.256 N 
ATOM      3  HN  UNL d   1       0.772   0.394  -0.999  1.00  0.00     0.195 HD
ENDROOT
BRANCH   1   4
ATOM      4  N   UNL d   1       3.155  -0.251   1.242  0.00  0.00    -0.296 N 
ATOM      5  C   UNL d   1       2.759   0.018   2.531  0.00  0.00     0.319 C 
ATOM      6  O   UNL d   1       1.849   0.750   2.900  0.00  0.00    -0.247 OA
ATOM      7  N   UNL d   1       3.565  -0.575   3.460  0.00  0.00    -0.352 N 
ATOM      8  H   UNL d   1       4.499  -0.883   3.244  0.00  0.00     0.160 HD
ATOM      9  H   UNL d   1       3.371  -0.318   4.418  0.00  0.00     0.160 HD
ATOM     10  H   UNL d   1       4.147  -0.404   1.141  0.00  0.00     0.172 HD
ENDBRANCH   1   4
BRANCH   1  11
ATOM     11  C   UNL d   1       3.383   0.357  -1.147  0.00  0.00     0.158 C 
BRANCH  11  12
ATOM     12  S   UNL d   1       5.169   0.210  -0.784  0.00  0.00    -0.122 SA
BRANCH  12  13
ATOM     13  C   UNL d   1       5.885   0.657  -2.354  0.00  0.00     0.001 A 
ATOM     14  C   UNL d   1       5.622   1.885  -2.971  0.00  0.00     0.020 A 
ATOM     15  C   UNL d   1       6.275   2.233  -4.160  0.00  0.00     0.025 A 
ATOM     16  C   UNL d   1       7.196   1.356  -4.730  0.00  0.00     0.034 A 
ATOM     17  C   UNL d   1       7.465   0.131  -4.125  0.00  0.00     0.025 A 
ATOM     18 CL   UNL d   1       8.018   1.796  -6.175  0.00  0.00    -0.084 Cl
ATOM     19  C   UNL d   1       6.814  -0.214  -2.938  0.00  0.00     0.020 A 
ENDBRANCH  12  13
ENDBRANCH  11  12
ENDBRANCH   1  11
BRANCH   2  20
ATOM     20  O   UNL d   1       0.494  -0.453   0.946  0.00  0.00    -0.288 OA
ATOM     21  H   UNL d   1      -0.379  -0.029   0.853  0.00  0.00     0.244 HD
ENDBRANCH   2  20
TORSDOF 5
