REMARK  1 active torsions:
REMARK  status: ('A' for Active; 'I' for Inactive)
REMARK    1  A    between atoms: N_7  and  C_3 
ROOT
ATOM      1  N   UNL d   1      -1.408   0.539  -0.015  0.00  0.00    -0.289 N 
ATOM      2  C   UNL d   1      -0.771  -0.704  -0.014  0.00  0.00     0.332 A 
ATOM      3  C   UNL d   1      -0.725   1.744   0.032  0.00  0.00     0.114 A 
ATOM      4  N   UNL d   1       0.616  -0.684   0.005  0.00  0.00    -0.271 N 
ATOM      5  C   UNL d   1       0.614   1.727   0.010  0.00  0.00     0.123 A 
ATOM      6  C   UNL d   1       1.364   0.470  -0.027  0.00  0.00     0.254 A 
ATOM      7  O   UNL d   1      -1.403  -1.764  -0.036  0.00  0.00    -0.246 OA
ATOM      8  O   UNL d   1       2.591   0.508  -0.075  0.00  0.00    -0.268 OA
ATOM      9  C   UNL d   1      -2.862   0.544  -0.124  0.00  0.00     0.163 C 
ATOM     10  C   UNL d   1       1.343  -1.938   0.003  0.00  0.00     0.164 C 
ENDROOT
BRANCH   3  11
ATOM     11  N   UNL d   1      -1.359   2.982   0.103  0.00  0.00    -0.363 N 
ATOM     12  C   UNL d   1      -2.232   3.385   1.220  0.00  0.00     0.150 C 
ATOM     13  C   UNL d   1      -1.976   4.861   1.564  0.00  0.00     0.187 C 
ATOM     14  O   UNL d   1      -2.145   5.711   0.415  0.00  0.00    -0.388 OA
ATOM     15  C   UNL d   1      -1.245   5.319  -0.636  0.00  0.00     0.187 C 
ATOM     16  C   UNL d   1      -1.491   3.867  -1.068  0.00  0.00     0.150 C 
ENDBRANCH   3  11
TORSDOF 1
