REMARK  2 active torsions:
REMARK  status: ('A' for Active; 'I' for Inactive)
REMARK    1  A    between atoms: C_8  and  C_3 
REMARK    2  A    between atoms: C_9  and  C_6 
ROOT
ATOM      1  N   UNL d   1       1.292   0.161   0.008  0.00  0.00    -0.317 N 
ATOM      2  HN  UNL d   1       2.303   0.291   0.028  1.00  0.00     0.169 HD
ATOM      3  C   UNL d   1       0.296   1.124  -0.027  0.00  0.00     0.156 A 
ATOM      4  N   UNL d   1      -0.946   0.611  -0.053  0.00  0.00    -0.241 N 
ATOM      5  HN  UNL d   1      -1.833   1.114  -0.084  1.00  0.00     0.196 HD
ATOM      6  C   UNL d   1       0.608  -0.962   0.009  0.00  0.00     0.182 A 
ATOM      7  O   UNL d   1      -0.742  -0.763  -0.029  0.00  0.00    -0.217 OA
ENDROOT
BRANCH   3   8
ATOM      8  C   UNL d   1       0.589   2.554  -0.031  0.00  0.00     0.094 A 
ATOM      9  N   UNL d   1      -0.454   3.430  -0.054  0.00  0.00    -0.360 N 
ATOM     10  C   UNL d   1      -0.127   4.742  -0.059  0.00  0.00     0.105 A 
ATOM     11  HN  UNL d   1      -1.424   3.115  -0.067  1.00  0.00     0.165 HD
ATOM     12  C   UNL d   1       1.186   5.182  -0.042  0.00  0.00     0.104 A 
ATOM     13  N   UNL d   1       2.233   4.328  -0.017  0.00  0.00    -0.372 N 
ATOM     14  C   UNL d   1       1.904   3.009  -0.011  0.00  0.00     0.121 A 
ATOM     15  HN  UNL d   1       3.201   4.650  -0.004  1.00  0.00     0.164 HD
ENDBRANCH   3   8
BRANCH   6  16
ATOM     16  C   UNL d   1       1.071  -2.345   0.075  0.00  0.00     0.017 A 
ATOM     17  C   UNL d   1       2.447  -2.616   0.149  0.00  0.00     0.017 A 
ATOM     18  C   UNL d   1       2.915  -3.930   0.253  0.00  0.00     0.025 A 
ATOM     19  C   UNL d   1       2.008  -4.987   0.280  0.00  0.00     0.034 A 
ATOM     20  C   UNL d   1       0.641  -4.742   0.192  0.00  0.00     0.025 A 
ATOM     21 CL   UNL d   1       2.579  -6.602   0.432  0.00  0.00    -0.084 Cl
ATOM     22  C   UNL d   1       0.175  -3.426   0.088  0.00  0.00     0.017 A 
ENDBRANCH   6  16
TORSDOF 2
