REMARK  3 active torsions:
REMARK  status: ('A' for Active; 'I' for Inactive)
REMARK    1  A    between atoms: C_2  and  C_1 
REMARK       I    between atoms: N_3  and  C_1 
REMARK    2  A    between atoms: N_5  and  N_3 
REMARK    3  A    between atoms: C_10  and  N_5 
ROOT
ATOM      1  C   UNL d   1       0.684  -0.015   0.688  0.00  0.00     0.273 C 
ATOM      2  N   UNL d   1       0.295  -1.244   0.175  0.00  0.00    -0.282 N 
ATOM      3  O   UNL d   1      -0.091   0.945   0.698  0.00  0.00    -0.266 OA
ATOM      4  H   UNL d   1       1.006  -1.903  -0.125  0.00  0.00     0.184 HD
ENDROOT
BRANCH   2   5
ATOM      5  N   UNL d   1      -0.934  -1.314  -0.502  0.00  0.00    -0.203 NA
ATOM      6  H   UNL d   1      -1.490  -0.460  -0.361  0.00  0.00     0.153 HD
BRANCH   5   7
ATOM      7  C   UNL d   1      -1.708  -2.473  -0.241  0.00  0.00     0.027 A 
ATOM      8  C   UNL d   1      -1.212  -3.614   0.405  0.00  0.00     0.025 A 
ATOM      9  C   UNL d   1      -1.999  -4.764   0.540  0.00  0.00     0.002 A 
ATOM     10  C   UNL d   1      -3.285  -4.800   0.010  0.00  0.00     0.000 A 
ATOM     11  C   UNL d   1      -3.787  -3.684  -0.654  0.00  0.00     0.002 A 
ATOM     12  C   UNL d   1      -3.003  -2.533  -0.781  0.00  0.00     0.025 A 
ENDBRANCH   5   7
ENDBRANCH   2   5
BRANCH   1  13
ATOM     13  C   UNL d   1       2.048   0.062   1.194  0.00  0.00     0.073 A 
ATOM     14  S   UNL d   1       3.042  -1.325   1.371  0.00  0.00    -0.097 SA
ATOM     15  C   UNL d   1       4.316  -0.414   2.057  0.00  0.00     0.050 A 
ATOM     16  C   UNL d   1       4.014   0.927   2.121  0.00  0.00     0.009 A 
ATOM     17  C   UNL d   1       2.710   1.202   1.618  0.00  0.00     0.025 A 
ENDBRANCH   1  13
TORSDOF 3
