REMARK  6 active torsions:
REMARK  status: ('A' for Active; 'I' for Inactive)
REMARK    1  A    between atoms: C_2  and  S_1 
REMARK    2  A    between atoms: N_10  and  S_1 
REMARK    3  A    between atoms: C_13  and  N_10 
REMARK    4  A    between atoms: C_11  and  C_13 
REMARK       I    between atoms: N_18  and  C_11 
REMARK       I    between atoms: C_12  and  N_14 
REMARK    5  A    between atoms: C_19  and  C_12 
REMARK    6  A    between atoms: N_14  and  N_18 
ROOT
ATOM      1  N   UNL d   1       0.228   0.827   1.340  0.00  0.00    -0.207 NA
ATOM      2  H   UNL d   1      -0.789   0.693   1.292  0.00  0.00     0.140 HD
ENDROOT
BRANCH   1   3
ATOM      3  S   UNL d   1       0.938  -0.068   0.080  0.00  0.00     0.244 S 
ATOM      4  O   UNL d   1       0.341   0.360  -1.164  0.00  0.00    -0.206 OA
ATOM      5  O   UNL d   1       2.370  -0.052   0.282  0.00  0.00    -0.206 OA
BRANCH   3   6
ATOM      6  C   UNL d   1       0.369  -1.699   0.403  0.00  0.00     0.104 A 
ATOM      7  C   UNL d   1      -1.009  -1.989   0.507  0.00  0.00     0.089 A 
ATOM      8  N   UNL d   1      -2.033  -1.123   0.416  0.00  0.00    -0.309 N 
ATOM      9  C   UNL d   1      -1.462  -3.396   0.800  0.00  0.00     0.068 A 
ATOM     10  S   UNL d   1      -3.428  -2.016   0.559  0.00  0.00     0.068 SA
ATOM     11  HN  UNL d   1      -1.967  -0.114   0.284  1.00  0.00     0.176 HD
ATOM     12  N   UNL d   1      -2.796  -3.522   0.852  0.00  0.00    -0.310 N 
ATOM     13  HN  UNL d   1      -3.321  -4.377   1.036  1.00  0.00     0.176 HD
ATOM     14  C   UNL d   1      -0.523  -4.437   0.999  0.00  0.00     0.032 A 
ATOM     15  C   UNL d   1       0.834  -4.080   0.903  0.00  0.00     0.004 A 
ATOM     16  C   UNL d   1       1.267  -2.766   0.610  0.00  0.00     0.027 A 
ENDBRANCH   3   6
ENDBRANCH   1   3
BRANCH   1  17
ATOM     17  C   UNL d   1       0.830   0.599   2.674  0.00  0.00     0.208 C 
BRANCH  17  18
ATOM     18  C   UNL d   1       0.346   1.523   3.775  0.00  0.00     0.249 C 
ATOM     19  N   UNL d   1      -0.583   2.468   3.406  0.00  0.00    -0.266 N 
ATOM     20  H   UNL d   1      -1.020   2.486   2.486  0.00  0.00     0.190 HD
ATOM     21  O   UNL d   1       0.767   1.431   4.930  0.00  0.00    -0.270 OA
BRANCH  19  22
ATOM     22  N   UNL d   1      -1.149   3.263   4.405  0.00  0.00    -0.263 N 
ATOM     23  C   UNL d   1      -2.465   3.654   4.278  0.00  0.00     0.270 C 
ATOM     24  O   UNL d   1      -3.145   3.395   3.288  0.00  0.00    -0.266 OA
ATOM     25  H   UNL d   1      -0.558   3.475   5.204  0.00  0.00     0.190 HD
BRANCH  23  26
ATOM     26  C   UNL d   1      -3.030   4.451   5.402  0.00  0.00     0.033 A 
ATOM     27  C   UNL d   1      -4.045   5.373   5.115  0.00  0.00     0.019 A 
ATOM     28  C   UNL d   1      -4.611   6.140   6.137  0.00  0.00     0.025 A 
ATOM     29  C   UNL d   1      -4.172   5.977   7.451  0.00  0.00     0.034 A 
ATOM     30  C   UNL d   1      -3.168   5.054   7.748  0.00  0.00     0.025 A 
ATOM     31 CL   UNL d   1      -4.879   6.909   8.711  0.00  0.00    -0.084 Cl
ATOM     32  C   UNL d   1      -2.596   4.289   6.727  0.00  0.00     0.019 A 
ENDBRANCH  23  26
ENDBRANCH  19  22
ENDBRANCH  17  18
ENDBRANCH   1  17
TORSDOF 6
