REMARK  5 active torsions:
REMARK  status: ('A' for Active; 'I' for Inactive)
REMARK    1  A    between atoms: C_2  and  S_1 
REMARK    2  A    between atoms: O_7  and  S_1 
REMARK    3  A    between atoms: C_10  and  C_4 
REMARK    4  A    between atoms: C_13  and  O_7 
REMARK    5  A    between atoms: O_19  and  C_14 
ROOT
ATOM      1  C   UNL d   1       0.415   0.442  -1.769  0.00  0.00     0.128 A 
ATOM      2  S   UNL d   1      -1.166   1.073  -1.874  0.00  0.00    -0.074 SA
ATOM      3  C   UNL d   1      -1.100   1.202  -3.587  0.00  0.00     0.033 A 
ATOM      4  C   UNL d   1       0.982   0.291  -3.020  0.00  0.00     0.035 A 
ATOM      5  C   UNL d   1       0.111   0.725  -4.061  0.00  0.00     0.023 A 
ENDROOT
BRANCH   1   6
ATOM      6  S   UNL d   1       1.028   0.098  -0.132  0.00  0.00     0.309 S 
ATOM      7  O   UNL d   1       0.437   1.079   0.753  0.00  0.00    -0.192 OA
ATOM      8  O   UNL d   1       2.463  -0.024  -0.302  0.00  0.00    -0.192 OA
BRANCH   6   9
ATOM      9  O   UNL d   1       0.376  -1.374   0.135  0.00  0.00    -0.229 OA
BRANCH   9  10
ATOM     10  C   UNL d   1       0.663  -2.095   1.268  0.00  0.00     0.089 A 
ATOM     11  C   UNL d   1       1.391  -1.621   2.358  0.00  0.00     0.041 A 
ATOM     12  C   UNL d   1       1.635  -2.446   3.464  0.00  0.00     0.039 A 
ATOM     13  C   UNL d   1       1.154  -3.753   3.488  0.00  0.00     0.068 A 
ATOM     14  C   UNL d   1       0.410  -4.221   2.403  0.00  0.00     0.039 A 
ATOM     15  C   UNL d   1       0.165  -3.399   1.298  0.00  0.00     0.041 A 
BRANCH  13  16
ATOM     16  O   UNL d   1       1.339  -4.658   4.497  0.00  0.00    -0.356 OA
ATOM     17  C   UNL d   1       2.148  -4.241   5.591  0.00  0.00     0.210 C 
ENDBRANCH  13  16
ENDBRANCH   9  10
ENDBRANCH   6   9
ENDBRANCH   1   6
BRANCH   3  18
ATOM     18  C   UNL d   1      -2.251   1.701  -4.354  0.00  0.00     0.049 A 
ATOM     19  N   UNL d   1      -2.338   1.199  -5.611  0.00  0.00    -0.365 N 
ATOM     20  C   UNL d   1      -3.413   1.555  -6.349  0.00  0.00     0.088 A 
ATOM     21  HN  UNL d   1      -1.620   0.578  -5.985  1.00  0.00     0.165 HD
ATOM     22  C   UNL d   1      -4.412   2.401  -5.900  0.00  0.00     0.017 A 
ATOM     23  C   UNL d   1      -4.293   2.935  -4.623  0.00  0.00     0.004 A 
ATOM     24  C   UNL d   1      -3.195   2.588  -3.839  0.00  0.00     0.031 A 
ENDBRANCH   3  18
TORSDOF 5
