REMARK  5 active torsions:
REMARK  status: ('A' for Active; 'I' for Inactive)
REMARK    1  A    between atoms: C_2  and  S_1 
REMARK    2  A    between atoms: C_6  and  S_1 
REMARK    3  A    between atoms: N_9  and  C_3 
REMARK    4  A    between atoms: C_16  and  N_9 
REMARK    5  A    between atoms: C_17  and  C_16 
ROOT
ATOM      1  C   UNL d   1       0.498  -0.439   1.634  0.00  0.00     0.159 C 
ATOM      2  C   UNL d   1      -0.332   0.391   2.290  0.00  0.00     0.118 C 
ATOM      3  C   UNL d   1       1.040  -0.131   0.369  0.00  0.00     0.113 C 
ATOM      4  N   UNL d   1       1.484   0.141  -0.670  0.00  0.00    -0.191 NA
ENDROOT
BRANCH   1   5
ATOM      5  S   UNL d   1       0.851  -1.990   2.316  0.00  0.00     0.218 S 
ATOM      6  O   UNL d   1       0.047  -3.001   1.652  0.00  0.00    -0.216 OA
ATOM      7  O   UNL d   1       0.846  -1.912   3.768  0.00  0.00    -0.216 OA
BRANCH   5   8
ATOM      8  C   UNL d   1       2.551  -2.298   1.849  0.00  0.00     0.065 A 
ATOM      9  C   UNL d   1       3.587  -1.870   2.687  0.00  0.00     0.025 A 
ATOM     10  C   UNL d   1       4.912  -2.129   2.327  0.00  0.00     0.020 A 
ATOM     11  C   UNL d   1       5.189  -2.816   1.143  0.00  0.00     0.011 A 
ATOM     12  C   UNL d   1       4.155  -3.255   0.317  0.00  0.00     0.020 A 
ATOM     13 BR   UNL d   1       6.984  -3.163   0.660  0.00  0.00    -0.051 Br
ATOM     14  C   UNL d   1       2.828  -3.005   0.673  0.00  0.00     0.025 A 
ENDBRANCH   5   8
ENDBRANCH   1   5
BRANCH   2  15
ATOM     15  N   UNL d   1      -0.723   1.664   1.929  0.00  0.00    -0.393 N 
ATOM     16  H   UNL d   1      -0.298   2.068   1.094  0.00  0.00     0.159 HD
BRANCH  15  17
ATOM     17  C   UNL d   1      -1.730   2.491   2.587  0.00  0.00     0.076 C 
ATOM     18  C   UNL d   1      -2.428   3.326   1.509  0.00  0.00     0.032 C 
BRANCH  17  19
ATOM     19  C   UNL d   1      -1.089   3.419   3.629  0.00  0.00     0.020 C 
ATOM     20  C   UNL d   1      -0.435   2.680   4.788  0.00  0.00     0.007 C 
ENDBRANCH  17  19
ENDBRANCH  15  17
ENDBRANCH   2  15
TORSDOF 5
