REMARK  3 active torsions:
REMARK  status: ('A' for Active; 'I' for Inactive)
REMARK    1  A    between atoms: C_13  and  C_5 
REMARK    2  A    between atoms: C_14  and  C_6 
REMARK    3  A    between atoms: C_15  and  C_7 
ROOT
ATOM      1  N   UNL d   1       0.158  -0.655  -0.031  0.00  0.00    -0.210 N 
ATOM      2  C   UNL d   1       0.263   0.694  -0.030  0.00  0.00     0.156 A 
ATOM      3  N   UNL d   1      -0.979  -1.385  -0.031  0.00  0.00    -0.288 N 
ATOM      4  HN  UNL d   1      -0.964  -2.405  -0.018  1.00  0.00     0.188 HD
ATOM      5  C   UNL d   1      -0.989   1.481  -0.045  0.00  0.00     0.035 A 
ATOM      6  C   UNL d   1      -2.162   0.806  -0.057  0.00  0.00     0.018 A 
ATOM      7  C   UNL d   1      -2.094  -0.712  -0.050  0.00  0.00     0.071 A 
ATOM      8  C   UNL d   1       1.444  -1.143   0.003  0.00  0.00     0.214 A 
ATOM      9  N   UNL d   1       1.489   1.134  -0.008  0.00  0.00    -0.281 N 
ATOM     10  HN  UNL d   1       1.807   2.103  -0.005  1.00  0.00     0.188 HD
ATOM     11  N   UNL d   1       2.258  -0.007   0.011  0.00  0.00    -0.273 N 
ATOM     12  S   UNL d   1       2.006  -2.700   0.036  0.00  0.00    -0.037 SA
ATOM     13  H   UNL d   1       3.270   0.021   0.041  0.00  0.00     0.189 HD
ENDROOT
BRANCH   5  14
ATOM     14  C   UNL d   1      -0.914   2.954  -0.029  0.00  0.00    -0.021 A 
ATOM     15  C   UNL d   1      -0.923   3.658   1.185  0.00  0.00     0.012 A 
ATOM     16  C   UNL d   1      -0.970   5.053   1.185  0.00  0.00     0.001 A 
ATOM     17  C   UNL d   1      -1.003   5.753  -0.021  0.00  0.00     0.000 A 
ATOM     18  C   UNL d   1      -0.970   5.061  -1.231  0.00  0.00     0.001 A 
ATOM     19  C   UNL d   1      -0.917   3.667  -1.236  0.00  0.00     0.012 A 
ENDBRANCH   5  14
BRANCH   6  20
ATOM     20  C   UNL d   1      -3.436   1.552  -0.015  0.00  0.00    -0.023 A 
ATOM     21  C   UNL d   1      -3.993   2.063  -1.200  0.00  0.00     0.012 A 
ATOM     22  C   UNL d   1      -5.212   2.742  -1.172  0.00  0.00     0.001 A 
ATOM     23  C   UNL d   1      -5.863   2.947   0.041  0.00  0.00     0.000 A 
ATOM     24  C   UNL d   1      -5.298   2.480   1.228  0.00  0.00     0.001 A 
ATOM     25  C   UNL d   1      -4.089   1.781   1.202  0.00  0.00     0.012 A 
ENDBRANCH   6  20
BRANCH   7  26
ATOM     26  C   UNL d   1      -3.360  -1.517  -0.005  0.00  0.00    -0.007 A 
ATOM     27  C   UNL d   1      -4.487  -1.219  -0.776  0.00  0.00     0.014 A 
ATOM     28  C   UNL d   1      -5.666  -1.955  -0.632  0.00  0.00     0.001 A 
ATOM     29  C   UNL d   1      -5.705  -3.046   0.231  0.00  0.00     0.000 A 
ATOM     30  C   UNL d   1      -4.561  -3.411   0.938  0.00  0.00     0.001 A 
ATOM     31  C   UNL d   1      -3.395  -2.649   0.824  0.00  0.00     0.014 A 
ENDBRANCH   7  26
TORSDOF 3
