REMARK  6 active torsions:
REMARK  status: ('A' for Active; 'I' for Inactive)
REMARK    1  A    between atoms: C_2  and  C_1 
REMARK    2  A    between atoms: C_21  and  N_3 
REMARK    3  A    between atoms: S_14  and  C_9 
REMARK    4  A    between atoms: C_17  and  S_14 
REMARK    5  A    between atoms: C_15  and  C_17 
REMARK    6  A    between atoms: C_16  and  C_15 
ROOT
ATOM      1  C   UNL d   1      -0.982  -2.581  -0.025  0.00  0.00     0.193 A 
ATOM      2  O   UNL d   1      -1.719  -3.082  -1.071  0.00  0.00    -0.266 OA
ATOM      3  N   UNL d   1      -0.759  -3.498   0.896  0.00  0.00    -0.275 N 
ATOM      4  HN  UNL d   1      -0.244  -3.372   1.767  1.00  0.00     0.189 HD
ATOM      5  C   UNL d   1      -1.902  -4.389  -0.712  0.00  0.00     0.204 A 
ATOM      6  N   UNL d   1      -1.358  -4.664   0.456  0.00  0.00    -0.272 N 
ATOM      7  HN  UNL d   1      -1.376  -5.561   0.941  1.00  0.00     0.189 HD
ENDROOT
BRANCH   5   8
ATOM      8  S   UNL d   1      -2.739  -5.524  -1.720  0.00  0.00    -0.077 SA
BRANCH   8   9
ATOM      9  C   UNL d   1      -2.673  -7.030  -0.695  0.00  0.00     0.166 C 
BRANCH   9  10
ATOM     10  C   UNL d   1      -3.337  -8.206  -1.401  0.00  0.00     0.169 C 
ATOM     11  O   UNL d   1      -3.836  -8.127  -2.522  0.00  0.00    -0.291 OA
BRANCH  10  12
ATOM     12  C   UNL d   1      -3.398  -9.528  -0.697  0.00  0.00     0.011 A 
ATOM     13  C   UNL d   1      -2.872  -9.743   0.580  0.00  0.00     0.015 A 
ATOM     14  C   UNL d   1      -2.969 -11.007   1.182  0.00  0.00     0.007 A 
ATOM     15  C   UNL d   1      -3.594 -12.072   0.515  0.00  0.00    -0.062 A 
ATOM     16  C   UNL d   1      -4.114 -11.858  -0.764  0.00  0.00     0.007 A 
ATOM     17  C   UNL d   1      -3.695 -13.418   1.170  0.00  0.00     0.048 C 
ATOM     18  C   UNL d   1      -4.017 -10.599  -1.363  0.00  0.00     0.015 A 
ENDBRANCH  10  12
ENDBRANCH   9  10
ENDBRANCH   8   9
ENDBRANCH   5   8
BRANCH   1  19
ATOM     19  C   UNL d   1      -0.538  -1.227   0.030  0.00  0.00     0.105 A 
ATOM     20  N   UNL d   1       0.551  -0.750   0.718  0.00  0.00    -0.288 N 
ATOM     21  N   UNL d   1       0.735   0.582   0.552  0.00  0.00    -0.303 N 
ATOM     22  C   UNL d   1      -0.249   0.956  -0.271  0.00  0.00     0.024 A 
ATOM     23  HN  UNL d   1       1.462   1.167   0.963  1.00  0.00     0.186 HD
ATOM     24  C   UNL d   1      -1.075  -0.132  -0.616  0.00  0.00     0.061 A 
ATOM     25  C   UNL d   1      -0.360   2.364  -0.725  0.00  0.00     0.070 C 
BRANCH  20  26
ATOM     26  C   UNL d   1       1.581  -1.492   1.426  0.00  0.00     0.145 C 
ATOM     27  C   UNL d   1       1.329  -1.626   2.918  0.00  0.00     0.028 C 
ENDBRANCH  20  26
ENDBRANCH   1  19
TORSDOF 6
