REMARK  3 active torsions:
REMARK  status: ('A' for Active; 'I' for Inactive)
REMARK    1  A    between atoms: C_2  and  N_1 
REMARK    2  A    between atoms: C_7  and  C_3 
REMARK    3  A    between atoms: O_8  and  C_7 
ROOT
ATOM      1  C   UNL d   1      -2.514   0.080  -1.052  0.00  0.00     0.038 A 
ATOM      2  C   UNL d   1      -2.654   0.725  -2.309  0.00  0.00    -0.008 A 
ATOM      3  C   UNL d   1      -3.669  -0.527  -0.515  0.00  0.00     0.030 A 
ATOM      4  C   UNL d   1      -3.912   0.742  -2.954  0.00  0.00     0.011 A 
ATOM      5  C   UNL d   1      -4.897  -0.535  -1.183  0.00  0.00     0.002 A 
ATOM      6  C   UNL d   1      -5.017   0.096  -2.410  0.00  0.00     0.001 A 
ENDROOT
BRANCH   1   7
ATOM      7  N   UNL d   1      -1.287  -0.052  -0.416  0.00  0.00    -0.376 N 
ATOM      8  C   UNL d   1      -1.029  -1.190   0.489  0.00  0.00     0.149 C 
ATOM      9  C   UNL d   1       0.468  -1.535   0.411  0.00  0.00     0.187 C 
ATOM     10  O   UNL d   1       1.294  -0.404   0.744  0.00  0.00    -0.388 OA
ATOM     11  C   UNL d   1       1.012   0.703  -0.128  0.00  0.00     0.187 C 
ATOM     12  C   UNL d   1      -0.471   1.120  -0.044  0.00  0.00     0.149 C 
ENDBRANCH   1   7
BRANCH   2  13
ATOM     13  C   UNL d   1      -1.495   1.409  -3.004  0.00  0.00     0.205 C 
BRANCH  13  14
ATOM     14  O   UNL d   1      -1.611   1.398  -4.425  0.00  0.00    -0.396 OA
ATOM     15  H   UNL d   1      -1.792   0.472  -4.668  0.00  0.00     0.209 HD
ENDBRANCH  13  14
ENDBRANCH   2  13
TORSDOF 3
