REMARK  3 active torsions:
REMARK  status: ('A' for Active; 'I' for Inactive)
REMARK    1  A    between atoms: C_7  and  C_3 
REMARK    2  A    between atoms: C_6  and  C_7 
REMARK       I    between atoms: N_8  and  C_6 
REMARK    3  A    between atoms: C_12  and  N_8 
ROOT
ATOM      1  C   UNL d   1      -3.124  -2.677   0.186  0.00  0.00     0.226 C 
ATOM      2  N   UNL d   1      -3.896  -1.599  -0.214  0.00  0.00    -0.327 N 
ATOM      3  O   UNL d   1      -3.566  -3.749   0.600  0.00  0.00    -0.273 OA
ATOM      4  H   UNL d   1      -3.461  -0.914  -0.821  0.00  0.00     0.169 HD
ENDROOT
BRANCH   1   5
ATOM      5  C   UNL d   1      -1.625  -2.435   0.170  0.00  0.00     0.143 C 
BRANCH   5   6
ATOM      6  C   UNL d   1      -1.051  -2.032  -1.159  0.00  0.00    -0.023 A 
ATOM      7  C   UNL d   1      -0.467  -0.820  -1.480  0.00  0.00     0.059 A 
ATOM      8  S   UNL d   1       0.188  -0.764  -3.047  0.00  0.00    -0.075 SA
ATOM      9 BR   UNL d   1      -0.348   0.660  -0.327  0.00  0.00    -0.042 Br
ATOM     10  C   UNL d   1      -0.293  -2.357  -3.347  0.00  0.00     0.053 A 
ATOM     11 BR   UNL d   1       0.066  -3.250  -4.952  0.00  0.00    -0.043 Br
ATOM     12  C   UNL d   1      -0.957  -2.927  -2.288  0.00  0.00     0.036 A 
ENDBRANCH   5   6
ENDBRANCH   1   5
BRANCH   2  13
ATOM     13  C   UNL d   1      -5.288  -1.476  -0.005  0.00  0.00     0.034 A 
ATOM     14  C   UNL d   1      -5.965  -2.183   0.996  0.00  0.00     0.031 A 
ATOM     15  C   UNL d   1      -7.342  -2.020   1.179  0.00  0.00     0.026 A 
ATOM     16  C   UNL d   1      -8.051  -1.155   0.354  0.00  0.00     0.034 A 
ATOM     17  C   UNL d   1      -7.389  -0.431  -0.636  0.00  0.00     0.026 A 
ATOM     18 CL   UNL d   1      -9.750  -0.978   0.557  0.00  0.00    -0.084 Cl
ATOM     19  C   UNL d   1      -6.006  -0.579  -0.804  0.00  0.00     0.031 A 
ENDBRANCH   2  13
TORSDOF 3
