REMARK  5 active torsions:
REMARK  status: ('A' for Active; 'I' for Inactive)
REMARK    1  A    between atoms: C_3  and  C_1 
REMARK    2  A    between atoms: N_14  and  C_3 
REMARK    3  A    between atoms: O_9  and  N_4 
REMARK    4  A    between atoms: C_6  and  O_9 
REMARK    5  A    between atoms: C_13  and  C_6 
ROOT
ATOM      1  C   UNL d   1       2.091   0.534  -1.800  0.00  0.00     0.127 C 
ATOM      2  N   UNL d   1       1.263   1.121  -2.609  0.00  0.00    -0.243 N 
ATOM      3  HN  UNL d   1       1.358   1.119  -3.625  1.00  0.00     0.196 HD
ENDROOT
BRANCH   1   4
ATOM      4  C   UNL d   1       3.274  -0.230  -2.447  0.00  0.00     0.222 C 
ATOM      5  O   UNL d   1       4.172  -0.792  -1.486  0.00  0.00    -0.333 OA
ATOM      6  C   UNL d   1       3.756  -2.020  -1.040  0.00  0.00     0.103 A 
ATOM      7  C   UNL d   1       4.381  -2.509   0.106  0.00  0.00     0.040 A 
ATOM      8  C   UNL d   1       2.736  -2.755  -1.649  0.00  0.00     0.102 A 
ATOM      9  C   UNL d   1       3.954  -3.712   0.669  0.00  0.00     0.003 A 
ATOM     10  C   UNL d   1       2.908  -4.426   0.083  0.00  0.00     0.003 A 
ATOM     11  C   UNL d   1       2.302  -3.949  -1.080  0.00  0.00     0.039 A 
ATOM     12  O   UNL d   1       2.099  -2.356  -2.793  0.00  0.00    -0.345 OA
ATOM     13  C   UNL d   1       2.790  -1.282  -3.442  0.00  0.00     0.216 C 
ENDBRANCH   1   4
BRANCH   1  14
ATOM     14  N   UNL d   1       2.012   0.587  -0.427  0.00  0.00    -0.385 N 
ATOM     15  H   UNL d   1       2.866   0.377   0.078  0.00  0.00     0.157 HD
ATOM     16  H   UNL d   1       1.468   1.356  -0.057  0.00  0.00     0.157 HD
ENDBRANCH   1  14
BRANCH   2  17
ATOM     17  O   UNL d   1       0.219   1.762  -1.915  0.00  0.00    -0.193 OA
BRANCH  17  18
ATOM     18  C   UNL d   1      -0.622   2.356  -2.813  0.00  0.00     0.315 C 
ATOM     19  O   UNL d   1      -0.514   2.396  -4.031  0.00  0.00    -0.257 OA
BRANCH  18  20
ATOM     20  C   UNL d   1      -1.704   3.065  -2.087  0.00  0.00     0.041 A 
ATOM     21  C   UNL d   1      -2.167   2.654  -0.831  0.00  0.00     0.017 A 
ATOM     22  C   UNL d   1      -3.194   3.364  -0.203  0.00  0.00     0.001 A 
ATOM     23  C   UNL d   1      -3.758   4.480  -0.824  0.00  0.00     0.000 A 
ATOM     24  C   UNL d   1      -3.306   4.885  -2.079  0.00  0.00     0.001 A 
ATOM     25  C   UNL d   1      -2.286   4.176  -2.713  0.00  0.00     0.017 A 
ENDBRANCH  18  20
ENDBRANCH  17  18
ENDBRANCH   2  17
TORSDOF 5
