REMARK  6 active torsions:
REMARK  status: ('A' for Active; 'I' for Inactive)
REMARK    1  A    between atoms: C_3  and  N_1 
REMARK    2  A    between atoms: S_12  and  C_2 
REMARK    3  A    between atoms: O_19  and  C_4 
REMARK    4  A    between atoms: C_10  and  C_5 
REMARK    5  A    between atoms: C_11  and  C_13 
REMARK    6  A    between atoms: C_13  and  S_12 
ROOT
ATOM      1  N   UNL d   1      -0.163  -1.315  -0.079  0.00  0.00    -0.254 N 
ATOM      2  C   UNL d   1       1.093  -0.715  -0.176  0.00  0.00     0.169 A 
ATOM      3  C   UNL d   1      -1.032  -0.253  -0.295  0.00  0.00     0.245 A 
ATOM      4  N   UNL d   1       0.967   0.586  -0.314  0.00  0.00    -0.276 N 
ATOM      5  HN  UNL d   1       1.730   1.260  -0.363  1.00  0.00     0.189 HD
ATOM      6  N   UNL d   1      -0.369   0.875  -0.381  0.00  0.00    -0.263 N 
ATOM      7  HN  UNL d   1      -0.778   1.805  -0.481  1.00  0.00     0.190 HD
ENDROOT
BRANCH   1   8
ATOM      8  C   UNL d   1      -0.493  -2.693   0.125  0.00  0.00     0.060 A 
ATOM      9  C   UNL d   1      -1.512  -3.130   1.006  0.00  0.00     0.075 A 
ATOM     10  C   UNL d   1      -1.735  -4.524   1.130  0.00  0.00     0.018 A 
ATOM     11  C   UNL d   1      -0.964  -5.456   0.440  0.00  0.00     0.001 A 
ATOM     12  C   UNL d   1       0.030  -5.018  -0.420  0.00  0.00     0.002 A 
ATOM     13  C   UNL d   1       0.251  -3.651  -0.589  0.00  0.00     0.031 A 
BRANCH   9  14
ATOM     14  C   UNL d   1      -2.395  -2.251   1.869  0.00  0.00     0.419 C 
ATOM     15  F   UNL d   1      -1.834  -1.071   2.225  0.00  0.00    -0.166 F 
ATOM     16  F   UNL d   1      -3.560  -1.961   1.228  0.00  0.00    -0.166 F 
ATOM     17  F   UNL d   1      -2.759  -2.848   3.039  0.00  0.00    -0.166 F 
ENDBRANCH   9  14
ENDBRANCH   1   8
BRANCH   2  18
ATOM     18  S   UNL d   1       2.621  -1.534  -0.038  0.00  0.00    -0.087 SA
BRANCH  18  19
ATOM     19  C   UNL d   1       3.777  -0.152   0.204  0.00  0.00     0.126 C 
BRANCH  19  20
ATOM     20  C   UNL d   1       5.218  -0.606   0.137  0.00  0.00     0.012 A 
ATOM     21  C   UNL d   1       5.970  -0.331  -1.016  0.00  0.00     0.125 A 
ATOM     22  F   UNL d   1       5.399   0.316  -2.043  0.00  0.00    -0.205 F 
ATOM     23  C   UNL d   1       7.304  -0.713  -1.138  0.00  0.00     0.043 A 
ATOM     24  C   UNL d   1       7.927  -1.390  -0.099  0.00  0.00     0.005 A 
ATOM     25  C   UNL d   1       7.204  -1.685   1.058  0.00  0.00     0.024 A 
ATOM     26  C   UNL d   1       5.863  -1.295   1.175  0.00  0.00     0.044 A 
ATOM     27 CL   UNL d   1       5.050  -1.696   2.647  0.00  0.00    -0.084 Cl
ENDBRANCH  19  20
ENDBRANCH  18  19
ENDBRANCH   2  18
BRANCH   3  28
ATOM     28  O   UNL d   1      -2.342  -0.316  -0.493  0.00  0.00    -0.331 OA
ATOM     29  H   UNL d   1      -2.608  -1.225  -0.700  0.00  0.00     0.221 HD
ENDBRANCH   3  28
TORSDOF 6
