REMARK  3 active torsions:
REMARK  status: ('A' for Active; 'I' for Inactive)
REMARK    1  A    between atoms: N_8  and  C_4 
REMARK    2  A    between atoms: C_12  and  C_5 
REMARK    3  A    between atoms: C_11  and  N_8 
ROOT
ATOM      1  C   UNL d   1       0.749   1.202  -0.380  0.00  0.00     0.071 C 
ATOM      2  C   UNL d   1       1.488  -0.063  -0.141  0.00  0.00     0.165 C 
ATOM      3  C   UNL d   1      -0.723   1.259  -0.194  0.00  0.00     0.165 C 
ATOM      4  C   UNL d   1       1.342   2.249  -0.975  0.00  0.00     0.107 C 
ATOM      5  C   UNL d   1      -0.728  -1.208   0.369  0.00  0.00     0.033 C 
ATOM      6  C   UNL d   1      -1.467  -0.051  -0.316  0.00  0.00     0.093 C 
ATOM      7  C   UNL d   1       0.688  -1.341  -0.217  0.00  0.00     0.093 C 
ATOM      8  O   UNL d   1      -1.322   2.322  -0.050  0.00  0.00    -0.292 OA
ATOM      9  O   UNL d   1       2.713  -0.084  -0.017  0.00  0.00    -0.292 OA
ENDROOT
BRANCH   4  10
ATOM     10  N   UNL d   1       2.651   2.379  -1.366  0.00  0.00    -0.363 N 
ATOM     11  H   UNL d   1       3.298   1.659  -1.025  0.00  0.00     0.165 HD
BRANCH  10  12
ATOM     12  C   UNL d   1       3.227   3.372  -2.184  0.00  0.00     0.053 A 
ATOM     13  C   UNL d   1       4.620   3.587  -2.172  0.00  0.00     0.060 A 
ATOM     14 CL   UNL d   1       5.665   2.576  -1.233  0.00  0.00    -0.082 Cl
ATOM     15  C   UNL d   1       5.200   4.623  -2.912  0.00  0.00     0.026 A 
ATOM     16  C   UNL d   1       4.398   5.463  -3.683  0.00  0.00     0.002 A 
ATOM     17  C   UNL d   1       3.020   5.255  -3.723  0.00  0.00     0.002 A 
ATOM     18  C   UNL d   1       2.445   4.224  -2.980  0.00  0.00     0.031 A 
ENDBRANCH  10  12
ENDBRANCH   4  10
BRANCH   5  19
ATOM     19  C   UNL d   1      -0.761  -1.215   1.895  0.00  0.00    -0.053 A 
ATOM     20  C   UNL d   1      -1.427  -0.242   2.658  0.00  0.00     0.007 A 
ATOM     21  C   UNL d   1      -1.487  -0.334   4.052  0.00  0.00     0.001 A 
ATOM     22  C   UNL d   1      -0.884  -1.398   4.713  0.00  0.00     0.000 A 
ATOM     23  C   UNL d   1      -0.224  -2.377   3.980  0.00  0.00     0.001 A 
ATOM     24  C   UNL d   1      -0.172  -2.291   2.587  0.00  0.00     0.007 A 
ENDBRANCH   5  19
TORSDOF 3
