REMARK  1 active torsions:
REMARK  status: ('A' for Active; 'I' for Inactive)
REMARK    1  A    between atoms: C_2  and  C_1 
REMARK       I    between atoms: N_10  and  C_1 
ROOT
ATOM      1  C   UNL d   1       0.267  -0.808  -0.961  0.00  0.00     0.032 A 
ATOM      2  C   UNL d   1      -0.891  -0.198  -1.468  0.00  0.00     0.027 A 
ATOM      3  C   UNL d   1      -1.675  -0.913  -2.358  0.00  0.00    -0.022 A 
ATOM      4  C   UNL d   1      -1.308  -2.186  -2.764  0.00  0.00     0.075 A 
ATOM      5  O   UNL d   1      -2.174  -2.746  -3.666  0.00  0.00    -0.350 OA
ATOM      6  C   UNL d   1       0.636  -2.101  -1.393  0.00  0.00     0.020 A 
ATOM      7  C   UNL d   1      -0.159  -2.798  -2.308  0.00  0.00     0.038 A 
ATOM      8  C   UNL d   1      -3.330  -1.876  -3.610  0.00  0.00     0.180 C 
ATOM      9  C   UNL d   1      -2.905  -0.508  -3.074  0.00  0.00     0.068 C 
ENDROOT
BRANCH   1  10
ATOM     10  C   UNL d   1       1.103  -0.039   0.004  0.00  0.00     0.251 C 
ATOM     11  O   UNL d   1       1.112   1.186  -0.037  0.00  0.00    -0.268 OA
ATOM     12  N   UNL d   1       1.809  -0.783   0.925  0.00  0.00    -0.361 N 
ATOM     13  C   UNL d   1       2.660  -0.173   1.917  0.00  0.00     0.149 C 
ATOM     14  H   UNL d   1       1.654  -1.779   0.988  0.00  0.00     0.162 HD
ENDBRANCH   1  10
TORSDOF 1
