REMARK  15 active torsions:
REMARK  status: ('A' for Active; 'I' for Inactive)
REMARK    1  A    between atoms: C_2  and  C_1 
REMARK    2  A    between atoms: C_2  and  O_9 
REMARK    3  A    between atoms: C_3  and  C_2 
REMARK    4  A    between atoms: C_3  and  O_10 
REMARK    5  A    between atoms: C_3  and  C_6 
REMARK    6  A    between atoms: C_6  and  O_12 
REMARK    7  A    between atoms: C_8  and  C_6 
REMARK    8  A    between atoms: C_20  and  C_8 
REMARK    9  A    between atoms: C_8  and  O_14 
REMARK   10  A    between atoms: C_15  and  O_9 
REMARK   11  A    between atoms: C_16  and  O_10 
REMARK   12  A    between atoms: C_17  and  O_12 
REMARK   13  A    between atoms: C_18  and  O_14 
REMARK   14  A    between atoms: C_19  and  O_21 
REMARK   15  A    between atoms: O_21  and  C_20 
ROOT
ATOM      1  C   UNL d   1       0.745   4.880   0.388  0.00  0.00     0.200 C 
ENDROOT
BRANCH   1   2
ATOM      2  O   UNL d   1       0.958   6.119   1.097  0.00  0.00    -0.310 OA
BRANCH   2   3
ATOM      3  C   UNL d   1       0.204   7.182   0.705  0.00  0.00     0.255 C 
ATOM      4  O   UNL d   1      -0.464   7.239  -0.319  0.00  0.00    -0.266 OA
ATOM      5  C   UNL d   1       0.220   8.259   1.744  0.00  0.00     0.126 C 
ENDBRANCH   2   3
ENDBRANCH   1   2
BRANCH   1   6
ATOM      6  C   UNL d   1       1.880   4.649  -0.664  0.00  0.00     0.196 C 
BRANCH   6   7
ATOM      7  O   UNL d   1       1.878   5.754  -1.608  0.00  0.00    -0.311 OA
BRANCH   7   8
ATOM      8  C   UNL d   1       0.977   5.719  -2.622  0.00  0.00     0.255 C 
ATOM      9  O   UNL d   1       0.220   4.788  -2.852  0.00  0.00    -0.266 OA
ATOM     10  C   UNL d   1       1.075   6.968  -3.446  0.00  0.00     0.126 C 
ENDBRANCH   7   8
ENDBRANCH   6   7
BRANCH   6  11
ATOM     11  C   UNL d   1       3.349   4.444  -0.206  0.00  0.00     0.188 C 
BRANCH  11  12
ATOM     12  C   UNL d   1       4.065   5.696   0.349  0.00  0.00     0.213 C 
BRANCH  12  13
ATOM     13  O   UNL d   1       4.065   6.825  -0.547  0.00  0.00    -0.319 OA
BRANCH  13  14
ATOM     14  C   UNL d   1       4.876   6.732  -1.637  0.00  0.00     0.254 C 
ATOM     15  O   UNL d   1       5.604   5.785  -1.899  0.00  0.00    -0.266 OA
ATOM     16  C   UNL d   1       4.720   7.924  -2.534  0.00  0.00     0.126 C 
ENDBRANCH  13  14
ENDBRANCH  12  13
ENDBRANCH  11  12
BRANCH  11  17
ATOM     17  O   UNL d   1       3.372   3.343   0.723  0.00  0.00    -0.311 OA
BRANCH  17  18
ATOM     18  C   UNL d   1       4.535   2.675   0.919  0.00  0.00     0.255 C 
ATOM     19  O   UNL d   1       5.613   2.969   0.428  0.00  0.00    -0.266 OA
ATOM     20  C   UNL d   1       4.310   1.536   1.867  0.00  0.00     0.126 C 
ENDBRANCH  17  18
ENDBRANCH  11  17
ENDBRANCH   6  11
ENDBRANCH   1   6
BRANCH   1  21
ATOM     21  C   UNL d   1       0.499   3.713   1.388  0.00  0.00     0.221 C 
BRANCH  21  22
ATOM     22  C   UNL d   1      -0.868   3.611   2.063  0.00  0.00     0.083 A 
ATOM     23  N   UNL d   1      -1.119   2.725   3.020  0.00  0.00    -0.355 N 
ATOM     24  C   UNL d   1      -2.403   2.887   3.515  0.00  0.00     0.012 A 
ATOM     25  HN  UNL d   1      -0.457   2.021   3.346  1.00  0.00     0.166 HD
ATOM     26  C   UNL d   1      -2.856   2.040   4.648  0.00  0.00     0.068 C 
ATOM     27  C   UNL d   1      -3.142   3.865   2.881  0.00  0.00     0.076 A 
ATOM     28  S   UNL d   1      -2.210   4.603   1.653  0.00  0.00    -0.084 SA
ENDBRANCH  21  22
BRANCH  21  29
ATOM     29  O   UNL d   1       1.516   3.579   2.417  0.00  0.00    -0.307 OA
BRANCH  29  30
ATOM     30  C   UNL d   1       1.521   4.409   3.492  0.00  0.00     0.255 C 
ATOM     31  O   UNL d   1       0.784   5.367   3.677  0.00  0.00    -0.266 OA
ATOM     32  C   UNL d   1       2.600   3.985   4.440  0.00  0.00     0.126 C 
ENDBRANCH  29  30
ENDBRANCH  21  29
ENDBRANCH   1  21
TORSDOF 15
