REMARK  4 active torsions:
REMARK  status: ('A' for Active; 'I' for Inactive)
REMARK    1  A    between atoms: C_2  and  C_1 
REMARK    2  A    between atoms: O_8  and  C_2 
REMARK    3  A    between atoms: S_7  and  C_3 
REMARK    4  A    between atoms: C_11  and  S_7 
ROOT
ATOM      1  C   UNL d   1       0.838   1.344  -0.033  0.00  0.00     0.071 A 
ATOM      2  C   UNL d   1      -0.557   1.348  -0.032  0.00  0.00     0.086 A 
ATOM      3  N   UNL d   1      -1.280   0.198  -0.049  0.00  0.00    -0.360 N 
ATOM      4  HN  UNL d   1      -2.300   0.222  -0.038  1.00  0.00     0.166 HD
ATOM      5  C   UNL d   1       1.495   0.104  -0.081  0.00  0.00     0.022 A 
ATOM      6  C   UNL d   1      -0.616  -0.978  -0.080  0.00  0.00     0.089 A 
ATOM      7  C   UNL d   1       0.761  -1.076  -0.096  0.00  0.00     0.018 A 
ENDROOT
BRANCH   1   8
ATOM      8  C   UNL d   1       1.698   2.544  -0.000  0.00  0.00     0.179 C 
ATOM      9  O   UNL d   1       2.777   2.578  -0.571  0.00  0.00    -0.646 OA
BRANCH   8  10
ATOM     10  O   UNL d   1       1.252   3.563   0.759  0.00  0.00    -0.773 OA
ATOM     11  H   UNL d   1       0.360   3.442   1.148  0.00  0.00     0.167 HD
ENDBRANCH   8  10
ENDBRANCH   1   8
BRANCH   2  12
ATOM     12  S   UNL d   1      -1.587   2.801   0.070  0.00  0.00    -0.112 SA
BRANCH  12  13
ATOM     13  C   UNL d   1      -1.259   3.608  -1.535  0.00  0.00     0.076 C 
ATOM     14  C   UNL d   1      -1.563   2.731  -2.736  0.00  0.00     0.016 C 
ENDBRANCH  12  13
ENDBRANCH   2  12
TORSDOF 4
