REMARK  10 active torsions:
REMARK  status: ('A' for Active; 'I' for Inactive)
REMARK    1  A    between atoms: N_8  and  C_1 
REMARK    2  A    between atoms: C_2  and  N_7 
REMARK    3  A    between atoms: C_11  and  C_3 
REMARK    4  A    between atoms: C_12  and  C_4 
REMARK       I    between atoms: N_7  and  C_14 
REMARK       I    between atoms: C_13  and  N_8 
REMARK    5  A    between atoms: O_23  and  C_11 
REMARK    6  A    between atoms: O_22  and  C_12 
REMARK    7  A    between atoms: C_17  and  C_13 
REMARK    8  A    between atoms: C_14  and  C_17 
REMARK    9  A    between atoms: C_27  and  O_22 
REMARK   10  A    between atoms: C_26  and  O_23 
ROOT
ATOM      1  C   UNL d   1       1.390  -2.877  -0.819  0.00  0.00     0.206 C 
ENDROOT
BRANCH   1   2
ATOM      2  C   UNL d   1       1.907  -1.715  -0.023  0.00  0.00     0.231 C 
ATOM      3  N   UNL d   1       2.865  -0.964  -0.684  0.00  0.00    -0.320 N 
ATOM      4  H   UNL d   1       2.873  -0.988  -1.706  0.00  0.00     0.169 HD
ATOM      5  O   UNL d   1       1.464  -1.526   1.111  0.00  0.00    -0.273 OA
BRANCH   3   6
ATOM      6  C   UNL d   1       3.789  -0.105  -0.091  0.00  0.00     0.093 A 
ATOM      7  C   UNL d   1       4.656   0.780  -0.729  0.00  0.00     0.079 A 
ATOM      8  C   UNL d   1       5.620   1.331   0.219  0.00  0.00    -0.036 A 
ATOM      9  C   UNL d   1       6.805   2.195  -0.080  0.00  0.00     0.050 C 
ATOM     10  C   UNL d   1       5.322   0.940   1.511  0.00  0.00     0.059 A 
ATOM     11  S   UNL d   1       4.013  -0.134   1.592  0.00  0.00    -0.083 SA
BRANCH   7  12
ATOM     12  C   UNL d   1       4.556   1.050  -2.168  0.00  0.00     0.296 C 
ATOM     13  O   UNL d   1       3.921   0.333  -2.934  0.00  0.00    -0.259 OA
BRANCH  12  14
ATOM     14  O   UNL d   1       5.179   2.205  -2.544  0.00  0.00    -0.318 OA
BRANCH  14  15
ATOM     15  C   UNL d   1       4.968   2.634  -3.898  0.00  0.00     0.174 C 
ATOM     16  C   UNL d   1       5.925   1.944  -4.849  0.00  0.00     0.034 C 
ENDBRANCH  14  15
ENDBRANCH  12  14
ENDBRANCH   7  12
ENDBRANCH   3   6
ENDBRANCH   1   2
BRANCH   1  17
ATOM     17  C   UNL d   1       0.310  -2.484  -1.779  0.00  0.00     0.231 C 
ATOM     18  N   UNL d   1      -0.976  -2.851  -1.385  0.00  0.00    -0.320 N 
ATOM     19  H   UNL d   1      -1.168  -2.895  -0.391  0.00  0.00     0.169 HD
ATOM     20  O   UNL d   1       0.624  -1.878  -2.803  0.00  0.00    -0.273 OA
BRANCH  18  21
ATOM     21  C   UNL d   1      -2.068  -2.873  -2.248  0.00  0.00     0.093 C 
ATOM     22  C   UNL d   1      -3.433  -2.902  -1.987  0.00  0.00     0.079 C 
ATOM     23  C   UNL d   1      -4.197  -2.812  -3.227  0.00  0.00    -0.036 C 
ATOM     24  C   UNL d   1      -5.673  -2.596  -3.323  0.00  0.00     0.050 C 
ATOM     25  C   UNL d   1      -3.389  -2.962  -4.333  0.00  0.00     0.059 C 
ATOM     26  S   UNL d   1      -1.755  -3.090  -3.922  0.00  0.00    -0.083 SA
BRANCH  22  27
ATOM     27  C   UNL d   1      -4.087  -3.012  -0.682  0.00  0.00     0.296 C 
ATOM     28  O   UNL d   1      -5.107  -3.675  -0.526  0.00  0.00    -0.259 OA
BRANCH  27  29
ATOM     29  O   UNL d   1      -3.493  -2.295   0.318  0.00  0.00    -0.318 OA
BRANCH  29  30
ATOM     30  C   UNL d   1      -4.168  -2.370   1.592  0.00  0.00     0.174 C 
ATOM     31  C   UNL d   1      -5.473  -1.581   1.623  0.00  0.00     0.034 C 
ENDBRANCH  29  30
ENDBRANCH  27  29
ENDBRANCH  22  27
ENDBRANCH  18  21
ENDBRANCH   1  17
TORSDOF 10
