REMARK  7 active torsions:
REMARK  status: ('A' for Active; 'I' for Inactive)
REMARK    1  A    between atoms: N_2  and  C_1 
REMARK    2  A    between atoms: C_3  and  C_1 
REMARK    3  A    between atoms: C_4  and  C_1 
REMARK    4  A    between atoms: N_7  and  C_1 
REMARK       I    between atoms: C_5  and  N_2 
REMARK    5  A    between atoms: C_6  and  C_5 
REMARK    6  A    between atoms: C_16  and  N_7 
REMARK    7  A    between atoms: O_18  and  C_9 
ROOT
ATOM      1  C   UNL d   1       0.802  -0.201   0.273  0.00  0.00     0.306 C 
ENDROOT
BRANCH   1   2
ATOM      2  N   UNL d   1       0.402   0.627  -0.904  0.00  0.00    -0.315 N 
ATOM      3  C   UNL d   1       0.518   1.983  -0.998  0.00  0.00     0.256 C 
ATOM      4  O   UNL d   1       1.046   2.654  -0.122  0.00  0.00    -0.267 OA
ATOM      5  H   UNL d   1       0.078   0.102  -1.706  0.00  0.00     0.165 HD
BRANCH   3   6
ATOM      6  C   UNL d   1      -0.072   2.609  -2.220  0.00  0.00     0.065 A 
ATOM      7  C   UNL d   1       0.429   3.805  -2.756  0.00  0.00     0.084 A 
ATOM      8  C   UNL d   1      -0.240   4.437  -3.812  0.00  0.00     0.038 A 
ATOM      9  C   UNL d   1      -1.375   3.860  -4.379  0.00  0.00     0.003 A 
ATOM     10  C   UNL d   1      -1.863   2.657  -3.880  0.00  0.00     0.001 A 
ATOM     11  C   UNL d   1      -1.225   2.040  -2.800  0.00  0.00     0.020 A 
BRANCH   7  12
ATOM     12  O   UNL d   1       1.529   4.472  -2.289  0.00  0.00    -0.355 OA
ATOM     13  C   UNL d   1       2.740   3.742  -2.486  0.00  0.00     0.210 C 
ENDBRANCH   7  12
ENDBRANCH   3   6
ENDBRANCH   1   2
BRANCH   1  14
ATOM     14  C   UNL d   1      -0.038  -1.529   0.283  0.00  0.00     0.441 C 
ATOM     15  F   UNL d   1      -0.826  -1.571  -0.838  0.00  0.00    -0.166 F 
ATOM     16  F   UNL d   1       0.722  -2.648   0.230  0.00  0.00    -0.166 F 
ATOM     17  F   UNL d   1      -0.887  -1.672   1.322  0.00  0.00    -0.166 F 
ENDBRANCH   1  14
BRANCH   1  18
ATOM     18  C   UNL d   1       0.468   0.434   1.670  0.00  0.00     0.441 C 
ATOM     19  F   UNL d   1      -0.780   0.956   1.705  0.00  0.00    -0.166 F 
ATOM     20  F   UNL d   1       0.564  -0.467   2.680  0.00  0.00    -0.166 F 
ATOM     21  F   UNL d   1       1.341   1.418   2.004  0.00  0.00    -0.166 F 
ENDBRANCH   1  18
BRANCH   1  22
ATOM     22  N   UNL d   1       2.282  -0.392   0.156  0.00  0.00    -0.349 N 
ATOM     23  H   UNL d   1       2.772   0.377   0.623  0.00  0.00     0.162 HD
BRANCH  22  24
ATOM     24  C   UNL d   1       3.026  -0.911  -0.886  0.00  0.00     0.030 A 
ATOM     25  C   UNL d   1       2.503  -1.488  -2.044  0.00  0.00     0.029 A 
ATOM     26  C   UNL d   1       3.344  -2.005  -3.040  0.00  0.00     0.002 A 
ATOM     27  C   UNL d   1       4.725  -2.004  -2.869  0.00  0.00     0.000 A 
ATOM     28  C   UNL d   1       5.266  -1.496  -1.696  0.00  0.00     0.002 A 
ATOM     29  C   UNL d   1       4.421  -0.963  -0.718  0.00  0.00     0.029 A 
ENDBRANCH  22  24
ENDBRANCH   1  22
TORSDOF 7
