REMARK  5 active torsions:
REMARK  status: ('A' for Active; 'I' for Inactive)
REMARK    1  A    between atoms: C_11  and  N_1 
REMARK    2  A    between atoms: C_8  and  C_7 
REMARK    3  A    between atoms: O_14  and  C_8 
REMARK    4  A    between atoms: C_10  and  C_11 
REMARK    5  A    between atoms: C_17  and  O_14 
ROOT
ATOM      1  C   UNL d   1       2.584  -4.762  -0.469  0.00  0.00     0.151 A 
ATOM      2  O   UNL d   1       1.354  -4.261  -0.839  0.00  0.00    -0.307 OA
ATOM      3  C   UNL d   1       0.976  -3.355   0.119  0.00  0.00     0.073 A 
ATOM      4  C   UNL d   1       2.958  -4.193   0.735  0.00  0.00     0.046 A 
ATOM      5  C   UNL d   1       1.933  -3.298   1.111  0.00  0.00     0.037 A 
ENDROOT
BRANCH   1   6
ATOM      6  C   UNL d   1       3.311  -5.685  -1.322  0.00  0.00     0.322 C 
ATOM      7  O   UNL d   1       4.449  -6.091  -1.094  0.00  0.00    -0.257 OA
BRANCH   6   8
ATOM      8  O   UNL d   1       2.562  -6.008  -2.449  0.00  0.00    -0.273 OA
BRANCH   8   9
ATOM      9  C   UNL d   1       3.224  -6.487  -3.603  0.00  0.00     0.079 A 
ATOM     10  C   UNL d   1       2.582  -7.481  -4.344  0.00  0.00     0.039 A 
ATOM     11  C   UNL d   1       3.070  -7.821  -5.610  0.00  0.00     0.026 A 
ATOM     12  C   UNL d   1       4.188  -7.162  -6.124  0.00  0.00     0.034 A 
ATOM     13  C   UNL d   1       4.851  -6.198  -5.364  0.00  0.00     0.026 A 
ATOM     14 CL   UNL d   1       4.726  -7.506  -7.723  0.00  0.00    -0.084 Cl
ATOM     15  C   UNL d   1       4.369  -5.857  -4.098  0.00  0.00     0.039 A 
ENDBRANCH   8   9
ENDBRANCH   6   8
ENDBRANCH   1   6
BRANCH   3  16
ATOM     16  C   UNL d   1      -0.321  -2.650  -0.064  0.00  0.00     0.213 C 
BRANCH  16  17
ATOM     17  N   UNL d   1      -0.125  -1.206  -0.191  0.00  0.00    -0.289 N 
ATOM     18  N   UNL d   1      -0.220  -0.434   0.923  0.00  0.00    -0.301 N 
ATOM     19  C   UNL d   1      -0.049   0.819   0.480  0.00  0.00     0.041 A 
ATOM     20  HN  UNL d   1      -0.385  -0.740   1.882  1.00  0.00     0.187 HD
ATOM     21  C   UNL d   1      -0.094   1.967   1.420  0.00  0.00     0.071 C 
ATOM     22  C   UNL d   1       0.151   0.835  -0.912  0.00  0.00     0.058 A 
ATOM     23  C   UNL d   1       0.093  -0.472  -1.336  0.00  0.00     0.044 A 
ATOM     24 BR   UNL d   1       0.425   2.366  -1.957  0.00  0.00    -0.047 Br
ATOM     25  C   UNL d   1       0.228  -1.041  -2.699  0.00  0.00     0.071 C 
ENDBRANCH  16  17
ENDBRANCH   3  16
TORSDOF 5
