REMARK  4 active torsions:
REMARK  status: ('A' for Active; 'I' for Inactive)
REMARK    1  A    between atoms: S_2  and  N_1 
REMARK    2  A    between atoms: C_12  and  S_2 
REMARK    3  A    between atoms: C_8  and  C_5 
REMARK    4  A    between atoms: C_9  and  C_8 
ROOT
ATOM      1  N   UNL d   1      -0.097  -1.186   0.012  0.00  0.00    -0.181 N 
ATOM      2  N   UNL d   1       1.177  -0.767   0.246  0.00  0.00    -0.288 N 
ATOM      3  HN  UNL d   1       2.002  -1.345   0.405  1.00  0.00     0.188 HD
ATOM      4  C   UNL d   1      -0.231   1.034   0.114  0.00  0.00    -0.005 A 
ATOM      5  C   UNL d   1      -0.993  -0.124  -0.033  0.00  0.00     0.051 A 
ATOM      6  C   UNL d   1       1.110   0.564   0.223  0.00  0.00     0.032 A 
ATOM      7  C   UNL d   1      -2.458  -0.280  -0.249  0.00  0.00     0.072 C 
ATOM      8  C   UNL d   1       2.370   1.353   0.266  0.00  0.00     0.070 C 
ENDROOT
BRANCH   1   9
ATOM      9  S   UNL d   1      -0.547  -2.874  -0.031  0.00  0.00     0.282 S 
ATOM     10  O   UNL d   1      -1.756  -2.970  -0.833  0.00  0.00    -0.198 OA
ATOM     11  O   UNL d   1       0.648  -3.614  -0.385  0.00  0.00    -0.198 OA
BRANCH   9  12
ATOM     12  C   UNL d   1      -0.942  -3.255   1.653  0.00  0.00     0.081 A 
ATOM     13  C   UNL d   1      -2.223  -3.710   1.980  0.00  0.00     0.025 A 
ATOM     14  C   UNL d   1      -2.507  -4.064   3.299  0.00  0.00     0.002 A 
ATOM     15  C   UNL d   1      -1.517  -3.966   4.278  0.00  0.00     0.000 A 
ATOM     16  C   UNL d   1      -0.239  -3.514   3.944  0.00  0.00     0.002 A 
ATOM     17  C   UNL d   1       0.055  -3.159   2.628  0.00  0.00     0.025 A 
ENDBRANCH   9  12
ENDBRANCH   1   9
BRANCH   4  18
ATOM     18  C   UNL d   1      -0.693   2.459   0.017  0.00  0.00     0.086 C 
BRANCH  18  19
ATOM     19  C   UNL d   1      -0.927   3.034   1.397  0.00  0.00     0.006 A 
ATOM     20  C   UNL d   1      -1.930   2.517   2.236  0.00  0.00     0.124 A 
ATOM     21  F   UNL d   1      -2.638   1.442   1.873  0.00  0.00    -0.205 F 
ATOM     22  C   UNL d   1      -2.278   3.108   3.451  0.00  0.00     0.043 A 
ATOM     23  C   UNL d   1      -1.636   4.264   3.867  0.00  0.00     0.005 A 
ATOM     24  C   UNL d   1      -0.636   4.808   3.066  0.00  0.00     0.024 A 
ATOM     25  C   UNL d   1      -0.284   4.202   1.848  0.00  0.00     0.043 A 
ATOM     26 CL   UNL d   1       0.945   5.000   0.926  0.00  0.00    -0.084 Cl
ENDBRANCH  18  19
ENDBRANCH   4  18
TORSDOF 4
