REMARK  4 active torsions:
REMARK  status: ('A' for Active; 'I' for Inactive)
REMARK       I    between atoms: N_3  and  C_1 
REMARK       I    between atoms: N_5  and  C_1 
REMARK    1  A    between atoms: C_2  and  C_4 
REMARK    2  A    between atoms: O_12  and  C_2 
REMARK    3  A    between atoms: C_8  and  N_3 
REMARK    4  A    between atoms: C_10  and  N_5 
ROOT
ATOM      1  C   UNL d   1       1.106   0.014   0.083  0.00  0.00     0.325 C 
ATOM      2  N   UNL d   1       0.502   0.721  -0.950  0.00  0.00    -0.309 N 
ATOM      3  N   UNL d   1       0.240  -0.151   1.153  0.00  0.00    -0.309 N 
ATOM      4  O   UNL d   1       2.263  -0.385   0.065  0.00  0.00    -0.247 OA
ATOM      5  H   UNL d   1      -0.386   1.151  -0.745  0.00  0.00     0.170 HD
ATOM      6  H   UNL d   1      -0.732   0.057   0.987  0.00  0.00     0.170 HD
ENDROOT
BRANCH   2   7
ATOM      7  C   UNL d   1       1.123   1.117  -2.159  0.00  0.00     0.037 A 
ATOM      8  C   UNL d   1       2.359   0.625  -2.588  0.00  0.00     0.047 A 
ATOM      9  C   UNL d   1       2.968   1.118  -3.751  0.00  0.00     0.041 A 
ATOM     10  C   UNL d   1       2.315   2.096  -4.508  0.00  0.00     0.018 A 
ATOM     11  C   UNL d   1       1.062   2.563  -4.112  0.00  0.00     0.003 A 
ATOM     12  C   UNL d   1       0.467   2.072  -2.946  0.00  0.00     0.029 A 
BRANCH   9  13
ATOM     13  C   UNL d   1       4.308   0.644  -4.198  0.00  0.00     0.293 C 
ATOM     14  O   UNL d   1       4.872   1.063  -5.197  0.00  0.00    -0.259 OA
BRANCH  13  15
ATOM     15  O   UNL d   1       4.794  -0.288  -3.344  0.00  0.00    -0.323 OA
ATOM     16  C   UNL d   1       6.096  -0.775  -3.665  0.00  0.00     0.213 C 
ENDBRANCH  13  15
ENDBRANCH   9  13
ENDBRANCH   2   7
BRANCH   3  17
ATOM     17  C   UNL d   1       0.563  -0.681   2.423  0.00  0.00     0.036 A 
ATOM     18  C   UNL d   1       1.858  -1.043   2.812  0.00  0.00     0.031 A 
ATOM     19  C   UNL d   1       2.108  -1.547   4.093  0.00  0.00     0.026 A 
ATOM     20  C   UNL d   1       1.063  -1.684   4.998  0.00  0.00     0.034 A 
ATOM     21  C   UNL d   1      -0.231  -1.323   4.632  0.00  0.00     0.026 A 
ATOM     22 CL   UNL d   1       1.371  -2.297   6.575  0.00  0.00    -0.084 Cl
ATOM     23  C   UNL d   1      -0.479  -0.824   3.348  0.00  0.00     0.031 A 
ENDBRANCH   3  17
TORSDOF 4
