REMARK  3 active torsions:
REMARK  status: ('A' for Active; 'I' for Inactive)
REMARK    1  A    between atoms: C_2  and  C_1 
REMARK       I    between atoms: N_3  and  C_2 
REMARK    2  A    between atoms: C_8  and  C_4 
REMARK    3  A    between atoms: O_17  and  C_10 
ROOT
ATOM      1  C   UNL d   1       1.009   0.229  -0.146  0.00  0.00     0.113 C 
ATOM      2  C   UNL d   1       0.287  -0.273   0.877  0.00  0.00     0.039 C 
ATOM      3  C   UNL d   1       0.415   0.844  -1.279  0.00  0.00     0.105 C 
ATOM      4  N   UNL d   1      -0.061   1.317  -2.227  0.00  0.00    -0.191 NA
ENDROOT
BRANCH   1   5
ATOM      5  C   UNL d   1       2.494   0.178   0.033  0.00  0.00     0.264 C 
ATOM      6  N   UNL d   1       3.330  -0.148  -1.022  0.00  0.00    -0.343 N 
ATOM      7  C   UNL d   1       4.782  -0.131  -0.790  0.00  0.00     0.152 C 
ATOM      8  C   UNL d   1       2.976  -0.427  -2.425  0.00  0.00     0.152 C 
ATOM      9  C   UNL d   1       5.433  -1.398  -1.348  0.00  0.00     0.187 C 
ATOM     10  O   UNL d   1       5.153  -1.531  -2.749  0.00  0.00    -0.388 OA
ATOM     11  C   UNL d   1       3.742  -1.641  -2.970  0.00  0.00     0.187 C 
ATOM     12  O   UNL d   1       2.947   0.385   1.163  0.00  0.00    -0.267 OA
ENDBRANCH   1   5
BRANCH   2  13
ATOM     13  C   UNL d   1      -1.175  -0.330   0.936  0.00  0.00    -0.034 A 
ATOM     14  C   UNL d   1      -1.816  -1.553   0.716  0.00  0.00     0.014 A 
ATOM     15  C   UNL d   1      -3.211  -1.643   0.764  0.00  0.00     0.037 A 
ATOM     16  C   UNL d   1      -3.976  -0.509   1.035  0.00  0.00     0.068 A 
ATOM     17  C   UNL d   1      -3.332   0.710   1.266  0.00  0.00     0.037 A 
ATOM     18  C   UNL d   1      -1.940   0.805   1.219  0.00  0.00     0.014 A 
BRANCH  16  19
ATOM     19  O   UNL d   1      -5.341  -0.461   1.104  0.00  0.00    -0.356 OA
ATOM     20  C   UNL d   1      -6.042  -1.672   0.847  0.00  0.00     0.210 C 
ENDBRANCH  16  19
ENDBRANCH   2  13
TORSDOF 3
