REMARK  4 active torsions:
REMARK  status: ('A' for Active; 'I' for Inactive)
REMARK    1  A    between atoms: C_7  and  C_3 
REMARK    2  A    between atoms: C_8  and  C_5 
REMARK    3  A    between atoms: C_11  and  C_8 
REMARK    4  A    between atoms: O_10  and  C_11 
ROOT
ATOM      1  N   UNL d   1      -1.424   0.646   0.018  0.00  0.00    -0.337 N 
ATOM      2  HN  UNL d   1      -2.299   1.170   0.010  1.00  0.00     0.168 HD
ATOM      3  C   UNL d   1      -1.265  -0.665   0.015  0.00  0.00     0.158 A 
ATOM      4  O   UNL d   1       0.047  -1.066   0.027  0.00  0.00    -0.296 OA
ATOM      5  C   UNL d   1      -0.138   1.144   0.035  0.00  0.00     0.043 A 
ATOM      6  C   UNL d   1       0.759   0.098   0.035  0.00  0.00     0.074 A 
ATOM      7  C   UNL d   1       2.226  -0.024   0.030  0.00  0.00     0.079 C 
ENDROOT
BRANCH   3   8
ATOM      8  C   UNL d   1      -2.269  -1.726  -0.032  0.00  0.00     0.015 A 
ATOM      9  C   UNL d   1      -3.626  -1.396  -0.162  0.00  0.00     0.016 A 
ATOM     10  C   UNL d   1      -4.602  -2.393  -0.235  0.00  0.00     0.001 A 
ATOM     11  C   UNL d   1      -4.232  -3.736  -0.173  0.00  0.00     0.000 A 
ATOM     12  C   UNL d   1      -2.890  -4.082  -0.034  0.00  0.00     0.001 A 
ATOM     13  C   UNL d   1      -1.915  -3.082   0.036  0.00  0.00     0.016 A 
ENDBRANCH   3   8
BRANCH   5  14
ATOM     14  C   UNL d   1       0.117   2.610   0.027  0.00  0.00     0.085 C 
BRANCH  14  15
ATOM     15  C   UNL d   1       0.119   3.212   1.428  0.00  0.00     0.170 C 
BRANCH  15  16
ATOM     16  O   UNL d   1       1.286   2.812   2.143  0.00  0.00    -0.400 OA
ATOM     17  H   UNL d   1       1.161   3.099   3.065  0.00  0.00     0.209 HD
ENDBRANCH  15  16
ENDBRANCH  14  15
ENDBRANCH   5  14
TORSDOF 4
