REMARK  3 active torsions:
REMARK  status: ('A' for Active; 'I' for Inactive)
REMARK    1  A    between atoms: S_6  and  C_1 
REMARK    2  A    between atoms: N_8  and  S_6 
REMARK       I    between atoms: C_10  and  N_8 
REMARK       I    between atoms: N_14  and  C_10 
REMARK    3  A    between atoms: C_18  and  N_14 
ROOT
ATOM      1  S   UNL d   1       1.273  -3.133   0.301  0.00  0.00    -0.085 SA
ATOM      2  C   UNL d   1      -0.091  -4.100   0.949  0.00  0.00     0.108 C 
ENDROOT
BRANCH   1   3
ATOM      3  C   UNL d   1       0.923  -1.473   0.808  0.00  0.00     0.066 C 
ATOM      4  C   UNL d   1      -0.216  -0.719   0.532  0.00  0.00     0.043 C 
ATOM      5  C   UNL d   1       0.097   0.714   0.529  0.00  0.00    -0.013 C 
ATOM      6  C   UNL d   1      -1.599  -1.144   0.266  0.00  0.00     0.162 C 
ATOM      7  C   UNL d   1      -0.907   1.762   0.140  0.00  0.00     0.051 C 
ATOM      8  C   UNL d   1       1.388   0.945   0.922  0.00  0.00     0.083 C 
ATOM      9  C   UNL d   1      -2.349   1.279   0.406  0.00  0.00    -0.037 C 
ATOM     10  C   UNL d   1      -2.529  -0.080  -0.302  0.00  0.00     0.093 C 
ATOM     11  C   UNL d   1      -3.357   2.286  -0.170  0.00  0.00     0.015 C 
ATOM     12  C   UNL d   1      -2.610   1.170   1.925  0.00  0.00     0.015 C 
ATOM     13  S   UNL d   1       2.186  -0.444   1.409  0.00  0.00    -0.069 SA
ATOM     14 CL   UNL d   1       2.208   2.455   0.987  0.00  0.00    -0.076 Cl
ATOM     15  O   UNL d   1      -2.089  -2.235   0.551  0.00  0.00    -0.292 OA
ENDBRANCH   1   3
BRANCH   1  16
ATOM     16  N   UNL d   1       2.286  -3.473   1.376  0.00  0.00    -0.287 N 
ATOM     17  C   UNL d   1       3.617  -3.360   1.210  0.00  0.00     0.330 C 
ATOM     18  N   UNL d   1       4.062  -3.195  -0.090  0.00  0.00    -0.308 N 
ATOM     19  O   UNL d   1       4.395  -3.427   2.166  0.00  0.00    -0.246 OA
ATOM     20  H   UNL d   1       3.310  -3.199  -0.761  0.00  0.00     0.170 HD
ATOM     21  HN  UNL d   1       1.940  -3.806   2.276  1.00  0.00     0.178 HD
BRANCH  18  22
ATOM     22  C   UNL d   1       5.365  -3.050  -0.587  0.00  0.00     0.036 A 
ATOM     23  C   UNL d   1       6.514  -3.015   0.209  0.00  0.00     0.031 A 
ATOM     24  C   UNL d   1       7.778  -2.925  -0.381  0.00  0.00     0.026 A 
ATOM     25  C   UNL d   1       7.893  -2.862  -1.768  0.00  0.00     0.034 A 
ATOM     26  C   UNL d   1       6.756  -2.861  -2.569  0.00  0.00     0.026 A 
ATOM     27 CL   UNL d   1       9.450  -2.797  -2.500  0.00  0.00    -0.084 Cl
ATOM     28  C   UNL d   1       5.496  -2.948  -1.976  0.00  0.00     0.031 A 
ENDBRANCH  18  22
ENDBRANCH   1  16
TORSDOF 3
