REMARK  4 active torsions:
REMARK  status: ('A' for Active; 'I' for Inactive)
REMARK    1  A    between atoms: C_2  and  C_1 
REMARK    2  A    between atoms: C_3  and  C_1 
REMARK    3  A    between atoms: C_4  and  C_1 
REMARK       I    between atoms: N_14  and  C_3 
REMARK    4  A    between atoms: N_5  and  C_4 
ROOT
ATOM      1  C   UNL d   1       1.001  -0.007  -0.100  0.00  0.00     0.095 C 
ENDROOT
BRANCH   1   2
ATOM      2  C   UNL d   1       0.304  -0.805   0.736  0.00  0.00     0.046 C 
ATOM      3  C   UNL d   1       0.908  -1.695   1.680  0.00  0.00     0.006 A 
ATOM      4  S   UNL d   1       0.191  -3.245   1.941  0.00  0.00    -0.102 SA
ATOM      5  C   UNL d   1       2.020  -1.548   2.496  0.00  0.00     0.019 A 
ATOM      6  C   UNL d   1       1.411  -3.718   3.039  0.00  0.00     0.050 A 
ATOM      7  C   UNL d   1       2.328  -2.717   3.252  0.00  0.00     0.008 A 
ENDBRANCH   1   2
BRANCH   1   8
ATOM      8  C   UNL d   1       0.256   0.869  -1.043  0.00  0.00     0.258 C 
ATOM      9  O   UNL d   1      -0.970   0.892  -1.099  0.00  0.00    -0.267 OA
ATOM     10  N   UNL d   1       0.989   1.674  -1.861  0.00  0.00    -0.365 N 
ATOM     11  H   UNL d   1       1.999   1.728  -1.888  0.00  0.00     0.159 HD
ATOM     12  H   UNL d   1       0.475   2.270  -2.499  0.00  0.00     0.159 HD
ENDBRANCH   1   8
BRANCH   1  13
ATOM     13  C   UNL d   1       2.521  -0.007  -0.100  0.00  0.00    -0.031 C 
BRANCH  13  14
ATOM     14  N   UNL d   1       3.782  -0.007  -0.100  0.00  0.00    -0.365 N 
ATOM     15  HN2 UNL d   1       2.762  -0.007  -0.100  1.00  0.00     0.165 HD
ATOM     16  HN1 UNL d   1       4.802  -0.007  -0.100  1.00  0.00     0.165 HD
ENDBRANCH  13  14
ENDBRANCH   1  13
TORSDOF 4
