REMARK  3 active torsions:
REMARK  status: ('A' for Active; 'I' for Inactive)
REMARK    1  A    between atoms: C_9  and  C_2 
REMARK    2  A    between atoms: S_10  and  C_3 
REMARK    3  A    between atoms: C_4  and  S_10 
ROOT
ATOM      1  N   UNL d   1       0.872   0.003  -0.039  0.00  0.00    -0.315 N 
ATOM      2  C   UNL d   1      -0.011   1.055  -0.205  0.00  0.00     0.136 A 
ATOM      3  C   UNL d   1       0.108  -1.139  -0.080  0.00  0.00     0.169 A 
ATOM      4  N   UNL d   1      -1.228   0.548  -0.297  0.00  0.00    -0.283 N 
ATOM      5  HN  UNL d   1      -2.085   1.087  -0.422  1.00  0.00     0.188 HD
ATOM      6  N   UNL d   1      -1.155  -0.819  -0.199  0.00  0.00    -0.278 N 
ATOM      7  HN  UNL d   1      -1.943  -1.467  -0.216  1.00  0.00     0.189 HD
ATOM      8  C   UNL d   1       2.293   0.062   0.192  0.00  0.00     0.160 C 
ENDROOT
BRANCH   3   9
ATOM      9  S   UNL d   1       0.697  -2.741   0.182  0.00  0.00    -0.027 SA
BRANCH   9  10
ATOM     10  C   UNL d   1       1.462  -3.050  -1.367  0.00  0.00     0.120 A 
ATOM     11  N   UNL d   1       1.647  -2.133  -2.290  0.00  0.00    -0.344 N 
ATOM     12  C   UNL d   1       2.361  -2.667  -3.352  0.00  0.00     0.050 A 
ATOM     13  HN  UNL d   1       1.316  -1.170  -2.234  1.00  0.00     0.167 HD
ATOM     14  C   UNL d   1       2.747  -1.981  -4.522  0.00  0.00     0.032 A 
ATOM     15  C   UNL d   1       2.742  -4.003  -3.204  0.00  0.00     0.035 A 
ATOM     16  C   UNL d   1       3.529  -2.630  -5.485  0.00  0.00     0.026 A 
ATOM     17  C   UNL d   1       3.915  -3.954  -5.298  0.00  0.00     0.035 A 
ATOM     18  C   UNL d   1       3.520  -4.670  -4.166  0.00  0.00     0.045 A 
ATOM     19 CL   UNL d   1       4.908  -4.723  -6.475  0.00  0.00    -0.084 Cl
ATOM     20  S   UNL d   1       2.119  -4.598  -1.716  0.00  0.00    -0.063 SA
ENDBRANCH   9  10
ENDBRANCH   3   9
BRANCH   2  21
ATOM     21  C   UNL d   1       0.301   2.492  -0.285  0.00  0.00     0.031 A 
ATOM     22  C   UNL d   1      -0.468   3.473   0.373  0.00  0.00     0.049 A 
ATOM     23  C   UNL d   1      -0.178   4.838   0.232  0.00  0.00     0.048 A 
ATOM     24 CL   UNL d   1      -1.790   3.079   1.423  0.00  0.00    -0.083 Cl
ATOM     25  C   UNL d   1       0.895   5.238  -0.557  0.00  0.00     0.035 A 
ATOM     26  C   UNL d   1       1.669   4.291  -1.218  0.00  0.00     0.025 A 
ATOM     27 CL   UNL d   1       1.265   6.907  -0.718  0.00  0.00    -0.084 Cl
ATOM     28  C   UNL d   1       1.363   2.931  -1.099  0.00  0.00     0.018 A 
ENDBRANCH   2  21
TORSDOF 3
