REMARK  8 active torsions:
REMARK  status: ('A' for Active; 'I' for Inactive)
REMARK       I    between atoms: N_2  and  C_1 
REMARK    1  A    between atoms: C_11  and  C_1 
REMARK    2  A    between atoms: C_7  and  N_2 
REMARK    3  A    between atoms: C_6  and  C_7 
REMARK    4  A    between atoms: S_8  and  C_11 
REMARK    5  A    between atoms: C_15  and  S_8 
REMARK    6  A    between atoms: C_10  and  O_12 
REMARK    7  A    between atoms: O_12  and  C_16 
REMARK    8  A    between atoms: C_16  and  C_15 
ROOT
ATOM      1  C   UNL d   1       0.957   0.008  -0.064  0.00  0.00     0.227 C 
ATOM      2  N   UNL d   1       0.274  -0.548  -1.115  0.00  0.00    -0.356 N 
ATOM      3  O   UNL d   1       0.384   0.444   0.935  0.00  0.00    -0.273 OA
ATOM      4  H   UNL d   1       0.807  -0.779  -1.950  0.00  0.00     0.162 HD
ENDROOT
BRANCH   1   5
ATOM      5  C   UNL d   1       2.478   0.018  -0.145  0.00  0.00     0.176 C 
BRANCH   5   6
ATOM      6  S   UNL d   1       3.172  -0.688  -1.682  0.00  0.00    -0.158 SA
BRANCH   6   7
ATOM      7  C   UNL d   1       4.963  -0.672  -1.260  0.00  0.00     0.101 C 
BRANCH   7   8
ATOM      8  C   UNL d   1       5.277  -1.539  -0.043  0.00  0.00     0.186 C 
BRANCH   8   9
ATOM      9  O   UNL d   1       6.687  -1.600   0.192  0.00  0.00    -0.350 OA
BRANCH   9  10
ATOM     10  C   UNL d   1       7.059  -2.345   1.287  0.00  0.00     0.068 A 
ATOM     11  C   UNL d   1       6.185  -3.016   2.150  0.00  0.00     0.037 A 
ATOM     12  C   UNL d   1       6.679  -3.758   3.225  0.00  0.00     0.003 A 
ATOM     13  C   UNL d   1       8.050  -3.835   3.448  0.00  0.00     0.000 A 
ATOM     14  C   UNL d   1       8.928  -3.163   2.600  0.00  0.00     0.003 A 
ATOM     15  C   UNL d   1       8.433  -2.419   1.524  0.00  0.00     0.037 A 
ENDBRANCH   9  10
ENDBRANCH   8   9
ENDBRANCH   7   8
ENDBRANCH   6   7
ENDBRANCH   5   6
ENDBRANCH   1   5
BRANCH   2  16
ATOM     16  C   UNL d   1      -1.165  -0.643  -1.132  0.00  0.00     0.162 C 
BRANCH  16  17
ATOM     17  C   UNL d   1      -1.800   0.564  -1.752  0.00  0.00    -0.025 A 
ATOM     18  C   UNL d   1      -2.278   1.606  -0.962  0.00  0.00     0.096 A 
ATOM     19  N   UNL d   1      -2.866   2.722  -1.452  0.00  0.00    -0.375 N 
ATOM     20  C   UNL d   1      -2.969   2.814  -2.794  0.00  0.00     0.087 A 
ATOM     21  HN  UNL d   1      -3.215   3.457  -0.837  1.00  0.00     0.164 HD
ATOM     22  C   UNL d   1      -2.513   1.842  -3.669  0.00  0.00     0.018 A 
ATOM     23  C   UNL d   1      -1.918   0.702  -3.138  0.00  0.00     0.011 A 
ENDBRANCH  16  17
ENDBRANCH   2  16
TORSDOF 8
