REMARK  4 active torsions:
REMARK  status: ('A' for Active; 'I' for Inactive)
REMARK    1  A    between atoms: C_5  and  C_1 
REMARK    2  A    between atoms: C_10  and  C_4 
REMARK       I    between atoms: N_16  and  C_5 
REMARK    3  A    between atoms: N_9  and  C_11 
REMARK    4  A    between atoms: N_19  and  N_16 
ROOT
ATOM      1  C   UNL d   1       0.278  -0.990  -0.475  0.00  0.00     0.241 A 
ATOM      2  N   UNL d   1       0.713   0.173  -0.923  0.00  0.00    -0.315 N 
ATOM      3  HN  UNL d   1       1.252   0.374  -1.765  1.00  0.00     0.169 HD
ATOM      4  C   UNL d   1       0.251   1.048   0.043  0.00  0.00     0.138 A 
ATOM      5  N   UNL d   1      -0.448   0.455   1.025  0.00  0.00    -0.242 N 
ATOM      6  HN  UNL d   1      -0.889   0.893   1.833  1.00  0.00     0.196 HD
ATOM      7  O   UNL d   1      -0.429  -0.895   0.684  0.00  0.00    -0.212 OA
ENDROOT
BRANCH   4   8
ATOM      8  C   UNL d   1       0.520   2.484  -0.005  0.00  0.00     0.012 A 
ATOM      9  C   UNL d   1       1.230   3.040  -1.086  0.00  0.00     0.045 A 
ATOM     10  C   UNL d   1       1.501   4.418  -1.145  0.00  0.00     0.039 A 
ATOM     11  C   UNL d   1       1.059   5.238  -0.097  0.00  0.00     0.030 A 
ATOM     12  C   UNL d   1       0.354   4.695   0.979  0.00  0.00     0.003 A 
ATOM     13  C   UNL d   1       0.084   3.329   1.023  0.00  0.00     0.015 A 
BRANCH  10  14
ATOM     14  N   UNL d   1       2.202   4.978  -2.261  0.00  0.00    -0.333 N 
ATOM     15  C   UNL d   1       2.576   6.301  -2.424  0.00  0.00     0.096 A 
ATOM     16  C   UNL d   1       3.198   6.458  -3.644  0.00  0.00     0.019 A 
ATOM     17  C   UNL d   1       3.228   5.194  -4.259  0.00  0.00     0.019 A 
ATOM     18  C   UNL d   1       2.625   4.306  -3.395  0.00  0.00     0.096 A 
ENDBRANCH  10  14
ENDBRANCH   4   8
BRANCH   1  19
ATOM     19  C   UNL d   1       0.504  -2.292  -1.063  0.00  0.00     0.309 C 
ATOM     20  O   UNL d   1       0.110  -3.358  -0.586  0.00  0.00    -0.262 OA
ATOM     21  N   UNL d   1       1.239  -2.256  -2.251  0.00  0.00    -0.287 N 
ATOM     22  H   UNL d   1       1.471  -1.349  -2.660  0.00  0.00     0.183 HD
BRANCH  21  23
ATOM     23  N   UNL d   1       1.510  -3.446  -2.967  0.00  0.00    -0.247 NA
ATOM     24  H   UNL d   1       0.961  -4.199  -2.526  0.00  0.00     0.143 HD
ATOM     25  H   UNL d   1       2.483  -3.711  -2.787  0.00  0.00     0.143 HD
ENDBRANCH  21  23
ENDBRANCH   1  19
TORSDOF 4
