REMARK  4 active torsions:
REMARK  status: ('A' for Active; 'I' for Inactive)
REMARK    1  A    between atoms: N_5  and  S_1 
REMARK    2  A    between atoms: C_7  and  S_1 
REMARK    3  A    between atoms: C_4  and  N_5 
REMARK       I    between atoms: C_12  and  N_13 
REMARK    4  A    between atoms: N_13  and  C_18 
ROOT
ATOM      1  S   UNL d   1      -0.024   0.719   0.386  0.00  0.00     0.259 S 
ATOM      2  O   UNL d   1      -1.095  -0.244   0.498  0.00  0.00    -0.201 OA
ATOM      3  O   UNL d   1      -0.129   2.039   0.960  0.00  0.00    -0.201 OA
ENDROOT
BRANCH   1   4
ATOM      4  N   UNL d   1       0.320   0.851  -1.264  0.00  0.00    -0.310 N 
ATOM      5  H   UNL d   1       0.412  -0.064  -1.703  0.00  0.00     0.172 HD
BRANCH   4   6
ATOM      6  C   UNL d   1       1.230   1.902  -1.738  0.00  0.00     0.102 C 
ATOM      7  C   UNL d   1       1.493   1.837  -3.283  0.00  0.00    -0.016 C 
ATOM      8  C   UNL d   1       2.061   3.269  -3.563  0.00  0.00    -0.035 C 
ATOM      9  C   UNL d   1       0.129   1.865  -4.041  0.00  0.00     0.012 C 
ATOM     10  C   UNL d   1       2.364   0.671  -3.715  0.00  0.00     0.018 C 
ATOM     11  C   UNL d   1       2.350   3.593  -5.043  0.00  0.00     0.016 C 
ATOM     12  C   UNL d   1       3.339   3.651  -2.788  0.00  0.00     0.016 C 
ATOM     13  C   UNL d   1       0.777   3.931  -3.006  0.00  0.00    -0.004 C 
ATOM     14  C   UNL d   1       0.626   3.318  -1.591  0.00  0.00     0.032 C 
ATOM     15  C   UNL d   1      -0.347   3.315  -3.863  0.00  0.00     0.006 C 
ENDBRANCH   4   6
ENDBRANCH   1   4
BRANCH   1  16
ATOM     16  C   UNL d   1       1.427  -0.055   1.074  0.00  0.00     0.079 A 
ATOM     17  C   UNL d   1       2.303   0.669   1.887  0.00  0.00     0.027 A 
ATOM     18  C   UNL d   1       3.320  -0.000   2.582  0.00  0.00     0.031 A 
ATOM     19  C   UNL d   1       3.467  -1.392   2.481  0.00  0.00     0.034 A 
ATOM     20  C   UNL d   1       2.598  -2.099   1.645  0.00  0.00     0.031 A 
ATOM     21  C   UNL d   1       1.577  -1.440   0.951  0.00  0.00     0.027 A 
BRANCH  19  22
ATOM     22  N   UNL d   1       4.468  -2.003   3.271  0.00  0.00    -0.328 N 
ATOM     23  C   UNL d   1       4.771  -3.352   3.344  0.00  0.00     0.218 C 
ATOM     24  O   UNL d   1       4.260  -4.255   2.689  0.00  0.00    -0.274 OA
ATOM     25  C   UNL d   1       5.849  -3.671   4.353  0.00  0.00     0.117 C 
ATOM     26  H   UNL d   1       4.999  -1.382   3.868  0.00  0.00     0.169 HD
ENDBRANCH  19  22
ENDBRANCH   1  16
TORSDOF 4
