REMARK  3 active torsions:
REMARK  status: ('A' for Active; 'I' for Inactive)
REMARK    1  A    between atoms: C_2  and  S_1 
REMARK    2  A    between atoms: N_10  and  S_1 
REMARK    3  A    between atoms: C_16  and  N_10 
ROOT
ATOM      1  S   UNL d   1       1.139   0.128   0.124  0.00  0.00     0.265 S 
ATOM      2  O   UNL d   1       0.578  -1.010  -0.568  0.00  0.00    -0.200 OA
ATOM      3  O   UNL d   1       2.572   0.359   0.135  0.00  0.00    -0.200 OA
ENDROOT
BRANCH   1   4
ATOM      4  C   UNL d   1       0.614   0.015   1.789  0.00  0.00     0.110 A 
ATOM      5  C   UNL d   1      -0.742  -0.030   2.149  0.00  0.00     0.108 A 
ATOM      6  C   UNL d   1      -1.154  -0.212   3.538  0.00  0.00     0.086 A 
ATOM      7  N   UNL d   1      -1.851   0.081   1.405  0.00  0.00    -0.238 N 
ATOM      8  N   UNL d   1      -2.490  -0.219   3.585  0.00  0.00    -0.239 N 
ATOM      9  C   UNL d   1      -0.230  -0.351   4.591  0.00  0.00     0.034 A 
ATOM     10  O   UNL d   1      -2.916  -0.058   2.279  0.00  0.00    -0.156 OA
ATOM     11  HN  UNL d   1      -3.076  -0.323   4.414  1.00  0.00     0.197 HD
ATOM     12  C   UNL d   1       1.122  -0.296   4.202  0.00  0.00     0.004 A 
ATOM     13  C   UNL d   1       1.532  -0.122   2.854  0.00  0.00     0.028 A 
ATOM     14  HN  UNL d   1      -1.901   0.235   0.398  1.00  0.00     0.197 HD
ENDBRANCH   1   4
BRANCH   1  15
ATOM     15  N   UNL d   1       0.376   1.502  -0.475  0.00  0.00    -0.281 N 
ATOM     16  H   UNL d   1      -0.590   1.330  -0.764  0.00  0.00     0.179 HD
BRANCH  15  17
ATOM     17  C   UNL d   1       0.725   2.793  -0.006  0.00  0.00     0.042 A 
ATOM     18  C   UNL d   1       1.934   3.370  -0.398  0.00  0.00     0.032 A 
ATOM     19  C   UNL d   1       2.248   4.673  -0.006  0.00  0.00     0.026 A 
ATOM     20  C   UNL d   1       1.358   5.386   0.795  0.00  0.00     0.034 A 
ATOM     21  C   UNL d   1       0.161   4.803   1.212  0.00  0.00     0.026 A 
ATOM     22 CL   UNL d   1       1.729   7.001   1.258  0.00  0.00    -0.084 Cl
ATOM     23  C   UNL d   1      -0.159   3.503   0.807  0.00  0.00     0.032 A 
ENDBRANCH  15  17
ENDBRANCH   1  15
TORSDOF 3
