REMARK  4 active torsions:
REMARK  status: ('A' for Active; 'I' for Inactive)
REMARK    1  A    between atoms: C_3  and  S_1 
REMARK    2  A    between atoms: C_7  and  S_1 
REMARK    3  A    between atoms: C_2  and  C_4 
REMARK    4  A    between atoms: C_16  and  C_7 
ROOT
ATOM      1  C   UNL d   1       2.806  -0.310  -0.276  0.00  0.00     0.128 A 
ATOM      2  C   UNL d   1       5.455  -0.911  -0.561  0.00  0.00     0.063 A 
ATOM      3  N   UNL d   1       3.144  -1.623  -0.357  0.00  0.00    -0.356 N 
ATOM      4  HN  UNL d   1       2.446  -2.365  -0.314  1.00  0.00     0.166 HD
ATOM      5  C   UNL d   1       4.465  -1.887  -0.499  0.00  0.00     0.105 A 
ATOM      6  C   UNL d   1       5.054   0.430  -0.482  0.00  0.00     0.020 A 
ATOM      7  C   UNL d   1       3.704   0.745  -0.335  0.00  0.00     0.042 A 
ENDROOT
BRANCH   1   8
ATOM      8  S   UNL d   1       1.063   0.022  -0.036  0.00  0.00     0.195 S 
ATOM      9  O   UNL d   1       0.626   0.729  -1.228  0.00  0.00    -0.221 OA
ATOM     10  O   UNL d   1       0.958   0.630   1.280  0.00  0.00    -0.221 OA
BRANCH   8  11
ATOM     11  C   UNL d   1       0.311  -1.598  -0.003  0.00  0.00     0.185 C 
BRANCH  11  12
ATOM     12  C   UNL d   1      -1.172  -1.497   0.265  0.00  0.00    -0.044 A 
ATOM     13  C   UNL d   1      -2.091  -1.426  -0.791  0.00  0.00     0.008 A 
ATOM     14  C   UNL d   1      -3.468  -1.416  -0.537  0.00  0.00     0.007 A 
ATOM     15  C   UNL d   1      -3.951  -1.468   0.775  0.00  0.00    -0.062 A 
ATOM     16  C   UNL d   1      -3.035  -1.510   1.831  0.00  0.00     0.007 A 
ATOM     17  C   UNL d   1      -5.428  -1.489   1.033  0.00  0.00     0.048 C 
ATOM     18  C   UNL d   1      -1.660  -1.521   1.579  0.00  0.00     0.008 A 
ENDBRANCH  11  12
ENDBRANCH   8  11
ENDBRANCH   1   8
BRANCH   2  19
ATOM     19  C   UNL d   1       6.900  -1.291  -0.698  0.00  0.00     0.418 C 
ATOM     20  F   UNL d   1       7.106  -2.636  -0.745  0.00  0.00    -0.166 F 
ATOM     21  F   UNL d   1       7.467  -0.787  -1.827  0.00  0.00    -0.166 F 
ATOM     22  F   UNL d   1       7.657  -0.835   0.337  0.00  0.00    -0.166 F 
ENDBRANCH   2  19
TORSDOF 4
