REMARK  6 active torsions:
REMARK  status: ('A' for Active; 'I' for Inactive)
REMARK    1  A    between atoms: C_2  and  C_1 
REMARK    2  A    between atoms: C_3  and  C_1 
REMARK    3  A    between atoms: C_7  and  C_3 
REMARK    4  A    between atoms: N_8  and  N_4 
REMARK       I    between atoms: C_6  and  N_8 
REMARK       I    between atoms: N_14  and  C_6 
REMARK    5  A    between atoms: O_15  and  C_7 
REMARK    6  A    between atoms: C_16  and  O_15 
ROOT
ATOM      1  C   UNL d   1       0.952  -0.134   0.055  0.00  0.00     0.118 C 
ATOM      2  N   UNL d   1       2.261  -0.141   0.052  0.00  0.00    -0.296 N 
ATOM      3  HN  UNL d   1       2.771  -0.954   0.397  1.00  0.00     0.186 HD
ENDROOT
BRANCH   1   4
ATOM      4  C   UNL d   1       0.242  -1.368   0.605  0.00  0.00     0.430 C 
ATOM      5  F   UNL d   1      -1.112  -1.301   0.599  0.00  0.00    -0.165 F 
ATOM      6  F   UNL d   1       0.570  -2.488  -0.097  0.00  0.00    -0.165 F 
ATOM      7  F   UNL d   1       0.595  -1.610   1.898  0.00  0.00    -0.165 F 
ENDBRANCH   1   4
BRANCH   1   8
ATOM      8  C   UNL d   1       0.154   1.048  -0.432  0.00  0.00     0.174 C 
BRANCH   8   9
ATOM      9  C   UNL d   1      -1.334   0.955  -0.448  0.00  0.00     0.264 C 
ATOM     10  O   UNL d   1      -1.973   0.507  -1.389  0.00  0.00    -0.265 OA
BRANCH   9  11
ATOM     11  O   UNL d   1      -1.845   1.484   0.694  0.00  0.00    -0.322 OA
BRANCH  11  12
ATOM     12  C   UNL d   1      -3.260   1.731   0.689  0.00  0.00     0.174 C 
ATOM     13  C   UNL d   1      -3.496   3.137   0.167  0.00  0.00     0.034 C 
ENDBRANCH  11  12
ENDBRANCH   9  11
ENDBRANCH   8   9
ENDBRANCH   1   8
BRANCH   2  14
ATOM     14  N   UNL d   1       2.940   0.953  -0.415  0.00  0.00    -0.252 N 
ATOM     15  C   UNL d   1       4.312   1.011  -0.407  0.00  0.00     0.332 C 
ATOM     16  O   UNL d   1       4.935   1.961  -0.865  0.00  0.00    -0.246 OA
ATOM     17  N   UNL d   1       4.916  -0.061   0.158  0.00  0.00    -0.351 N 
ATOM     18  H   UNL d   1       4.340  -0.883   0.277  0.00  0.00     0.160 HD
ATOM     19  H   UNL d   1       5.915  -0.151   0.062  0.00  0.00     0.160 HD
ATOM     20  H   UNL d   1       2.480   1.757  -0.824  0.00  0.00     0.191 HD
ENDBRANCH   2  14
TORSDOF 6
