REMARK  4 active torsions:
REMARK  status: ('A' for Active; 'I' for Inactive)
REMARK    1  A    between atoms: S_9  and  C_1 
REMARK       I    between atoms: C_6  and  N_7 
REMARK    2  A    between atoms: C_13  and  C_6 
REMARK    3  A    between atoms: N_7  and  C_10 
REMARK    4  A    between atoms: C_11  and  S_9 
ROOT
ATOM      1  C   UNL d   1      -4.867  -2.153   0.727  0.00  0.00     0.052 C 
ATOM      2  C   UNL d   1      -5.083  -1.700  -0.590  0.00  0.00     0.034 C 
ATOM      3  C   UNL d   1      -5.590  -3.278   1.179  0.00  0.00     0.031 C 
ATOM      4  C   UNL d   1      -6.138  -2.271  -1.333  0.00  0.00     0.021 C 
ATOM      5  C   UNL d   1      -6.595  -3.860   0.408  0.00  0.00     0.002 C 
ATOM      6  C   UNL d   1      -6.897  -3.330  -0.835  0.00  0.00     0.002 C 
ENDROOT
BRANCH   2   7
ATOM      7  S   UNL d   1      -4.092  -0.540  -1.533  0.00  0.00    -0.063 SA
BRANCH   7   8
ATOM      8  C   UNL d   1      -2.481  -1.129  -1.176  0.00  0.00     0.118 A 
ATOM      9  N   UNL d   1      -2.211  -2.395  -0.947  0.00  0.00    -0.344 N 
ATOM     10  C   UNL d   1      -0.881  -2.536  -0.605  0.00  0.00     0.050 A 
ATOM     11  HN  UNL d   1      -2.884  -3.159  -1.013  1.00  0.00     0.167 HD
ATOM     12  C   UNL d   1      -0.248  -3.737  -0.224  0.00  0.00     0.032 A 
ATOM     13  C   UNL d   1      -0.126  -1.362  -0.637  0.00  0.00     0.035 A 
ATOM     14  C   UNL d   1       1.105  -3.727   0.135  0.00  0.00     0.026 A 
ATOM     15  C   UNL d   1       1.829  -2.540   0.098  0.00  0.00     0.035 A 
ATOM     16  C   UNL d   1       1.236  -1.339  -0.298  0.00  0.00     0.045 A 
ATOM     17 CL   UNL d   1       3.487  -2.545   0.564  0.00  0.00    -0.084 Cl
ATOM     18  S   UNL d   1      -1.139  -0.062  -1.131  0.00  0.00    -0.063 SA
ENDBRANCH   7   8
ENDBRANCH   2   7
BRANCH   1  19
ATOM     19  N   UNL d   1      -4.005  -1.599   1.711  0.00  0.00    -0.322 N 
ATOM     20  C   UNL d   1      -3.678  -0.265   1.884  0.00  0.00     0.256 C 
ATOM     21  O   UNL d   1      -3.954   0.671   1.151  0.00  0.00    -0.267 OA
ATOM     22  H   UNL d   1      -3.916  -2.164   2.544  0.00  0.00     0.169 HD
BRANCH  20  23
ATOM     23  C   UNL d   1      -3.075   0.040   3.215  0.00  0.00     0.032 A 
ATOM     24  C   UNL d   1      -2.256  -0.869   3.896  0.00  0.00     0.017 A 
ATOM     25  C   UNL d   1      -1.932  -0.639   5.236  0.00  0.00     0.007 A 
ATOM     26  C   UNL d   1      -2.416   0.497   5.899  0.00  0.00    -0.062 A 
ATOM     27  C   UNL d   1      -3.131   1.458   5.177  0.00  0.00     0.007 A 
ATOM     28  C   UNL d   1      -2.188   0.665   7.373  0.00  0.00     0.048 C 
ATOM     29  C   UNL d   1      -3.459   1.231   3.840  0.00  0.00     0.017 A 
ENDBRANCH  20  23
ENDBRANCH   1  19
TORSDOF 4
