REMARK  4 active torsions:
REMARK  status: ('A' for Active; 'I' for Inactive)
REMARK    1  A    between atoms: C_2  and  C_1 
REMARK       I    between atoms: N_3  and  C_1 
REMARK    2  A    between atoms: C_4  and  C_8 
REMARK    3  A    between atoms: C_14  and  C_4 
REMARK    4  A    between atoms: C_15  and  C_4 
ROOT
ATOM      1  C   UNL d   1      -1.576   3.905  -2.374  0.00  0.00     0.056 C 
ENDROOT
BRANCH   1   2
ATOM      2  C   UNL d   1      -1.685   2.335  -2.334  0.00  0.00     0.001 C 
ATOM      3  C   UNL d   1      -2.065   1.775  -0.934  0.00  0.00     0.025 C 
ATOM      4  C   UNL d   1      -0.914   1.910   0.064  0.00  0.00     0.126 C 
ATOM      5  N   UNL d   1       0.247   1.181  -0.442  0.00  0.00    -0.348 N 
ATOM      6  C   UNL d   1       0.832   0.003   0.035  0.00  0.00     0.274 C 
ATOM      7  C   UNL d   1       0.733   1.722  -1.719  0.00  0.00     0.126 C 
ATOM      8  O   UNL d   1       1.870  -0.383  -0.536  0.00  0.00    -0.268 OA
ATOM      9  C   UNL d   1      -0.369   1.641  -2.780  0.00  0.00     0.025 C 
BRANCH   6  10
ATOM     10  C   UNL d   1       0.342  -0.812   1.276  0.00  0.00     0.269 C 
ATOM     11 CL   UNL d   1      -1.385  -0.740   1.673  0.00  0.00    -0.073 Cl
ATOM     12 CL   UNL d   1       0.666  -2.565   0.938  0.00  0.00    -0.073 Cl
ATOM     13 CL   UNL d   1       1.331  -0.314   2.679  0.00  0.00    -0.073 Cl
ENDBRANCH   6  10
ENDBRANCH   1   2
BRANCH   1  14
ATOM     14  C   UNL d   1      -1.197   4.427  -3.760  0.00  0.00    -0.049 A 
ATOM     15  C   UNL d   1      -2.005   4.191  -4.881  0.00  0.00     0.008 A 
ATOM     16  C   UNL d   1      -1.628   4.655  -6.142  0.00  0.00     0.001 A 
ATOM     17  C   UNL d   1      -0.433   5.357  -6.301  0.00  0.00     0.000 A 
ATOM     18  C   UNL d   1       0.374   5.607  -5.198  0.00  0.00     0.001 A 
ATOM     19  C   UNL d   1      -0.008   5.151  -3.935  0.00  0.00     0.008 A 
ENDBRANCH   1  14
BRANCH   1  20
ATOM     20  C   UNL d   1      -2.779   4.667  -1.819  0.00  0.00    -0.049 A 
ATOM     21  C   UNL d   1      -2.563   5.865  -1.119  0.00  0.00     0.008 A 
ATOM     22  C   UNL d   1      -3.629   6.599  -0.596  0.00  0.00     0.001 A 
ATOM     23  C   UNL d   1      -4.938   6.147  -0.772  0.00  0.00     0.000 A 
ATOM     24  C   UNL d   1      -5.172   4.973  -1.483  0.00  0.00     0.001 A 
ATOM     25  C   UNL d   1      -4.104   4.243  -2.011  0.00  0.00     0.008 A 
ENDBRANCH   1  20
TORSDOF 4
