REMARK  4 active torsions:
REMARK  status: ('A' for Active; 'I' for Inactive)
REMARK    1  A    between atoms: C_2  and  C_1 
REMARK       I    between atoms: N_4  and  C_2 
REMARK    2  A    between atoms: S_5  and  C_3 
REMARK    3  A    between atoms: C_10  and  N_4 
REMARK    4  A    between atoms: C_11  and  S_5 
ROOT
ATOM      1  C   UNL d   1       1.485   0.646   0.447  0.00  0.00     0.056 A 
ATOM      2  C   UNL d   1       1.675  -0.780   0.615  0.00  0.00     0.028 A 
ATOM      3  S   UNL d   1      -0.849  -0.403   0.900  0.00  0.00    -0.111 SA
ATOM      4  C   UNL d   1       0.142   0.960   0.610  0.00  0.00     0.068 A 
ATOM      5  C   UNL d   1       0.493  -1.451   0.838  0.00  0.00     0.069 A 
ENDROOT
BRANCH   1   6
ATOM      6  C   UNL d   1       2.541   1.644   0.213  0.00  0.00     0.258 C 
ATOM      7  N   UNL d   1       2.148   2.973   0.228  0.00  0.00    -0.323 N 
ATOM      8  H   UNL d   1       1.340   3.197  -0.337  0.00  0.00     0.169 HD
ATOM      9  O   UNL d   1       3.715   1.318   0.050  0.00  0.00    -0.267 OA
BRANCH   7  10
ATOM     10  C   UNL d   1       3.105   3.986   0.448  0.00  0.00     0.035 A 
ATOM     11  C   UNL d   1       3.125   5.116  -0.365  0.00  0.00     0.031 A 
ATOM     12  C   UNL d   1       4.138   6.067  -0.201  0.00  0.00     0.026 A 
ATOM     13  C   UNL d   1       5.088   5.912   0.813  0.00  0.00     0.034 A 
ATOM     14  C   UNL d   1       5.029   4.822   1.673  0.00  0.00     0.026 A 
ATOM     15 CL   UNL d   1       6.347   7.071   0.991  0.00  0.00    -0.084 Cl
ATOM     16  C   UNL d   1       4.041   3.857   1.487  0.00  0.00     0.031 A 
ENDBRANCH   7  10
ENDBRANCH   1   6
BRANCH   2  17
ATOM     17  S   UNL d   1       3.182  -1.677   0.430  0.00  0.00    -0.089 SA
BRANCH  17  18
ATOM     18  C   UNL d   1       4.159  -1.419   1.904  0.00  0.00     0.005 A 
ATOM     19  C   UNL d   1       4.179  -0.238   2.655  0.00  0.00     0.020 A 
ATOM     20  C   UNL d   1       5.104  -0.053   3.689  0.00  0.00     0.025 A 
ATOM     21  C   UNL d   1       5.998  -1.069   4.008  0.00  0.00     0.034 A 
ATOM     22  C   UNL d   1       5.967  -2.270   3.308  0.00  0.00     0.025 A 
ATOM     23 CL   UNL d   1       7.153  -0.831   5.260  0.00  0.00    -0.084 Cl
ATOM     24  C   UNL d   1       5.057  -2.438   2.257  0.00  0.00     0.020 A 
ENDBRANCH  17  18
ENDBRANCH   2  17
TORSDOF 4
