REMARK  6 active torsions:
REMARK  status: ('A' for Active; 'I' for Inactive)
REMARK    1  A    between atoms: C_4  and  S_1 
REMARK    2  A    between atoms: O_9  and  S_1 
REMARK    3  A    between atoms: S_3  and  C_2 
REMARK    4  A    between atoms: C_15  and  S_3 
REMARK    5  A    between atoms: C_7  and  C_10 
REMARK    6  A    between atoms: C_17  and  O_9 
ROOT
ATOM      1  C   UNL d   1      -1.238   3.486   0.065  0.00  0.00     0.072 A 
ATOM      2  C   UNL d   1       0.241   1.680  -0.017  0.00  0.00     0.128 A 
ATOM      3  C   UNL d   1      -1.087   2.066   0.026  0.00  0.00     0.057 A 
ATOM      4  S   UNL d   1       1.286   3.035  -0.049  0.00  0.00    -0.086 SA
ATOM      5  C   UNL d   1      -0.023   4.135   0.004  0.00  0.00     0.075 A 
ENDROOT
BRANCH   2   6
ATOM      6  S   UNL d   1       1.007   0.067  -0.005  0.00  0.00     0.309 S 
ATOM      7  O   UNL d   1       2.293   0.198  -0.655  0.00  0.00    -0.192 OA
ATOM      8  O   UNL d   1      -0.027  -0.821  -0.501  0.00  0.00    -0.192 OA
BRANCH   6   9
ATOM      9  O   UNL d   1       1.200  -0.151   1.597  0.00  0.00    -0.229 OA
BRANCH   9  10
ATOM     10  C   UNL d   1       1.752  -1.294   2.120  0.00  0.00     0.090 A 
ATOM     11  C   UNL d   1       2.164  -2.404   1.379  0.00  0.00     0.054 A 
ATOM     12  C   UNL d   1       2.724  -3.525   2.019  0.00  0.00     0.050 A 
ATOM     13  C   UNL d   1       2.866  -3.514   3.415  0.00  0.00     0.016 A 
ATOM     14  C   UNL d   1       2.451  -2.410   4.157  0.00  0.00     0.004 A 
ATOM     15  C   UNL d   1       1.894  -1.306   3.511  0.00  0.00     0.038 A 
BRANCH  12  16
ATOM     16  C   UNL d   1       3.169  -4.730   1.226  0.00  0.00     0.417 C 
ATOM     17  F   UNL d   1       2.954  -4.611  -0.114  0.00  0.00    -0.166 F 
ATOM     18  F   UNL d   1       4.498  -4.986   1.370  0.00  0.00    -0.166 F 
ATOM     19  F   UNL d   1       2.526  -5.868   1.606  0.00  0.00    -0.166 F 
ENDBRANCH  12  16
ENDBRANCH   9  10
ENDBRANCH   6   9
ENDBRANCH   2   6
BRANCH   1  20
ATOM     20  S   UNL d   1      -2.763   4.300   0.231  0.00  0.00     0.207 S 
ATOM     21  O   UNL d   1      -3.591   3.360   0.960  0.00  0.00    -0.217 OA
ATOM     22  O   UNL d   1      -2.426   5.605   0.761  0.00  0.00    -0.217 OA
BRANCH  20  23
ATOM     23  C   UNL d   1      -3.405   4.488  -1.406  0.00  0.00     0.064 A 
ATOM     24  C   UNL d   1      -4.255   3.510  -1.932  0.00  0.00     0.024 A 
ATOM     25  C   UNL d   1      -4.824   3.699  -3.192  0.00  0.00     0.002 A 
ATOM     26  C   UNL d   1      -4.552   4.862  -3.915  0.00  0.00     0.000 A 
ATOM     27  C   UNL d   1      -3.714   5.842  -3.381  0.00  0.00     0.002 A 
ATOM     28  C   UNL d   1      -3.140   5.661  -2.122  0.00  0.00     0.024 A 
ENDBRANCH  20  23
ENDBRANCH   1  20
TORSDOF 6
