REMARK  4 active torsions:
REMARK  status: ('A' for Active; 'I' for Inactive)
REMARK    1  A    between atoms: C_2  and  C_1 
REMARK    2  A    between atoms: C_9  and  C_2 
REMARK    3  A    between atoms: N_10  and  C_3 
REMARK    4  A    between atoms: C_14  and  N_10 
ROOT
ATOM      1  C   UNL d   1       0.912   0.039   0.188  0.00  0.00     0.110 C 
ATOM      2  C   UNL d   1       0.245  -0.688  -0.729  0.00  0.00     0.115 C 
ATOM      3  C   UNL d   1       0.227   0.789   1.181  0.00  0.00     0.105 C 
ATOM      4  N   UNL d   1      -0.352   1.415   1.970  0.00  0.00    -0.191 NA
ENDROOT
BRANCH   1   5
ATOM      5  C   UNL d   1       2.407   0.002   0.144  0.00  0.00     0.204 C 
ATOM      6  O   UNL d   1       3.012  -0.957  -0.332  0.00  0.00    -0.286 OA
BRANCH   5   7
ATOM      7  C   UNL d   1       3.191   1.149   0.682  0.00  0.00     0.016 A 
ATOM      8  C   UNL d   1       4.447   0.886   1.249  0.00  0.00     0.017 A 
ATOM      9  C   UNL d   1       5.232   1.934   1.742  0.00  0.00     0.025 A 
ATOM     10  C   UNL d   1       4.768   3.244   1.660  0.00  0.00     0.034 A 
ATOM     11  C   UNL d   1       3.530   3.518   1.083  0.00  0.00     0.025 A 
ATOM     12 CL   UNL d   1       5.735   4.537   2.254  0.00  0.00    -0.084 Cl
ATOM     13  C   UNL d   1       2.748   2.474   0.578  0.00  0.00     0.017 A 
ENDBRANCH   5   7
ENDBRANCH   1   5
BRANCH   2  14
ATOM     14  N   UNL d   1      -1.115  -0.757  -0.942  0.00  0.00    -0.364 N 
ATOM     15  H   UNL d   1      -1.704  -0.097  -0.444  0.00  0.00     0.165 HD
BRANCH  14  16
ATOM     16  C   UNL d   1      -1.797  -1.598  -1.840  0.00  0.00     0.034 A 
ATOM     17  C   UNL d   1      -1.303  -2.850  -2.221  0.00  0.00     0.069 A 
ATOM     18  C   UNL d   1      -1.957  -3.606  -3.194  0.00  0.00     0.104 A 
ATOM     19  O   UNL d   1      -1.393  -4.816  -3.508  0.00  0.00    -0.346 OA
ATOM     20  C   UNL d   1      -3.121  -3.124  -3.798  0.00  0.00     0.102 A 
ATOM     21  C   UNL d   1      -1.880  -5.302  -4.762  0.00  0.00     0.202 C 
ATOM     22  C   UNL d   1      -3.394  -5.179  -4.832  0.00  0.00     0.202 C 
ATOM     23  O   UNL d   1      -3.804  -3.809  -4.769  0.00  0.00    -0.346 OA
ATOM     24  C   UNL d   1      -3.624  -1.880  -3.433  0.00  0.00     0.042 A 
ATOM     25  C   UNL d   1      -2.967  -1.125  -2.456  0.00  0.00     0.032 A 
ENDBRANCH  14  16
ENDBRANCH   2  14
TORSDOF 4
