REMARK  2 active torsions:
REMARK  status: ('A' for Active; 'I' for Inactive)
REMARK    1  A    between atoms: N_19  and  C_2 
REMARK    2  A    between atoms: C_14  and  C_10 
ROOT
ATOM      1  N   UNL d   1       2.465  -0.770  -0.944  0.00  0.00    -0.279 N 
ATOM      2  C   UNL d   1       1.212  -0.163  -0.974  0.00  0.00     0.127 C 
ATOM      3  C   UNL d   1       1.117   1.127  -0.571  0.00  0.00     0.102 C 
ATOM      4  C   UNL d   1       3.624  -0.187  -0.297  0.00  0.00     0.207 C 
ATOM      5  C   UNL d   1       3.472   1.267   0.042  0.00  0.00     0.070 C 
ATOM      6  C   UNL d   1       2.297   1.907  -0.176  0.00  0.00     0.042 C 
ATOM      7  C   UNL d   1       2.557  -2.160  -1.000  0.00  0.00     0.267 C 
ATOM      8  C   UNL d   1       3.164  -2.628   0.283  0.00  0.00     0.073 C 
ATOM      9  S   UNL d   1       4.020  -1.322   1.072  0.00  0.00    -0.093 SA
ATOM     10  C   UNL d   1       2.886  -3.800   0.872  0.00  0.00     0.061 C 
ATOM     11  C   UNL d   1      -0.164   1.761  -0.487  0.00  0.00     0.104 C 
ATOM     12  C   UNL d   1       2.227   3.335  -0.087  0.00  0.00     0.088 A 
ATOM     13  C   UNL d   1       4.665   1.969   0.398  0.00  0.00     0.099 C 
ATOM     14  N   UNL d   1       5.663   2.507   0.654  0.00  0.00    -0.192 NA
ATOM     15  N   UNL d   1      -1.220   2.239  -0.398  0.00  0.00    -0.191 NA
ATOM     16  O   UNL d   1       2.031   4.016   1.089  0.00  0.00    -0.322 OA
ATOM     17  O   UNL d   1       2.106  -2.880  -1.877  0.00  0.00    -0.266 OA
ATOM     18  C   UNL d   1       2.211   4.264  -1.122  0.00  0.00     0.040 A 
ATOM     19  C   UNL d   1       1.855   5.329   0.791  0.00  0.00     0.142 A 
ATOM     20  C   UNL d   1       1.957   5.535  -0.561  0.00  0.00     0.027 A 
ENDROOT
BRANCH   2  21
ATOM     21  N   UNL d   1       0.106  -0.902  -1.347  0.00  0.00    -0.384 N 
ATOM     22  H   UNL d   1       0.247  -1.915  -1.342  0.00  0.00     0.157 HD
ATOM     23  H   UNL d   1      -0.793  -0.630  -0.959  0.00  0.00     0.157 HD
ENDBRANCH   2  21
BRANCH  10  24
ATOM     24  C   UNL d   1       1.808  -4.626   0.438  0.00  0.00     0.076 A 
ATOM     25  O   UNL d   1       0.513  -4.151   0.350  0.00  0.00    -0.323 OA
ATOM     26  C   UNL d   1      -0.305  -5.187   0.045  0.00  0.00     0.142 A 
ATOM     27  C   UNL d   1       0.421  -6.340  -0.099  0.00  0.00     0.027 A 
ATOM     28  C   UNL d   1       1.772  -5.981   0.136  0.00  0.00     0.039 A 
ENDBRANCH  10  24
TORSDOF 2
