REMARK  8 active torsions:
REMARK  status: ('A' for Active; 'I' for Inactive)
REMARK    1  A    between atoms: C_3  and  C_1 
REMARK    2  A    between atoms: N_2  and  C_3 
REMARK       I    between atoms: C_4  and  N_7 
REMARK    3  A    between atoms: C_20  and  C_4 
REMARK    4  A    between atoms: N_7  and  C_15 
REMARK    5  A    between atoms: C_8  and  C_21 
REMARK    6  A    between atoms: O_19  and  C_8 
REMARK    7  A    between atoms: O_18  and  C_20 
REMARK    8  A    between atoms: C_21  and  O_18 
ROOT
ATOM      1  N   UNL d   1      -1.357   2.958   0.093  0.00  0.00     0.092 N 
ATOM      2  C   UNL d   1      -3.431   3.718  -1.094  0.00  0.00     0.055 C 
ATOM      3  C   UNL d   1      -3.421   3.537   1.385  0.00  0.00     0.055 C 
ATOM      4  C   UNL d   1      -2.137   2.908  -1.145  0.00  0.00     0.275 C 
ATOM      5  C   UNL d   1      -2.120   2.734   1.320  0.00  0.00     0.275 C 
ATOM      6  C   UNL d   1      -4.272   3.357   0.130  0.00  0.00     0.087 C 
ENDROOT
BRANCH   6   7
ATOM      7  N   UNL d   1      -4.820   2.000   0.045  0.00  0.00    -0.355 N 
ATOM      8  C   UNL d   1      -6.009   1.736  -0.607  0.00  0.00     0.241 C 
ATOM      9  O   UNL d   1      -6.727   2.611  -1.087  0.00  0.00    -0.271 OA
ATOM     10  H   UNL d   1      -4.177   1.232   0.191  0.00  0.00     0.162 HD
BRANCH   8  11
ATOM     11  C   UNL d   1      -6.358   0.236  -0.696  0.00  0.00     0.271 C 
BRANCH  11  12
ATOM     12  O   UNL d   1      -7.077  -0.203  -1.848  0.00  0.00    -0.372 OA
BRANCH  12  13
ATOM     13  C   UNL d   1      -6.385   0.073  -3.065  0.00  0.00     0.277 C 
BRANCH  13  14
ATOM     14  C   UNL d   1      -5.172  -0.829  -3.230  0.00  0.00     0.164 C 
ATOM     15  O   UNL d   1      -4.036  -0.434  -3.454  0.00  0.00    -0.648 OA
BRANCH  14  16
ATOM     16  O   UNL d   1      -5.475  -2.136  -3.048  0.00  0.00    -0.775 OA
ATOM     17  H   UNL d   1      -6.421  -2.241  -2.812  0.00  0.00     0.167 HD
ENDBRANCH  14  16
ENDBRANCH  13  14
ENDBRANCH  12  13
ENDBRANCH  11  12
ENDBRANCH   8  11
ENDBRANCH   6   7
BRANCH   1  18
ATOM     18  C   UNL d   1      -0.111   2.155   0.033  0.00  0.00     0.315 C 
BRANCH  18  19
ATOM     19  C   UNL d   1      -0.241   0.676  -0.292  0.00  0.00     0.030 A 
ATOM     20  C   UNL d   1      -0.450  -0.241   0.750  0.00  0.00     0.126 A 
ATOM     21  F   UNL d   1      -0.501   0.186   2.020  0.00  0.00    -0.205 F 
ATOM     22  C   UNL d   1      -0.604  -1.608   0.518  0.00  0.00     0.043 A 
ATOM     23  C   UNL d   1      -0.554  -2.097  -0.782  0.00  0.00     0.005 A 
ATOM     24  C   UNL d   1      -0.333  -1.213  -1.835  0.00  0.00     0.024 A 
ATOM     25  C   UNL d   1      -0.162   0.158  -1.594  0.00  0.00     0.045 A 
ATOM     26 CL   UNL d   1       0.185   1.147  -2.968  0.00  0.00    -0.084 Cl
ENDBRANCH  18  19
ENDBRANCH   1  18
TORSDOF 8
