REMARK  7 active torsions:
REMARK  status: ('A' for Active; 'I' for Inactive)
REMARK       I    between atoms: N_2  and  C_1 
REMARK    1  A    between atoms: O_3  and  C_1 
REMARK    2  A    between atoms: C_6  and  N_2 
REMARK    3  A    between atoms: C_5  and  O_3 
REMARK    4  A    between atoms: C_9  and  C_5 
REMARK    5  A    between atoms: C_10  and  C_5 
REMARK    6  A    between atoms: S_7  and  C_10 
REMARK    7  A    between atoms: S_8  and  C_9 
ROOT
ATOM      1  C   UNL d   1       0.904   0.974  -0.305  0.00  0.00     0.365 C 
ATOM      2  N   UNL d   1       1.911   1.889  -0.247  0.00  0.00    -0.303 N 
ATOM      3  O   UNL d   1       0.613   0.206  -1.208  0.00  0.00    -0.238 OA
ATOM      4  H   UNL d   1       1.820   2.522   0.534  0.00  0.00     0.171 HD
ENDROOT
BRANCH   1   5
ATOM      5  O   UNL d   1       0.163   1.115   0.829  0.00  0.00    -0.297 OA
BRANCH   5   6
ATOM      6  C   UNL d   1      -1.269   0.999   0.651  0.00  0.00     0.152 C 
BRANCH   6   7
ATOM      7  C   UNL d   1      -1.740  -0.326   1.272  0.00  0.00     0.107 C 
BRANCH   7   8
ATOM      8  S   UNL d   1      -3.528  -0.609   1.008  0.00  0.00    -0.171 SA
ATOM      9  C   UNL d   1      -3.752  -2.075   2.041  0.00  0.00     0.089 C 
ENDBRANCH   7   8
ENDBRANCH   6   7
BRANCH   6  10
ATOM     10  C   UNL d   1      -1.877   2.226   1.356  0.00  0.00     0.107 C 
BRANCH  10  11
ATOM     11  S   UNL d   1      -1.310   3.788   0.573  0.00  0.00    -0.171 SA
ATOM     12  C   UNL d   1      -2.029   4.958   1.745  0.00  0.00     0.089 C 
ENDBRANCH  10  11
ENDBRANCH   6  10
ENDBRANCH   5   6
ENDBRANCH   1   5
BRANCH   2  13
ATOM     13  C   UNL d   1       2.868   2.195  -1.226  0.00  0.00     0.036 A 
ATOM     14  C   UNL d   1       3.132   1.385  -2.332  0.00  0.00     0.029 A 
ATOM     15  C   UNL d   1       4.110   1.758  -3.260  0.00  0.00     0.002 A 
ATOM     16  C   UNL d   1       4.822   2.945  -3.095  0.00  0.00     0.000 A 
ATOM     17  C   UNL d   1       4.561   3.762  -1.999  0.00  0.00     0.002 A 
ATOM     18  C   UNL d   1       3.593   3.384  -1.065  0.00  0.00     0.029 A 
ENDBRANCH   2  13
TORSDOF 7
