REMARK  6 active torsions:
REMARK  status: ('A' for Active; 'I' for Inactive)
REMARK       I    between atoms: N_2  and  C_1 
REMARK    1  A    between atoms: O_6  and  C_1 
REMARK    2  A    between atoms: C_3  and  C_10 
REMARK       I    between atoms: N_5  and  C_3 
REMARK    3  A    between atoms: C_21  and  N_5 
REMARK    4  A    between atoms: C_22  and  O_6 
REMARK    5  A    between atoms: C_20  and  C_21 
REMARK    6  A    between atoms: C_24  and  C_22 
ROOT
ATOM      1  C   UNL d   1       0.908  -0.252   0.120  0.00  0.00     0.363 C 
ATOM      2  N   UNL d   1       0.130   0.867   0.357  0.00  0.00    -0.328 N 
ATOM      3  C   UNL d   1      -1.685   3.143   0.529  0.00  0.00     0.081 C 
ATOM      4  O   UNL d   1       1.784  -0.301  -0.733  0.00  0.00    -0.238 OA
ATOM      5  C   UNL d   1       0.501   2.119  -0.293  0.00  0.00     0.129 C 
ATOM      6  C   UNL d   1      -0.778   0.978   1.489  0.00  0.00     0.129 C 
ATOM      7  C   UNL d   1      -2.028   1.763   1.113  0.00  0.00     0.034 C 
ATOM      8  C   UNL d   1      -0.734   2.937  -0.667  0.00  0.00     0.034 C 
ENDROOT
BRANCH   3   9
ATOM      9  C   UNL d   1      -1.086   4.093   1.575  0.00  0.00     0.222 C 
ATOM     10  N   UNL d   1      -1.820   4.460   2.663  0.00  0.00    -0.356 N 
ATOM     11  H   UNL d   1      -1.292   5.000   3.338  0.00  0.00     0.162 HD
ATOM     12  O   UNL d   1       0.047   4.560   1.470  0.00  0.00    -0.273 OA
BRANCH  10  13
ATOM     13  C   UNL d   1      -3.188   4.131   2.987  0.00  0.00     0.161 C 
BRANCH  13  14
ATOM     14  C   UNL d   1      -3.910   5.204   3.761  0.00  0.00    -0.038 A 
ATOM     15  C   UNL d   1      -4.886   4.812   4.693  0.00  0.00     0.048 A 
ATOM     16  C   UNL d   1      -5.646   5.789   5.296  0.00  0.00     0.105 A 
ATOM     17  O   UNL d   1      -6.648   5.571   6.189  0.00  0.00    -0.323 OA
ATOM     18  C   UNL d   1      -5.470   7.121   5.014  0.00  0.00     0.105 A 
ATOM     19  C   UNL d   1      -7.059   6.925   6.466  0.00  0.00     0.352 A 
ATOM     20  O   UNL d   1      -6.345   7.912   5.691  0.00  0.00    -0.323 OA
ATOM     21  C   UNL d   1      -4.513   7.551   4.120  0.00  0.00     0.040 A 
ATOM     22  C   UNL d   1      -3.729   6.580   3.485  0.00  0.00     0.012 A 
ENDBRANCH  13  14
ENDBRANCH  10  13
ENDBRANCH   3   9
BRANCH   1  23
ATOM     23  O   UNL d   1       0.575  -1.300   0.922  0.00  0.00    -0.299 OA
BRANCH  23  24
ATOM     24  C   UNL d   1       1.293  -2.517   0.696  0.00  0.00     0.219 C 
BRANCH  24  25
ATOM     25  C   UNL d   1       2.021  -2.928   1.950  0.00  0.00    -0.034 A 
ATOM     26  C   UNL d   1       1.316  -3.166   3.138  0.00  0.00     0.009 A 
ATOM     27  C   UNL d   1       1.982  -3.618   4.278  0.00  0.00     0.001 A 
ATOM     28  C   UNL d   1       3.358  -3.833   4.243  0.00  0.00     0.000 A 
ATOM     29  C   UNL d   1       4.073  -3.579   3.074  0.00  0.00     0.001 A 
ATOM     30  C   UNL d   1       3.409  -3.124   1.934  0.00  0.00     0.009 A 
ENDBRANCH  24  25
ENDBRANCH  23  24
ENDBRANCH   1  23
TORSDOF 6
