REMARK  3 active torsions:
REMARK  status: ('A' for Active; 'I' for Inactive)
REMARK       I    between atoms: N_3  and  C_1 
REMARK       I    between atoms: N_6  and  C_1 
REMARK    1  A    between atoms: C_9  and  N_3 
REMARK    2  A    between atoms: C_18  and  N_6 
REMARK    3  A    between atoms: C_17  and  C_18 
ROOT
ATOM      1  C   UNL d   1       1.141  -0.065  -0.089  0.00  0.00     0.320 C 
ATOM      2  N   UNL d   1       0.553   1.181  -0.019  0.00  0.00    -0.309 N 
ATOM      3  N   UNL d   1       0.225  -1.074   0.101  0.00  0.00    -0.339 N 
ATOM      4  O   UNL d   1       2.331  -0.298  -0.258  0.00  0.00    -0.247 OA
ATOM      5  H   UNL d   1      -0.371   1.209   0.380  0.00  0.00     0.170 HD
ATOM      6  H   UNL d   1      -0.752  -0.883  -0.058  0.00  0.00     0.164 HD
ENDROOT
BRANCH   2   7
ATOM      7  C   UNL d   1       1.207   2.422  -0.195  0.00  0.00     0.037 A 
ATOM      8  C   UNL d   1       2.484   2.540  -0.750  0.00  0.00     0.042 A 
ATOM      9  C   UNL d   1       3.118   3.787  -0.873  0.00  0.00    -0.024 A 
ATOM     10  C   UNL d   1       4.411   3.888  -1.412  0.00  0.00     0.012 A 
ATOM     11  C   UNL d   1       2.452   4.952  -0.442  0.00  0.00    -0.026 A 
ATOM     12  C   UNL d   1       5.045   5.125  -1.515  0.00  0.00     0.001 A 
ATOM     13  C   UNL d   1       4.394   6.276  -1.083  0.00  0.00     0.001 A 
ATOM     14  C   UNL d   1       3.104   6.193  -0.552  0.00  0.00     0.012 A 
ATOM     15  C   UNL d   1       1.155   4.835   0.087  0.00  0.00     0.014 A 
ATOM     16  C   UNL d   1       0.538   3.583   0.203  0.00  0.00     0.030 A 
ENDBRANCH   2   7
BRANCH   3  17
ATOM     17  C   UNL d   1       0.643  -2.459   0.137  0.00  0.00     0.163 C 
BRANCH  17  18
ATOM     18  C   UNL d   1       0.074  -3.259  -1.008  0.00  0.00    -0.038 A 
ATOM     19  C   UNL d   1      -0.782  -4.342  -0.752  0.00  0.00     0.048 A 
ATOM     20  C   UNL d   1      -1.247  -5.074  -1.825  0.00  0.00     0.105 A 
ATOM     21  O   UNL d   1      -2.075  -6.150  -1.749  0.00  0.00    -0.323 OA
ATOM     22  C   UNL d   1      -0.893  -4.772  -3.118  0.00  0.00     0.105 A 
ATOM     23  C   UNL d   1      -2.220  -6.478  -3.147  0.00  0.00     0.352 A 
ATOM     24  O   UNL d   1      -1.457  -5.619  -4.020  0.00  0.00    -0.323 OA
ATOM     25  C   UNL d   1      -0.053  -3.720  -3.412  0.00  0.00     0.040 A 
ATOM     26  C   UNL d   1       0.435  -2.958  -2.344  0.00  0.00     0.012 A 
ENDBRANCH  17  18
ENDBRANCH   3  17
TORSDOF 3
