REMARK  2 active torsions:
REMARK  status: ('A' for Active; 'I' for Inactive)
REMARK    1  A    between atoms: N_5  and  C_1 
REMARK    2  A    between atoms: C_9  and  C_7 
ROOT
ATOM      1  C   UNL d   1      -0.478  -1.383  -0.053  0.00  0.00     0.010 C 
ATOM      2  C   UNL d   1      -1.371  -0.387   0.052  0.00  0.00     0.055 C 
ATOM      3  C   UNL d   1      -1.107   1.071   0.036  0.00  0.00     0.070 C 
ATOM      4  S   UNL d   1       0.425   1.590  -0.624  0.00  0.00    -0.108 SA
ATOM      5  C   UNL d   1       1.017  -1.143  -0.140  0.00  0.00     0.077 C 
ATOM      6  C   UNL d   1       1.549   0.299  -0.042  0.00  0.00     0.091 C 
ATOM      7  S   UNL d   1      -2.279   2.201   0.453  0.00  0.00    -0.072 SA
ENDROOT
BRANCH   6   8
ATOM      8  C   UNL d   1       2.210   0.660   1.282  0.00  0.00    -0.043 A 
ATOM      9  C   UNL d   1       1.664   0.310   2.527  0.00  0.00     0.010 A 
ATOM     10  C   UNL d   1       2.340   0.620   3.712  0.00  0.00     0.024 A 
ATOM     11  C   UNL d   1       3.560   1.295   3.667  0.00  0.00     0.034 A 
ATOM     12  C   UNL d   1       4.106   1.672   2.447  0.00  0.00     0.024 A 
ATOM     13 CL   UNL d   1       4.396   1.659   5.126  0.00  0.00    -0.084 Cl
ATOM     14  C   UNL d   1       3.434   1.361   1.264  0.00  0.00     0.010 A 
ENDBRANCH   6   8
BRANCH   1  15
ATOM     15  N   UNL d   1      -0.926  -2.720  -0.141  0.00  0.00    -0.384 N 
ATOM     16  C   UNL d   1      -0.131  -3.856   0.362  0.00  0.00     0.122 C 
ATOM     17  C   UNL d   1      -1.058  -4.981   0.822  0.00  0.00     0.020 C 
ATOM     18  C   UNL d   1      -2.037  -5.399  -0.272  0.00  0.00     0.003 C 
ATOM     19  C   UNL d   1      -2.782  -4.188  -0.823  0.00  0.00     0.020 C 
ATOM     20  C   UNL d   1      -1.805  -3.106  -1.270  0.00  0.00     0.122 C 
ENDBRANCH   1  15
TORSDOF 2
