REMARK  9 active torsions:
REMARK  status: ('A' for Active; 'I' for Inactive)
REMARK    1  A    between atoms: N_2  and  S_1 
REMARK    2  A    between atoms: C_9  and  S_1 
REMARK    3  A    between atoms: C_10  and  C_3 
REMARK    4  A    between atoms: O_14  and  N_7 
REMARK    5  A    between atoms: C_13  and  O_14 
REMARK    6  A    between atoms: C_22  and  C_13 
REMARK    7  A    between atoms: C_24  and  C_22 
REMARK    8  A    between atoms: C_26  and  C_24 
REMARK    9  A    between atoms: C_25  and  C_26 
ROOT
ATOM      1  N   UNL d   1      -2.659  -0.983   6.672  0.00  0.00    -0.257 N 
ATOM      2  C   UNL d   1      -1.555  -1.938   4.974  0.00  0.00     0.006 A 
ATOM      3  C   UNL d   1      -2.153  -2.170   6.210  0.00  0.00     0.122 A 
ATOM      4  C   UNL d   1      -2.347   0.033   5.807  0.00  0.00     0.110 A 
ATOM      5  C   UNL d   1      -1.673  -0.529   4.742  0.00  0.00     0.033 A 
ENDROOT
BRANCH   2   6
ATOM      6  C   UNL d   1      -0.950  -2.947   4.088  0.00  0.00     0.040 C 
ATOM      7  N   UNL d   1      -0.981  -4.177   4.506  0.00  0.00    -0.261 N 
ATOM      8  HN  UNL d   1      -1.385  -4.461   5.398  1.00  0.00     0.194 HD
ATOM      9  C   UNL d   1      -0.360  -2.497   2.766  0.00  0.00     0.071 C 
BRANCH   7  10
ATOM     10  O   UNL d   1      -0.396  -5.077   3.592  0.00  0.00    -0.200 OA
BRANCH  10  11
ATOM     11  C   UNL d   1      -0.917  -6.336   3.772  0.00  0.00     0.281 C 
ATOM     12  O   UNL d   1      -1.800  -6.660   4.561  0.00  0.00    -0.263 OA
BRANCH  11  13
ATOM     13  C   UNL d   1      -0.280  -7.307   2.804  0.00  0.00     0.113 C 
BRANCH  13  14
ATOM     14  C   UNL d   1      -1.310  -7.918   1.855  0.00  0.00     0.010 C 
BRANCH  14  15
ATOM     15  C   UNL d   1      -1.987  -6.873   0.962  0.00  0.00     0.000 C 
BRANCH  15  16
ATOM     16  C   UNL d   1      -3.009  -7.521   0.027  0.00  0.00    -0.005 C 
ATOM     17  C   UNL d   1      -3.695  -6.487  -0.852  0.00  0.00     0.005 C 
ENDBRANCH  15  16
ENDBRANCH  14  15
ENDBRANCH  13  14
ENDBRANCH  11  13
ENDBRANCH  10  11
ENDBRANCH   7  10
ENDBRANCH   2   6
BRANCH   1  18
ATOM     18  S   UNL d   1      -3.547  -0.758   8.113  0.00  0.00     0.268 S 
ATOM     19  O   UNL d   1      -4.015  -2.079   8.499  0.00  0.00    -0.200 OA
ATOM     20  O   UNL d   1      -4.460   0.331   7.821  0.00  0.00    -0.200 OA
BRANCH  18  21
ATOM     21  C   UNL d   1      -2.456  -0.185   9.393  0.00  0.00     0.080 A 
ATOM     22  C   UNL d   1      -1.089   0.023   9.200  0.00  0.00     0.027 A 
ATOM     23  C   UNL d   1      -0.329   0.596  10.232  0.00  0.00     0.025 A 
ATOM     24  C   UNL d   1      -0.924   0.921  11.452  0.00  0.00     0.034 A 
ATOM     25  C   UNL d   1      -2.276   0.663  11.666  0.00  0.00     0.025 A 
ATOM     26 CL   UNL d   1       0.011   1.655  12.696  0.00  0.00    -0.084 Cl
ATOM     27  C   UNL d   1      -3.044   0.117  10.633  0.00  0.00     0.027 A 
ENDBRANCH  18  21
ENDBRANCH   1  18
TORSDOF 9
