REMARK  2 active torsions:
REMARK  status: ('A' for Active; 'I' for Inactive)
REMARK    1  A    between atoms: C_5  and  C_1 
REMARK    2  A    between atoms: C_6  and  C_2 
REMARK       I    between atoms: N_9  and  C_5 
ROOT
ATOM      1  C   UNL d   1      -0.039  -1.076   0.050  0.00  0.00     0.093 C 
ATOM      2  C   UNL d   1      -1.352  -0.516  -0.084  0.00  0.00     0.088 C 
ATOM      3  N   UNL d   1      -1.271   0.819  -0.203  0.00  0.00    -0.259 N 
ATOM      4  HN  UNL d   1      -2.035   1.460  -0.417  1.00  0.00     0.195 HD
ATOM      5  O   UNL d   1       0.043   1.154   0.021  0.00  0.00    -0.241 OA
ATOM      6  C   UNL d   1       0.771   0.028   0.224  0.00  0.00     0.090 C 
ATOM      7  C   UNL d   1       2.184   0.246   0.586  0.00  0.00     0.080 C 
ENDROOT
BRANCH   1   8
ATOM      8  C   UNL d   1       0.332  -2.471   0.156  0.00  0.00     0.258 C 
ATOM      9  N   UNL d   1       1.291  -2.991  -0.734  0.00  0.00    -0.346 N 
ATOM     10  C   UNL d   1       1.769  -4.357  -0.471  0.00  0.00     0.136 C 
ATOM     11  C   UNL d   1       2.088  -2.177  -1.667  0.00  0.00     0.136 C 
ATOM     12  C   UNL d   1       2.036  -5.194  -1.722  0.00  0.00     0.093 C 
ATOM     13  S   UNL d   1       3.289  -4.422  -2.786  0.00  0.00    -0.166 SA
ATOM     14  C   UNL d   1       2.432  -2.839  -3.002  0.00  0.00     0.093 C 
ATOM     15  O   UNL d   1      -0.226  -3.179   0.994  0.00  0.00    -0.267 OA
ENDBRANCH   1   8
BRANCH   2  16
ATOM     16  C   UNL d   1      -2.650  -1.191  -0.120  0.00  0.00     0.054 A 
ATOM     17  C   UNL d   1      -2.833  -2.310  -0.944  0.00  0.00     0.130 A 
ATOM     18  F   UNL d   1      -1.836  -2.752  -1.727  0.00  0.00    -0.205 F 
ATOM     19  C   UNL d   1      -4.049  -2.993  -0.998  0.00  0.00     0.043 A 
ATOM     20  C   UNL d   1      -5.127  -2.555  -0.235  0.00  0.00     0.005 A 
ATOM     21  C   UNL d   1      -4.975  -1.441   0.587  0.00  0.00     0.025 A 
ATOM     22  C   UNL d   1      -3.746  -0.767   0.655  0.00  0.00     0.049 A 
ATOM     23 CL   UNL d   1      -3.667   0.556   1.772  0.00  0.00    -0.083 Cl
ENDBRANCH   2  16
TORSDOF 2
