REMARK  6 active torsions:
REMARK  status: ('A' for Active; 'I' for Inactive)
REMARK       I    between atoms: N_4  and  C_1 
REMARK       I    between atoms: N_9  and  C_1 
REMARK    1  A    between atoms: C_11  and  N_2 
REMARK    2  A    between atoms: N_3  and  C_20 
REMARK    3  A    between atoms: C_5  and  N_4 
REMARK    4  A    between atoms: C_19  and  N_9 
REMARK    5  A    between atoms: C_18  and  C_11 
REMARK    6  A    between atoms: C_20  and  C_19 
ROOT
ATOM      1  C   UNL d   1       2.233   0.750  -1.510  0.00  0.00     0.320 C 
ATOM      2  N   UNL d   1       2.972   0.746  -2.663  0.00  0.00    -0.309 N 
ATOM      3  O   UNL d   1       1.299   1.508  -1.243  0.00  0.00    -0.247 OA
ATOM      4  N   UNL d   1       2.589  -0.131  -0.545  0.00  0.00    -0.341 N 
ATOM      5  H   UNL d   1       3.651   0.012  -2.766  0.00  0.00     0.170 HD
ATOM      6  H   UNL d   1       1.986  -0.040   0.262  0.00  0.00     0.164 HD
ENDROOT
BRANCH   4   7
ATOM      7  C   UNL d   1       3.576  -1.195  -0.517  0.00  0.00     0.154 C 
BRANCH   7   8
ATOM      8  C   UNL d   1       5.044  -0.713  -0.552  0.00  0.00     0.292 C 
BRANCH   8   9
ATOM      9  N   UNL d   1       6.008  -1.804  -0.333  0.00  0.00     0.093 N 
ATOM     10  C   UNL d   1       6.002  -2.832  -1.393  0.00  0.00     0.302 C 
ATOM     11  C   UNL d   1       6.805  -2.482  -2.672  0.00  0.00     0.303 C 
ATOM     12  N   UNL d   1       8.203  -2.069  -2.422  0.00  0.00     0.096 N 
ATOM     13  C   UNL d   1       8.175  -0.973  -1.431  0.00  0.00     0.303 C 
ATOM     14  C   UNL d   1       7.381  -1.282  -0.136  0.00  0.00     0.302 C 
BRANCH  12  15
ATOM     15  C   UNL d   1       8.999  -3.235  -1.984  0.00  0.00     0.311 C 
BRANCH  15  16
ATOM     16  C   UNL d   1      10.464  -2.962  -1.714  0.00  0.00    -0.030 A 
ATOM     17  C   UNL d   1      10.992  -3.176  -0.430  0.00  0.00     0.009 A 
ATOM     18  C   UNL d   1      12.349  -2.973  -0.176  0.00  0.00     0.001 A 
ATOM     19  C   UNL d   1      13.195  -2.560  -1.202  0.00  0.00     0.000 A 
ATOM     20  C   UNL d   1      12.684  -2.349  -2.482  0.00  0.00     0.001 A 
ATOM     21  C   UNL d   1      11.325  -2.547  -2.738  0.00  0.00     0.009 A 
ENDBRANCH  15  16
ENDBRANCH  12  15
ENDBRANCH   8   9
ENDBRANCH   7   8
ENDBRANCH   4   7
BRANCH   2  22
ATOM     22  C   UNL d   1       2.985   1.756  -3.654  0.00  0.00     0.037 A 
ATOM     23  C   UNL d   1       2.089   2.827  -3.671  0.00  0.00     0.042 A 
ATOM     24  C   UNL d   1       2.252   3.908  -4.549  0.00  0.00    -0.024 A 
ATOM     25  C   UNL d   1       1.382   5.010  -4.502  0.00  0.00     0.012 A 
ATOM     26  C   UNL d   1       3.329   3.908  -5.460  0.00  0.00    -0.026 A 
ATOM     27  C   UNL d   1       1.607   6.127  -5.302  0.00  0.00     0.001 A 
ATOM     28  C   UNL d   1       2.692   6.150  -6.172  0.00  0.00     0.001 A 
ATOM     29  C   UNL d   1       3.537   5.041  -6.265  0.00  0.00     0.012 A 
ATOM     30  C   UNL d   1       4.170   2.785  -5.511  0.00  0.00     0.014 A 
ATOM     31  C   UNL d   1       3.998   1.718  -4.618  0.00  0.00     0.030 A 
ENDBRANCH   2  22
TORSDOF 6
