REMARK  5 active torsions:
REMARK  status: ('A' for Active; 'I' for Inactive)
REMARK    1  A    between atoms: C_2  and  C_1 
REMARK    2  A    between atoms: C_13  and  C_8 
REMARK    3  A    between atoms: C_20  and  C_10 
REMARK    4  A    between atoms: O_21  and  C_20 
REMARK    5  A    between atoms: C_22  and  O_21 
ROOT
ATOM      1  C   UNL d   1      -1.513   2.225  -0.020  0.00  0.00     0.075 A 
ATOM      2  N   UNL d   1      -0.883   3.429   0.214  0.00  0.00    -0.349 N 
ATOM      3  HN  UNL d   1       0.116   3.543   0.388  1.00  0.00     0.166 HD
ATOM      4  C   UNL d   1      -1.759   4.408   0.181  0.00  0.00     0.075 A 
ATOM      5  C   UNL d   1      -2.867   2.313  -0.288  0.00  0.00     0.084 A 
ATOM      6  S   UNL d   1      -3.374   3.944  -0.200  0.00  0.00    -0.084 SA
ENDROOT
BRANCH   1   7
ATOM      7  C   UNL d   1      -0.763   0.946  -0.021  0.00  0.00     0.128 A 
ATOM      8  C   UNL d   1      -1.298  -0.314   0.098  0.00  0.00     0.074 A 
ATOM      9  C   UNL d   1      -0.196  -1.198  -0.017  0.00  0.00     0.068 A 
ATOM     10  N   UNL d   1       0.939  -0.504  -0.191  0.00  0.00    -0.260 N 
ATOM     11  O   UNL d   1       0.585   0.830  -0.149  0.00  0.00    -0.235 OA
ATOM     12  HN  UNL d   1       1.876  -0.885  -0.327  1.00  0.00     0.195 HD
BRANCH   9  13
ATOM     13  C   UNL d   1      -0.230  -2.655   0.006  0.00  0.00    -0.007 A 
ATOM     14  C   UNL d   1       0.714  -3.390  -0.719  0.00  0.00     0.021 A 
ATOM     15  C   UNL d   1       0.680  -4.794  -0.748  0.00  0.00    -0.055 A 
ATOM     16  C   UNL d   1       1.712  -5.530  -1.555  0.00  0.00     0.049 C 
ATOM     17  C   UNL d   1      -0.316  -5.474  -0.022  0.00  0.00    -0.056 A 
ATOM     18  C   UNL d   1      -1.254  -4.738   0.711  0.00  0.00     0.008 A 
ATOM     19  C   UNL d   1      -0.388  -6.977  -0.013  0.00  0.00     0.049 C 
ATOM     20  C   UNL d   1      -1.214  -3.341   0.728  0.00  0.00     0.014 A 
ENDBRANCH   9  13
ENDBRANCH   1   7
BRANCH   4  21
ATOM     21  C   UNL d   1      -1.422   5.855   0.355  0.00  0.00     0.240 C 
BRANCH  21  22
ATOM     22  O   UNL d   1      -1.711   6.221   1.706  0.00  0.00    -0.345 OA
BRANCH  22  23
ATOM     23  C   UNL d   1      -1.498   7.539   2.023  0.00  0.00     0.070 A 
ATOM     24  C   UNL d   1      -0.999   8.510   1.151  0.00  0.00     0.060 A 
ATOM     25  C   UNL d   1      -0.847   9.828   1.589  0.00  0.00     0.036 A 
ATOM     26 CL   UNL d   1      -0.247  11.016   0.502  0.00  0.00    -0.084 Cl
ATOM     27  C   UNL d   1      -1.181  10.183   2.893  0.00  0.00     0.024 A 
ATOM     28  C   UNL d   1      -1.672   9.216   3.769  0.00  0.00     0.004 A 
ATOM     29  C   UNL d   1      -1.829   7.899   3.335  0.00  0.00     0.037 A 
ENDBRANCH  22  23
ENDBRANCH  21  22
ENDBRANCH   4  21
TORSDOF 5
