REMARK  3 active torsions:
REMARK  status: ('A' for Active; 'I' for Inactive)
REMARK    1  A    between atoms: C_3  and  C_5 
REMARK    2  A    between atoms: C_13  and  C_4 
REMARK       I    between atoms: C_5  and  N_9 
REMARK    3  A    between atoms: N_9  and  C_12 
ROOT
ATOM      1  S   UNL d   1      -0.529  -3.249   0.327  0.00  0.00    -0.083 SA
ATOM      2  C   UNL d   1      -2.088  -3.672   0.900  0.00  0.00     0.073 A 
ATOM      3  C   UNL d   1      -0.004  -4.880   0.270  0.00  0.00     0.032 A 
ATOM      4  C   UNL d   1      -2.192  -5.038   1.082  0.00  0.00     0.026 A 
ATOM      5  C   UNL d   1      -0.989  -5.725   0.749  0.00  0.00     0.023 A 
ENDROOT
BRANCH   2   6
ATOM      6  C   UNL d   1      -3.129  -2.676   1.134  0.00  0.00     0.258 C 
ATOM      7  N   UNL d   1      -2.761  -1.364   0.900  0.00  0.00    -0.351 N 
ATOM      8  H   UNL d   1      -1.768  -1.206   0.768  0.00  0.00     0.163 HD
ATOM      9  O   UNL d   1      -4.262  -2.963   1.508  0.00  0.00    -0.267 OA
BRANCH   7  10
ATOM     10  C   UNL d   1      -3.627  -0.229   1.179  0.00  0.00     0.099 C 
ATOM     11  C   UNL d   1      -4.950  -0.260   0.415  0.00  0.00     0.165 C 
ATOM     12  S   UNL d   1      -5.541   1.417   0.482  0.00  0.00     0.146 S 
ATOM     13  O   UNL d   1      -6.390   1.571   1.644  0.00  0.00    -0.228 OA
ATOM     14  O   UNL d   1      -5.963   1.820  -0.846  0.00  0.00    -0.228 OA
ATOM     15  C   UNL d   1      -3.972   2.186   0.839  0.00  0.00     0.142 C 
ATOM     16  C   UNL d   1      -2.937   1.075   0.756  0.00  0.00     0.041 C 
ENDBRANCH   7  10
ENDBRANCH   2   6
BRANCH   3  17
ATOM     17  C   UNL d   1       1.330  -5.239  -0.229  0.00  0.00     0.049 A 
ATOM     18  N   UNL d   1       1.885  -6.314   0.381  0.00  0.00    -0.365 N 
ATOM     19  C   UNL d   1       3.083  -6.738  -0.080  0.00  0.00     0.088 A 
ATOM     20  HN  UNL d   1       1.418  -6.785   1.156  1.00  0.00     0.165 HD
ATOM     21  C   UNL d   1       3.755  -6.150  -1.138  0.00  0.00     0.017 A 
ATOM     22  C   UNL d   1       3.172  -5.050  -1.754  0.00  0.00     0.004 A 
ATOM     23  C   UNL d   1       1.944  -4.582  -1.294  0.00  0.00     0.031 A 
ENDBRANCH   3  17
TORSDOF 3
