REMARK  5 active torsions:
REMARK  status: ('A' for Active; 'I' for Inactive)
REMARK    1  A    between atoms: C_6  and  C_1 
REMARK    2  A    between atoms: C_2  and  C_7 
REMARK       I    between atoms: N_3  and  C_2 
REMARK    3  A    between atoms: C_20  and  N_3 
REMARK    4  A    between atoms: O_12  and  C_8 
REMARK    5  A    between atoms: C_23  and  O_12 
ROOT
ATOM      1  N   UNL d   1      -2.789   3.337  -5.500  0.00  0.00    -0.344 N 
ATOM      2  HN  UNL d   1      -3.630   3.894  -5.651  1.00  0.00     0.167 HD
ATOM      3  C   UNL d   1      -1.686   3.869  -4.939  0.00  0.00     0.148 A 
ATOM      4  C   UNL d   1      -1.624   1.208  -5.662  0.00  0.00     0.050 A 
ATOM      5  C   UNL d   1      -2.732   2.030  -5.856  0.00  0.00     0.119 A 
ATOM      6  C   UNL d   1      -0.535   3.138  -4.686  0.00  0.00     0.059 A 
ATOM      7  C   UNL d   1      -0.505   1.790  -5.059  0.00  0.00     0.035 A 
ENDROOT
BRANCH   4   8
ATOM      8  N   UNL d   1      -1.570  -0.167  -5.998  0.00  0.00    -0.322 N 
ATOM      9  C   UNL d   1      -2.574  -0.871  -6.643  0.00  0.00     0.256 C 
ATOM     10  O   UNL d   1      -3.580  -0.364  -7.127  0.00  0.00    -0.267 OA
ATOM     11  H   UNL d   1      -0.712  -0.645  -5.764  0.00  0.00     0.169 HD
BRANCH   9  12
ATOM     12  C   UNL d   1      -2.416  -2.356  -6.774  0.00  0.00     0.032 A 
ATOM     13  C   UNL d   1      -1.432  -3.106  -6.118  0.00  0.00     0.018 A 
ATOM     14  C   UNL d   1      -1.379  -4.498  -6.286  0.00  0.00     0.017 A 
ATOM     15  C   UNL d   1      -2.311  -5.165  -7.097  0.00  0.00     0.048 A 
ATOM     16  C   UNL d   1      -3.305  -4.416  -7.736  0.00  0.00     0.017 A 
ATOM     17  C   UNL d   1      -3.354  -3.030  -7.575  0.00  0.00     0.018 A 
BRANCH  15  18
ATOM     18  C   UNL d   1      -2.231  -6.663  -7.279  0.00  0.00     0.417 C 
ATOM     19  F   UNL d   1      -3.240  -7.177  -8.034  0.00  0.00    -0.166 F 
ATOM     20  F   UNL d   1      -2.269  -7.334  -6.095  0.00  0.00    -0.166 F 
ATOM     21  F   UNL d   1      -1.075  -7.045  -7.889  0.00  0.00    -0.166 F 
ENDBRANCH  15  18
ENDBRANCH   9  12
ENDBRANCH   4   8
BRANCH   3  22
ATOM     22  O   UNL d   1      -1.690   5.199  -4.542  0.00  0.00    -0.293 OA
BRANCH  22  23
ATOM     23  C   UNL d   1      -2.560   6.046  -5.183  0.00  0.00     0.093 A 
ATOM     24  C   UNL d   1      -3.281   6.952  -4.418  0.00  0.00     0.124 A 
ATOM     25  N   UNL d   1      -4.128   7.879  -4.934  0.00  0.00    -0.373 N 
ATOM     26  C   UNL d   1      -4.255   7.891  -6.279  0.00  0.00     0.088 A 
ATOM     27  HN  UNL d   1      -4.640   8.531  -4.339  1.00  0.00     0.164 HD
ATOM     28  C   UNL d   1      -3.567   7.039  -7.129  0.00  0.00     0.020 A 
ATOM     29  C   UNL d   1      -2.694   6.111  -6.568  0.00  0.00     0.040 A 
ENDBRANCH  22  23
ENDBRANCH   3  22
TORSDOF 5
