REMARK  5 active torsions:
REMARK  status: ('A' for Active; 'I' for Inactive)
REMARK    1  A    between atoms: C_11  and  C_2 
REMARK    2  A    between atoms: S_9  and  C_3 
REMARK    3  A    between atoms: C_8  and  C_10 
REMARK    4  A    between atoms: C_10  and  S_9 
REMARK    5  A    between atoms: C_12  and  C_11 
ROOT
ATOM      1  N   UNL d   1       0.762  -0.060   0.065  0.00  0.00    -0.319 N 
ATOM      2  C   UNL d   1      -0.012   1.069  -0.092  0.00  0.00     0.104 A 
ATOM      3  C   UNL d   1      -0.084  -1.119  -0.140  0.00  0.00     0.162 A 
ATOM      4  N   UNL d   1      -1.262   0.695  -0.298  0.00  0.00    -0.286 N 
ATOM      5  HN  UNL d   1      -2.061   1.318  -0.415  1.00  0.00     0.188 HD
ATOM      6  N   UNL d   1      -1.302  -0.676  -0.328  0.00  0.00    -0.278 N 
ATOM      7  HN  UNL d   1      -2.134  -1.250  -0.471  1.00  0.00     0.189 HD
ATOM      8  C   UNL d   1       2.172  -0.115   0.352  0.00  0.00     0.159 C 
ENDROOT
BRANCH   3   9
ATOM      9  S   UNL d   1       0.416  -2.780  -0.186  0.00  0.00    -0.088 SA
BRANCH   9  10
ATOM     10  C   UNL d   1      -1.190  -3.583  -0.510  0.00  0.00     0.124 C 
BRANCH  10  11
ATOM     11  C   UNL d   1      -1.108  -5.096  -0.552  0.00  0.00    -0.005 A 
ATOM     12  C   UNL d   1      -1.181  -5.863   0.629  0.00  0.00     0.042 A 
ATOM     13 CL   UNL d   1      -1.306  -5.133   2.194  0.00  0.00    -0.084 Cl
ATOM     14  C   UNL d   1      -1.169  -7.265   0.592  0.00  0.00     0.024 A 
ATOM     15  C   UNL d   1      -1.076  -7.935  -0.622  0.00  0.00     0.003 A 
ATOM     16  C   UNL d   1      -0.981  -7.202  -1.800  0.00  0.00     0.024 A 
ATOM     17  C   UNL d   1      -0.989  -5.799  -1.767  0.00  0.00     0.042 A 
ATOM     18 CL   UNL d   1      -0.858  -4.992  -3.292  0.00  0.00    -0.084 Cl
ENDBRANCH  10  11
ENDBRANCH   9  10
ENDBRANCH   3   9
BRANCH   2  19
ATOM     19  C   UNL d   1       0.481   2.481  -0.121  0.00  0.00     0.117 C 
BRANCH  19  20
ATOM     20  C   UNL d   1       0.542   3.141   1.230  0.00  0.00    -0.044 A 
ATOM     21  C   UNL d   1       1.655   3.785   1.744  0.00  0.00     0.057 A 
ATOM     22  S   UNL d   1       1.383   4.463   3.290  0.00  0.00    -0.113 SA
ATOM     23  C   UNL d   1      -0.241   3.937   3.293  0.00  0.00     0.050 A 
ATOM     24  C   UNL d   1      -0.564   3.255   2.141  0.00  0.00     0.015 A 
ENDBRANCH  19  20
ENDBRANCH   2  19
TORSDOF 5
