REMARK  5 active torsions:
REMARK  status: ('A' for Active; 'I' for Inactive)
REMARK    1  A    between atoms: O_5  and  N_1 
REMARK    2  A    between atoms: C_7  and  C_3 
REMARK    3  A    between atoms: C_8  and  C_3 
REMARK    4  A    between atoms: C_4  and  O_5 
REMARK    5  A    between atoms: C_6  and  C_4 
ROOT
ATOM      1  N   UNL d   1       1.081   0.083  -0.090  0.00  0.00    -0.256 N 
ATOM      2  HN  UNL d   1       0.548   0.238   0.765  1.00  0.00     0.195 HD
ATOM      3  C   UNL d   1       0.520  -0.269  -1.215  0.00  0.00     0.075 C 
ENDROOT
BRANCH   3   4
ATOM      4  C   UNL d   1       1.242  -0.585  -2.490  0.00  0.00    -0.007 A 
ATOM      5  C   UNL d   1       2.399  -1.375  -2.480  0.00  0.00     0.017 A 
ATOM      6  C   UNL d   1       3.056  -1.680  -3.675  0.00  0.00     0.043 A 
ATOM      7  C   UNL d   1       2.532  -1.231  -4.881  0.00  0.00     0.116 A 
ATOM      8  C   UNL d   1       1.374  -0.464  -4.915  0.00  0.00     0.043 A 
ATOM      9  F   UNL d   1       3.147  -1.548  -6.027  0.00  0.00    -0.206 F 
ATOM     10  C   UNL d   1       0.738  -0.122  -3.718  0.00  0.00     0.017 A 
ENDBRANCH   3   4
BRANCH   3  11
ATOM     11  C   UNL d   1      -0.986  -0.342  -1.209  0.00  0.00    -0.007 A 
ATOM     12  C   UNL d   1      -1.702   0.536  -0.379  0.00  0.00     0.017 A 
ATOM     13  C   UNL d   1      -3.099   0.532  -0.386  0.00  0.00     0.043 A 
ATOM     14  C   UNL d   1      -3.776  -0.352  -1.218  0.00  0.00     0.116 A 
ATOM     15  C   UNL d   1      -3.085  -1.247  -2.026  0.00  0.00     0.043 A 
ATOM     16  F   UNL d   1      -5.115  -0.340  -1.243  0.00  0.00    -0.206 F 
ATOM     17  C   UNL d   1      -1.686  -1.254  -2.013  0.00  0.00     0.017 A 
ENDBRANCH   3  11
BRANCH   1  18
ATOM     18  O   UNL d   1       2.476   0.230  -0.153  0.00  0.00    -0.198 OA
BRANCH  18  19
ATOM     19  C   UNL d   1       2.989   0.402   1.112  0.00  0.00     0.288 C 
ATOM     20  O   UNL d   1       2.335   0.454   2.153  0.00  0.00    -0.262 OA
BRANCH  19  21
ATOM     21  C   UNL d   1       4.518   0.550   1.091  0.00  0.00     0.039 C 
ATOM     22  C   UNL d   1       5.151   0.196  -0.263  0.00  0.00     0.025 C 
ATOM     23  C   UNL d   1       4.851   2.007   1.440  0.00  0.00     0.025 C 
ATOM     24  C   UNL d   1       5.106  -0.386   2.160  0.00  0.00     0.025 C 
ENDBRANCH  19  21
ENDBRANCH  18  19
ENDBRANCH   1  18
TORSDOF 5
