REMARK  7 active torsions:
REMARK  status: ('A' for Active; 'I' for Inactive)
REMARK    1  A    between atoms: C_3  and  S_1 
REMARK    2  A    between atoms: C_8  and  S_1 
REMARK    3  A    between atoms: C_2  and  C_4 
REMARK    4  A    between atoms: C_7  and  O_20 
REMARK       I    between atoms: N_9  and  C_7 
REMARK    5  A    between atoms: C_22  and  C_8 
REMARK    6  A    between atoms: C_19  and  N_9 
REMARK    7  A    between atoms: O_20  and  C_22 
ROOT
ATOM      1  S   UNL d   1       0.355  -0.179  -0.081  0.00  0.00     0.193 S 
ATOM      2  O   UNL d   1       1.771   0.104  -0.237  0.00  0.00    -0.221 OA
ATOM      3  O   UNL d   1      -0.235  -1.355  -0.694  0.00  0.00    -0.221 OA
ENDROOT
BRANCH   1   4
ATOM      4  C   UNL d   1      -0.517   1.225  -0.740  0.00  0.00     0.128 A 
ATOM      5  N   UNL d   1      -1.187   1.979   0.167  0.00  0.00    -0.356 N 
ATOM      6  C   UNL d   1      -1.872   3.033  -0.338  0.00  0.00     0.105 A 
ATOM      7  HN  UNL d   1      -1.175   1.767   1.164  1.00  0.00     0.166 HD
ATOM      8  C   UNL d   1      -1.917   3.361  -1.690  0.00  0.00     0.063 A 
ATOM      9  C   UNL d   1      -1.200   2.553  -2.584  0.00  0.00     0.020 A 
ATOM     10  C   UNL d   1      -0.485   1.460  -2.106  0.00  0.00     0.042 A 
BRANCH   8  11
ATOM     11  C   UNL d   1      -2.713   4.537  -2.171  0.00  0.00     0.418 C 
ATOM     12  F   UNL d   1      -3.366   5.196  -1.174  0.00  0.00    -0.166 F 
ATOM     13  F   UNL d   1      -1.941   5.470  -2.792  0.00  0.00    -0.166 F 
ATOM     14  F   UNL d   1      -3.670   4.184  -3.072  0.00  0.00    -0.166 F 
ENDBRANCH   8  11
ENDBRANCH   1   4
BRANCH   1  15
ATOM     15  C   UNL d   1      -0.005  -0.221   1.659  0.00  0.00     0.174 C 
BRANCH  15  16
ATOM     16  C   UNL d   1       0.695  -1.414   2.284  0.00  0.00     0.196 C 
BRANCH  16  17
ATOM     17  O   UNL d   1       0.485  -1.460   3.707  0.00  0.00    -0.303 OA
BRANCH  17  18
ATOM     18  C   UNL d   1      -0.595  -2.166   4.125  0.00  0.00     0.365 C 
ATOM     19  N   UNL d   1      -0.709  -2.344   5.479  0.00  0.00    -0.303 N 
ATOM     20  H   UNL d   1      -1.550  -2.862   5.700  0.00  0.00     0.171 HD
ATOM     21  O   UNL d   1      -1.443  -2.626   3.370  0.00  0.00    -0.238 OA
BRANCH  19  22
ATOM     22  C   UNL d   1       0.083  -1.927   6.564  0.00  0.00     0.036 A 
ATOM     23  C   UNL d   1       1.295  -1.241   6.456  0.00  0.00     0.031 A 
ATOM     24  C   UNL d   1       1.978  -0.816   7.603  0.00  0.00     0.026 A 
ATOM     25  C   UNL d   1       1.456  -1.080   8.865  0.00  0.00     0.034 A 
ATOM     26  C   UNL d   1       0.269  -1.792   8.993  0.00  0.00     0.026 A 
ATOM     27 CL   UNL d   1       2.276  -0.518  10.268  0.00  0.00    -0.084 Cl
ATOM     28  C   UNL d   1      -0.410  -2.218   7.846  0.00  0.00     0.031 A 
ENDBRANCH  19  22
ENDBRANCH  17  18
ENDBRANCH  16  17
ENDBRANCH  15  16
ENDBRANCH   1  15
TORSDOF 7
