REMARK  7 active torsions:
REMARK  status: ('A' for Active; 'I' for Inactive)
REMARK    1  A    between atoms: C_18  and  N_1 
REMARK    2  A    between atoms: C_26  and  C_2 
REMARK    3  A    between atoms: N_10  and  C_5 
REMARK    4  A    between atoms: C_6  and  C_11 
REMARK    5  A    between atoms: C_7  and  C_12 
REMARK       I    between atoms: C_9  and  N_10 
REMARK       I    between atoms: N_15  and  C_9 
REMARK    6  A    between atoms: C_14  and  N_15 
REMARK    7  A    between atoms: C_29  and  C_26 
ROOT
ATOM      1  C   UNL d   1      -0.509   3.028   1.331  0.00  0.00     0.325 C 
ATOM      2  N   UNL d   1      -0.857   2.358   0.165  0.00  0.00    -0.305 N 
ATOM      3  N   UNL d   1      -1.294   4.150   1.547  0.00  0.00    -0.309 N 
ATOM      4  O   UNL d   1       0.392   2.674   2.078  0.00  0.00    -0.247 OA
ATOM      5  H   UNL d   1      -1.803   2.472  -0.171  0.00  0.00     0.171 HD
ATOM      6  H   UNL d   1      -2.199   4.172   1.104  0.00  0.00     0.170 HD
ENDROOT
BRANCH   2   7
ATOM      7  C   UNL d   1      -0.163   1.260  -0.334  0.00  0.00     0.078 C 
ATOM      8  C   UNL d   1       1.179   0.934  -0.220  0.00  0.00     0.062 C 
ATOM      9  N   UNL d   1       1.257  -0.396  -0.631  0.00  0.00    -0.259 N 
ATOM     10  N   UNL d   1       0.224  -0.679  -1.476  0.00  0.00    -0.302 N 
ATOM     11  C   UNL d   1      -0.666   0.278  -1.212  0.00  0.00     0.139 C 
ATOM     12  HN  UNL d   1       0.149  -1.441  -2.150  1.00  0.00     0.186 HD
BRANCH   8  13
ATOM     13  C   UNL d   1       2.367   1.793   0.102  0.00  0.00     0.061 C 
BRANCH  13  14
ATOM     14  C   UNL d   1       3.375   1.890  -1.053  0.00  0.00     0.002 C 
ATOM     15  C   UNL d   1       2.789   2.506  -2.319  0.00  0.00     0.005 C 
ENDBRANCH  13  14
ENDBRANCH   8  13
BRANCH   9  16
ATOM     16  C   UNL d   1       2.144  -1.440  -0.232  0.00  0.00     0.056 A 
ATOM     17  C   UNL d   1       2.845  -1.374   0.979  0.00  0.00     0.031 A 
ATOM     18  C   UNL d   1       3.592  -2.473   1.420  0.00  0.00     0.002 A 
ATOM     19  C   UNL d   1       3.648  -3.639   0.657  0.00  0.00     0.000 A 
ATOM     20  C   UNL d   1       2.968  -3.706  -0.557  0.00  0.00     0.002 A 
ATOM     21  C   UNL d   1       2.213  -2.615  -0.997  0.00  0.00     0.031 A 
ENDBRANCH   9  16
ENDBRANCH   2   7
BRANCH   3  22
ATOM     22  C   UNL d   1      -0.956   5.240   2.382  0.00  0.00     0.037 A 
ATOM     23  C   UNL d   1       0.341   5.444   2.864  0.00  0.00     0.045 A 
ATOM     24  C   UNL d   1       0.699   6.637   3.515  0.00  0.00     0.050 A 
ATOM     25  C   UNL d   1      -0.284   7.604   3.754  0.00  0.00     0.032 A 
ATOM     26  C   UNL d   1      -1.598   7.415   3.301  0.00  0.00     0.050 A 
ATOM     27  C   UNL d   1      -1.924   6.223   2.622  0.00  0.00     0.045 A 
BRANCH  24  28
ATOM     28  C   UNL d   1       2.152   6.893   3.841  0.00  0.00     0.417 C 
ATOM     29  F   UNL d   1       2.390   8.170   4.253  0.00  0.00    -0.166 F 
ATOM     30  F   UNL d   1       2.635   6.084   4.819  0.00  0.00    -0.166 F 
ATOM     31  F   UNL d   1       2.957   6.704   2.757  0.00  0.00    -0.166 F 
ENDBRANCH  24  28
BRANCH  26  32
ATOM     32  C   UNL d   1      -2.628   8.510   3.460  0.00  0.00     0.417 C 
ATOM     33  F   UNL d   1      -2.112   9.672   3.949  0.00  0.00    -0.166 F 
ATOM     34  F   UNL d   1      -3.212   8.836   2.273  0.00  0.00    -0.166 F 
ATOM     35  F   UNL d   1      -3.643   8.166   4.296  0.00  0.00    -0.166 F 
ENDBRANCH  26  32
ENDBRANCH   3  22
TORSDOF 7
