REMARK  3 active torsions:
REMARK  status: ('A' for Active; 'I' for Inactive)
REMARK    1  A    between atoms: N_2  and  S_1 
REMARK    2  A    between atoms: C_7  and  N_2 
REMARK    3  A    between atoms: C_3  and  C_7 
ROOT
ATOM      1  N   UNL d   1       0.677   1.523  -0.256  0.00  0.00    -0.215 NA
ATOM      2  H   UNL d   1      -0.268   1.561  -0.639  0.00  0.00     0.140 HD
ENDROOT
BRANCH   1   3
ATOM      3  S   UNL d   1       1.123  -0.068   0.041  0.00  0.00     0.205 S 
ATOM      4  O   UNL d   1       0.538  -0.846  -1.027  0.00  0.00    -0.212 OA
ATOM      5  O   UNL d   1       0.835  -0.353   1.426  0.00  0.00    -0.212 OA
ATOM      6  C   UNL d   1       2.887  -0.018  -0.194  0.00  0.00     0.179 C 
ENDBRANCH   1   3
BRANCH   1   7
ATOM      7  C   UNL d   1       0.958   2.489   0.810  0.00  0.00     0.150 C 
BRANCH   7   8
ATOM      8  C   UNL d   1       0.462   3.834   0.375  0.00  0.00    -0.004 A 
ATOM      9  S   UNL d   1       1.569   5.098   0.032  0.00  0.00    -0.105 SA
ATOM     10  C   UNL d   1       0.307   6.206  -0.284  0.00  0.00     0.050 A 
ATOM     11  C   UNL d   1      -0.935   5.627  -0.154  0.00  0.00     0.008 A 
ATOM     12  C   UNL d   1      -0.847   4.257   0.225  0.00  0.00     0.016 A 
ENDBRANCH   7   8
ENDBRANCH   1   7
TORSDOF 3
