REMARK  5 active torsions:
REMARK  status: ('A' for Active; 'I' for Inactive)
REMARK    1  A    between atoms: C_6  and  C_3 
REMARK    2  A    between atoms: O_14  and  C_9 
REMARK    3  A    between atoms: C_18  and  O_14 
REMARK    4  A    between atoms: C_16  and  C_18 
REMARK    5  A    between atoms: O_20  and  C_16 
ROOT
ATOM      1  C   UNL d   1       1.371  -2.829  -0.135  0.00  0.00    -0.006 C 
ATOM      2  C   UNL d   1       1.338  -5.654  -0.181  0.00  0.00     0.081 C 
ATOM      3  C   UNL d   1       1.973  -4.958   0.875  0.00  0.00    -0.027 C 
ATOM      4  C   UNL d   1       0.874  -4.925  -1.301  0.00  0.00    -0.027 C 
ATOM      5  C   UNL d   1       1.956  -3.551   0.906  0.00  0.00     0.023 C 
ATOM      6  C   UNL d   1       0.937  -3.521  -1.261  0.00  0.00     0.023 C 
ATOM      7  C   UNL d   1       2.682  -5.697   1.982  0.00  0.00     0.051 C 
ATOM      8  C   UNL d   1       0.238  -5.495  -2.542  0.00  0.00     0.051 C 
ENDROOT
BRANCH   1   9
ATOM      9  C   UNL d   1       1.270  -1.339  -0.048  0.00  0.00     0.070 C 
ATOM     10  N   UNL d   1       2.264  -0.718   0.516  0.00  0.00    -0.294 N 
ATOM     11  N   UNL d   1       2.273   0.647   0.573  0.00  0.00    -0.261 N 
ATOM     12  HN  UNL d   1       3.036  -1.251   0.917  1.00  0.00     0.187 HD
ATOM     13  C   UNL d   1       1.310   1.465  -0.004  0.00  0.00     0.272 C 
ATOM     14  C   UNL d   1       3.422   1.263   1.206  0.00  0.00     0.181 C 
ATOM     15  C   UNL d   1       0.179   0.784  -0.651  0.00  0.00     0.046 A 
ATOM     16  O   UNL d   1       1.349   2.694   0.015  0.00  0.00    -0.266 OA
ATOM     17  C   UNL d   1      -0.826   1.542  -1.277  0.00  0.00     0.018 A 
ATOM     18  C   UNL d   1       0.095  -0.602  -0.609  0.00  0.00     0.009 A 
ATOM     19  C   UNL d   1      -1.925   0.910  -1.853  0.00  0.00     0.001 A 
ATOM     20  C   UNL d   1      -2.056  -0.469  -1.747  0.00  0.00     0.001 A 
ATOM     21  C   UNL d   1      -1.069  -1.218  -1.094  0.00  0.00     0.015 A 
ENDBRANCH   1   9
BRANCH   2  22
ATOM     22  O   UNL d   1       1.268  -7.016  -0.001  0.00  0.00    -0.340 OA
BRANCH  22  23
ATOM     23  C   UNL d   1       0.162  -7.690  -0.572  0.00  0.00     0.286 C 
BRANCH  23  24
ATOM     24  C   UNL d   1      -0.492  -8.801   0.240  0.00  0.00     0.282 C 
ATOM     25  O   UNL d   1      -0.179  -9.183   1.356  0.00  0.00    -0.263 OA
BRANCH  24  26
ATOM     26  O   UNL d   1      -1.548  -9.273  -0.496  0.00  0.00    -0.325 OA
ATOM     27  C   UNL d   1      -2.390 -10.211   0.175  0.00  0.00     0.213 C 
ENDBRANCH  24  26
ENDBRANCH  23  24
ENDBRANCH  22  23
ENDBRANCH   2  22
TORSDOF 5
