REMARK  4 active torsions:
REMARK  status: ('A' for Active; 'I' for Inactive)
REMARK    1  A    between atoms: C_8  and  N_2 
REMARK    2  A    between atoms: C_13  and  C_6 
REMARK    3  A    between atoms: C_10  and  C_7 
REMARK    4  A    between atoms: C_20  and  C_13 
ROOT
ATOM      1  C   UNL d   1      -0.459  -1.187   0.055  0.00  0.00     0.059 A 
ATOM      2  N   UNL d   1       0.738   0.406  -0.995  0.00  0.00    -0.220 N 
ATOM      3  C   UNL d   1       0.909  -0.861  -0.421  0.00  0.00     0.279 A 
ATOM      4  N   UNL d   1      -0.538   0.944  -0.821  0.00  0.00    -0.294 N 
ATOM      5  HN  UNL d   1      -0.853   1.871  -1.107  1.00  0.00     0.187 HD
ATOM      6  C   UNL d   1      -1.252   0.028  -0.218  0.00  0.00     0.042 A 
ATOM      7  C   UNL d   1      -0.749  -2.428   0.469  0.00  0.00     0.030 C 
ATOM      8  O   UNL d   1       1.870  -1.603  -0.349  0.00  0.00    -0.265 OA
ENDROOT
BRANCH   6   9
ATOM      9  C   UNL d   1      -2.678   0.235   0.214  0.00  0.00     0.059 C 
BRANCH   9  10
ATOM     10  C   UNL d   1      -3.435   1.246  -0.641  0.00  0.00     0.002 C 
ATOM     11  C   UNL d   1      -4.892   1.333  -0.207  0.00  0.00     0.005 C 
ENDBRANCH   9  10
ENDBRANCH   6   9
BRANCH   7  12
ATOM     12  C   UNL d   1      -2.098  -2.956   0.636  0.00  0.00    -0.035 A 
ATOM     13  C   UNL d   1      -2.733  -3.516  -0.483  0.00  0.00     0.013 A 
ATOM     14  C   UNL d   1      -4.053  -3.958  -0.395  0.00  0.00     0.024 A 
ATOM     15  C   UNL d   1      -4.736  -3.846   0.813  0.00  0.00     0.034 A 
ATOM     16  C   UNL d   1      -4.105  -3.310   1.936  0.00  0.00     0.024 A 
ATOM     17 CL   UNL d   1      -6.374  -4.359   0.914  0.00  0.00    -0.084 Cl
ATOM     18  C   UNL d   1      -2.780  -2.868   1.851  0.00  0.00     0.013 A 
ENDBRANCH   7  12
BRANCH   2  19
ATOM     19  C   UNL d   1       1.625   1.065  -1.884  0.00  0.00     0.060 A 
ATOM     20  C   UNL d   1       2.771   0.430  -2.382  0.00  0.00     0.031 A 
ATOM     21  C   UNL d   1       3.567   1.043  -3.355  0.00  0.00     0.002 A 
ATOM     22  C   UNL d   1       3.243   2.311  -3.827  0.00  0.00     0.000 A 
ATOM     23  C   UNL d   1       2.131   2.974  -3.317  0.00  0.00     0.002 A 
ATOM     24  C   UNL d   1       1.327   2.354  -2.355  0.00  0.00     0.031 A 
ENDBRANCH   2  19
TORSDOF 4
