REMARK  7 active torsions:
REMARK  status: ('A' for Active; 'I' for Inactive)
REMARK    1  A    between atoms: C_11  and  C_3 
REMARK    2  A    between atoms: C_14  and  C_4 
REMARK    3  A    between atoms: C_13  and  C_10 
REMARK    4  A    between atoms: N_15  and  C_14 
REMARK    5  A    between atoms: O_19  and  N_15 
REMARK    6  A    between atoms: C_17  and  O_19 
REMARK       I    between atoms: N_18  and  C_17 
REMARK    7  A    between atoms: C_28  and  N_18 
ROOT
ATOM      1  C   UNL d   1      -0.519  -3.632   0.183  0.00  0.00     0.143 A 
ATOM      2  N   UNL d   1      -1.030  -4.943   0.255  0.00  0.00    -0.234 N 
ATOM      3  C   UNL d   1      -2.386  -5.179   0.079  0.00  0.00     0.144 A 
ATOM      4  C   UNL d   1       0.866  -3.749   0.250  0.00  0.00     0.072 A 
ATOM      5  N   UNL d   1      -1.340  -2.538   0.045  0.00  0.00    -0.336 N 
ATOM      6  HN  UNL d   1      -0.962  -1.590   0.033  1.00  0.00     0.167 HD
ATOM      7  C   UNL d   1      -3.223  -4.138  -0.100  0.00  0.00     0.071 A 
ATOM      8  N   UNL d   1      -0.044  -5.832   0.500  0.00  0.00    -0.302 N 
ATOM      9  HN  UNL d   1      -0.140  -6.834   0.665  1.00  0.00     0.186 HD
ATOM     10  C   UNL d   1      -2.628  -2.760  -0.072  0.00  0.00     0.120 A 
ATOM     11  C   UNL d   1       1.078  -5.120   0.482  0.00  0.00     0.127 A 
ENDROOT
BRANCH   4  12
ATOM     12  C   UNL d   1       1.885  -2.729   0.104  0.00  0.00     0.135 C 
ATOM     13  N   UNL d   1       1.403  -1.500  -0.240  0.00  0.00    -0.383 N 
ATOM     14  H   UNL d   1       0.424  -1.309  -0.039  0.00  0.00     0.157 HD
ATOM     15  H   UNL d   1       2.032  -0.725  -0.070  0.00  0.00     0.157 HD
BRANCH  12  16
ATOM     16  N   UNL d   1       3.128  -3.065   0.281  0.00  0.00    -0.239 N 
ATOM     17  HN  UNL d   1       3.465  -3.983   0.570  1.00  0.00     0.196 HD
BRANCH  16  18
ATOM     18  O   UNL d   1       3.933  -1.935   0.005  0.00  0.00    -0.179 OA
BRANCH  18  19
ATOM     19  C   UNL d   1       5.286  -2.129   0.203  0.00  0.00     0.387 C 
ATOM     20  N   UNL d   1       5.638  -3.369   0.687  0.00  0.00    -0.301 N 
ATOM     21  H   UNL d   1       4.859  -4.014   0.729  0.00  0.00     0.171 HD
ATOM     22  O   UNL d   1       6.058  -1.208  -0.058  0.00  0.00    -0.236 OA
BRANCH  20  23
ATOM     23  C   UNL d   1       6.919  -3.783   1.115  0.00  0.00     0.037 A 
ATOM     24  C   UNL d   1       8.001  -2.903   1.252  0.00  0.00     0.031 A 
ATOM     25  C   UNL d   1       9.239  -3.347   1.728  0.00  0.00     0.026 A 
ATOM     26  C   UNL d   1       9.412  -4.683   2.064  0.00  0.00     0.034 A 
ATOM     27  C   UNL d   1       8.354  -5.578   1.924  0.00  0.00     0.026 A 
ATOM     28 CL   UNL d   1      10.929  -5.224   2.669  0.00  0.00    -0.084 Cl
ATOM     29  C   UNL d   1       7.110  -5.128   1.455  0.00  0.00     0.031 A 
ENDBRANCH  20  23
ENDBRANCH  18  19
ENDBRANCH  16  18
ENDBRANCH  12  16
ENDBRANCH   4  12
BRANCH   3  30
ATOM     30  C   UNL d   1      -2.884  -6.580   0.054  0.00  0.00     0.434 C 
ATOM     31  F   UNL d   1      -1.961  -7.560   0.156  0.00  0.00    -0.165 F 
ATOM     32  F   UNL d   1      -3.782  -6.783   1.057  0.00  0.00    -0.165 F 
ATOM     33  F   UNL d   1      -3.563  -6.815  -1.103  0.00  0.00    -0.165 F 
ENDBRANCH   3  30
BRANCH  10  34
ATOM     34  C   UNL d   1      -3.617  -1.588  -0.191  0.00  0.00     0.432 C 
ATOM     35  F   UNL d   1      -4.916  -2.001  -0.209  0.00  0.00    -0.165 F 
ATOM     36  F   UNL d   1      -3.510  -0.719   0.849  0.00  0.00    -0.165 F 
ATOM     37  F   UNL d   1      -3.429  -0.870  -1.329  0.00  0.00    -0.165 F 
ENDBRANCH  10  34
TORSDOF 7
