REMARK  5 active torsions:
REMARK  status: ('A' for Active; 'I' for Inactive)
REMARK    1  A    between atoms: N_2  and  S_1 
REMARK    2  A    between atoms: C_16  and  S_1 
REMARK    3  A    between atoms: C_4  and  C_3 
REMARK    4  A    between atoms: C_7  and  C_8 
REMARK    5  A    between atoms: C_14  and  C_20 
ROOT
ATOM      1  N   UNL d   1       0.607  -0.825   1.442  0.00  0.00    -0.175 N 
ATOM      2  C   UNL d   1       0.630  -2.200   1.605  0.00  0.00     0.097 C 
ATOM      3  N   UNL d   1       0.228  -0.180   2.589  0.00  0.00    -0.295 N 
ATOM      4  HN  UNL d   1       0.258   0.820   2.787  1.00  0.00     0.187 HD
ATOM      5  C   UNL d   1       0.020  -2.432   2.826  0.00  0.00     0.053 C 
ATOM      6  C   UNL d   1      -0.191  -1.162   3.385  0.00  0.00     0.111 C 
ENDROOT
BRANCH   1   7
ATOM      7  S   UNL d   1       1.012   0.014  -0.025  0.00  0.00     0.282 S 
ATOM      8  O   UNL d   1       0.445   1.345   0.089  0.00  0.00    -0.198 OA
ATOM      9  O   UNL d   1       0.654  -0.876  -1.112  0.00  0.00    -0.198 OA
BRANCH   7  10
ATOM     10  C   UNL d   1       2.780   0.206  -0.001  0.00  0.00     0.082 A 
ATOM     11  C   UNL d   1       3.473   0.360   1.203  0.00  0.00     0.041 A 
ATOM     12  C   UNL d   1       4.874   0.466   1.194  0.00  0.00     0.049 A 
ATOM     13  C   UNL d   1       5.555   0.419  -0.035  0.00  0.00     0.016 A 
ATOM     14  C   UNL d   1       4.856   0.268  -1.234  0.00  0.00     0.002 A 
ATOM     15  C   UNL d   1       3.466   0.162  -1.220  0.00  0.00     0.025 A 
BRANCH  12  16
ATOM     16  C   UNL d   1       5.655   0.632   2.478  0.00  0.00     0.417 C 
ATOM     17  F   UNL d   1       4.871   0.623   3.591  0.00  0.00    -0.166 F 
ATOM     18  F   UNL d   1       6.568  -0.362   2.658  0.00  0.00    -0.166 F 
ATOM     19  F   UNL d   1       6.354   1.798   2.517  0.00  0.00    -0.166 F 
ENDBRANCH  12  16
ENDBRANCH   7  10
ENDBRANCH   1   7
BRANCH   2  20
ATOM     20  C   UNL d   1       1.143  -3.286   0.721  0.00  0.00     0.069 A 
ATOM     21  N   UNL d   1       0.600  -4.559   0.782  0.00  0.00    -0.346 N 
ATOM     22  C   UNL d   1       1.183  -5.341  -0.111  0.00  0.00     0.103 A 
ATOM     23  HN  UNL d   1      -0.139  -4.851   1.420  1.00  0.00     0.167 HD
ATOM     24  S   UNL d   1       2.470  -4.621  -0.992  0.00  0.00    -0.080 SA
ATOM     25  C   UNL d   1       2.215  -3.174  -0.135  0.00  0.00     0.083 A 
BRANCH  22  26
ATOM     26  C   UNL d   1       0.784  -6.767  -0.336  0.00  0.00     0.091 A 
ATOM     27  N   UNL d   1       1.428  -7.576  -1.190  0.00  0.00    -0.258 N 
ATOM     28  O   UNL d   1       0.803  -8.802  -1.088  0.00  0.00    -0.242 OA
ATOM     29  HN  UNL d   1       2.217  -7.335  -1.790  1.00  0.00     0.195 HD
ATOM     30  C   UNL d   1      -0.213  -8.717  -0.190  0.00  0.00     0.074 A 
ATOM     31  C   UNL d   1      -0.278  -7.439   0.306  0.00  0.00     0.068 A 
ATOM     32  C   UNL d   1      -0.970  -9.956   0.047  0.00  0.00     0.079 C 
ENDBRANCH  22  26
ENDBRANCH   2  20
TORSDOF 5
