REMARK  5 active torsions:
REMARK  status: ('A' for Active; 'I' for Inactive)
REMARK    1  A    between atoms: C_3  and  C_1 
REMARK    2  A    between atoms: C_2  and  S_4 
REMARK    3  A    between atoms: C_8  and  C_2 
REMARK    4  A    between atoms: S_4  and  C_7 
REMARK    5  A    between atoms: C_10  and  C_11 
ROOT
ATOM      1  C   UNL d   1      -0.019  -6.280  -2.851  0.00  0.00     0.225 C 
ATOM      2  O   UNL d   1       0.666  -6.556  -3.832  0.00  0.00    -0.279 OA
ENDROOT
BRANCH   1   3
ATOM      3  S   UNL d   1      -1.711  -5.847  -2.974  0.00  0.00    -0.030 SA
BRANCH   3   4
ATOM      4  C   UNL d   1      -2.250  -6.457  -4.557  0.00  0.00     0.077 A 
ATOM      5  C   UNL d   1      -1.492  -6.412  -5.722  0.00  0.00     0.038 A 
ATOM      6  C   UNL d   1      -2.052  -6.839  -6.928  0.00  0.00     0.020 A 
ATOM      7  C   UNL d   1      -3.378  -7.268  -6.965  0.00  0.00     0.063 A 
ATOM      8  C   UNL d   1      -4.070  -7.273  -5.765  0.00  0.00     0.105 A 
ATOM      9  N   UNL d   1      -3.537  -6.885  -4.579  0.00  0.00    -0.359 N 
ATOM     10  HN  UNL d   1      -4.092  -6.914  -3.724  1.00  0.00     0.166 HD
BRANCH   7  11
ATOM     11  C   UNL d   1      -4.038  -7.674  -8.246  0.00  0.00     0.418 C 
ATOM     12  F   UNL d   1      -5.336  -8.053  -8.098  0.00  0.00    -0.166 F 
ATOM     13  F   UNL d   1      -3.410  -8.722  -8.849  0.00  0.00    -0.166 F 
ATOM     14  F   UNL d   1      -4.047  -6.668  -9.164  0.00  0.00    -0.166 F 
ENDBRANCH   7  11
ENDBRANCH   3   4
ENDBRANCH   1   3
BRANCH   1  15
ATOM     15  C   UNL d   1       0.627  -6.283  -1.502  0.00  0.00     0.021 A 
ATOM     16  C   UNL d   1       0.095  -5.689  -0.357  0.00  0.00     0.016 A 
ATOM     17  C   UNL d   1       0.827  -5.679   0.845  0.00  0.00     0.009 A 
ATOM     18  C   UNL d   1       2.111  -6.251   0.935  0.00  0.00    -0.051 A 
ATOM     19  C   UNL d   1       2.613  -6.878  -0.214  0.00  0.00     0.009 A 
ATOM     20  C   UNL d   1       1.888  -6.889  -1.411  0.00  0.00     0.016 A 
BRANCH  18  21
ATOM     21  C   UNL d   1       2.936  -6.144   2.232  0.00  0.00    -0.024 C 
ATOM     22  C   UNL d   1       4.329  -6.808   2.138  0.00  0.00     0.019 C 
ATOM     23  C   UNL d   1       3.168  -4.654   2.564  0.00  0.00     0.019 C 
ATOM     24  C   UNL d   1       2.190  -6.813   3.405  0.00  0.00     0.019 C 
ENDBRANCH  18  21
ENDBRANCH   1  15
TORSDOF 5
