REMARK  5 active torsions:
REMARK  status: ('A' for Active; 'I' for Inactive)
REMARK    1  A    between atoms: C_2  and  S_1 
REMARK    2  A    between atoms: N_3  and  S_1 
REMARK    3  A    between atoms: C_15  and  N_7 
REMARK    4  A    between atoms: C_17  and  C_15 
REMARK    5  A    between atoms: C_18  and  C_17 
ROOT
ATOM      1  N   UNL d   1       0.320   0.243  -1.248  0.00  0.00    -0.303 N 
ATOM      2  N   UNL d   1      -2.255   1.713  -1.037  0.00  0.00     0.091 N 
ATOM      3  C   UNL d   1       0.241   1.677  -1.636  0.00  0.00     0.165 C 
ATOM      4  C   UNL d   1      -0.977  -0.449  -1.463  0.00  0.00     0.165 C 
ATOM      5  C   UNL d   1      -2.105   0.275  -0.705  0.00  0.00     0.293 C 
ATOM      6  C   UNL d   1      -0.935   2.383  -0.914  0.00  0.00     0.293 C 
ENDROOT
BRANCH   1   7
ATOM      7  S   UNL d   1       1.141  -0.132   0.199  0.00  0.00     0.263 S 
ATOM      8  O   UNL d   1       1.099   1.053   1.040  0.00  0.00    -0.200 OA
ATOM      9  O   UNL d   1       0.686  -1.399   0.720  0.00  0.00    -0.200 OA
BRANCH   7  10
ATOM     10  C   UNL d   1       2.821  -0.327  -0.333  0.00  0.00     0.107 A 
ATOM     11  C   UNL d   1       3.128  -1.329  -1.257  0.00  0.00     0.066 A 
ATOM     12  N   UNL d   1       2.202  -2.175  -1.769  0.00  0.00    -0.364 N 
ATOM     13  C   UNL d   1       4.480  -1.421  -1.663  0.00  0.00    -0.008 A 
ATOM     14  C   UNL d   1       2.576  -3.097  -2.680  0.00  0.00     0.088 A 
ATOM     15  HN  UNL d   1       1.230  -2.114  -1.469  1.00  0.00     0.165 HD
ATOM     16  C   UNL d   1       3.864  -3.227  -3.149  0.00  0.00     0.018 A 
ATOM     17  C   UNL d   1       4.829  -2.379  -2.625  0.00  0.00     0.015 A 
ATOM     18  C   UNL d   1       5.460  -0.567  -1.127  0.00  0.00     0.014 A 
ATOM     19  C   UNL d   1       5.121   0.405  -0.193  0.00  0.00     0.003 A 
ATOM     20  C   UNL d   1       3.797   0.532   0.204  0.00  0.00     0.028 A 
ENDBRANCH   7  10
ENDBRANCH   1   7
BRANCH   2  21
ATOM     21  C   UNL d   1      -2.861   1.966  -2.357  0.00  0.00     0.277 C 
BRANCH  21  22
ATOM     22  C   UNL d   1      -4.323   1.493  -2.454  0.00  0.00     0.068 C 
BRANCH  22  23
ATOM     23  C   UNL d   1      -4.950   1.842  -3.783  0.00  0.00    -0.057 A 
ATOM     24  C   UNL d   1      -4.819   0.974  -4.876  0.00  0.00     0.007 A 
ATOM     25  C   UNL d   1      -5.413   1.286  -6.100  0.00  0.00     0.001 A 
ATOM     26  C   UNL d   1      -6.135   2.469  -6.243  0.00  0.00     0.000 A 
ATOM     27  C   UNL d   1      -6.260   3.344  -5.165  0.00  0.00     0.001 A 
ATOM     28  C   UNL d   1      -5.667   3.034  -3.940  0.00  0.00     0.007 A 
ENDBRANCH  22  23
ENDBRANCH  21  22
ENDBRANCH   2  21
TORSDOF 5
