REMARK  2 active torsions:
REMARK  status: ('A' for Active; 'I' for Inactive)
REMARK    1  A    between atoms: N_2  and  C_1 
REMARK    2  A    between atoms: C_5  and  C_1 
ROOT
ATOM      1  N   UNL d   1      -1.739  -5.760   2.651  0.00  0.00    -0.191 NA
ATOM      2  C   UNL d   1      -1.303  -4.773   2.228  0.00  0.00     0.099 C 
ATOM      3  C   UNL d   1       0.352  -1.197   0.621  0.00  0.00     0.002 A 
ATOM      4  C   UNL d   1      -0.629  -1.915  -0.083  0.00  0.00     0.016 A 
ATOM      5  C   UNL d   1       0.754  -1.665   1.881  0.00  0.00     0.016 A 
ATOM      6  C   UNL d   1      -0.762  -3.554   1.697  0.00  0.00     0.044 A 
ATOM      7  C   UNL d   1       0.202  -2.837   2.414  0.00  0.00     0.023 A 
ATOM      8  C   UNL d   1      -1.182  -3.085   0.451  0.00  0.00     0.023 A 
ENDROOT
BRANCH   3   9
ATOM      9  C   UNL d   1       1.007  -0.014  -0.043  0.00  0.00     0.109 C 
ATOM     10  S   UNL d   1       2.618   0.405   0.216  0.00  0.00    -0.060 SA
BRANCH   9  11
ATOM     11  N   UNL d   1       0.198   0.658  -0.962  0.00  0.00    -0.367 N 
ATOM     12  C   UNL d   1      -0.888   1.519  -0.475  0.00  0.00     0.150 C 
ATOM     13  C   UNL d   1      -0.545   3.001  -0.694  0.00  0.00     0.187 C 
ATOM     14  O   UNL d   1      -0.225   3.260  -2.072  0.00  0.00    -0.388 OA
ATOM     15  C   UNL d   1       0.924   2.495  -2.474  0.00  0.00     0.187 C 
ATOM     16  C   UNL d   1       0.656   0.996  -2.316  0.00  0.00     0.150 C 
ENDBRANCH   9  11
ENDBRANCH   3   9
TORSDOF 2
