REMARK  3 active torsions:
REMARK  status: ('A' for Active; 'I' for Inactive)
REMARK    1  A    between atoms: S_5  and  C_1 
REMARK    2  A    between atoms: C_7  and  C_3 
REMARK    3  A    between atoms: C_8  and  C_4 
REMARK       I    between atoms: N_12  and  C_7 
ROOT
ATOM      1  C   UNL d   1       0.310  -0.931   0.032  0.00  0.00     0.111 A 
ATOM      2  S   UNL d   1      -1.261  -0.262   0.119  0.00  0.00    -0.071 SA
ATOM      3  C   UNL d   1      -0.699   1.351   0.054  0.00  0.00     0.080 A 
ATOM      4  C   UNL d   1       1.270   0.070  -0.032  0.00  0.00    -0.001 A 
ATOM      5  C   UNL d   1       0.692   1.398   0.014  0.00  0.00    -0.027 A 
ATOM      6  C   UNL d   1       1.473   2.683   0.013  0.00  0.00     0.050 C 
ENDROOT
BRANCH   3   7
ATOM      7  C   UNL d   1      -1.629   2.487   0.050  0.00  0.00     0.258 C 
ATOM      8  O   UNL d   1      -1.255   3.658   0.035  0.00  0.00    -0.267 OA
ATOM      9  N   UNL d   1      -2.974   2.174   0.045  0.00  0.00    -0.361 N 
ATOM     10  C   UNL d   1      -4.009   3.176   0.005  0.00  0.00     0.149 C 
ATOM     11  H   UNL d   1      -3.238   1.198   0.032  0.00  0.00     0.162 HD
ENDBRANCH   3   7
BRANCH   1  12
ATOM     12  S   UNL d   1       0.416  -2.718   0.009  0.00  0.00     0.179 S 
ATOM     13  O   UNL d   1       1.095  -3.037  -1.233  0.00  0.00    -0.222 OA
ATOM     14  O   UNL d   1       0.965  -3.081   1.301  0.00  0.00    -0.222 OA
ATOM     15  C   UNL d   1      -1.218  -3.390  -0.079  0.00  0.00     0.167 C 
ENDBRANCH   1  12
BRANCH   4  16
ATOM     16  C   UNL d   1       2.681  -0.154  -0.183  0.00  0.00     0.004 C 
ATOM     17  C   UNL d   1       3.436  -1.057   0.455  0.00  0.00     0.012 C 
ENDBRANCH   4  16
TORSDOF 3
