REMARK  5 active torsions:
REMARK  status: ('A' for Active; 'I' for Inactive)
REMARK    1  A    between atoms: N_2  and  C_1 
REMARK    2  A    between atoms: O_15  and  C_1 
REMARK       I    between atoms: C_5  and  N_2 
REMARK    3  A    between atoms: C_6  and  C_5 
REMARK    4  A    between atoms: C_14  and  C_10 
REMARK    5  A    between atoms: O_20  and  C_11 
ROOT
ATOM      1  N   UNL d   1      -2.793  -0.150  -1.152  0.00  0.00    -0.312 N 
ATOM      2  C   UNL d   1      -3.822  -1.036  -1.306  0.00  0.00     0.257 C 
ATOM      3  O   UNL d   1      -4.655  -0.952  -2.201  0.00  0.00    -0.267 OA
ATOM      4  H   UNL d   1      -2.280  -0.101  -0.281  0.00  0.00     0.166 HD
ENDROOT
BRANCH   1   5
ATOM      5  C   UNL d   1      -2.565   0.953  -2.032  0.00  0.00     0.269 C 
ATOM      6  C   UNL d   1      -2.190   0.612  -3.490  0.00  0.00     0.224 C 
ATOM      7  C   UNL d   1      -2.829   1.598  -4.361  0.00  0.00     0.029 A 
ATOM      8  O   UNL d   1      -1.373  -0.211  -3.874  0.00  0.00    -0.286 OA
ATOM      9  C   UNL d   1      -2.596   1.814  -5.709  0.00  0.00     0.016 A 
ATOM     10  C   UNL d   1      -3.660   2.432  -3.617  0.00  0.00     0.029 A 
ATOM     11  C   UNL d   1      -3.214   2.917  -6.304  0.00  0.00     0.001 A 
ATOM     12  C   UNL d   1      -4.044   3.770  -5.552  0.00  0.00     0.001 A 
ATOM     13  C   UNL d   1      -4.281   3.527  -4.194  0.00  0.00     0.016 A 
ATOM     14  C   UNL d   1      -3.664   2.024  -2.208  0.00  0.00     0.224 C 
ATOM     15  O   UNL d   1      -4.383   2.527  -1.361  0.00  0.00    -0.286 OA
BRANCH   5  16
ATOM     16  O   UNL d   1      -1.446   1.608  -1.434  0.00  0.00    -0.358 OA
ATOM     17  H   UNL d   1      -0.665   1.406  -1.981  0.00  0.00     0.213 HD
ENDBRANCH   5  16
ENDBRANCH   1   5
BRANCH   2  18
ATOM     18  C   UNL d   1      -3.929  -2.108  -0.272  0.00  0.00     0.066 A 
ATOM     19  C   UNL d   1      -2.781  -2.621   0.354  0.00  0.00     0.035 A 
ATOM     20  C   UNL d   1      -2.891  -3.613   1.344  0.00  0.00     0.010 A 
ATOM     21  C   UNL d   1      -4.154  -4.064   1.737  0.00  0.00     0.018 A 
ATOM     22  C   UNL d   1      -5.296  -3.580   1.093  0.00  0.00     0.038 A 
ATOM     23  C   UNL d   1      -5.180  -2.627   0.078  0.00  0.00     0.081 A 
BRANCH  20  24
ATOM     24  C   UNL d   1      -1.638  -4.151   1.946  0.00  0.00     0.155 C 
ATOM     25  O   UNL d   1      -0.618  -3.465   1.912  0.00  0.00    -0.293 OA
ATOM     26  C   UNL d   1      -1.631  -5.528   2.561  0.00  0.00     0.096 C 
ENDBRANCH  20  24
BRANCH  23  27
ATOM     27  O   UNL d   1      -6.347  -2.242  -0.524  0.00  0.00    -0.360 OA
ATOM     28  H   UNL d   1      -6.122  -1.694  -1.308  0.00  0.00     0.217 HD
ENDBRANCH  23  27
ENDBRANCH   2  18
TORSDOF 5
