REMARK  6 active torsions:
REMARK  status: ('A' for Active; 'I' for Inactive)
REMARK    1  A    between atoms: C_8  and  N_1 
REMARK    2  A    between atoms: S_7  and  C_2 
REMARK    3  A    between atoms: C_17  and  S_7 
REMARK    4  A    between atoms: C_10  and  C_12 
REMARK    5  A    between atoms: C_12  and  C_17 
REMARK    6  A    between atoms: O_26  and  C_23 
ROOT
ATOM      1  N   UNL d   1       0.585   0.326   0.037  0.00  0.00    -0.219 N 
ATOM      2  C   UNL d   1       0.982  -0.954  -0.325  0.00  0.00     0.177 C 
ATOM      3  N   UNL d   1      -0.056  -1.756  -0.282  0.00  0.00    -0.264 N 
ATOM      4  HN  UNL d   1      -0.077  -2.744  -0.535  1.00  0.00     0.186 HD
ATOM      5  N   UNL d   1      -1.101  -1.002   0.172  0.00  0.00    -0.006 NA
ATOM      6  N   UNL d   1      -0.713   0.238   0.433  0.00  0.00     0.001 NA
ENDROOT
BRANCH   2   7
ATOM      7  S   UNL d   1       2.617  -1.471  -0.561  0.00  0.00    -0.084 SA
BRANCH   7   8
ATOM      8  C   UNL d   1       2.448  -3.251  -0.238  0.00  0.00     0.166 C 
BRANCH   8   9
ATOM      9  C   UNL d   1       3.799  -3.946  -0.255  0.00  0.00     0.169 C 
ATOM     10  O   UNL d   1       4.871  -3.350  -0.234  0.00  0.00    -0.291 OA
BRANCH   9  11
ATOM     11  C   UNL d   1       3.820  -5.439  -0.355  0.00  0.00     0.013 A 
ATOM     12  C   UNL d   1       5.064  -6.047  -0.584  0.00  0.00     0.055 A 
ATOM     13  C   UNL d   1       5.064  -7.370  -0.957  0.00  0.00     0.105 A 
ATOM     14  O   UNL d   1       6.147  -8.069  -1.395  0.00  0.00    -0.323 OA
ATOM     15  C   UNL d   1       3.905  -8.107  -1.033  0.00  0.00     0.105 A 
ATOM     16  C   UNL d   1       5.474  -9.171  -2.035  0.00  0.00     0.352 C 
ATOM     17  O   UNL d   1       4.124  -9.346  -1.554  0.00  0.00    -0.323 OA
ATOM     18  C   UNL d   1       2.682  -7.577  -0.686  0.00  0.00     0.040 A 
ATOM     19  C   UNL d   1       2.639  -6.218  -0.353  0.00  0.00     0.018 A 
ENDBRANCH   9  11
ENDBRANCH   8   9
ENDBRANCH   7   8
ENDBRANCH   2   7
BRANCH   1  20
ATOM     20  C   UNL d   1       1.248   1.584   0.019  0.00  0.00     0.057 A 
ATOM     21  C   UNL d   1       2.316   1.836  -0.846  0.00  0.00     0.034 A 
ATOM     22  C   UNL d   1       2.892   3.112  -0.894  0.00  0.00     0.039 A 
ATOM     23  C   UNL d   1       2.404   4.118  -0.070  0.00  0.00     0.065 A 
ATOM     24  C   UNL d   1       1.355   3.877   0.807  0.00  0.00     0.039 A 
ATOM     25  C   UNL d   1       0.766   2.612   0.848  0.00  0.00     0.034 A 
BRANCH  23  26
ATOM     26  O   UNL d   1       2.975   5.354  -0.175  0.00  0.00    -0.361 OA
ATOM     27  H   UNL d   1       2.470   5.978   0.366  0.00  0.00     0.217 HD
ENDBRANCH  23  26
ENDBRANCH   1  20
TORSDOF 6
