REMARK  4 active torsions:
REMARK  status: ('A' for Active; 'I' for Inactive)
REMARK    1  A    between atoms: C_3  and  N_1 
REMARK       I    between atoms: C_2  and  N_6 
REMARK    2  A    between atoms: C_4  and  C_2 
REMARK    3  A    between atoms: O_21  and  C_5 
REMARK    4  A    between atoms: N_6  and  C_13 
ROOT
ATOM      1  C   UNL d   1       1.396   2.123  -0.990  0.00  0.00     0.064 A 
ATOM      2  C   UNL d   1       2.195   1.796  -2.118  0.00  0.00     0.096 A 
ATOM      3  C   UNL d   1       2.791   2.808  -2.897  0.00  0.00     0.068 A 
ATOM      4  C   UNL d   1       1.292   3.498  -0.695  0.00  0.00     0.034 A 
ATOM      5  C   UNL d   1       2.621   4.163  -2.602  0.00  0.00     0.037 A 
ATOM      6  C   UNL d   1       1.883   4.501  -1.480  0.00  0.00     0.032 A 
ENDROOT
BRANCH   5   7
ATOM      7  N   UNL d   1       3.169   5.086  -3.513  0.00  0.00    -0.322 N 
ATOM      8  C   UNL d   1       3.047   6.465  -3.516  0.00  0.00     0.263 C 
ATOM      9  O   UNL d   1       2.557   7.119  -2.603  0.00  0.00    -0.267 OA
ATOM     10  H   UNL d   1       3.633   4.698  -4.325  0.00  0.00     0.169 HD
BRANCH   8  11
ATOM     11  C   UNL d   1       3.523   7.114  -4.742  0.00  0.00     0.072 A 
ATOM     12  S   UNL d   1       4.232   6.240  -6.040  0.00  0.00    -0.097 SA
ATOM     13  C   UNL d   1       4.392   7.648  -6.996  0.00  0.00     0.050 A 
ATOM     14  C   UNL d   1       3.938   8.770  -6.342  0.00  0.00     0.009 A 
ATOM     15  C   UNL d   1       3.447   8.463  -5.041  0.00  0.00     0.025 A 
ENDBRANCH   8  11
ENDBRANCH   5   7
BRANCH   2  16
ATOM     16  O   UNL d   1       2.273   0.473  -2.502  0.00  0.00    -0.354 OA
ATOM     17  C   UNL d   1       3.398   0.103  -3.293  0.00  0.00     0.210 C 
ENDBRANCH   2  16
BRANCH   1  18
ATOM     18  N   UNL d   1       0.715   1.197  -0.215  0.00  0.00    -0.374 N 
ATOM     19  C   UNL d   1       1.203  -0.167   0.061  0.00  0.00     0.154 C 
ATOM     20  C   UNL d   1       0.062  -1.168  -0.225  0.00  0.00     0.136 C 
ATOM     21  C   UNL d   1       0.492  -2.599   0.056  0.00  0.00     0.041 C 
ATOM     22  O   UNL d   1      -1.079  -0.877   0.613  0.00  0.00    -0.378 OA
ATOM     23  C   UNL d   1      -1.577   0.447   0.335  0.00  0.00     0.136 C 
ATOM     24  C   UNL d   1      -0.493   1.529   0.567  0.00  0.00     0.154 C 
ATOM     25  C   UNL d   1      -2.791   0.684   1.224  0.00  0.00     0.041 C 
ENDBRANCH   1  18
TORSDOF 4
