REMARK  8 active torsions:
REMARK  status: ('A' for Active; 'I' for Inactive)
REMARK       I    between atoms: N_8  and  C_1 
REMARK    1  A    between atoms: C_17  and  C_1 
REMARK    2  A    between atoms: C_2  and  C_7 
REMARK    3  A    between atoms: N_3  and  N_8 
REMARK    4  A    between atoms: C_12  and  C_6 
REMARK    5  A    between atoms: C_9  and  O_10 
REMARK    6  A    between atoms: O_10  and  C_17 
REMARK    7  A    between atoms: S_15  and  C_12 
REMARK    8  A    between atoms: C_18  and  S_15 
ROOT
ATOM      1  C   UNL d   1       0.379  -1.475  -1.365  0.00  0.00    -0.015 A 
ATOM      2  C   UNL d   1       0.166  -0.169  -0.868  0.00  0.00     0.076 A 
ATOM      3  C   UNL d   1      -0.568  -2.002  -2.272  0.00  0.00     0.011 A 
ATOM      4  C   UNL d   1      -1.029   0.500  -1.171  0.00  0.00     0.037 A 
ATOM      5  C   UNL d   1      -1.717  -1.295  -2.622  0.00  0.00     0.001 A 
ATOM      6  C   UNL d   1      -1.958  -0.053  -2.053  0.00  0.00     0.003 A 
ENDROOT
BRANCH   2   7
ATOM      7  O   UNL d   1       1.151   0.388  -0.098  0.00  0.00    -0.341 OA
BRANCH   7   8
ATOM      8  C   UNL d   1       1.170   1.794   0.098  0.00  0.00     0.280 C 
BRANCH   8   9
ATOM      9  C   UNL d   1       0.556   2.311   1.408  0.00  0.00     0.260 C 
ATOM     10  N   UNL d   1       0.675   3.693   1.532  0.00  0.00    -0.269 N 
ATOM     11  H   UNL d   1       1.257   4.213   0.882  0.00  0.00     0.190 HD
ATOM     12  O   UNL d   1       0.008   1.582   2.235  0.00  0.00    -0.269 OA
BRANCH  10  13
ATOM     13  N   UNL d   1       0.266   4.314   2.682  0.00  0.00    -0.308 N 
ATOM     14  C   UNL d   1       0.322   5.612   2.774  0.00  0.00     0.126 C 
ATOM     15  HN  UNL d   1      -0.083   3.761   3.465  1.00  0.00     0.186 HD
BRANCH  14  16
ATOM     16  C   UNL d   1       0.644   6.556   1.726  0.00  0.00     0.021 A 
ATOM     17  S   UNL d   1       1.472   7.998   2.143  0.00  0.00    -0.101 SA
ATOM     18  C   UNL d   1       1.540   8.505   0.509  0.00  0.00     0.050 A 
ATOM     19  C   UNL d   1       0.895   7.626  -0.331  0.00  0.00     0.008 A 
ATOM     20  C   UNL d   1       0.347   6.520   0.376  0.00  0.00     0.021 A 
ENDBRANCH  14  16
ENDBRANCH  10  13
ENDBRANCH   8   9
ENDBRANCH   7   8
ENDBRANCH   2   7
BRANCH   1  21
ATOM     21  C   UNL d   1       1.607  -2.338  -1.096  0.00  0.00     0.120 C 
BRANCH  21  22
ATOM     22  S   UNL d   1       2.274  -2.304   0.595  0.00  0.00    -0.125 SA
BRANCH  22  23
ATOM     23  C   UNL d   1       3.716  -3.361   0.548  0.00  0.00     0.001 A 
ATOM     24  C   UNL d   1       4.398  -3.774  -0.599  0.00  0.00     0.020 A 
ATOM     25  C   UNL d   1       5.566  -4.548  -0.494  0.00  0.00     0.025 A 
ATOM     26  C   UNL d   1       6.056  -4.907   0.759  0.00  0.00     0.034 A 
ATOM     27  C   UNL d   1       5.382  -4.517   1.909  0.00  0.00     0.025 A 
ATOM     28 CL   UNL d   1       7.512  -5.816   0.887  0.00  0.00    -0.084 Cl
ATOM     29  C   UNL d   1       4.220  -3.748   1.800  0.00  0.00     0.020 A 
ENDBRANCH  22  23
ENDBRANCH  21  22
ENDBRANCH   1  21
TORSDOF 8
