REMARK  2 active torsions:
REMARK  status: ('A' for Active; 'I' for Inactive)
REMARK    1  A    between atoms: C_9  and  N_3 
REMARK    2  A    between atoms: O_11  and  C_6 
ROOT
ATOM      1  C   UNL d   1      -0.848   1.338   0.142  0.00  0.00     0.291 A 
ATOM      2  C   UNL d   1      -1.564   0.015   0.121  0.00  0.00     0.138 A 
ATOM      3  N   UNL d   1       0.547   1.294   0.021  0.00  0.00    -0.220 N 
ATOM      4  N   UNL d   1       1.240   0.119  -0.141  0.00  0.00    -0.299 N 
ATOM      5  HN  UNL d   1       2.253   0.117  -0.260  1.00  0.00     0.186 HD
ATOM      6  C   UNL d   1      -0.894  -1.144  -0.006  0.00  0.00     0.112 A 
ATOM      7  C   UNL d   1       0.568  -0.980  -0.138  0.00  0.00     0.146 A 
ATOM      8  O   UNL d   1      -1.519   2.370   0.228  0.00  0.00    -0.264 OA
ATOM      9 CL   UNL d   1      -3.290   0.148   0.259  0.00  0.00    -0.075 Cl
ENDROOT
BRANCH   3  10
ATOM     10  C   UNL d   1       1.378   2.468   0.004  0.00  0.00     0.060 A 
ATOM     11  C   UNL d   1       0.952   3.697   0.531  0.00  0.00     0.031 A 
ATOM     12  C   UNL d   1       1.752   4.843   0.448  0.00  0.00     0.002 A 
ATOM     13  C   UNL d   1       2.998   4.782  -0.163  0.00  0.00     0.000 A 
ATOM     14  C   UNL d   1       3.459   3.568  -0.664  0.00  0.00     0.002 A 
ATOM     15  C   UNL d   1       2.663   2.421  -0.568  0.00  0.00     0.031 A 
ENDBRANCH   3  10
BRANCH   6  16
ATOM     16  O   UNL d   1      -1.309  -2.450  -0.053  0.00  0.00    -0.353 OA
ATOM     17  C   UNL d   1      -2.682  -2.802  -0.003  0.00  0.00     0.210 C 
ENDBRANCH   6  16
TORSDOF 2
