REMARK  4 active torsions:
REMARK  status: ('A' for Active; 'I' for Inactive)
REMARK    1  A    between atoms: C_17  and  N_3 
REMARK    2  A    between atoms: C_9  and  C_4 
REMARK    3  A    between atoms: C_7  and  N_11 
REMARK       I    between atoms: N_11  and  C_9 
REMARK    4  A    between atoms: C_20  and  C_16 
ROOT
ATOM      1  N   UNL d   1      -0.214  -0.917  -0.163  0.00  0.00    -0.272 N 
ATOM      2  HN  UNL d   1      -0.488  -1.784  -0.625  1.00  0.00     0.189 HD
ATOM      3  N   UNL d   1       1.036  -0.488   0.187  0.00  0.00    -0.196 N 
ATOM      4  C   UNL d   1      -0.993   0.101   0.260  0.00  0.00     0.141 A 
ATOM      5  N   UNL d   1       1.105   0.749   0.740  0.00  0.00    -0.281 N 
ATOM      6  HN  UNL d   1       1.932   1.264   1.042  1.00  0.00     0.189 HD
ATOM      7  C   UNL d   1      -0.175   1.125   0.791  0.00  0.00     0.057 A 
ATOM      8  C   UNL d   1      -0.552   2.465   1.294  0.00  0.00     0.072 C 
ENDROOT
BRANCH   4   9
ATOM      9  C   UNL d   1      -2.453   0.114   0.119  0.00  0.00     0.277 C 
ATOM     10  N   UNL d   1      -2.916  -0.900  -0.685  0.00  0.00    -0.300 N 
ATOM     11  H   UNL d   1      -2.243  -1.524  -1.109  0.00  0.00     0.171 HD
ATOM     12  O   UNL d   1      -3.128   0.991   0.646  0.00  0.00    -0.266 OA
BRANCH  10  13
ATOM     13  C   UNL d   1      -4.213  -0.915  -1.108  0.00  0.00     0.168 A 
ATOM     14  S   UNL d   1      -4.549  -1.984  -2.396  0.00  0.00    -0.038 SA
ATOM     15  C   UNL d   1      -6.112  -1.260  -2.465  0.00  0.00     0.069 A 
ATOM     16  N   UNL d   1      -6.344  -0.394  -1.502  0.00  0.00    -0.296 N 
ATOM     17  N   UNL d   1      -5.229  -0.187  -0.717  0.00  0.00    -0.279 N 
ATOM     18  HN  UNL d   1      -7.241   0.068  -1.353  1.00  0.00     0.187 HD
ATOM     19  HN  UNL d   1      -5.199   0.457   0.074  1.00  0.00     0.189 HD
BRANCH  15  20
ATOM     20  C   UNL d   1      -7.066  -1.556  -3.572  0.00  0.00     0.062 C 
ATOM     21  C   UNL d   1      -6.860  -0.588  -4.730  0.00  0.00     0.012 C 
ENDBRANCH  15  20
ENDBRANCH  10  13
ENDBRANCH   4   9
BRANCH   3  22
ATOM     22  C   UNL d   1       2.203  -1.270  -0.022  0.00  0.00     0.074 A 
ATOM     23  C   UNL d   1       2.119  -2.536  -0.616  0.00  0.00     0.033 A 
ATOM     24  C   UNL d   1       3.280  -3.290  -0.810  0.00  0.00     0.002 A 
ATOM     25  C   UNL d   1       4.519  -2.787  -0.413  0.00  0.00     0.000 A 
ATOM     26  C   UNL d   1       4.607  -1.529   0.178  0.00  0.00     0.002 A 
ATOM     27  C   UNL d   1       3.454  -0.768   0.374  0.00  0.00     0.033 A 
ENDBRANCH   3  22
TORSDOF 4
