REMARK  7 active torsions:
REMARK  status: ('A' for Active; 'I' for Inactive)
REMARK    1  A    between atoms: C_9  and  C_1 
REMARK    2  A    between atoms: S_13  and  C_6 
REMARK    3  A    between atoms: C_21  and  C_7 
REMARK    4  A    between atoms: C_24  and  S_13 
REMARK    5  A    between atoms: C_14  and  O_20 
REMARK    6  A    between atoms: O_20  and  C_21 
REMARK    7  A    between atoms: C_28  and  C_24 
ROOT
ATOM      1  N   UNL d   1       2.615   2.552   0.937  0.00  0.00    -0.335 N 
ATOM      2  HN  UNL d   1       1.905   2.612   1.667  1.00  0.00     0.168 HD
ATOM      3  C   UNL d   1       3.674   3.371   0.923  0.00  0.00     0.144 A 
ATOM      4  C   UNL d   1       2.530   1.643  -0.057  0.00  0.00     0.062 A 
ATOM      5  N   UNL d   1       4.646   3.344  -0.004  0.00  0.00    -0.347 N 
ATOM      6  HN  UNL d   1       5.437   3.986   0.031  1.00  0.00     0.167 HD
ATOM      7  C   UNL d   1       3.476   1.543  -1.057  0.00  0.00     0.049 A 
ATOM      8  C   UNL d   1       4.523   2.428  -0.978  0.00  0.00     0.092 A 
ENDROOT
BRANCH   4   9
ATOM      9  C   UNL d   1       1.361   0.766  -0.019  0.00  0.00     0.066 A 
ATOM     10  N   UNL d   1       0.133   1.210   0.449  0.00  0.00    -0.350 N 
ATOM     11  C   UNL d   1      -0.760   0.240   0.400  0.00  0.00     0.075 A 
ATOM     12  HN  UNL d   1      -0.054   2.155   0.784  1.00  0.00     0.166 HD
ATOM     13  S   UNL d   1      -0.177  -1.256  -0.221  0.00  0.00    -0.084 SA
ATOM     14  C   UNL d   1       1.373  -0.554  -0.431  0.00  0.00     0.083 A 
BRANCH  11  15
ATOM     15  C   UNL d   1      -2.197   0.390   0.794  0.00  0.00     0.240 C 
BRANCH  15  16
ATOM     16  O   UNL d   1      -2.326  -0.077   2.141  0.00  0.00    -0.345 OA
BRANCH  16  17
ATOM     17  C   UNL d   1      -3.596  -0.082   2.651  0.00  0.00     0.072 A 
ATOM     18  C   UNL d   1      -3.812  -0.984   3.695  0.00  0.00     0.060 A 
ATOM     19  C   UNL d   1      -5.071  -1.080   4.288  0.00  0.00     0.038 A 
ATOM     20 CL   UNL d   1      -5.335  -2.217   5.553  0.00  0.00    -0.084 Cl
ATOM     21  C   UNL d   1      -6.119  -0.270   3.861  0.00  0.00     0.048 A 
ATOM     22  C   UNL d   1      -5.891   0.645   2.838  0.00  0.00     0.038 A 
ATOM     23  C   UNL d   1      -4.637   0.747   2.232  0.00  0.00     0.060 A 
ATOM     24 CL   UNL d   1      -7.173   1.667   2.310  0.00  0.00    -0.084 Cl
ENDBRANCH  16  17
ENDBRANCH  15  16
ENDBRANCH  11  15
ENDBRANCH   4   9
BRANCH   3  25
ATOM     25  S   UNL d   1       3.825   4.601   2.193  0.00  0.00    -0.089 SA
BRANCH  25  26
ATOM     26  C   UNL d   1       2.924   3.754   3.521  0.00  0.00     0.121 C 
BRANCH  26  27
ATOM     27  C   UNL d   1       2.892   4.572   4.791  0.00  0.00    -0.048 A 
ATOM     28  C   UNL d   1       1.859   5.496   5.012  0.00  0.00     0.009 A 
ATOM     29  C   UNL d   1       1.805   6.231   6.199  0.00  0.00     0.024 A 
ATOM     30  C   UNL d   1       2.789   6.053   7.168  0.00  0.00     0.034 A 
ATOM     31  C   UNL d   1       3.836   5.158   6.954  0.00  0.00     0.024 A 
ATOM     32 CL   UNL d   1       2.710   6.940   8.640  0.00  0.00    -0.084 Cl
ATOM     33  C   UNL d   1       3.890   4.423   5.767  0.00  0.00     0.009 A 
ENDBRANCH  26  27
ENDBRANCH  25  26
ENDBRANCH   3  25
TORSDOF 7
