REMARK  7 active torsions:
REMARK  status: ('A' for Active; 'I' for Inactive)
REMARK    1  A    between atoms: N_2  and  S_1 
REMARK    2  A    between atoms: C_4  and  S_1 
REMARK    3  A    between atoms: C_3  and  N_2 
REMARK    4  A    between atoms: C_11  and  C_7 
REMARK    5  A    between atoms: C_18  and  C_11 
REMARK    6  A    between atoms: O_21  and  C_18 
REMARK    7  A    between atoms: C_24  and  O_21 
ROOT
ATOM      1  N   UNL d   1       0.299  -0.584  -1.545  0.00  0.00    -0.160 NA
ATOM      2  H   UNL d   1      -0.693  -0.513  -1.327  0.00  0.00     0.148 HD
ENDROOT
BRANCH   1   3
ATOM      3  S   UNL d   1       1.110  -0.066  -0.157  0.00  0.00     0.247 S 
ATOM      4  O   UNL d   1       0.081   0.135   0.847  0.00  0.00    -0.205 OA
ATOM      5  O   UNL d   1       2.040   1.002  -0.451  0.00  0.00    -0.205 OA
BRANCH   3   6
ATOM      6  C   UNL d   1       2.051  -1.525   0.277  0.00  0.00     0.081 A 
ATOM      7  C   UNL d   1       3.364  -1.575  -0.228  0.00  0.00     0.033 A 
ATOM      8  C   UNL d   1       4.235  -2.623   0.102  0.00  0.00    -0.039 A 
ATOM      9  C   UNL d   1       5.620  -2.642  -0.481  0.00  0.00     0.050 C 
ATOM     10  C   UNL d   1       3.775  -3.621   0.966  0.00  0.00     0.040 A 
ATOM     11  C   UNL d   1       2.469  -3.580   1.466  0.00  0.00     0.032 A 
ATOM     12 CL   UNL d   1       4.786  -4.937   1.448  0.00  0.00    -0.084 Cl
ATOM     13  C   UNL d   1       1.576  -2.549   1.114  0.00  0.00    -0.037 A 
ATOM     14  C   UNL d   1       0.194  -2.617   1.705  0.00  0.00     0.050 C 
ENDBRANCH   3   6
ENDBRANCH   1   3
BRANCH   1  15
ATOM     15  C   UNL d   1       0.617   0.212  -2.670  0.00  0.00     0.137 A 
ATOM     16  N   UNL d   1       1.652  -0.062  -3.427  0.00  0.00    -0.343 N 
ATOM     17  C   UNL d   1       1.643   0.773  -4.542  0.00  0.00     0.026 A 
ATOM     18  HN  UNL d   1       2.354  -0.776  -3.230  1.00  0.00     0.167 HD
ATOM     19  C   UNL d   1       0.623   1.708  -4.550  0.00  0.00     0.078 A 
ATOM     20  S   UNL d   1      -0.419   1.454  -3.214  0.00  0.00    -0.069 SA
BRANCH  17  21
ATOM     21  C   UNL d   1       2.683   0.590  -5.604  0.00  0.00     0.168 C 
BRANCH  21  22
ATOM     22  C   UNL d   1       2.083   0.068  -6.894  0.00  0.00     0.264 C 
ATOM     23  O   UNL d   1       0.890  -0.054  -7.137  0.00  0.00    -0.265 OA
BRANCH  22  24
ATOM     24  O   UNL d   1       3.088  -0.257  -7.762  0.00  0.00    -0.322 OA
BRANCH  24  25
ATOM     25  C   UNL d   1       2.683  -0.989  -8.929  0.00  0.00     0.174 C 
ATOM     26  C   UNL d   1       2.757  -2.472  -8.614  0.00  0.00     0.034 C 
ENDBRANCH  24  25
ENDBRANCH  22  24
ENDBRANCH  21  22
ENDBRANCH  17  21
ENDBRANCH   1  15
TORSDOF 7
