REMARK  5 active torsions:
REMARK  status: ('A' for Active; 'I' for Inactive)
REMARK    1  A    between atoms: O_13  and  C_5 
REMARK    2  A    between atoms: C_12  and  C_7 
REMARK    3  A    between atoms: O_17  and  C_12 
REMARK    4  A    between atoms: C_15  and  O_13 
REMARK    5  A    between atoms: C_25  and  O_17 
ROOT
ATOM      1  C   UNL d   1       0.168  -0.757  -0.041  0.00  0.00     0.068 A 
ATOM      2  C   UNL d   1       0.162   0.631  -0.069  0.00  0.00     0.137 A 
ATOM      3  N   UNL d   1       2.340  -0.022  -0.171  0.00  0.00    -0.301 N 
ATOM      4  HN  UNL d   1       3.357   0.010  -0.233  1.00  0.00     0.187 HD
ATOM      5  C   UNL d   1      -1.065  -1.436   0.062  0.00  0.00     0.109 C 
ATOM      6  N   UNL d   1       1.473   1.013  -0.135  0.00  0.00    -0.280 N 
ATOM      7  C   UNL d   1      -2.199  -0.624   0.244  0.00  0.00     0.089 C 
ATOM      8  C   UNL d   1       1.548  -1.103  -0.106  0.00  0.00     0.039 A 
ATOM      9  N   UNL d   1      -0.911   1.441  -0.017  0.00  0.00    -0.349 N 
ATOM     10  HN  UNL d   1      -0.858   2.457  -0.095  1.00  0.00     0.167 HD
ATOM     11  C   UNL d   1      -2.070   0.761   0.150  0.00  0.00     0.110 C 
ATOM     12  C   UNL d   1       1.981   2.362  -0.097  0.00  0.00     0.179 C 
ATOM     13  C   UNL d   1       2.149  -2.460  -0.066  0.00  0.00     0.071 C 
ENDROOT
BRANCH   5  14
ATOM     14  O   UNL d   1      -1.018  -2.809   0.056  0.00  0.00    -0.309 OA
BRANCH  14  15
ATOM     15  C   UNL d   1      -2.032  -3.551  -0.507  0.00  0.00     0.076 A 
ATOM     16  C   UNL d   1      -2.794  -3.156  -1.609  0.00  0.00     0.039 A 
ATOM     17  C   UNL d   1      -3.906  -3.914  -1.987  0.00  0.00     0.026 A 
ATOM     18  C   UNL d   1      -4.209  -5.094  -1.308  0.00  0.00     0.034 A 
ATOM     19  C   UNL d   1      -3.389  -5.545  -0.277  0.00  0.00     0.026 A 
ATOM     20 CL   UNL d   1      -5.617  -5.987  -1.728  0.00  0.00    -0.084 Cl
ATOM     21  C   UNL d   1      -2.294  -4.774   0.119  0.00  0.00     0.039 A 
ENDBRANCH  14  15
ENDBRANCH   5  14
BRANCH   7  22
ATOM     22  C   UNL d   1      -3.553  -1.099   0.560  0.00  0.00     0.297 C 
ATOM     23  O   UNL d   1      -4.556  -0.621   0.050  0.00  0.00    -0.259 OA
BRANCH  22  24
ATOM     24  O   UNL d   1      -3.503  -2.038   1.531  0.00  0.00    -0.318 OA
BRANCH  24  25
ATOM     25  C   UNL d   1      -4.767  -2.607   1.900  0.00  0.00     0.174 C 
ATOM     26  C   UNL d   1      -5.364  -1.816   3.046  0.00  0.00     0.034 C 
ENDBRANCH  24  25
ENDBRANCH  22  24
ENDBRANCH   7  22
TORSDOF 5
