REMARK  4 active torsions:
REMARK  status: ('A' for Active; 'I' for Inactive)
REMARK    1  A    between atoms: C_3  and  C_1 
REMARK    2  A    between atoms: C_6  and  CA_2 
REMARK       I    between atoms: N_4  and  C_3 
REMARK    3  A    between atoms: C_5  and  N_4 
REMARK    4  A    between atoms: OXT_20  and  C_6 
ROOT
ATOM      1  C   UNL d   1      -1.469  -2.248  -0.004  0.00  0.00     0.276 C 
ATOM      2  N   UNL d   1      -0.980  -3.516   0.251  0.00  0.00    -0.306 N 
ATOM      3  O   UNL d   1      -0.817  -1.212   0.015  0.00  0.00    -0.266 OA
ATOM      4  H   UNL d   1      -1.481  -4.279  -0.194  0.00  0.00     0.170 HD
ENDROOT
BRANCH   1   5
ATOM      5  C   UNL d   1      -2.913  -2.183  -0.344  0.00  0.00     0.134 A 
ATOM      6  CA  UNL d   1      -3.418  -1.214  -1.199  0.00  0.00     0.139 A 
ATOM      7  N   UNL d   1      -4.764  -1.009  -1.340  0.00  0.00    -0.357 N 
ATOM      8  C   UNL d   1      -5.559  -1.817  -0.603  0.00  0.00     0.105 A 
ATOM      9  HN  UNL d   1      -5.142  -0.294  -1.960  1.00  0.00     0.165 HD
ATOM     10  C   UNL d   1      -5.051  -2.816   0.214  0.00  0.00     0.105 A 
ATOM     11  N   UNL d   1      -3.723  -3.036   0.359  0.00  0.00    -0.358 N 
ATOM     12  HN  UNL d   1      -3.353  -3.782   0.948  1.00  0.00     0.165 HD
BRANCH   6  13
ATOM     13  C   UNL d   1      -2.548  -0.394  -2.073  0.00  0.00     0.196 C 
ATOM     14  O   UNL d   1      -2.671   0.789  -2.329  0.00  0.00    -0.645 OA
BRANCH  13  15
ATOM     15  OXT UNL d   1      -1.624  -1.157  -2.696  0.00  0.00    -0.772 OA
ATOM     16  HXT UNL d   1      -1.099  -0.512  -3.217  0.00  0.00     0.167 HD
ENDBRANCH  13  15
ENDBRANCH   6  13
ENDBRANCH   1   5
BRANCH   2  17
ATOM     17  C   UNL d   1       0.394  -3.754   0.397  0.00  0.00     0.130 A 
ATOM     18  N   UNL d   1       0.872  -4.727  -0.411  0.00  0.00    -0.349 N 
ATOM     19  C   UNL d   1       2.218  -4.877  -0.413  0.00  0.00     0.114 A 
ATOM     20  HN  UNL d   1       0.259  -5.311  -0.980  1.00  0.00     0.167 HD
ATOM     21  C   UNL d   1       3.067  -4.121   0.383  0.00  0.00     0.021 A 
ATOM     22  N   UNL d   1       2.576  -3.232   1.276  0.00  0.00    -0.359 N 
ATOM     23  C   UNL d   1       4.552  -4.243   0.265  0.00  0.00     0.069 C 
ATOM     24  C   UNL d   1       1.224  -3.059   1.289  0.00  0.00     0.050 A 
ATOM     25  HN  UNL d   1       3.188  -2.716   1.908  1.00  0.00     0.165 HD
ATOM     26  C   UNL d   1       0.694  -2.215   2.410  0.00  0.00     0.072 C 
ENDBRANCH   2  17
TORSDOF 4
