REMARK  2 active torsions:
REMARK  status: ('A' for Active; 'I' for Inactive)
REMARK       I    between atoms: C_3  and  N_1 
REMARK    1  A    between atoms: C_5  and  N_1 
REMARK    2  A    between atoms: C_6  and  C_3 
ROOT
ATOM      1  N   UNL d   1      -1.616   2.551  -0.808  0.00  0.00    -0.197 NA
ATOM      2  C   UNL d   1      -1.647   1.389  -0.745  0.00  0.00     0.068 C 
ATOM      3  C   UNL d   1      -1.624  -0.070  -0.696  0.00  0.00     0.226 C 
ENDROOT
BRANCH   3   4
ATOM      4  C   UNL d   1      -0.254  -0.688  -0.944  0.00  0.00     0.235 C 
ATOM      5  N   UNL d   1       0.794   0.172  -1.219  0.00  0.00    -0.326 N 
ATOM      6  H   UNL d   1       0.577   1.120  -1.514  0.00  0.00     0.169 HD
ATOM      7  O   UNL d   1      -0.148  -1.918  -0.904  0.00  0.00    -0.272 OA
BRANCH   5   8
ATOM      8  C   UNL d   1       2.172  -0.154  -1.237  0.00  0.00     0.040 A 
ATOM      9  C   UNL d   1       3.067   0.675  -1.948  0.00  0.00    -0.035 A 
ATOM     10  C   UNL d   1       2.598   1.796  -2.837  0.00  0.00     0.050 C 
ATOM     11  C   UNL d   1       4.450   0.437  -1.858  0.00  0.00     0.009 A 
ATOM     12  C   UNL d   1       4.945  -0.623  -1.101  0.00  0.00     0.001 A 
ATOM     13  C   UNL d   1       4.061  -1.461  -0.433  0.00  0.00     0.002 A 
ATOM     14  C   UNL d   1       2.683  -1.232  -0.502  0.00  0.00     0.030 A 
ENDBRANCH   5   8
ENDBRANCH   3   4
TORSDOF 2
