REMARK  5 active torsions:
REMARK  status: ('A' for Active; 'I' for Inactive)
REMARK    1  A    between atoms: S_6  and  C_1 
REMARK    2  A    between atoms: C_14  and  S_6 
REMARK    3  A    between atoms: C_8  and  C_13 
REMARK    4  A    between atoms: C_9  and  C_14 
REMARK       I    between atoms: N_12  and  C_9 
REMARK    5  A    between atoms: C_22  and  N_12 
ROOT
ATOM      1  C   UNL d   1       0.785   7.130  -0.783  0.00  0.00     0.231 C 
ATOM      2  N   UNL d   1       0.435   6.018  -0.029  0.00  0.00    -0.327 N 
ATOM      3  O   UNL d   1      -0.050   7.902  -1.278  0.00  0.00    -0.272 OA
ATOM      4  H   UNL d   1       1.175   5.559   0.483  0.00  0.00     0.169 HD
ENDROOT
BRANCH   1   5
ATOM      5  C   UNL d   1       2.241   7.518  -0.925  0.00  0.00     0.182 C 
BRANCH   5   6
ATOM      6  S   UNL d   1       3.397   6.121  -1.010  0.00  0.00    -0.114 SA
BRANCH   6   7
ATOM      7  C   UNL d   1       4.989   6.963  -1.157  0.00  0.00     0.084 A 
ATOM      8  C   UNL d   1       5.440   7.863  -0.181  0.00  0.00     0.174 A 
ATOM      9  C   UNL d   1       6.766   8.312  -0.171  0.00  0.00     0.159 A 
ATOM     10  F   UNL d   1       4.622   8.271   0.797  0.00  0.00    -0.201 F 
ATOM     11  F   UNL d   1       7.181   9.137   0.802  0.00  0.00    -0.203 F 
ATOM     12  C   UNL d   1       7.678   7.876  -1.119  0.00  0.00     0.091 A 
ATOM     13  C   UNL d   1       7.228   7.029  -2.124  0.00  0.00     0.159 A 
ATOM     14  C   UNL d   1       5.901   6.586  -2.153  0.00  0.00     0.174 A 
ATOM     15  F   UNL d   1       8.098   6.606  -3.050  0.00  0.00    -0.203 F 
ATOM     16  F   UNL d   1       5.521   5.768  -3.147  0.00  0.00    -0.201 F 
ENDBRANCH   6   7
ENDBRANCH   5   6
ENDBRANCH   1   5
BRANCH   2  17
ATOM     17  C   UNL d   1      -0.872   5.468   0.088  0.00  0.00     0.034 A 
ATOM     18  C   UNL d   1      -1.930   5.848  -0.746  0.00  0.00     0.030 A 
ATOM     19  C   UNL d   1      -3.188   5.238  -0.667  0.00  0.00     0.011 A 
ATOM     20  C   UNL d   1      -3.442   4.224   0.264  0.00  0.00    -0.035 A 
ATOM     21  C   UNL d   1      -2.392   3.857   1.124  0.00  0.00     0.011 A 
ATOM     22  C   UNL d   1      -1.126   4.470   1.037  0.00  0.00     0.030 A 
BRANCH  20  23
ATOM     23  C   UNL d   1      -4.818   3.586   0.306  0.00  0.00     0.141 C 
ATOM     24  S   UNL d   1      -5.633   3.808   1.921  0.00  0.00    -0.148 SA
ATOM     25  C   UNL d   1      -6.304   2.135   2.063  0.00  0.00     0.085 C 
ATOM     26  C   UNL d   1      -5.311   1.168   1.452  0.00  0.00     0.085 C 
ATOM     27  S   UNL d   1      -4.796   1.822  -0.155  0.00  0.00    -0.148 SA
ENDBRANCH  20  23
ENDBRANCH   2  17
TORSDOF 5
