REMARK  1 active torsions:
REMARK  status: ('A' for Active; 'I' for Inactive)
REMARK       I    between atoms: N_2  and  C_1 
REMARK       I    between atoms: N_3  and  C_1 
REMARK    1  A    between atoms: C_5  and  N_2 
ROOT
ATOM      1  C   UNL d   1       1.197  -1.827   1.678  0.00  0.00     0.036 A 
ATOM      2  C   UNL d   1       2.252  -3.436   3.712  0.00  0.00     0.034 A 
ATOM      3 CL   UNL d   1       2.921  -4.428   4.948  0.00  0.00    -0.084 Cl
ATOM      4  C   UNL d   1       1.963  -1.262   2.701  0.00  0.00     0.031 A 
ATOM      5  C   UNL d   1       0.937  -3.203   1.701  0.00  0.00     0.031 A 
ATOM      6  C   UNL d   1       2.490  -2.064   3.718  0.00  0.00     0.026 A 
ATOM      7  C   UNL d   1       1.475  -4.009   2.709  0.00  0.00     0.026 A 
ENDROOT
BRANCH   1   8
ATOM      8  N   UNL d   1       0.650  -1.074   0.621  0.00  0.00    -0.309 N 
ATOM      9  C   UNL d   1       1.121   0.139   0.159  0.00  0.00     0.322 C 
ATOM     10  N   UNL d   1       0.331   0.696  -0.844  0.00  0.00    -0.343 N 
ATOM     11  O   UNL d   1       2.168   0.664   0.528  0.00  0.00    -0.247 OA
ATOM     12  C   UNL d   1       0.889   1.805  -1.599  0.00  0.00     0.154 C 
ATOM     13  C   UNL d   1      -1.115   0.551  -0.903  0.00  0.00     0.154 C 
ATOM     14  H   UNL d   1       0.095  -1.578  -0.053  0.00  0.00     0.170 HD
ENDBRANCH   1   8
TORSDOF 1
