REMARK  2 active torsions:
REMARK  status: ('A' for Active; 'I' for Inactive)
REMARK    1  A    between atoms: C_8  and  N_1 
REMARK    2  A    between atoms: C_10  and  C_8 
ROOT
ATOM      1  N   UNL d   1       1.049  -0.711   0.180  0.00  0.00    -0.253 N 
ATOM      2  N   UNL d   1       0.473  -0.350   1.388  0.00  0.00    -0.300 N 
ATOM      3  HN  UNL d   1       0.946  -0.531   2.274  1.00  0.00     0.187 HD
ATOM      4  C   UNL d   1       0.444  -0.521  -1.055  0.00  0.00     0.262 A 
ATOM      5  C   UNL d   1      -0.871   0.154  -1.038  0.00  0.00     0.078 A 
ATOM      6  C   UNL d   1      -0.685   0.224   1.350  0.00  0.00     0.022 A 
ATOM      7  C   UNL d   1      -1.432   0.526   0.112  0.00  0.00     0.031 A 
ATOM      8  O   UNL d   1       0.918  -0.851  -2.140  0.00  0.00    -0.267 OA
ATOM      9  C   UNL d   1      -1.346   0.609   2.650  0.00  0.00     0.069 C 
ENDROOT
BRANCH   1  10
ATOM     10  C   UNL d   1       2.322  -1.426   0.253  0.00  0.00     0.191 C 
BRANCH  10  11
ATOM     11  C   UNL d   1       2.115  -2.921   0.344  0.00  0.00    -0.038 A 
ATOM     12  C   UNL d   1       2.104  -3.708  -0.814  0.00  0.00     0.009 A 
ATOM     13  C   UNL d   1       1.765  -5.061  -0.748  0.00  0.00     0.007 A 
ATOM     14  C   UNL d   1       1.430  -5.649   0.477  0.00  0.00    -0.062 A 
ATOM     15  C   UNL d   1       1.488  -4.876   1.642  0.00  0.00     0.007 A 
ATOM     16  C   UNL d   1       0.925  -7.060   0.514  0.00  0.00     0.048 C 
ATOM     17  C   UNL d   1       1.829  -3.523   1.576  0.00  0.00     0.009 A 
ENDBRANCH  10  11
ENDBRANCH   1  10
TORSDOF 2
