REMARK  5 active torsions:
REMARK  status: ('A' for Active; 'I' for Inactive)
REMARK    1  A    between atoms: C_2  and  C_1 
REMARK    2  A    between atoms: C_8  and  C_2 
REMARK    3  A    between atoms: C_9  and  C_2 
REMARK    4  A    between atoms: O_12  and  C_8 
REMARK    5  A    between atoms: O_13  and  C_9 
ROOT
ATOM      1  C   UNL d   1       0.078  -1.627   0.019  0.00  0.00     0.081 C 
ATOM      2  O   UNL d   1      -0.003   1.286   0.272  0.00  0.00    -0.310 OA
ATOM      3  C   UNL d   1       1.321  -0.757   0.046  0.00  0.00    -0.014 A 
ATOM      4  C   UNL d   1      -1.199  -0.807  -0.110  0.00  0.00    -0.014 A 
ATOM      5  C   UNL d   1      -1.159   0.579   0.064  0.00  0.00     0.083 A 
ATOM      6  C   UNL d   1       1.198   0.631   0.170  0.00  0.00     0.083 A 
ATOM      7  C   UNL d   1      -2.445  -1.415  -0.351  0.00  0.00     0.011 A 
ATOM      8  C   UNL d   1       2.612  -1.294  -0.103  0.00  0.00     0.011 A 
ATOM      9  C   UNL d   1       2.327   1.455   0.187  0.00  0.00     0.038 A 
ATOM     10  C   UNL d   1      -2.334   1.335   0.053  0.00  0.00     0.038 A 
ATOM     11  C   UNL d   1       3.741  -0.469  -0.081  0.00  0.00     0.001 A 
ATOM     12  C   UNL d   1      -3.619  -0.658  -0.359  0.00  0.00     0.001 A 
ATOM     13  C   UNL d   1       3.600   0.906   0.068  0.00  0.00     0.003 A 
ATOM     14  C   UNL d   1      -3.565   0.717  -0.146  0.00  0.00     0.003 A 
ENDROOT
BRANCH   1  15
ATOM     15  C   UNL d   1      -0.034  -2.674   1.170  0.00  0.00     0.194 C 
BRANCH  15  16
ATOM     16  C   UNL d   1       0.991  -3.776   1.080  0.00  0.00     0.155 C 
ATOM     17  O   UNL d   1       1.633  -4.174   2.050  0.00  0.00    -0.649 OA
BRANCH  16  18
ATOM     18  O   UNL d   1       1.072  -4.423  -0.101  0.00  0.00    -0.776 OA
ATOM     19  H   UNL d   1       0.451  -4.162  -0.807  0.00  0.00     0.167 HD
ENDBRANCH  16  18
ENDBRANCH  15  16
BRANCH  15  20
ATOM     20  C   UNL d   1      -0.115  -2.042   2.557  0.00  0.00     0.155 C 
ATOM     21  O   UNL d   1      -0.447  -0.886   2.777  0.00  0.00    -0.649 OA
BRANCH  20  22
ATOM     22  O   UNL d   1       0.061  -2.896   3.595  0.00  0.00    -0.776 OA
ATOM     23  H   UNL d   1       0.519  -3.738   3.367  0.00  0.00     0.167 HD
ENDBRANCH  20  22
ENDBRANCH  15  20
ENDBRANCH   1  15
TORSDOF 5
