REMARK  2 active torsions:
REMARK  status: ('A' for Active; 'I' for Inactive)
REMARK    1  A    between atoms: C_9  and  C_2 
REMARK    2  A    between atoms: C_12  and  N_6 
ROOT
ATOM      1  C   UNL d   1       0.236   0.761  -0.014  0.00  0.00     0.056 A 
ATOM      2  C   UNL d   1       1.612   1.099   0.069  0.00  0.00     0.147 C 
ATOM      3  C   UNL d   1       0.203  -0.614  -0.081  0.00  0.00     0.186 A 
ATOM      4  N   UNL d   1       2.354  -0.024   0.208  0.00  0.00    -0.286 N 
ATOM      5  HN  UNL d   1       3.353  -0.079   0.409  1.00  0.00     0.187 HD
ATOM      6  N   UNL d   1       1.500  -1.063   0.027  0.00  0.00    -0.233 N 
ATOM      7  C   UNL d   1      -1.034   1.410  -0.040  0.00  0.00    -0.039 A 
ATOM      8  O   UNL d   1      -0.851  -1.413  -0.164  0.00  0.00    -0.255 OA
ATOM      9  C   UNL d   1      -2.074  -0.823  -0.196  0.00  0.00     0.290 A 
ATOM     10  C   UNL d   1      -2.144   0.652  -0.118  0.00  0.00     0.090 A 
ATOM     11  O   UNL d   1      -3.113  -1.482  -0.282  0.00  0.00    -0.260 OA
ATOM     12  C   UNL d   1      -1.143   2.893   0.103  0.00  0.00     0.049 C 
ENDROOT
BRANCH   6  13
ATOM     13  C   UNL d   1       1.989  -2.396  -0.023  0.00  0.00     0.059 A 
ATOM     14  C   UNL d   1       1.280  -3.402  -0.692  0.00  0.00     0.031 A 
ATOM     15  C   UNL d   1       1.786  -4.702  -0.734  0.00  0.00     0.002 A 
ATOM     16  C   UNL d   1       2.984  -5.010  -0.091  0.00  0.00     0.000 A 
ATOM     17  C   UNL d   1       3.692  -4.013   0.578  0.00  0.00     0.002 A 
ATOM     18  C   UNL d   1       3.209  -2.703   0.598  0.00  0.00     0.031 A 
ENDBRANCH   6  13
BRANCH   2  19
ATOM     19  C   UNL d   1       2.308   2.436   0.048  0.00  0.00     0.434 C 
ATOM     20  F   UNL d   1       1.548   3.429  -0.485  0.00  0.00    -0.165 F 
ATOM     21  F   UNL d   1       2.668   2.845   1.293  0.00  0.00    -0.165 F 
ATOM     22  F   UNL d   1       3.447   2.410  -0.701  0.00  0.00    -0.165 F 
ENDBRANCH   2  19
TORSDOF 2
