REMARK  8 active torsions:
REMARK  status: ('A' for Active; 'I' for Inactive)
REMARK    1  A    between atoms: C_3  and  C_1 
REMARK    2  A    between atoms: C_4  and  CA_2 
REMARK       I    between atoms: N_14  and  C_3 
REMARK    3  A    between atoms: OXT_16  and  C_4 
REMARK    4  A    between atoms: O_19  and  C_9 
REMARK    5  A    between atoms: O_20  and  C_10 
REMARK    6  A    between atoms: C_21  and  N_14 
REMARK    7  A    between atoms: C_17  and  C_24 
REMARK    8  A    between atoms: C_24  and  C_21 
ROOT
ATOM      1  C   UNL d   1       0.322  -3.045  -1.176  0.00  0.00     0.270 C 
ATOM      2  O   UNL d   1       0.440  -3.547  -2.285  0.00  0.00    -0.266 OA
ATOM      3  N   UNL d   1       0.670  -3.685  -0.001  0.00  0.00    -0.355 N 
ATOM      4  H   UNL d   1       0.329  -3.273   0.862  0.00  0.00     0.162 HD
ENDROOT
BRANCH   1   5
ATOM      5  C   UNL d   1      -0.328  -1.718  -0.969  0.00  0.00     0.134 A 
ATOM      6  CA  UNL d   1      -0.260  -0.649  -1.848  0.00  0.00     0.139 A 
ATOM      7  N   UNL d   1      -0.969   0.521  -1.628  0.00  0.00    -0.357 N 
ATOM      8  C   UNL d   1      -1.715   0.557  -0.499  0.00  0.00     0.105 A 
ATOM      9  HN  UNL d   1      -0.930   1.308  -2.276  1.00  0.00     0.165 HD
ATOM     10  C   UNL d   1      -1.758  -0.498   0.392  0.00  0.00     0.105 A 
ATOM     11  N   UNL d   1      -1.066  -1.642   0.193  0.00  0.00    -0.358 N 
ATOM     12  HN  UNL d   1      -1.089  -2.408   0.866  1.00  0.00     0.165 HD
BRANCH   6  13
ATOM     13  C   UNL d   1       0.649  -0.556  -3.029  0.00  0.00     0.196 C 
ATOM     14  O   UNL d   1       1.517  -1.333  -3.366  0.00  0.00    -0.645 OA
BRANCH  13  15
ATOM     15  OXT UNL d   1       0.435   0.628  -3.669  0.00  0.00    -0.772 OA
ATOM     16  HXT UNL d   1      -0.244   1.150  -3.179  0.00  0.00     0.167 HD
ENDBRANCH  13  15
ENDBRANCH   6  13
ENDBRANCH   1   5
BRANCH   3  17
ATOM     17  C   UNL d   1       1.256  -5.013   0.025  0.00  0.00     0.127 C 
BRANCH  17  18
ATOM     18  C   UNL d   1       0.194  -6.118   0.027  0.00  0.00     0.058 C 
BRANCH  18  19
ATOM     19  C   UNL d   1       0.783  -7.509   0.088  0.00  0.00    -0.054 A 
ATOM     20  C   UNL d   1       1.548  -7.923   1.193  0.00  0.00     0.046 A 
ATOM     21  C   UNL d   1       2.112  -9.209   1.259  0.00  0.00     0.102 A 
ATOM     22  C   UNL d   1       1.866 -10.110   0.209  0.00  0.00     0.101 A 
ATOM     23  C   UNL d   1       1.108  -9.697  -0.893  0.00  0.00     0.040 A 
ATOM     24  C   UNL d   1       0.568  -8.412  -0.955  0.00  0.00     0.010 A 
BRANCH  21  25
ATOM     25  O   UNL d   1       2.919  -9.627   2.284  0.00  0.00    -0.353 OA
ATOM     26  C   UNL d   1       3.226  -8.703   3.318  0.00  0.00     0.210 C 
ENDBRANCH  21  25
BRANCH  22  27
ATOM     27  O   UNL d   1       2.339 -11.393   0.090  0.00  0.00    -0.353 OA
ATOM     28  C   UNL d   1       2.488 -12.131   1.296  0.00  0.00     0.210 C 
ENDBRANCH  22  27
ENDBRANCH  18  19
ENDBRANCH  17  18
ENDBRANCH   3  17
TORSDOF 8
