REMARK  2 active torsions:
REMARK  status: ('A' for Active; 'I' for Inactive)
REMARK    1  A    between atoms: N_5  and  C_1 
REMARK       I    between atoms: C_8  and  N_5 
REMARK       I    between atoms: C_6  and  N_7 
REMARK    2  A    between atoms: C_10  and  C_6 
REMARK       I    between atoms: N_7  and  C_8 
ROOT
ATOM      1  N   UNL d   1      -0.223  -2.671  -0.709  0.00  0.00    -0.292 N 
ATOM      2  C   UNL d   1       2.603  -2.300  -0.387  0.00  0.00     0.262 C 
ATOM      3  N   UNL d   1       1.858  -3.383   0.044  0.00  0.00    -0.275 N 
ATOM      4  C   UNL d   1       0.509  -3.642  -0.088  0.00  0.00     0.328 C 
ATOM      5  O   UNL d   1       2.106  -1.347  -0.986  0.00  0.00    -0.267 OA
ATOM      6  O   UNL d   1       0.105  -4.715   0.347  0.00  0.00    -0.247 OA
ATOM      7  H   UNL d   1       0.275  -1.860  -1.064  0.00  0.00     0.172 HD
ATOM      8  H   UNL d   1       2.328  -4.151   0.508  0.00  0.00     0.173 HD
ENDROOT
BRANCH   1   9
ATOM      9  C   UNL d   1      -1.575  -2.773  -0.983  0.00  0.00     0.149 A 
ATOM     10  C   UNL d   1      -2.325  -1.853  -1.753  0.00  0.00     0.088 A 
ATOM     11  C   UNL d   1      -3.586  -2.382  -1.840  0.00  0.00     0.093 A 
ATOM     12 BR   UNL d   1      -1.680  -0.285  -2.542  0.00  0.00    -0.044 Br
ATOM     13  C   UNL d   1      -4.833  -2.017  -2.531  0.00  0.00     0.080 C 
ATOM     14  O   UNL d   1      -3.618  -3.527  -1.108  0.00  0.00    -0.240 OA
ATOM     15  N   UNL d   1      -2.370  -3.770  -0.575  0.00  0.00    -0.243 N 
ATOM     16  HN  UNL d   1      -2.104  -4.558   0.016  1.00  0.00     0.196 HD
ENDBRANCH   1   9
BRANCH   2  17
ATOM     17  C   UNL d   1       4.066  -2.332  -0.095  0.00  0.00     0.070 A 
ATOM     18  C   UNL d   1       4.665  -3.357   0.645  0.00  0.00     0.132 A 
ATOM     19  F   UNL d   1       3.935  -4.374   1.128  0.00  0.00    -0.205 F 
ATOM     20  C   UNL d   1       6.033  -3.360   0.904  0.00  0.00     0.043 A 
ATOM     21  C   UNL d   1       6.830  -2.325   0.420  0.00  0.00     0.003 A 
ATOM     22  C   UNL d   1       6.253  -1.294  -0.320  0.00  0.00     0.001 A 
ATOM     23  C   UNL d   1       4.877  -1.294  -0.577  0.00  0.00     0.020 A 
ENDBRANCH   2  17
TORSDOF 2
