REMARK  3 active torsions:
REMARK  status: ('A' for Active; 'I' for Inactive)
REMARK       I    between atoms: C_3  and  N_5 
REMARK       I    between atoms: N_9  and  C_3 
REMARK    1  A    between atoms: N_5  and  C_4 
REMARK    2  A    between atoms: C_8  and  C_14 
REMARK    3  A    between atoms: C_22  and  N_9 
ROOT
ATOM      1  C   UNL d   1       3.539  -1.930   0.198  0.00  0.00     0.325 C 
ATOM      2  N   UNL d   1       4.769  -2.509  -0.030  0.00  0.00    -0.307 N 
ATOM      3  N   UNL d   1       3.493  -0.560   0.181  0.00  0.00    -0.309 N 
ATOM      4  O   UNL d   1       2.604  -2.673   0.489  0.00  0.00    -0.247 OA
ATOM      5  H   UNL d   1       4.796  -3.428   0.406  0.00  0.00     0.170 HD
ATOM      6  H   UNL d   1       4.310  -0.078  -0.143  0.00  0.00     0.170 HD
ENDROOT
BRANCH   3   7
ATOM      7  C   UNL d   1       2.461   0.287   0.619  0.00  0.00     0.036 A 
ATOM      8  C   UNL d   1       1.330  -0.148   1.305  0.00  0.00     0.030 A 
ATOM      9  C   UNL d   1       0.385   0.777   1.768  0.00  0.00     0.016 A 
ATOM     10  C   UNL d   1       0.544   2.153   1.544  0.00  0.00    -0.001 A 
ATOM     11  C   UNL d   1       1.677   2.578   0.840  0.00  0.00     0.016 A 
ATOM     12  C   UNL d   1       2.628   1.657   0.391  0.00  0.00     0.030 A 
BRANCH  10  13
ATOM     13  C   UNL d   1      -0.434   3.105   2.048  0.00  0.00     0.102 A 
ATOM     14  O   UNL d   1      -0.205   4.436   1.800  0.00  0.00    -0.304 OA
ATOM     15  C   UNL d   1      -1.254   5.070   2.391  0.00  0.00     0.233 A 
ATOM     16  N   UNL d   1      -2.122   4.284   2.984  0.00  0.00    -0.354 N 
ATOM     17  C   UNL d   1      -1.607   3.029   2.771  0.00  0.00     0.127 A 
ATOM     18  HN  UNL d   1      -2.973   4.543   3.482  1.00  0.00     0.166 HD
ENDBRANCH  10  13
ENDBRANCH   3   7
BRANCH   2  19
ATOM     19  C   UNL d   1       6.012  -1.878  -0.253  0.00  0.00     0.059 A 
ATOM     20  C   UNL d   1       7.134  -2.251   0.514  0.00  0.00     0.084 A 
ATOM     21  C   UNL d   1       8.330  -1.519   0.411  0.00  0.00     0.079 A 
ATOM     22 CL   UNL d   1       6.978  -3.574   1.633  0.00  0.00    -0.080 Cl
ATOM     23  C   UNL d   1       8.407  -0.458  -0.505  0.00  0.00     0.057 A 
ATOM     24 CL   UNL d   1       9.687  -1.895   1.428  0.00  0.00    -0.081 Cl
ATOM     25 CL   UNL d   1       9.805   0.549  -0.652  0.00  0.00    -0.082 Cl
ATOM     26  C   UNL d   1       7.328  -0.167  -1.343  0.00  0.00     0.028 A 
ATOM     27  C   UNL d   1       6.141  -0.887  -1.230  0.00  0.00     0.033 A 
ENDBRANCH   2  19
TORSDOF 3
