REMARK  3 active torsions:
REMARK  status: ('A' for Active; 'I' for Inactive)
REMARK    1  A    between atoms: C_2  and  C_1 
REMARK       I    between atoms: N_5  and  C_2 
REMARK    2  A    between atoms: C_3  and  N_4 
REMARK    3  A    between atoms: N_4  and  N_5 
ROOT
ATOM      1  C   UNL d   1       0.176   2.078   0.320  0.00  0.00     0.271 C 
ATOM      2  N   UNL d   1       1.349   2.819   0.277  0.00  0.00    -0.282 N 
ATOM      3  O   UNL d   1       0.134   0.961  -0.191  0.00  0.00    -0.266 OA
ATOM      4  H   UNL d   1       1.452   3.758   0.653  0.00  0.00     0.184 HD
ENDROOT
BRANCH   2   5
ATOM      5  N   UNL d   1       2.407   2.293  -0.477  0.00  0.00    -0.201 NA
ATOM      6  H   UNL d   1       2.240   1.286  -0.621  0.00  0.00     0.153 HD
BRANCH   5   7
ATOM      7  C   UNL d   1       3.711   2.491   0.055  0.00  0.00     0.051 A 
ATOM      8  C   UNL d   1       4.735   2.588  -0.910  0.00  0.00     0.050 A 
ATOM      9  C   UNL d   1       6.073   2.718  -0.539  0.00  0.00     0.035 A 
ATOM     10 CL   UNL d   1       7.288   2.854  -1.749  0.00  0.00    -0.084 Cl
ATOM     11  C   UNL d   1       6.431   2.728   0.804  0.00  0.00     0.026 A 
ATOM     12  C   UNL d   1       5.441   2.589   1.777  0.00  0.00     0.027 A 
ATOM     13  C   UNL d   1       4.091   2.454   1.411  0.00  0.00     0.057 A 
ATOM     14 CL   UNL d   1       2.975   2.205   2.711  0.00  0.00    -0.082 Cl
ENDBRANCH   5   7
ENDBRANCH   2   5
BRANCH   1  15
ATOM     15  C   UNL d   1      -1.002   2.686   1.017  0.00  0.00     0.093 A 
ATOM     16  C   UNL d   1      -0.850   3.869   1.757  0.00  0.00     0.133 A 
ATOM     17  F   UNL d   1       0.334   4.500   1.822  0.00  0.00    -0.205 F 
ATOM     18  C   UNL d   1      -1.911   4.452   2.453  0.00  0.00     0.043 A 
ATOM     19  C   UNL d   1      -3.166   3.861   2.422  0.00  0.00     0.005 A 
ATOM     20  C   UNL d   1      -3.352   2.695   1.684  0.00  0.00     0.025 A 
ATOM     21  C   UNL d   1      -2.284   2.107   0.982  0.00  0.00     0.052 A 
ATOM     22 CL   UNL d   1      -2.697   0.685   0.086  0.00  0.00    -0.083 Cl
ENDBRANCH   1  15
TORSDOF 3
