REMARK  5 active torsions:
REMARK  status: ('A' for Active; 'I' for Inactive)
REMARK    1  A    between atoms: C_15  and  N_3 
REMARK    2  A    between atoms: C_9  and  C_4 
REMARK    3  A    between atoms: N_8  and  C_13 
REMARK       I    between atoms: N_11  and  C_9 
REMARK       I    between atoms: C_10  and  N_12 
REMARK    4  A    between atoms: C_17  and  C_10 
REMARK    5  A    between atoms: N_12  and  N_11 
ROOT
ATOM      1  C   UNL d   1      -2.521  -0.182  -0.069  0.00  0.00     0.290 C 
ATOM      2  N   UNL d   1      -3.428   0.857   0.022  0.00  0.00    -0.262 N 
ATOM      3  O   UNL d   1      -2.892  -1.349  -0.195  0.00  0.00    -0.264 OA
ATOM      4  H   UNL d   1      -3.130   1.821   0.166  0.00  0.00     0.190 HD
ENDROOT
BRANCH   1   5
ATOM      5  C   UNL d   1      -1.110   0.216  -0.033  0.00  0.00     0.143 A 
ATOM      6  N   UNL d   1      -0.697   1.501   0.032  0.00  0.00    -0.272 N 
ATOM      7  N   UNL d   1       0.663   1.378   0.007  0.00  0.00    -0.196 N 
ATOM      8  HN  UNL d   1      -1.260   2.350   0.086  1.00  0.00     0.189 HD
ATOM      9  N   UNL d   1       1.139   0.114  -0.091  0.00  0.00    -0.281 N 
ATOM     10  C   UNL d   1       0.029  -0.628  -0.072  0.00  0.00     0.057 A 
ATOM     11  HN  UNL d   1       2.108  -0.196  -0.162  1.00  0.00     0.189 HD
ATOM     12  C   UNL d   1       0.147  -2.104  -0.071  0.00  0.00     0.072 C 
BRANCH   7  13
ATOM     13  C   UNL d   1       1.553   2.479   0.128  0.00  0.00     0.074 A 
ATOM     14  C   UNL d   1       1.072   3.769   0.383  0.00  0.00     0.033 A 
ATOM     15  C   UNL d   1       1.976   4.821   0.566  0.00  0.00     0.002 A 
ATOM     16  C   UNL d   1       3.352   4.596   0.479  0.00  0.00     0.000 A 
ATOM     17  C   UNL d   1       3.833   3.319   0.201  0.00  0.00     0.002 A 
ATOM     18  C   UNL d   1       2.939   2.262   0.027  0.00  0.00     0.033 A 
ENDBRANCH   7  13
ENDBRANCH   1   5
BRANCH   2  19
ATOM     19  N   UNL d   1      -4.801   0.581  -0.102  0.00  0.00    -0.263 N 
ATOM     20  C   UNL d   1      -5.706   1.464   0.453  0.00  0.00     0.270 C 
ATOM     21  O   UNL d   1      -5.376   2.509   1.007  0.00  0.00    -0.266 OA
ATOM     22  H   UNL d   1      -5.044  -0.383  -0.323  0.00  0.00     0.190 HD
BRANCH  20  23
ATOM     23  C   UNL d   1      -7.143   1.084   0.362  0.00  0.00     0.033 A 
ATOM     24  C   UNL d   1      -8.011   1.488   1.388  0.00  0.00     0.019 A 
ATOM     25  C   UNL d   1      -9.379   1.202   1.316  0.00  0.00     0.037 A 
ATOM     26  C   UNL d   1      -9.886   0.521   0.201  0.00  0.00     0.102 A 
ATOM     27  C   UNL d   1      -9.027   0.120  -0.834  0.00  0.00     0.037 A 
ATOM     28  C   UNL d   1      -7.657   0.400  -0.751  0.00  0.00     0.019 A 
BRANCH  26  29
ATOM     29  N   UNL d   1     -11.326   0.243   0.105  0.00  0.00    -0.116 N 
ATOM     30  O   UNL d   1     -12.046   0.605   1.046  0.00  0.00    -0.532 OA
ATOM     31  O   UNL d   1     -11.733  -0.336  -0.911  0.00  0.00    -0.532 OA
ENDBRANCH  26  29
ENDBRANCH  20  23
ENDBRANCH   2  19
TORSDOF 5
