REMARK  3 active torsions:
REMARK  status: ('A' for Active; 'I' for Inactive)
REMARK    1  A    between atoms: C_13  and  C_7 
REMARK    2  A    between atoms: C_9  and  N_8 
REMARK    3  A    between atoms: O_12  and  N_10 
ROOT
ATOM      1  S   UNL d   1       1.236  -0.032  -0.020  0.00  0.00    -0.038 SA
ATOM      2  C   UNL d   1       0.048   1.223  -0.046  0.00  0.00     0.166 A 
ATOM      3  N   UNL d   1      -1.184   0.751  -0.057  0.00  0.00    -0.279 N 
ATOM      4  HN  UNL d   1      -2.011   1.347  -0.075  1.00  0.00     0.189 HD
ATOM      5  N   UNL d   1      -1.242  -0.627  -0.043  0.00  0.00    -0.296 N 
ATOM      6  HN  UNL d   1      -2.112  -1.161  -0.049  1.00  0.00     0.187 HD
ATOM      7  C   UNL d   1      -0.046  -1.171  -0.020  0.00  0.00     0.069 A 
ATOM      8  N   UNL d   1       0.327   2.545  -0.051  0.00  0.00    -0.330 N 
ATOM      9  H   UNL d   1      -0.477   3.161  -0.060  0.00  0.00     0.168 HD
ENDROOT
BRANCH   8  10
ATOM     10  C   UNL d   1       1.520   3.195  -0.046  0.00  0.00     0.206 C 
ATOM     11  N   UNL d   1       1.644   4.482  -0.052  0.00  0.00    -0.265 N 
ATOM     12  HN  UNL d   1       0.876   5.153  -0.061  1.00  0.00     0.194 HD
BRANCH  11  13
ATOM     13  O   UNL d   1       3.007   4.804  -0.046  0.00  0.00    -0.289 OA
ATOM     14  H   UNL d   1       2.992   5.780  -0.054  0.00  0.00     0.244 HD
ENDBRANCH  11  13
ENDBRANCH   8  10
BRANCH   7  15
ATOM     15  C   UNL d   1       0.223  -2.638   0.014  0.00  0.00     0.062 C 
ATOM     16  C   UNL d   1       0.333  -3.224  -1.385  0.00  0.00     0.012 C 
ENDBRANCH   7  15
TORSDOF 3
