REMARK  7 active torsions:
REMARK  status: ('A' for Active; 'I' for Inactive)
REMARK    1  A    between atoms: C_4  and  C_1 
REMARK       I    between atoms: N_9  and  C_4 
REMARK    2  A    between atoms: C_22  and  C_6 
REMARK       I    between atoms: C_8  and  N_10 
REMARK    3  A    between atoms: C_14  and  C_8 
REMARK    4  A    between atoms: N_10  and  N_9 
REMARK    5  A    between atoms: C_11  and  C_15 
REMARK    6  A    between atoms: O_23  and  C_22 
REMARK    7  A    between atoms: C_24  and  O_23 
ROOT
ATOM      1  C   UNL d   1       1.247   0.829   0.125  0.00  0.00     0.109 A 
ATOM      2  N   UNL d   1       1.451  -0.556   0.169  0.00  0.00    -0.347 N 
ATOM      3  HN  UNL d   1       2.361  -1.011   0.246  1.00  0.00     0.166 HD
ATOM      4  C   UNL d   1      -0.081   1.207   0.046  0.00  0.00     0.086 A 
ATOM      5  C   UNL d   1       0.292  -1.189   0.096  0.00  0.00     0.075 A 
ATOM      6  S   UNL d   1      -1.097  -0.167   0.042  0.00  0.00    -0.084 SA
ENDROOT
BRANCH   1   7
ATOM      7  C   UNL d   1       2.351   1.792   0.122  0.00  0.00     0.287 C 
ATOM      8  N   UNL d   1       3.562   1.266   0.520  0.00  0.00    -0.262 N 
ATOM      9  H   UNL d   1       3.623   0.332   0.926  0.00  0.00     0.190 HD
ATOM     10  O   UNL d   1       2.219   2.970  -0.212  0.00  0.00    -0.264 OA
BRANCH   8  11
ATOM     11  N   UNL d   1       4.688   2.101   0.581  0.00  0.00    -0.263 N 
ATOM     12  C   UNL d   1       5.583   1.937   1.620  0.00  0.00     0.270 C 
ATOM     13  O   UNL d   1       5.459   1.092   2.498  0.00  0.00    -0.266 OA
ATOM     14  H   UNL d   1       4.617   2.980   0.070  0.00  0.00     0.190 HD
BRANCH  12  15
ATOM     15  C   UNL d   1       6.748   2.865   1.621  0.00  0.00     0.033 A 
ATOM     16  C   UNL d   1       7.334   3.225   2.844  0.00  0.00     0.019 A 
ATOM     17  C   UNL d   1       8.474   4.031   2.866  0.00  0.00     0.025 A 
ATOM     18  C   UNL d   1       9.042   4.465   1.670  0.00  0.00     0.034 A 
ATOM     19  C   UNL d   1       8.472   4.109   0.446  0.00  0.00     0.025 A 
ATOM     20 CL   UNL d   1      10.468   5.425   1.694  0.00  0.00    -0.084 Cl
ATOM     21  C   UNL d   1       7.325   3.308   0.422  0.00  0.00     0.019 A 
ENDBRANCH  12  15
ENDBRANCH   8  11
ENDBRANCH   1   7
BRANCH   5  22
ATOM     22  C   UNL d   1       0.108  -2.678  -0.017  0.00  0.00     0.240 C 
BRANCH  22  23
ATOM     23  O   UNL d   1      -0.026  -3.204   1.308  0.00  0.00    -0.345 OA
BRANCH  23  24
ATOM     24  C   UNL d   1      -0.096  -4.572   1.373  0.00  0.00     0.069 A 
ATOM     25  C   UNL d   1       0.488  -5.158   2.495  0.00  0.00     0.037 A 
ATOM     26  C   UNL d   1       0.490  -6.548   2.651  0.00  0.00     0.012 A 
ATOM     27  C   UNL d   1      -0.108  -7.381   1.691  0.00  0.00    -0.035 A 
ATOM     28  C   UNL d   1      -0.743  -6.773   0.595  0.00  0.00     0.012 A 
ATOM     29  C   UNL d   1      -0.738  -5.382   0.437  0.00  0.00     0.037 A 
BRANCH  27  30
ATOM     30  C   UNL d   1      -0.031  -8.888   1.840  0.00  0.00     0.141 C 
ATOM     31  S   UNL d   1       0.856  -9.663   0.446  0.00  0.00    -0.148 SA
ATOM     32  C   UNL d   1      -0.107 -11.190   0.426  0.00  0.00     0.085 C 
ATOM     33  C   UNL d   1      -1.559 -10.819   0.652  0.00  0.00     0.085 C 
ATOM     34  S   UNL d   1      -1.665  -9.670   2.051  0.00  0.00    -0.148 SA
ENDBRANCH  27  30
ENDBRANCH  23  24
ENDBRANCH  22  23
ENDBRANCH   5  22
TORSDOF 7
