REMARK  5 active torsions:
REMARK  status: ('A' for Active; 'I' for Inactive)
REMARK    1  A    between atoms: C_8  and  C_1 
REMARK    2  A    between atoms: S_5  and  C_2 
REMARK    3  A    between atoms: N_12  and  C_2 
REMARK    4  A    between atoms: C_3  and  C_6 
REMARK    5  A    between atoms: C_6  and  S_5 
ROOT
ATOM      1  C   UNL d   1       0.605   0.466  -0.348  0.00  0.00     0.117 C 
ATOM      2  C   UNL d   1       1.230  -0.455   0.433  0.00  0.00     0.068 C 
ATOM      3  C   UNL d   1      -0.548   0.170  -1.129  0.00  0.00     0.105 C 
ATOM      4  N   UNL d   1      -1.480  -0.028  -1.794  0.00  0.00    -0.191 NA
ENDROOT
BRANCH   1   5
ATOM      5  C   UNL d   1       1.131   1.873  -0.400  0.00  0.00     0.168 C 
ATOM      6  O   UNL d   1       1.832   2.321   0.513  0.00  0.00    -0.292 OA
ATOM      7  C   UNL d   1       0.794   2.762  -1.576  0.00  0.00     0.097 C 
ENDBRANCH   1   5
BRANCH   2   8
ATOM      8  S   UNL d   1       0.521  -2.069   0.589  0.00  0.00    -0.112 SA
BRANCH   8   9
ATOM      9  C   UNL d   1       1.900  -3.096  -0.020  0.00  0.00     0.122 C 
BRANCH   9  10
ATOM     10  C   UNL d   1       1.478  -4.543  -0.154  0.00  0.00    -0.005 A 
ATOM     11  C   UNL d   1       0.906  -5.030  -1.346  0.00  0.00     0.042 A 
ATOM     12 CL   UNL d   1       0.669  -4.020  -2.732  0.00  0.00    -0.084 Cl
ATOM     13  C   UNL d   1       0.494  -6.363  -1.462  0.00  0.00     0.024 A 
ATOM     14  C   UNL d   1       0.637  -7.239  -0.390  0.00  0.00     0.003 A 
ATOM     15  C   UNL d   1       1.187  -6.778   0.802  0.00  0.00     0.024 A 
ATOM     16  C   UNL d   1       1.599  -5.444   0.922  0.00  0.00     0.042 A 
ATOM     17 CL   UNL d   1       2.251  -4.969   2.454  0.00  0.00    -0.084 Cl
ENDBRANCH   9  10
ENDBRANCH   8   9
ENDBRANCH   2   8
BRANCH   2  18
ATOM     18  N   UNL d   1       2.376  -0.202   1.176  0.00  0.00    -0.296 NA
ATOM     19  H   UNL d   1       2.523   0.804   1.334  0.00  0.00     0.124 HD
ATOM     20  H   UNL d   1       2.364  -0.713   2.057  0.00  0.00     0.124 HD
ENDBRANCH   2  18
TORSDOF 5
