REMARK  2 active torsions:
REMARK  status: ('A' for Active; 'I' for Inactive)
REMARK    1  A    between atoms: N_3  and  C_2 
REMARK    2  A    between atoms: C_6  and  C_8 
REMARK       I    between atoms: N_14  and  C_6 
ROOT
ATOM      1  C   UNL d   1      -0.279   0.395   0.293  0.00  0.00     0.109 A 
ATOM      2  C   UNL d   1       0.426   1.587   0.019  0.00  0.00     0.054 A 
ATOM      3  C   UNL d   1      -1.659   0.369   0.673  0.00  0.00     0.105 C 
ATOM      4  N   UNL d   1      -2.777   0.351   0.997  0.00  0.00    -0.191 NA
ATOM      5  C   UNL d   1       0.363  -0.844   0.167  0.00  0.00     0.139 A 
ATOM      6  F   UNL d   1      -0.292  -1.977   0.462  0.00  0.00    -0.204 F 
ATOM      7  C   UNL d   1       1.753   1.455  -0.447  0.00  0.00     0.031 A 
ATOM      8  C   UNL d   1       2.380   0.212  -0.576  0.00  0.00     0.005 A 
ATOM      9  C   UNL d   1       1.685  -0.943  -0.250  0.00  0.00     0.044 A 
ENDROOT
BRANCH   2  10
ATOM     10  N   UNL d   1      -0.032   2.889   0.241  0.00  0.00    -0.380 N 
ATOM     11  C   UNL d   1      -0.912   3.171   1.376  0.00  0.00     0.124 C 
ATOM     12  C   UNL d   1      -0.653   4.604   1.833  0.00  0.00     0.034 C 
ATOM     13  C   UNL d   1      -0.904   5.599   0.693  0.00  0.00     0.081 C 
ATOM     14  C   UNL d   1      -0.077   5.206  -0.547  0.00  0.00     0.034 C 
ATOM     15  C   UNL d   1      -0.263   3.734  -0.941  0.00  0.00     0.124 C 
BRANCH  13  16
ATOM     16  C   UNL d   1      -2.385   5.726   0.351  0.00  0.00     0.219 C 
ATOM     17  O   UNL d   1      -2.839   5.619  -0.783  0.00  0.00    -0.273 OA
ATOM     18  N   UNL d   1      -3.213   6.025   1.392  0.00  0.00    -0.370 N 
ATOM     19  H   UNL d   1      -2.908   6.138   2.348  0.00  0.00     0.159 HD
ATOM     20  H   UNL d   1      -4.201   6.114   1.190  0.00  0.00     0.159 HD
ENDBRANCH  13  16
ENDBRANCH   2  10
TORSDOF 2
