REMARK  3 active torsions:
REMARK  status: ('A' for Active; 'I' for Inactive)
REMARK       I    between atoms: N_2  and  C_1 
REMARK    1  A    between atoms: C_5  and  C_1 
REMARK    2  A    between atoms: C_10  and  N_2 
REMARK    3  A    between atoms: C_4  and  C_10 
ROOT
ATOM      1  C   UNL d   1       0.953   0.095   0.125  0.00  0.00     0.251 C 
ATOM      2  N   UNL d   1       0.258   1.247   0.416  0.00  0.00    -0.352 N 
ATOM      3  O   UNL d   1       2.162  -0.019   0.292  0.00  0.00    -0.268 OA
ATOM      4  H   UNL d   1      -0.752   1.248   0.431  0.00  0.00     0.163 HD
ENDROOT
BRANCH   1   5
ATOM      5  C   UNL d   1       0.154  -1.057  -0.375  0.00  0.00     0.032 A 
ATOM      6  C   UNL d   1      -1.035  -0.879  -1.096  0.00  0.00     0.018 A 
ATOM      7  C   UNL d   1      -1.754  -1.991  -1.545  0.00  0.00     0.025 A 
ATOM      8  C   UNL d   1      -1.282  -3.278  -1.283  0.00  0.00     0.034 A 
ATOM      9  C   UNL d   1      -0.091  -3.464  -0.584  0.00  0.00     0.025 A 
ATOM     10 CL   UNL d   1      -2.173  -4.642  -1.834  0.00  0.00    -0.084 Cl
ATOM     11  C   UNL d   1       0.630  -2.354  -0.135  0.00  0.00     0.018 A 
ENDBRANCH   1   5
BRANCH   2  12
ATOM     12  C   UNL d   1       0.951   2.399   0.942  0.00  0.00     0.169 C 
BRANCH  12  13
ATOM     13  C   UNL d   1      -0.035   3.498   1.172  0.00  0.00     0.000 A 
ATOM     14  S   UNL d   1      -0.410   4.603  -0.085  0.00  0.00    -0.105 SA
ATOM     15  C   UNL d   1      -1.488   5.476   0.915  0.00  0.00     0.050 A 
ATOM     16  C   UNL d   1      -1.575   4.935   2.177  0.00  0.00     0.008 A 
ATOM     17  C   UNL d   1      -0.739   3.791   2.326  0.00  0.00     0.017 A 
ENDBRANCH  12  13
ENDBRANCH   2  12
TORSDOF 3
