REMARK  4 active torsions:
REMARK  status: ('A' for Active; 'I' for Inactive)
REMARK    1  A    between atoms: C_2  and  S_1 
REMARK    2  A    between atoms: N_6  and  S_1 
REMARK    3  A    between atoms: S_3  and  C_4 
REMARK    4  A    between atoms: C_13  and  S_3 
ROOT
ATOM      1  C   UNL d   1       0.460   0.325  -1.863  0.00  0.00     0.116 A 
ATOM      2  C   UNL d   1      -0.106   1.490  -3.972  0.00  0.00     0.106 A 
ATOM      3  S   UNL d   1       0.315   1.951  -2.379  0.00  0.00    -0.065 SA
ATOM      4  C   UNL d   1       0.202  -0.554  -2.899  0.00  0.00     0.034 A 
ATOM      5  C   UNL d   1      -0.137   0.116  -4.109  0.00  0.00     0.033 A 
ENDROOT
BRANCH   1   6
ATOM      6  S   UNL d   1       0.887   0.032  -0.142  0.00  0.00     0.250 S 
ATOM      7  O   UNL d   1       0.356  -1.291   0.116  0.00  0.00    -0.205 OA
ATOM      8  O   UNL d   1       0.421   1.187   0.593  0.00  0.00    -0.205 OA
BRANCH   6   9
ATOM      9  N   UNL d   1       2.596  -0.048  -0.024  0.00  0.00    -0.206 NA
ATOM     10  C   UNL d   1       3.205  -1.217  -0.710  0.00  0.00     0.107 C 
ATOM     11  C   UNL d   1       4.703  -1.309  -0.438  0.00  0.00     0.015 C 
ATOM     12  C   UNL d   1       5.407  -0.000  -0.763  0.00  0.00     0.002 C 
ATOM     13  C   UNL d   1       4.781   1.126   0.047  0.00  0.00     0.015 C 
ATOM     14  C   UNL d   1       3.291   1.244  -0.252  0.00  0.00     0.107 C 
ENDBRANCH   6   9
ENDBRANCH   1   6
BRANCH   2  15
ATOM     15  S   UNL d   1      -0.473   2.798  -5.130  0.00  0.00     0.213 S 
ATOM     16  O   UNL d   1       0.431   3.892  -4.825  0.00  0.00    -0.217 OA
ATOM     17  O   UNL d   1      -0.470   2.150  -6.427  0.00  0.00    -0.217 OA
BRANCH  15  18
ATOM     18  C   UNL d   1      -2.132   3.284  -4.751  0.00  0.00     0.064 A 
ATOM     19  C   UNL d   1      -2.359   4.325  -3.847  0.00  0.00     0.024 A 
ATOM     20  C   UNL d   1      -3.668   4.666  -3.513  0.00  0.00     0.002 A 
ATOM     21  C   UNL d   1      -4.739   3.982  -4.092  0.00  0.00     0.000 A 
ATOM     22  C   UNL d   1      -4.507   2.966  -5.018  0.00  0.00     0.002 A 
ATOM     23  C   UNL d   1      -3.200   2.615  -5.358  0.00  0.00     0.024 A 
ENDBRANCH  15  18
ENDBRANCH   2  15
TORSDOF 4
