REMARK  5 active torsions:
REMARK  status: ('A' for Active; 'I' for Inactive)
REMARK    1  A    between atoms: C_7  and  N_1 
REMARK    2  A    between atoms: S_10  and  C_2 
REMARK    3  A    between atoms: C_19  and  S_10 
REMARK       I    between atoms: N_11  and  C_12 
REMARK    4  A    between atoms: C_13  and  N_11 
REMARK    5  A    between atoms: C_12  and  C_19 
ROOT
ATOM      1  N   UNL d   1      -0.138  -1.409  -0.075  0.00  0.00    -0.218 N 
ATOM      2  C   UNL d   1       1.050  -0.822  -0.491  0.00  0.00     0.177 A 
ATOM      3  N   UNL d   1       0.989   0.474  -0.296  0.00  0.00    -0.264 N 
ATOM      4  HN  UNL d   1       1.713   1.159  -0.511  1.00  0.00     0.186 HD
ATOM      5  N   UNL d   1      -0.924  -0.392   0.388  0.00  0.00     0.001 NA
ATOM      6  N   UNL d   1      -0.232   0.725   0.250  0.00  0.00    -0.006 NA
ENDROOT
BRANCH   2   7
ATOM      7  S   UNL d   1       2.441  -1.595  -1.173  0.00  0.00    -0.082 SA
BRANCH   7   8
ATOM      8  C   UNL d   1       3.566  -0.210  -1.508  0.00  0.00     0.185 C 
BRANCH   8   9
ATOM      9  C   UNL d   1       3.225   0.744  -2.655  0.00  0.00     0.231 C 
ATOM     10  N   UNL d   1       1.884   0.952  -2.925  0.00  0.00    -0.325 N 
ATOM     11  H   UNL d   1       1.282   0.743  -2.139  0.00  0.00     0.169 HD
ATOM     12  O   UNL d   1       4.140   1.388  -3.170  0.00  0.00    -0.272 OA
BRANCH  10  13
ATOM     13  C   UNL d   1       1.380   1.977  -3.765  0.00  0.00     0.056 A 
ATOM     14  C   UNL d   1       1.891   2.346  -5.020  0.00  0.00     0.060 A 
ATOM     15 CL   UNL d   1       3.030   1.387  -5.901  0.00  0.00    -0.082 Cl
ATOM     16  C   UNL d   1       1.367   3.464  -5.684  0.00  0.00     0.026 A 
ATOM     17  C   UNL d   1       0.311   4.189  -5.133  0.00  0.00     0.002 A 
ATOM     18  C   UNL d   1      -0.256   3.778  -3.932  0.00  0.00     0.002 A 
ATOM     19  C   UNL d   1       0.267   2.672  -3.260  0.00  0.00     0.031 A 
ENDBRANCH  10  13
ENDBRANCH   8   9
ENDBRANCH   7   8
ENDBRANCH   2   7
BRANCH   1  20
ATOM     20  C   UNL d   1      -0.643  -2.741  -0.079  0.00  0.00     0.068 A 
ATOM     21  C   UNL d   1      -1.356  -3.194   1.067  0.00  0.00    -0.033 A 
ATOM     22  C   UNL d   1      -1.961  -4.464   1.050  0.00  0.00     0.015 A 
ATOM     23  C   UNL d   1      -1.540  -2.395   2.337  0.00  0.00     0.050 C 
ATOM     24  C   UNL d   1      -1.840  -5.311  -0.048  0.00  0.00    -0.061 A 
ATOM     25  C   UNL d   1      -1.109  -4.877  -1.153  0.00  0.00     0.015 A 
ATOM     26  C   UNL d   1      -2.517  -6.650  -0.041  0.00  0.00     0.048 C 
ATOM     27  C   UNL d   1      -0.538  -3.587  -1.211  0.00  0.00    -0.033 A 
ATOM     28  C   UNL d   1       0.056  -3.223  -2.546  0.00  0.00     0.050 C 
ENDBRANCH   1  20
TORSDOF 5
