REMARK  5 active torsions:
REMARK  status: ('A' for Active; 'I' for Inactive)
REMARK    1  A    between atoms: S_8  and  C_2 
REMARK    2  A    between atoms: N_13  and  C_3 
REMARK    3  A    between atoms: C_11  and  S_8 
REMARK    4  A    between atoms: C_9  and  C_11 
REMARK    5  A    between atoms: C_10  and  C_9 
ROOT
ATOM      1  N   UNL d   1       5.676  -0.468   3.252  0.00  0.00    -0.168 N 
ATOM      2  C   UNL d   1       4.759   0.197   2.502  0.00  0.00     0.174 A 
ATOM      3  C   UNL d   1       6.542   0.480   3.705  0.00  0.00     0.692 A 
ATOM      4  N   UNL d   1       5.015   1.481   2.510  0.00  0.00    -0.265 N 
ATOM      5  HN  UNL d   1       4.482   2.209   2.035  1.00  0.00     0.189 HD
ATOM      6  N   UNL d   1       6.147   1.661   3.286  0.00  0.00    -0.130 N 
ATOM      7  HN  UNL d   1       6.596   2.553   3.495  1.00  0.00     0.205 HD
ATOM      8  H   UNL d   1       5.714  -1.457   3.427  0.00  0.00     0.186 HD
ENDROOT
BRANCH   2   9
ATOM      9  S   UNL d   1       3.478  -0.638   1.720  0.00  0.00    -0.084 SA
BRANCH   9  10
ATOM     10  C   UNL d   1       4.162  -0.834   0.052  0.00  0.00     0.166 C 
BRANCH  10  11
ATOM     11  C   UNL d   1       5.440  -1.648   0.063  0.00  0.00     0.169 C 
ATOM     12  O   UNL d   1       6.548  -1.121   0.171  0.00  0.00    -0.291 OA
BRANCH  11  13
ATOM     13  C   UNL d   1       5.386  -3.134  -0.036  0.00  0.00     0.011 A 
ATOM     14  C   UNL d   1       6.505  -3.793  -0.567  0.00  0.00     0.017 A 
ATOM     15  C   UNL d   1       6.547  -5.188  -0.617  0.00  0.00     0.025 A 
ATOM     16  C   UNL d   1       5.477  -5.928  -0.123  0.00  0.00     0.034 A 
ATOM     17  C   UNL d   1       4.358  -5.283   0.404  0.00  0.00     0.025 A 
ATOM     18 CL   UNL d   1       5.540  -7.646  -0.147  0.00  0.00    -0.084 Cl
ATOM     19  C   UNL d   1       4.306  -3.885   0.441  0.00  0.00     0.017 A 
ENDBRANCH  11  13
ENDBRANCH  10  11
ENDBRANCH   9  10
ENDBRANCH   2   9
BRANCH   3  20
ATOM     20  N   UNL d   1       7.600   0.150   4.462  0.00  0.00    -0.233 N 
ATOM     21  H   UNL d   1       8.039  -0.758   4.353  0.00  0.00     0.174 HD
ATOM     22  H   UNL d   1       8.286   0.892   4.583  0.00  0.00     0.174 HD
ENDBRANCH   3  20
TORSDOF 5
