REMARK  7 active torsions:
REMARK  status: ('A' for Active; 'I' for Inactive)
REMARK    1  A    between atoms: N_5  and  S_1 
REMARK    2  A    between atoms: C_10  and  S_1 
REMARK    3  A    between atoms: C_3  and  C_7 
REMARK    4  A    between atoms: C_4  and  C_6 
REMARK    5  A    between atoms: C_11  and  N_5 
REMARK    6  A    between atoms: C_8  and  O_16 
REMARK    7  A    between atoms: O_16  and  C_28 
ROOT
ATOM      1  C   UNL d   1      -1.845   0.995  -7.440  0.00  0.00     0.100 A 
ATOM      2  C   UNL d   1      -0.856   0.913  -6.444  0.00  0.00     0.098 A 
ATOM      3  C   UNL d   1      -2.939   1.913  -7.292  0.00  0.00     0.104 C 
ATOM      4  N   UNL d   1      -3.816   2.664  -7.178  0.00  0.00    -0.191 NA
ATOM      5  C   UNL d   1      -1.734   0.183  -8.578  0.00  0.00     0.057 A 
ATOM      6 CL   UNL d   1      -2.910   0.209  -9.846  0.00  0.00    -0.083 Cl
ATOM      7  C   UNL d   1       0.262   0.086  -6.634  0.00  0.00     0.039 A 
ATOM      8  C   UNL d   1       0.354  -0.726  -7.762  0.00  0.00     0.005 A 
ATOM      9  C   UNL d   1      -0.647  -0.684  -8.729  0.00  0.00     0.025 A 
ENDROOT
BRANCH   2  10
ATOM     10  O   UNL d   1      -0.995   1.725  -5.335  0.00  0.00    -0.309 OA
BRANCH  10  11
ATOM     11  C   UNL d   1      -0.546   1.290  -4.108  0.00  0.00     0.076 A 
ATOM     12  C   UNL d   1      -0.018   2.272  -3.265  0.00  0.00     0.039 A 
ATOM     13  C   UNL d   1       0.467   1.930  -2.001  0.00  0.00     0.028 A 
ATOM     14  C   UNL d   1       0.444   0.592  -1.596  0.00  0.00     0.080 A 
ATOM     15  C   UNL d   1      -0.140  -0.387  -2.408  0.00  0.00     0.028 A 
ATOM     16  C   UNL d   1      -0.654  -0.030  -3.657  0.00  0.00     0.039 A 
BRANCH  14  17
ATOM     17  S   UNL d   1       1.142   0.125  -0.022  0.00  0.00     0.263 S 
ATOM     18  O   UNL d   1       1.078   1.274   0.854  0.00  0.00    -0.200 OA
ATOM     19  O   UNL d   1       0.559  -1.148   0.346  0.00  0.00    -0.200 OA
BRANCH  17  20
ATOM     20  N   UNL d   1       2.765  -0.196  -0.411  0.00  0.00    -0.281 N 
ATOM     21  H   UNL d   1       2.872  -1.107  -0.857  0.00  0.00     0.179 HD
BRANCH  20  22
ATOM     22  C   UNL d   1       3.559   0.879  -0.893  0.00  0.00     0.044 A 
ATOM     23  C   UNL d   1       4.121   1.773   0.017  0.00  0.00     0.046 A 
ATOM     24  C   UNL d   1       4.814   2.906  -0.434  0.00  0.00     0.050 A 
ATOM     25  C   UNL d   1       4.899   3.142  -1.817  0.00  0.00     0.032 A 
ATOM     26  C   UNL d   1       4.316   2.258  -2.739  0.00  0.00     0.050 A 
ATOM     27  C   UNL d   1       3.671   1.106  -2.263  0.00  0.00     0.046 A 
BRANCH  24  28
ATOM     28  C   UNL d   1       5.429   3.859   0.565  0.00  0.00     0.417 C 
ATOM     29  F   UNL d   1       6.049   4.922  -0.019  0.00  0.00    -0.166 F 
ATOM     30  F   UNL d   1       4.511   4.385   1.419  0.00  0.00    -0.166 F 
ATOM     31  F   UNL d   1       6.372   3.259   1.342  0.00  0.00    -0.166 F 
ENDBRANCH  24  28
BRANCH  26  32
ATOM     32  C   UNL d   1       4.320   2.550  -4.221  0.00  0.00     0.417 C 
ATOM     33  F   UNL d   1       4.974   3.695  -4.550  0.00  0.00    -0.166 F 
ATOM     34  F   UNL d   1       4.902   1.555  -4.944  0.00  0.00    -0.166 F 
ATOM     35  F   UNL d   1       3.058   2.681  -4.716  0.00  0.00    -0.166 F 
ENDBRANCH  26  32
ENDBRANCH  20  22
ENDBRANCH  17  20
ENDBRANCH  14  17
ENDBRANCH  10  11
ENDBRANCH   2  10
TORSDOF 7
