REMARK  4 active torsions:
REMARK  status: ('A' for Active; 'I' for Inactive)
REMARK    1  A    between atoms: C_2  and  C_1 
REMARK    2  A    between atoms: C_3  and  C_1 
REMARK    3  A    between atoms: C_4  and  C_2 
REMARK       I    between atoms: N_13  and  C_3 
REMARK    4  A    between atoms: C_5  and  C_6 
ROOT
ATOM      1  C   UNL d   1       1.433   1.958  -1.810  0.00  0.00     0.010 A 
ATOM      2  C   UNL d   1       3.291   3.531  -3.262  0.00  0.00    -0.051 A 
ATOM      3  C   UNL d   1       2.409   1.343  -2.595  0.00  0.00     0.015 A 
ATOM      4  C   UNL d   1       1.320   3.348  -1.828  0.00  0.00     0.015 A 
ATOM      5  C   UNL d   1       3.324   2.124  -3.312  0.00  0.00     0.009 A 
ATOM      6  C   UNL d   1       2.240   4.123  -2.542  0.00  0.00     0.009 A 
ENDROOT
BRANCH   1   7
ATOM      7  C   UNL d   1       0.530   1.192  -0.907  0.00  0.00     0.168 C 
ATOM      8  O   UNL d   1      -0.570   1.656  -0.618  0.00  0.00    -0.292 OA
BRANCH   7   9
ATOM      9  C   UNL d   1       0.996  -0.117  -0.323  0.00  0.00     0.186 C 
BRANCH   9  10
ATOM     10  C   UNL d   1       2.269  -0.012   0.474  0.00  0.00     0.222 C 
ATOM     11  O   UNL d   1       3.385  -0.145  -0.017  0.00  0.00    -0.273 OA
ATOM     12  N   UNL d   1       2.120   0.239   1.806  0.00  0.00    -0.370 N 
ATOM     13  H   UNL d   1       1.234   0.482   2.228  0.00  0.00     0.159 HD
ATOM     14  H   UNL d   1       2.962   0.355   2.358  0.00  0.00     0.159 HD
ENDBRANCH   9  10
ENDBRANCH   7   9
ENDBRANCH   1   7
BRANCH   2  15
ATOM     15  C   UNL d   1       4.412   4.360  -3.916  0.00  0.00    -0.024 C 
ATOM     16  C   UNL d   1       4.245   5.883  -3.716  0.00  0.00     0.019 C 
ATOM     17  C   UNL d   1       5.767   3.967  -3.284  0.00  0.00     0.019 C 
ATOM     18  C   UNL d   1       4.474   4.097  -5.434  0.00  0.00     0.019 C 
ENDBRANCH   2  15
TORSDOF 4
