REMARK  6 active torsions:
REMARK  status: ('A' for Active; 'I' for Inactive)
REMARK    1  A    between atoms: C_6  and  C_1 
REMARK    2  A    between atoms: C_13  and  C_4 
REMARK    3  A    between atoms: N_11  and  C_5 
REMARK    4  A    between atoms: O_12  and  C_6 
REMARK    5  A    between atoms: C_14  and  O_12 
REMARK    6  A    between atoms: C_15  and  C_13 
ROOT
ATOM      1  C   UNL d   1       1.958   0.065   0.036  0.00  0.00     0.077 A 
ATOM      2  N   UNL d   1      -0.106  -1.155  -0.002  0.00  0.00    -0.336 N 
ATOM      3  HN  UNL d   1      -0.613  -2.040   0.018  1.00  0.00     0.168 HD
ATOM      4  C   UNL d   1       1.261  -1.135   0.025  0.00  0.00     0.029 A 
ATOM      5  C   UNL d   1      -0.765   0.004  -0.056  0.00  0.00     0.154 A 
ATOM      6  N   UNL d   1      -0.186   1.200  -0.018  0.00  0.00    -0.342 N 
ATOM      7  HN  UNL d   1      -0.728   2.064  -0.022  1.00  0.00     0.167 HD
ATOM      8  C   UNL d   1       1.163   1.201   0.024  0.00  0.00     0.110 A 
ENDROOT
BRANCH   1   9
ATOM      9  C   UNL d   1       3.414   0.317  -0.007  0.00  0.00     0.296 C 
ATOM     10  O   UNL d   1       3.885   1.438   0.117  0.00  0.00    -0.259 OA
BRANCH   9  11
ATOM     11  O   UNL d   1       4.115  -0.791  -0.318  0.00  0.00    -0.318 OA
BRANCH  11  12
ATOM     12  C   UNL d   1       5.446  -0.573  -0.811  0.00  0.00     0.174 C 
ATOM     13  C   UNL d   1       5.377  -0.562  -2.328  0.00  0.00     0.034 C 
ENDBRANCH  11  12
ENDBRANCH   9  11
ENDBRANCH   1   9
BRANCH   4  14
ATOM     14  C   UNL d   1       1.860  -2.518   0.024  0.00  0.00     0.058 C 
BRANCH  14  15
ATOM     15  C   UNL d   1       1.893  -3.197   1.398  0.00  0.00     0.002 C 
ATOM     16  C   UNL d   1       2.896  -2.592   2.367  0.00  0.00     0.005 C 
ENDBRANCH  14  15
ENDBRANCH   4  14
BRANCH   5  17
ATOM     17  N   UNL d   1      -2.136  -0.035  -0.141  0.00  0.00    -0.274 NA
ATOM     18  H   UNL d   1      -2.529   0.831   0.200  0.00  0.00     0.127 HD
ATOM     19  H   UNL d   1      -2.488  -0.898   0.247  0.00  0.00     0.127 HD
ENDBRANCH   5  17
TORSDOF 6
