REMARK  2 active torsions:
REMARK  status: ('A' for Active; 'I' for Inactive)
REMARK    1  A    between atoms: C_12  and  N_1 
REMARK    2  A    between atoms: C_15  and  C_12 
ROOT
ATOM      1  N   UNL d   1       1.798  -0.092   0.646  0.00  0.00    -0.283 N 
ATOM      2  C   UNL d   1       2.591  -0.428   1.700  0.00  0.00     0.232 C 
ATOM      3  C   UNL d   1       0.597   0.415   1.115  0.00  0.00     0.232 C 
ATOM      4  C   UNL d   1       2.200   0.432   2.839  0.00  0.00     0.105 C 
ATOM      5  C   UNL d   1       0.675   0.566   2.645  0.00  0.00     0.105 C 
ATOM      6  C   UNL d   1       0.242   1.953   3.227  0.00  0.00     0.066 C 
ATOM      7  C   UNL d   1       2.849   1.865   2.837  0.00  0.00     0.066 C 
ATOM      8  C   UNL d   1       2.495   2.258   4.262  0.00  0.00    -0.042 A 
ATOM      9  C   UNL d   1       0.715   2.978   2.205  0.00  0.00    -0.042 A 
ATOM     10  C   UNL d   1       1.083   2.239   4.501  0.00  0.00    -0.042 A 
ATOM     11  C   UNL d   1       2.115   2.901   1.954  0.00  0.00    -0.042 A 
ATOM     12  O   UNL d   1       3.436  -1.306   1.749  0.00  0.00    -0.272 OA
ATOM     13  O   UNL d   1      -0.369   0.714   0.435  0.00  0.00    -0.272 OA
ATOM     14  C   UNL d   1       3.421   2.516   5.258  0.00  0.00     0.008 A 
ATOM     15  C   UNL d   1      -0.102   3.889   1.546  0.00  0.00     0.008 A 
ATOM     16  C   UNL d   1       0.614   2.473   5.779  0.00  0.00     0.008 A 
ATOM     17  C   UNL d   1       2.684   3.788   1.050  0.00  0.00     0.008 A 
ATOM     18  C   UNL d   1       2.933   2.746   6.540  0.00  0.00     0.001 A 
ATOM     19  C   UNL d   1       0.483   4.755   0.626  0.00  0.00     0.001 A 
ATOM     20  C   UNL d   1       1.547   2.721   6.797  0.00  0.00     0.001 A 
ATOM     21  C   UNL d   1       1.865   4.708   0.382  0.00  0.00     0.001 A 
ENDROOT
BRANCH   1  22
ATOM     22  C   UNL d   1       2.477   0.567  -0.452  0.00  0.00     0.173 C 
BRANCH  22  23
ATOM     23  C   UNL d   1       3.202  -0.312  -1.432  0.00  0.00    -0.040 A 
ATOM     24  C   UNL d   1       2.478  -1.092  -2.333  0.00  0.00     0.009 A 
ATOM     25  C   UNL d   1       3.125  -1.785  -3.350  0.00  0.00     0.001 A 
ATOM     26  C   UNL d   1       4.519  -1.722  -3.463  0.00  0.00     0.000 A 
ATOM     27  C   UNL d   1       5.257  -0.984  -2.543  0.00  0.00     0.001 A 
ATOM     28  C   UNL d   1       4.607  -0.287  -1.525  0.00  0.00     0.009 A 
ENDBRANCH  22  23
ENDBRANCH   1  22
TORSDOF 2
