REMARK  3 active torsions:
REMARK  status: ('A' for Active; 'I' for Inactive)
REMARK    1  A    between atoms: C_8  and  N_3 
REMARK    2  A    between atoms: C_7  and  C_8 
REMARK    3  A    between atoms: N_15  and  C_9 
ROOT
ATOM      1  S   UNL d   1      -1.032  -1.448   0.092  0.00  0.00     0.270 S 
ATOM      2  C   UNL d   1      -2.251  -0.291   0.480  0.00  0.00     0.145 C 
ATOM      3  N   UNL d   1      -1.557  -1.895  -1.460  0.00  0.00    -0.266 N 
ATOM      4  C   UNL d   1      -2.276   0.827  -0.465  0.00  0.00     0.209 C 
ATOM      5  C   UNL d   1      -1.845  -0.810  -2.378  0.00  0.00     0.059 A 
ATOM      6  C   UNL d   1      -2.196   0.479  -1.912  0.00  0.00     0.043 A 
ATOM      7  C   UNL d   1      -3.208  -0.590   1.374  0.00  0.00     0.114 C 
ATOM      8  O   UNL d   1       0.244  -0.784  -0.079  0.00  0.00    -0.200 OA
ATOM      9  O   UNL d   1      -1.119  -2.614   0.951  0.00  0.00    -0.200 OA
ATOM     10  O   UNL d   1      -2.386   1.994  -0.101  0.00  0.00    -0.286 OA
ATOM     11  C   UNL d   1      -2.541   1.498  -2.817  0.00  0.00     0.018 A 
ATOM     12  C   UNL d   1      -1.883  -1.038  -3.761  0.00  0.00     0.031 A 
ATOM     13  C   UNL d   1      -2.561   1.247  -4.184  0.00  0.00     0.001 A 
ATOM     14  C   UNL d   1      -2.232  -0.018  -4.655  0.00  0.00     0.002 A 
ENDROOT
BRANCH   3  15
ATOM     15  C   UNL d   1      -1.343  -3.294  -1.870  0.00  0.00     0.185 C 
BRANCH  15  16
ATOM     16  C   UNL d   1      -2.613  -4.063  -2.178  0.00  0.00     0.021 A 
ATOM     17  C   UNL d   1      -3.787  -3.837  -1.444  0.00  0.00     0.126 A 
ATOM     18  F   UNL d   1      -3.824  -2.900  -0.488  0.00  0.00    -0.205 F 
ATOM     19  C   UNL d   1      -4.955  -4.569  -1.656  0.00  0.00     0.043 A 
ATOM     20  C   UNL d   1      -4.973  -5.578  -2.609  0.00  0.00     0.005 A 
ATOM     21  C   UNL d   1      -3.818  -5.844  -3.341  0.00  0.00     0.024 A 
ATOM     22  C   UNL d   1      -2.649  -5.099  -3.125  0.00  0.00     0.045 A 
ATOM     23 CL   UNL d   1      -1.263  -5.530  -4.065  0.00  0.00    -0.084 Cl
ENDBRANCH  15  16
ENDBRANCH   3  15
BRANCH   7  24
ATOM     24  N   UNL d   1      -4.444  -0.018   1.686  0.00  0.00    -0.397 N 
ATOM     25  C   UNL d   1      -4.998   1.167   1.030  0.00  0.00     0.148 C 
ATOM     26  C   UNL d   1      -5.225  -0.483   2.833  0.00  0.00     0.148 C 
ENDBRANCH   7  24
TORSDOF 3
