REMARK  3 active torsions:
REMARK  status: ('A' for Active; 'I' for Inactive)
REMARK    1  A    between atoms: C_15  and  C_5 
REMARK    2  A    between atoms: C_7  and  S_13 
REMARK    3  A    between atoms: S_13  and  C_15 
ROOT
ATOM      1  S   UNL d   1      -2.375   3.265   0.103  0.00  0.00    -0.122 SA
ENDROOT
BRANCH   1   2
ATOM      2  C   UNL d   1      -3.932   4.166   0.072  0.00  0.00     0.023 A 
ATOM      3  C   UNL d   1      -3.945   5.574   0.060  0.00  0.00     0.052 A 
ATOM      4  C   UNL d   1      -5.150   6.282   0.089  0.00  0.00     0.049 A 
ATOM      5 CL   UNL d   1      -2.494   6.522   0.007  0.00  0.00    -0.083 Cl
ATOM      6  C   UNL d   1      -6.367   5.602   0.133  0.00  0.00     0.041 A 
ATOM      7  C   UNL d   1      -6.393   4.203   0.152  0.00  0.00    -0.039 A 
ATOM      8 CL   UNL d   1      -7.804   6.558   0.173  0.00  0.00    -0.084 Cl
ATOM      9  C   UNL d   1      -5.168   3.501   0.130  0.00  0.00     0.028 A 
ATOM     10  C   UNL d   1      -7.662   3.395   0.207  0.00  0.00     0.050 C 
ENDBRANCH   1   2
BRANCH   1  11
ATOM     11  C   UNL d   1      -2.715   1.726  -0.798  0.00  0.00     0.134 C 
BRANCH  11  12
ATOM     12  C   UNL d   1      -3.207   1.972  -2.187  0.00  0.00     0.022 A 
ATOM     13  N   UNL d   1      -4.353   1.536  -2.623  0.00  0.00    -0.305 N 
ATOM     14  N   UNL d   1      -4.420   1.910  -3.936  0.00  0.00    -0.270 N 
ATOM     15  HN  UNL d   1      -5.056   1.021  -2.094  1.00  0.00     0.186 HD
ATOM     16  C   UNL d   1      -3.311   2.594  -4.405  0.00  0.00     0.241 A 
ATOM     17  H   UNL d   1      -5.221   1.672  -4.510  0.00  0.00     0.190 HD
ATOM     18  O   UNL d   1      -3.123   3.018  -5.531  0.00  0.00    -0.271 OA
ATOM     19  C   UNL d   1      -2.392   2.692  -3.227  0.00  0.00     0.159 A 
ENDBRANCH  11  12
ENDBRANCH   1  11
TORSDOF 3
