REMARK  4 active torsions:
REMARK  status: ('A' for Active; 'I' for Inactive)
REMARK    1  A    between atoms: C_3  and  N_1 
REMARK    2  A    between atoms: C_4  and  C_2 
REMARK       I    between atoms: N_6  and  C_4 
REMARK       I    between atoms: C_5  and  N_7 
REMARK    3  A    between atoms: C_8  and  C_5 
REMARK    4  A    between atoms: N_7  and  N_6 
ROOT
ATOM      1  C   UNL d   1       1.713  -2.330   1.818  0.00  0.00     0.272 C 
ATOM      2  N   UNL d   1       2.446  -3.427   2.223  0.00  0.00    -0.263 N 
ATOM      3  O   UNL d   1       0.506  -2.381   1.607  0.00  0.00    -0.266 OA
ATOM      4  H   UNL d   1       3.462  -3.459   2.296  0.00  0.00     0.190 HD
ENDROOT
BRANCH   2   5
ATOM      5  N   UNL d   1       1.769  -4.644   2.382  0.00  0.00    -0.263 N 
ATOM      6  C   UNL d   1       2.521  -5.795   2.499  0.00  0.00     0.270 C 
ATOM      7  O   UNL d   1       3.749  -5.779   2.460  0.00  0.00    -0.266 OA
ATOM      8  H   UNL d   1       0.764  -4.614   2.224  0.00  0.00     0.190 HD
BRANCH   6   9
ATOM      9  C   UNL d   1       1.790  -7.083   2.700  0.00  0.00     0.035 A 
ATOM     10  C   UNL d   1       0.449  -7.144   3.102  0.00  0.00     0.042 A 
ATOM     11  C   UNL d   1      -0.154  -8.383   3.362  0.00  0.00     0.056 A 
ATOM     12 CL   UNL d   1      -1.805  -8.375   3.880  0.00  0.00    -0.083 Cl
ATOM     13  C   UNL d   1       0.576  -9.569   3.224  0.00  0.00     0.055 A 
ATOM     14  C   UNL d   1       1.909  -9.513   2.812  0.00  0.00     0.026 A 
ATOM     15 CL   UNL d   1      -0.096 -11.121   3.567  0.00  0.00    -0.083 Cl
ATOM     16  C   UNL d   1       2.511  -8.278   2.552  0.00  0.00     0.019 A 
ENDBRANCH   6   9
ENDBRANCH   2   5
BRANCH   1  17
ATOM     17  C   UNL d   1       2.433  -1.044   1.697  0.00  0.00     0.066 A 
ATOM     18  C   UNL d   1       2.087  -0.108   0.718  0.00  0.00     0.118 A 
ATOM     19  C   UNL d   1       2.652   1.175   0.693  0.00  0.00     0.037 A 
ATOM     20  C   UNL d   1       3.588   1.525   1.665  0.00  0.00     0.002 A 
ATOM     21  C   UNL d   1       3.961   0.597   2.640  0.00  0.00     0.001 A 
ATOM     22  C   UNL d   1       3.385  -0.680   2.662  0.00  0.00     0.020 A 
BRANCH  18  23
ATOM     23  N   UNL d   1       1.190  -0.466  -0.365  0.00  0.00    -0.115 N 
ATOM     24  O   UNL d   1       1.536  -1.414  -1.084  0.00  0.00    -0.532 OA
ATOM     25  O   UNL d   1       0.208   0.266  -0.549  0.00  0.00    -0.532 OA
ENDBRANCH  18  23
ENDBRANCH   1  17
TORSDOF 4
