REMARK  7 active torsions:
REMARK  status: ('A' for Active; 'I' for Inactive)
REMARK    1  A    between atoms: C_4  and  C_1 
REMARK       I    between atoms: N_13  and  C_4 
REMARK    2  A    between atoms: C_5  and  C_10 
REMARK    3  A    between atoms: C_6  and  C_11 
REMARK    4  A    between atoms: C_15  and  C_7 
REMARK    5  A    between atoms: C_8  and  C_15 
REMARK    6  A    between atoms: N_16  and  N_13 
REMARK    7  A    between atoms: C_17  and  N_16 
ROOT
ATOM      1  C   UNL d   1       2.309   1.746   0.097  0.00  0.00     0.283 C 
ATOM      2  N   UNL d   1       2.088   3.058  -0.293  0.00  0.00    -0.281 N 
ATOM      3  O   UNL d   1       3.392   1.354   0.532  0.00  0.00    -0.265 OA
ATOM      4  H   UNL d   1       1.285   3.251  -0.889  0.00  0.00     0.184 HD
ENDROOT
BRANCH   2   5
ATOM      5  N   UNL d   1       3.226   3.887  -0.434  0.00  0.00    -0.203 NA
ATOM      6  H   UNL d   1       4.076   3.360  -0.190  0.00  0.00     0.153 HD
BRANCH   5   7
ATOM      7  C   UNL d   1       3.160   5.096   0.306  0.00  0.00     0.029 A 
ATOM      8  C   UNL d   1       4.357   5.710   0.707  0.00  0.00     0.041 A 
ATOM      9  C   UNL d   1       4.367   6.959   1.352  0.00  0.00     0.050 A 
ATOM     10  C   UNL d   1       3.149   7.617   1.573  0.00  0.00     0.032 A 
ATOM     11  C   UNL d   1       1.940   7.045   1.149  0.00  0.00     0.050 A 
ATOM     12  C   UNL d   1       1.962   5.792   0.508  0.00  0.00     0.041 A 
BRANCH   9  13
ATOM     13  C   UNL d   1       5.678   7.578   1.776  0.00  0.00     0.417 C 
ATOM     14  F   UNL d   1       5.537   8.796   2.368  0.00  0.00    -0.166 F 
ATOM     15  F   UNL d   1       6.354   6.805   2.671  0.00  0.00    -0.166 F 
ATOM     16  F   UNL d   1       6.527   7.768   0.728  0.00  0.00    -0.166 F 
ENDBRANCH   9  13
BRANCH  11  17
ATOM     17  C   UNL d   1       0.623   7.759   1.344  0.00  0.00     0.417 C 
ATOM     18  F   UNL d   1       0.741   8.941   2.008  0.00  0.00    -0.166 F 
ATOM     19  F   UNL d   1       0.014   8.053   0.163  0.00  0.00    -0.166 F 
ATOM     20  F   UNL d   1      -0.271   7.018   2.054  0.00  0.00    -0.166 F 
ENDBRANCH  11  17
ENDBRANCH   5   7
ENDBRANCH   2   5
BRANCH   1  21
ATOM     21  C   UNL d   1       1.150   0.870  -0.085  0.00  0.00     0.109 A 
ATOM     22  N   UNL d   1      -0.017   1.291  -0.735  0.00  0.00    -0.349 N 
ATOM     23  C   UNL d   1      -0.890   0.300  -0.788  0.00  0.00     0.055 A 
ATOM     24  HN  UNL d   1      -0.170   2.226  -1.113  1.00  0.00     0.166 HD
ATOM     25  S   UNL d   1      -0.370  -1.170  -0.054  0.00  0.00    -0.086 SA
ATOM     26  C   UNL d   1       1.119  -0.442   0.350  0.00  0.00     0.086 A 
BRANCH  23  27
ATOM     27  C   UNL d   1      -2.229   0.361  -1.477  0.00  0.00     0.107 C 
BRANCH  27  28
ATOM     28  C   UNL d   1      -3.313   1.022  -0.649  0.00  0.00    -0.009 A 
ATOM     29  C   UNL d   1      -3.527   2.415  -0.703  0.00  0.00     0.042 A 
ATOM     30 CL   UNL d   1      -2.593   3.454  -1.724  0.00  0.00    -0.084 Cl
ATOM     31  C   UNL d   1      -4.527   3.026   0.065  0.00  0.00     0.024 A 
ATOM     32  C   UNL d   1      -5.328   2.267   0.912  0.00  0.00     0.003 A 
ATOM     33  C   UNL d   1      -5.132   0.893   0.987  0.00  0.00     0.024 A 
ATOM     34  C   UNL d   1      -4.140   0.275   0.216  0.00  0.00     0.042 A 
ATOM     35 CL   UNL d   1      -4.008  -1.443   0.368  0.00  0.00    -0.084 Cl
ENDBRANCH  27  28
ENDBRANCH  23  27
ENDBRANCH   1  21
TORSDOF 7
