REMARK  19 active torsions:
REMARK  status: ('A' for Active; 'I' for Inactive)
REMARK    1  A    between atoms: C_1  and  O_14 
REMARK    2  A    between atoms: C_2  and  O_15 
REMARK    3  A    between atoms: C_3  and  O_16 
REMARK    4  A    between atoms: C_4  and  O_17 
REMARK    5  A    between atoms: C_5  and  O_9 
REMARK    6  A    between atoms: C_6  and  O_9 
REMARK    7  A    between atoms: C_7  and  O_18 
REMARK    8  A    between atoms: C_10  and  O_37 
REMARK    9  A    between atoms: C_12  and  C_26 
REMARK   10  A    between atoms: C_13  and  C_27 
REMARK   11  A    between atoms: C_20  and  O_14 
REMARK   12  A    between atoms: C_19  and  O_15 
REMARK   13  A    between atoms: C_22  and  O_16 
REMARK   14  A    between atoms: C_21  and  O_17 
REMARK   15  A    between atoms: C_23  and  O_18 
REMARK   16  A    between atoms: C_24  and  O_28 
REMARK   17  A    between atoms: C_25  and  O_29 
REMARK   18  A    between atoms: O_28  and  C_26 
REMARK   19  A    between atoms: O_29  and  C_27 
ROOT
ATOM      1  C   UNL d   1       1.521  -0.888   4.448  0.00  0.00     0.219 C 
ATOM      2  C   UNL d   1       2.504  -1.913   5.059  0.00  0.00     0.198 C 
ATOM      3  C   UNL d   1       0.105  -1.512   4.404  0.00  0.00     0.293 C 
ATOM      4  C   UNL d   1       1.999  -2.411   6.416  0.00  0.00     0.195 C 
ATOM      5  O   UNL d   1      -0.300  -1.944   5.701  0.00  0.00    -0.348 OA
ATOM      6  C   UNL d   1       0.564  -2.941   6.276  0.00  0.00     0.181 C 
ENDROOT
BRANCH   3   7
ATOM      7  O   UNL d   1       0.172  -2.584   3.484  0.00  0.00    -0.348 OA
BRANCH   7   8
ATOM      8  C   UNL d   1      -1.022  -3.280   3.105  0.00  0.00     0.188 C 
ATOM      9  C   UNL d   1      -2.122  -2.360   2.499  0.00  0.00     0.198 C 
ATOM     10  C   UNL d   1      -2.998  -2.964   1.368  0.00  0.00     0.219 C 
ATOM     11  C   UNL d   1      -2.151  -3.912   0.503  0.00  0.00     0.291 C 
ATOM     12  O   UNL d   1      -1.536  -4.888   1.336  0.00  0.00    -0.348 OA
ATOM     13  C   UNL d   1      -0.484  -4.293   2.081  0.00  0.00     0.180 C 
BRANCH   9  14
ATOM     14  O   UNL d   1      -2.937  -1.742   3.542  0.00  0.00    -0.311 OA
BRANCH  14  15
ATOM     15  C   UNL d   1      -3.702  -2.550   4.325  0.00  0.00     0.255 C 
ATOM     16  O   UNL d   1      -3.707  -3.773   4.272  0.00  0.00    -0.266 OA
ATOM     17  C   UNL d   1      -4.537  -1.760   5.287  0.00  0.00     0.126 C 
ENDBRANCH  14  15
ENDBRANCH   9  14
BRANCH  10  18
ATOM     18  O   UNL d   1      -3.435  -1.885   0.486  0.00  0.00    -0.308 OA
BRANCH  18  19
ATOM     19  C   UNL d   1      -4.558  -1.200   0.820  0.00  0.00     0.255 C 
ATOM     20  O   UNL d   1      -5.263  -1.414   1.794  0.00  0.00    -0.266 OA
ATOM     21  C   UNL d   1      -4.827  -0.141  -0.210  0.00  0.00     0.126 C 
ENDBRANCH  18  19
ENDBRANCH  10  18
BRANCH  11  22
ATOM     22  O   UNL d   1      -2.950  -4.569  -0.484  0.00  0.00    -0.363 OA
ATOM     23  C   UNL d   1      -2.129  -5.314  -1.381  0.00  0.00     0.204 C 
ENDBRANCH  11  22
BRANCH  13  24
ATOM     24  C   UNL d   1       0.352  -5.388   2.766  0.00  0.00     0.213 C 
BRANCH  24  25
ATOM     25  O   UNL d   1       0.999  -6.240   1.796  0.00  0.00    -0.319 OA
BRANCH  25  26
ATOM     26  C   UNL d   1       2.113  -5.724   1.212  0.00  0.00     0.254 C 
ATOM     27  O   UNL d   1       2.564  -4.607   1.420  0.00  0.00    -0.266 OA
ATOM     28  C   UNL d   1       2.727  -6.707   0.264  0.00  0.00     0.126 C 
ENDBRANCH  25  26
ENDBRANCH  24  25
ENDBRANCH  13  24
ENDBRANCH   7   8
ENDBRANCH   3   7
BRANCH   1  29
ATOM     29  O   UNL d   1       2.120  -0.514   3.173  0.00  0.00    -0.308 OA
BRANCH  29  30
ATOM     30  C   UNL d   1       1.391  -0.574   2.037  0.00  0.00     0.255 C 
ATOM     31  O   UNL d   1       0.302  -0.052   1.887  0.00  0.00    -0.266 OA
ATOM     32  C   UNL d   1       2.095  -1.399   0.999  0.00  0.00     0.126 C 
ENDBRANCH  29  30
ENDBRANCH   1  29
BRANCH   2  33
ATOM     33  O   UNL d   1       3.774  -1.234   5.238  0.00  0.00    -0.311 OA
BRANCH  33  34
ATOM     34  C   UNL d   1       4.643  -1.335   4.192  0.00  0.00     0.255 C 
ATOM     35  O   UNL d   1       4.661  -2.229   3.358  0.00  0.00    -0.266 OA
ATOM     36  C   UNL d   1       5.511  -0.116   4.141  0.00  0.00     0.126 C 
ENDBRANCH  33  34
ENDBRANCH   2  33
BRANCH   6  37
ATOM     37  C   UNL d   1      -0.017  -3.341   7.644  0.00  0.00     0.213 C 
BRANCH  37  38
ATOM     38  O   UNL d   1      -1.362  -3.851   7.513  0.00  0.00    -0.319 OA
BRANCH  38  39
ATOM     39  C   UNL d   1      -1.467  -5.125   7.050  0.00  0.00     0.254 C 
ATOM     40  O   UNL d   1      -0.520  -5.843   6.756  0.00  0.00    -0.266 OA
ATOM     41  C   UNL d   1      -2.902  -5.543   6.948  0.00  0.00     0.126 C 
ENDBRANCH  38  39
ENDBRANCH  37  38
ENDBRANCH   6  37
BRANCH   4  42
ATOM     42  O   UNL d   1       2.873  -3.476   6.854  0.00  0.00    -0.311 OA
BRANCH  42  43
ATOM     43  C   UNL d   1       3.547  -3.272   8.016  0.00  0.00     0.255 C 
ATOM     44  O   UNL d   1       3.407  -2.304   8.750  0.00  0.00    -0.266 OA
ATOM     45  C   UNL d   1       4.494  -4.401   8.298  0.00  0.00     0.126 C 
ENDBRANCH  42  43
ENDBRANCH   4  42
TORSDOF 19
