REMARK  2 active torsions:
REMARK  status: ('A' for Active; 'I' for Inactive)
REMARK    1  A    between atoms: N_12  and  C_1 
REMARK    2  A    between atoms: C_13  and  N_12 
ROOT
ATOM      1  C   UNL d   1      -4.969  -3.018  -0.313  0.00  0.00     0.140 C 
ATOM      2  C   UNL d   1      -6.093  -2.160  -0.449  0.00  0.00     0.112 C 
ATOM      3  C   UNL d   1      -5.173  -4.425  -0.334  0.00  0.00     0.112 C 
ATOM      4  N   UNL d   1      -6.990  -1.431  -0.565  0.00  0.00    -0.191 NA
ATOM      5  N   UNL d   1      -5.333  -5.576  -0.329  0.00  0.00    -0.191 NA
ATOM      6  C   UNL d   1      -3.726  -2.529  -0.150  0.00  0.00     0.124 C 
ENDROOT
BRANCH   6   7
ATOM      7  N   UNL d   1      -3.290  -1.222  -0.037  0.00  0.00    -0.344 N 
ATOM      8  H   UNL d   1      -4.000  -0.494  -0.054  0.00  0.00     0.167 HD
BRANCH   7   9
ATOM      9  C   UNL d   1      -2.001  -0.814   0.076  0.00  0.00     0.149 A 
ATOM     10  N   UNL d   1      -0.949  -1.600   0.058  0.00  0.00    -0.335 N 
ATOM     11  C   UNL d   1       0.215  -0.849   0.074  0.00  0.00     0.051 A 
ATOM     12  HN  UNL d   1      -0.984  -2.619   0.037  1.00  0.00     0.168 HD
ATOM     13  C   UNL d   1       1.530  -1.354  -0.003  0.00  0.00     0.031 A 
ATOM     14  C   UNL d   1       0.033   0.532   0.146  0.00  0.00     0.035 A 
ATOM     15  C   UNL d   1       2.615  -0.471  -0.036  0.00  0.00     0.002 A 
ATOM     16  C   UNL d   1       2.406   0.903   0.019  0.00  0.00     0.002 A 
ATOM     17  C   UNL d   1       1.115   1.428   0.126  0.00  0.00     0.021 A 
ATOM     18  S   UNL d   1      -1.651   0.864   0.240  0.00  0.00    -0.052 SA
ENDBRANCH   7   9
ENDBRANCH   6   7
TORSDOF 2
