REMARK  3 active torsions:
REMARK  status: ('A' for Active; 'I' for Inactive)
REMARK    1  A    between atoms: N_5  and  C_1 
REMARK       I    between atoms: C_8  and  N_5 
REMARK    2  A    between atoms: O_14  and  C_8 
REMARK    3  A    between atoms: C_17  and  O_14 
ROOT
ATOM      1  C   UNL d   1      -2.080  -1.364  -0.026  0.00  0.00     0.132 A 
ATOM      2  N   UNL d   1      -0.826  -1.625  -0.025  0.00  0.00    -0.339 N 
ATOM      3  HN  UNL d   1      -0.592  -2.618  -0.043  1.00  0.00     0.167 HD
ATOM      4  C   UNL d   1      -2.806  -0.049  -0.000  0.00  0.00     0.104 A 
ATOM      5  N   UNL d   1      -0.844   1.470   0.015  0.00  0.00    -0.362 N 
ATOM      6  C   UNL d   1      -2.162   1.126   0.015  0.00  0.00     0.115 A 
ATOM      7  C   UNL d   1      -4.236  -0.020  -0.002  0.00  0.00     0.104 C 
ATOM      8  C   UNL d   1       0.274  -0.760  -0.002  0.00  0.00     0.060 A 
ATOM      9  N   UNL d   1      -5.394  -0.053   0.004  0.00  0.00    -0.191 NA
ATOM     10  C   UNL d   1       0.292   0.645   0.010  0.00  0.00     0.059 A 
ATOM     11  C   UNL d   1       1.508  -1.443   0.009  0.00  0.00     0.032 A 
ATOM     12  C   UNL d   1       1.547   1.303   0.021  0.00  0.00     0.032 A 
ATOM     13  C   UNL d   1       2.735  -0.781   0.020  0.00  0.00     0.002 A 
ATOM     14  C   UNL d   1       2.755   0.602   0.023  0.00  0.00     0.002 A 
ATOM     15  H   UNL d   1      -0.646   2.467   0.027  0.00  0.00     0.165 HD
ENDROOT
BRANCH   1  16
ATOM     16  N   UNL d   1      -2.951  -2.469  -0.030  0.00  0.00    -0.287 N 
ATOM     17  C   UNL d   1      -2.722  -3.834  -0.036  0.00  0.00     0.366 C 
ATOM     18  O   UNL d   1      -3.634  -4.598   0.268  0.00  0.00    -0.238 OA
ATOM     19  H   UNL d   1      -3.937  -2.323   0.132  0.00  0.00     0.172 HD
BRANCH  17  20
ATOM     20  O   UNL d   1      -1.477  -4.228  -0.395  0.00  0.00    -0.304 OA
BRANCH  20  21
ATOM     21  C   UNL d   1      -1.218  -5.638  -0.308  0.00  0.00     0.176 C 
ATOM     22  C   UNL d   1      -1.710  -6.377  -1.541  0.00  0.00     0.034 C 
ENDBRANCH  20  21
ENDBRANCH  17  20
ENDBRANCH   1  16
TORSDOF 3
