REMARK  7 active torsions:
REMARK  status: ('A' for Active; 'I' for Inactive)
REMARK    1  A    between atoms: C_8  and  C_1 
REMARK    2  A    between atoms: C_3  and  C_2 
REMARK    3  A    between atoms: C_6  and  C_14 
REMARK    4  A    between atoms: N_15  and  C_7 
REMARK    5  A    between atoms: O_29  and  C_8 
REMARK       I    between atoms: C_11  and  N_13 
REMARK    6  A    between atoms: C_16  and  C_11 
REMARK    7  A    between atoms: N_13  and  N_15 
ROOT
ATOM      1  C   UNL d   1      -0.050  -1.457   0.014  0.00  0.00     0.086 A 
ATOM      2  C   UNL d   1       1.151  -0.778   0.063  0.00  0.00     0.136 A 
ATOM      3  N   UNL d   1       1.176   0.597   0.166  0.00  0.00    -0.327 N 
ATOM      4  HN  UNL d   1       2.067   1.091   0.209  1.00  0.00     0.168 HD
ATOM      5  C   UNL d   1       0.025   1.282   0.208  0.00  0.00     0.176 A 
ATOM      6  N   UNL d   1      -1.173   0.689   0.120  0.00  0.00    -0.340 N 
ATOM      7  HN  UNL d   1      -2.038   1.229   0.128  1.00  0.00     0.167 HD
ATOM      8  C   UNL d   1      -1.181  -0.661   0.019  0.00  0.00     0.110 A 
ENDROOT
BRANCH   5   9
ATOM      9  N   UNL d   1       0.123   2.667   0.413  0.00  0.00    -0.172 NA
ATOM     10  H   UNL d   1       1.050   2.979   0.115  0.00  0.00     0.156 HD
BRANCH   9  11
ATOM     11  N   UNL d   1      -0.927   3.427  -0.144  0.00  0.00    -0.280 N 
ATOM     12  C   UNL d   1      -0.601   4.702  -0.580  0.00  0.00     0.266 C 
ATOM     13  O   UNL d   1       0.545   5.130  -0.604  0.00  0.00    -0.266 OA
ATOM     14  H   UNL d   1      -1.859   3.172   0.168  0.00  0.00     0.184 HD
BRANCH  12  15
ATOM     15  C   UNL d   1      -1.734   5.562  -1.028  0.00  0.00     0.033 A 
ATOM     16  C   UNL d   1      -1.621   6.951  -0.894  0.00  0.00     0.018 A 
ATOM     17  C   UNL d   1      -2.632   7.794  -1.373  0.00  0.00     0.017 A 
ATOM     18  C   UNL d   1      -3.764   7.259  -2.005  0.00  0.00     0.048 A 
ATOM     19  C   UNL d   1      -3.870   5.863  -2.135  0.00  0.00     0.017 A 
ATOM     20  C   UNL d   1      -2.864   5.019  -1.648  0.00  0.00     0.018 A 
BRANCH  18  21
ATOM     21  C   UNL d   1      -4.844   8.155  -2.569  0.00  0.00     0.417 C 
ATOM     22  F   UNL d   1      -4.620   9.481  -2.357  0.00  0.00    -0.166 F 
ATOM     23  F   UNL d   1      -4.987   8.011  -3.916  0.00  0.00    -0.166 F 
ATOM     24  F   UNL d   1      -6.068   7.893  -2.033  0.00  0.00    -0.166 F 
ENDBRANCH  18  21
ENDBRANCH  12  15
ENDBRANCH   9  11
ENDBRANCH   5   9
BRANCH   2  25
ATOM     25  C   UNL d   1       2.515  -1.432  -0.046  0.00  0.00     0.433 C 
ATOM     26  F   UNL d   1       2.534  -2.780  -0.231  0.00  0.00    -0.165 F 
ATOM     27  F   UNL d   1       3.228  -0.940  -1.104  0.00  0.00    -0.165 F 
ATOM     28  F   UNL d   1       3.288  -1.201   1.054  0.00  0.00    -0.165 F 
ENDBRANCH   2  25
BRANCH   1  29
ATOM     29  C   UNL d   1      -0.265  -2.908  -0.066  0.00  0.00     0.296 C 
ATOM     30  O   UNL d   1      -1.144  -3.403  -0.752  0.00  0.00    -0.259 OA
BRANCH  29  31
ATOM     31  O   UNL d   1       0.538  -3.558   0.805  0.00  0.00    -0.322 OA
ATOM     32  C   UNL d   1       0.410  -4.986   0.776  0.00  0.00     0.213 C 
ENDBRANCH  29  31
ENDBRANCH   1  29
TORSDOF 7
