REMARK  3 active torsions:
REMARK  status: ('A' for Active; 'I' for Inactive)
REMARK    1  A    between atoms: C_2  and  S_1 
REMARK    2  A    between atoms: N_6  and  S_1 
REMARK    3  A    between atoms: N_12  and  N_6 
ROOT
ATOM      1  C   UNL d   1       0.660   1.482   1.112  0.00  0.00     0.098 A 
ATOM      2  C   UNL d   1       1.085   2.761   0.756  0.00  0.00     0.058 A 
ATOM      3  C   UNL d   1      -0.169   1.306   2.231  0.00  0.00     0.035 A 
ATOM      4  C   UNL d   1       0.674   3.859   1.519  0.00  0.00     0.050 A 
ATOM      5  C   UNL d   1      -0.142   3.684   2.642  0.00  0.00     0.041 A 
ATOM      6  C   UNL d   1      -0.567   2.403   3.018  0.00  0.00    -0.039 A 
ATOM      7 CL   UNL d   1       2.151   3.090  -0.561  0.00  0.00    -0.083 Cl
ATOM      8 CL   UNL d   1      -0.577   5.100   3.528  0.00  0.00    -0.084 Cl
ATOM      9  C   UNL d   1      -1.414   2.122   4.229  0.00  0.00     0.050 C 
ENDROOT
BRANCH   1  10
ATOM     10  S   UNL d   1       1.154   0.055   0.194  0.00  0.00     0.256 S 
ATOM     11  O   UNL d   1       0.908   0.290  -1.215  0.00  0.00    -0.205 OA
ATOM     12  O   UNL d   1       0.630  -1.128   0.845  0.00  0.00    -0.205 OA
BRANCH  10  13
ATOM     13  N   UNL d   1       2.870   0.045   0.436  0.00  0.00    -0.150 NA
ATOM     14  H   UNL d   1       3.279   0.934   0.118  0.00  0.00     0.159 HD
BRANCH  13  15
ATOM     15  N   UNL d   1       3.450  -1.059  -0.251  0.00  0.00    -0.257 NA
ATOM     16  H   UNL d   1       2.990  -1.152  -1.168  0.00  0.00     0.138 HD
ATOM     17  H   UNL d   1       3.191  -1.911   0.260  0.00  0.00     0.138 HD
ENDBRANCH  13  15
ENDBRANCH  10  13
ENDBRANCH   1  10
TORSDOF 3
