REMARK  7 active torsions:
REMARK  status: ('A' for Active; 'I' for Inactive)
REMARK    1  A    between atoms: C_4  and  C_1 
REMARK    2  A    between atoms: N_3  and  C_2 
REMARK    3  A    between atoms: O_10  and  C_4 
REMARK    4  A    between atoms: C_6  and  C_7 
REMARK    5  A    between atoms: C_24  and  O_10 
REMARK    6  A    between atoms: C_15  and  C_14 
REMARK    7  A    between atoms: C_30  and  C_29 
ROOT
ATOM      1  C   UNL d   1      -0.085  -3.303   0.970  0.00  0.00     0.302 C 
ATOM      2  O   UNL d   1       0.083  -3.247   2.186  0.00  0.00    -0.259 OA
ENDROOT
BRANCH   1   3
ATOM      3  C   UNL d   1      -1.395  -2.951   0.351  0.00  0.00     0.090 A 
ATOM      4  C   UNL d   1      -2.187  -1.984   0.996  0.00  0.00     0.121 A 
ATOM      5  C   UNL d   1      -3.514  -1.700   0.623  0.00  0.00     0.053 A 
ATOM      6  C   UNL d   1      -4.066  -2.333  -0.491  0.00  0.00     0.051 A 
ATOM      7  C   UNL d   1      -3.268  -3.252  -1.192  0.00  0.00     0.036 A 
ATOM      8  C   UNL d   1      -1.960  -3.580  -0.769  0.00  0.00     0.030 A 
ATOM      9 BR   UNL d   1      -1.092  -4.900  -1.830  0.00  0.00    -0.050 Br
BRANCH   4  10
ATOM     10  N   UNL d   1      -1.575  -1.043   1.915  0.00  0.00    -0.115 N 
ATOM     11  O   UNL d   1      -0.739  -0.275   1.420  0.00  0.00    -0.532 OA
ATOM     12  O   UNL d   1      -2.025  -0.994   3.064  0.00  0.00    -0.532 OA
ENDBRANCH   4  10
BRANCH   6  13
ATOM     13  C   UNL d   1      -5.455  -1.993  -0.983  0.00  0.00     0.417 C 
ATOM     14  F   UNL d   1      -6.107  -1.107  -0.184  0.00  0.00    -0.166 F 
ATOM     15  F   UNL d   1      -5.431  -1.434  -2.223  0.00  0.00    -0.166 F 
ATOM     16  F   UNL d   1      -6.258  -3.086  -1.074  0.00  0.00    -0.166 F 
ENDBRANCH   6  13
ENDBRANCH   1   3
BRANCH   1  17
ATOM     17  O   UNL d   1       0.853  -3.660   0.025  0.00  0.00    -0.275 OA
BRANCH  17  18
ATOM     18  C   UNL d   1       2.220  -3.908   0.302  0.00  0.00     0.079 A 
ATOM     19  C   UNL d   1       2.882  -4.748  -0.591  0.00  0.00     0.038 A 
ATOM     20  C   UNL d   1       4.276  -4.882  -0.526  0.00  0.00     0.015 A 
ATOM     21  C   UNL d   1       5.041  -4.166   0.415  0.00  0.00    -0.026 A 
ATOM     22  C   UNL d   1       4.328  -3.379   1.343  0.00  0.00     0.015 A 
ATOM     23  C   UNL d   1       2.931  -3.249   1.294  0.00  0.00     0.038 A 
BRANCH  21  24
ATOM     24  C   UNL d   1       6.530  -4.195   0.402  0.00  0.00    -0.026 A 
ATOM     25  C   UNL d   1       7.286  -4.054   1.578  0.00  0.00     0.013 A 
ATOM     26  C   UNL d   1       8.688  -4.037   1.558  0.00  0.00     0.008 A 
ATOM     27  C   UNL d   1       9.389  -4.180   0.358  0.00  0.00    -0.059 A 
ATOM     28  C   UNL d   1       8.658  -4.314  -0.824  0.00  0.00     0.008 A 
ATOM     29  C   UNL d   1       7.254  -4.318  -0.800  0.00  0.00     0.013 A 
BRANCH  27  30
ATOM     30  C   UNL d   1      10.896  -4.189   0.344  0.00  0.00     0.034 C 
ATOM     31  C   UNL d   1      11.495  -2.802   0.150  0.00  0.00     0.010 C 
ENDBRANCH  27  30
ENDBRANCH  21  24
ENDBRANCH  17  18
ENDBRANCH   1  17
TORSDOF 7
