REMARK  1 active torsions:
REMARK  status: ('A' for Active; 'I' for Inactive)
REMARK    1  A    between atoms: N_2  and  C_5 
ROOT
ATOM      1  C   UNL d   1       0.209  -0.715  -0.001  0.00  0.00     0.011 A 
ATOM      2  N   UNL d   1      -1.169   1.087  -0.001  0.00  0.00    -0.299 N 
ATOM      3  HN  UNL d   1      -1.549   2.034  -0.006  1.00  0.00     0.187 HD
ATOM      4  C   UNL d   1       2.517  -0.671   0.014  0.00  0.00     0.103 A 
ATOM      5  C   UNL d   1       0.122   0.725  -0.001  0.00  0.00     0.060 A 
ATOM      6  C   UNL d   1       1.361  -1.493   0.005  0.00  0.00     0.051 A 
ATOM      7  N   UNL d   1      -1.856  -0.074   0.007  0.00  0.00    -0.306 N 
ATOM      8  C   UNL d   1      -1.072  -1.193  -0.000  0.00  0.00     0.123 A 
ATOM      9  C   UNL d   1       2.484   0.769   0.011  0.00  0.00     0.038 A 
ATOM     10  C   UNL d   1       1.282   1.516   0.002  0.00  0.00     0.034 A 
ATOM     11  C   UNL d   1      -3.299  -0.033   0.036  0.00  0.00     0.177 C 
ENDROOT
BRANCH   4  12
ATOM     12  N   UNL d   1       3.833  -1.335   0.031  0.00  0.00    -0.116 N 
ATOM     13  O   UNL d   1       3.854  -2.575   0.035  0.00  0.00    -0.532 OA
ATOM     14  O   UNL d   1       4.843  -0.617   0.040  0.00  0.00    -0.532 OA
ENDBRANCH   4  12
TORSDOF 1
