REMARK  8 active torsions:
REMARK  status: ('A' for Active; 'I' for Inactive)
REMARK    1  A    between atoms: C_15  and  C_1 
REMARK    2  A    between atoms: C_2  and  O_7 
REMARK       I    between atoms: C_3  and  N_9 
REMARK       I    between atoms: N_4  and  C_3 
REMARK    3  A    between atoms: C_13  and  N_4 
REMARK    4  A    between atoms: O_7  and  C_14 
REMARK    5  A    between atoms: N_9  and  C_26 
REMARK    6  A    between atoms: S_18  and  C_15 
REMARK    7  A    between atoms: C_27  and  S_18 
REMARK    8  A    between atoms: C_26  and  C_27 
ROOT
ATOM      1  C   UNL d   1      -3.487   7.916   0.140  0.00  0.00     0.320 C 
ATOM      2  N   UNL d   1      -3.369   9.264   0.411  0.00  0.00    -0.309 N 
ATOM      3  O   UNL d   1      -4.523   7.296  -0.058  0.00  0.00    -0.247 OA
ATOM      4  N   UNL d   1      -2.255   7.287   0.138  0.00  0.00    -0.342 N 
ATOM      5  H   UNL d   1      -2.433   9.619   0.524  0.00  0.00     0.170 HD
ATOM      6  H   UNL d   1      -1.440   7.820   0.394  0.00  0.00     0.164 HD
ENDROOT
BRANCH   4   7
ATOM      7  C   UNL d   1      -2.166   5.839   0.242  0.00  0.00     0.134 C 
BRANCH   7   8
ATOM      8  C   UNL d   1      -2.105   5.102  -1.102  0.00  0.00     0.094 C 
BRANCH   8   9
ATOM      9  S   UNL d   1      -1.985   3.309  -0.746  0.00  0.00    -0.163 SA
BRANCH   9  10
ATOM     10  C   UNL d   1      -1.811   2.648  -2.436  0.00  0.00     0.117 C 
BRANCH  10  11
ATOM     11  C   UNL d   1      -1.833   1.139  -2.420  0.00  0.00     0.011 A 
ATOM     12  C   UNL d   1      -0.628   0.437  -2.275  0.00  0.00     0.125 A 
ATOM     13  F   UNL d   1       0.529   1.111  -2.198  0.00  0.00    -0.205 F 
ATOM     14  C   UNL d   1      -0.585  -0.957  -2.201  0.00  0.00     0.043 A 
ATOM     15  C   UNL d   1      -1.766  -1.687  -2.275  0.00  0.00     0.005 A 
ATOM     16  C   UNL d   1      -2.978  -1.016  -2.421  0.00  0.00     0.024 A 
ATOM     17  C   UNL d   1      -3.015   0.383  -2.490  0.00  0.00     0.044 A 
ATOM     18 CL   UNL d   1      -4.565   1.127  -2.667  0.00  0.00    -0.084 Cl
ENDBRANCH  10  11
ENDBRANCH   9  10
ENDBRANCH   8   9
ENDBRANCH   7   8
ENDBRANCH   4   7
BRANCH   2  19
ATOM     19  C   UNL d   1      -4.410  10.214   0.506  0.00  0.00     0.036 A 
ATOM     20  C   UNL d   1      -5.764   9.899   0.374  0.00  0.00     0.032 A 
ATOM     21  C   UNL d   1      -6.739  10.905   0.400  0.00  0.00     0.039 A 
ATOM     22  C   UNL d   1      -6.367  12.239   0.525  0.00  0.00     0.078 A 
ATOM     23  C   UNL d   1      -5.028  12.555   0.751  0.00  0.00     0.039 A 
ATOM     24  C   UNL d   1      -4.054  11.550   0.735  0.00  0.00     0.032 A 
BRANCH  22  25
ATOM     25  O   UNL d   1      -7.250  13.274   0.533  0.00  0.00    -0.255 OA
BRANCH  25  26
ATOM     26  C   UNL d   1      -8.200  13.311  -0.530  0.00  0.00     0.530 C 
ATOM     27  F   UNL d   1      -8.161  12.244  -1.356  0.00  0.00    -0.144 F 
ATOM     28  F   UNL d   1      -9.443  13.397  -0.004  0.00  0.00    -0.144 F 
ATOM     29  F   UNL d   1      -7.982  14.420  -1.272  0.00  0.00    -0.144 F 
ENDBRANCH  25  26
ENDBRANCH  22  25
ENDBRANCH   2  19
TORSDOF 8
