REMARK  3 active torsions:
REMARK  status: ('A' for Active; 'I' for Inactive)
REMARK    1  A    between atoms: N_3  and  C_1 
REMARK       I    between atoms: C_2  and  N_3 
REMARK       I    between atoms: N_7  and  C_2 
REMARK    2  A    between atoms: C_13  and  N_3 
REMARK    3  A    between atoms: C_12  and  N_7 
ROOT
ATOM      1  C   UNL d   1       4.121  -0.176   0.524  0.00  0.00     0.333 C 
ATOM      2  N   UNL d   1       2.915   0.568   0.273  0.00  0.00    -0.244 N 
ATOM      3  N   UNL d   1       4.066  -1.497   0.096  0.00  0.00    -0.308 N 
ATOM      4  O   UNL d   1       5.117   0.295   1.068  0.00  0.00    -0.246 OA
ATOM      5  H   UNL d   1       3.137  -1.837  -0.115  0.00  0.00     0.170 HD
ENDROOT
BRANCH   2   6
ATOM      6  C   UNL d   1       1.620   0.031   0.105  0.00  0.00     0.152 C 
ATOM      7  N   UNL d   1       0.646   0.640  -0.494  0.00  0.00    -0.369 N 
ATOM      8  C   UNL d   1      -0.591  -0.164  -0.456  0.00  0.00     0.142 C 
ATOM      9  HN  UNL d   1       0.724   1.557  -0.935  1.00  0.00     0.161 HD
ATOM     10  C   UNL d   1      -0.233  -1.648  -0.381  0.00  0.00     0.024 C 
ATOM     11  S   UNL d   1       1.243  -1.588   0.674  0.00  0.00    -0.083 SA
ATOM     12  C   UNL d   1       0.129  -2.213  -1.759  0.00  0.00     0.029 C 
ATOM     13  C   UNL d   1      -1.321  -2.485   0.281  0.00  0.00     0.029 C 
ENDBRANCH   2   6
BRANCH   2  14
ATOM     14  C   UNL d   1       3.033   2.027   0.267  0.00  0.00     0.046 A 
ATOM     15  C   UNL d   1       4.208   2.670  -0.159  0.00  0.00     0.030 A 
ATOM     16  C   UNL d   1       4.306   4.070  -0.184  0.00  0.00     0.002 A 
ATOM     17  C   UNL d   1       3.232   4.858   0.211  0.00  0.00     0.000 A 
ATOM     18  C   UNL d   1       2.061   4.250   0.645  0.00  0.00     0.002 A 
ATOM     19  C   UNL d   1       1.969   2.854   0.680  0.00  0.00     0.030 A 
ENDBRANCH   2  14
BRANCH   3  20
ATOM     20  C   UNL d   1       5.066  -2.487   0.109  0.00  0.00     0.038 A 
ATOM     21  C   UNL d   1       6.418  -2.247   0.352  0.00  0.00     0.055 A 
ATOM     22  C   UNL d   1       7.346  -3.299   0.280  0.00  0.00     0.058 A 
ATOM     23 CL   UNL d   1       9.010  -2.925   0.563  0.00  0.00    -0.082 Cl
ATOM     24  C   UNL d   1       6.920  -4.597  -0.025  0.00  0.00     0.055 A 
ATOM     25  C   UNL d   1       5.566  -4.844  -0.245  0.00  0.00     0.028 A 
ATOM     26 CL   UNL d   1       8.008  -5.931  -0.160  0.00  0.00    -0.083 Cl
ATOM     27  C   UNL d   1       4.647  -3.795  -0.180  0.00  0.00     0.031 A 
ENDBRANCH   3  20
TORSDOF 3
