REMARK  7 active torsions:
REMARK  status: ('A' for Active; 'I' for Inactive)
REMARK    1  A    between atoms: C_14  and  C_1 
REMARK    2  A    between atoms: C_11  and  C_2 
REMARK    3  A    between atoms: N_13  and  C_2 
REMARK    4  A    between atoms: N_3  and  O_12 
REMARK    5  A    between atoms: C_7  and  S_10 
REMARK    6  A    between atoms: S_10  and  C_11 
REMARK    7  A    between atoms: O_12  and  C_14 
ROOT
ATOM      1  C   UNL d   1      -2.799   4.372   0.039  0.00  0.00     0.085 C 
ATOM      2  N   UNL d   1      -1.586   3.931  -0.160  0.00  0.00    -0.259 N 
ATOM      3  HN  UNL d   1      -1.341   2.970  -0.399  1.00  0.00     0.195 HD
ENDROOT
BRANCH   1   4
ATOM      4  C   UNL d   1      -3.959   3.364  -0.039  0.00  0.00     0.152 C 
BRANCH   4   5
ATOM      5  S   UNL d   1      -5.568   4.237   0.012  0.00  0.00    -0.105 SA
BRANCH   5   6
ATOM      6  C   UNL d   1      -6.737   2.893  -0.017  0.00  0.00     0.069 A 
ATOM      7  N   UNL d   1      -6.299   1.626  -0.160  0.00  0.00    -0.361 N 
ATOM      8  C   UNL d   1      -7.243   0.654  -0.200  0.00  0.00     0.089 A 
ATOM      9  HN  UNL d   1      -5.305   1.410  -0.235  1.00  0.00     0.165 HD
ATOM     10  C   UNL d   1      -8.608   0.886  -0.106  0.00  0.00     0.017 A 
ATOM     11  C   UNL d   1      -9.035   2.198   0.044  0.00  0.00     0.004 A 
ATOM     12  C   UNL d   1      -8.086   3.216   0.091  0.00  0.00     0.037 A 
ENDBRANCH   5   6
ENDBRANCH   4   5
ENDBRANCH   1   4
BRANCH   1  13
ATOM     13  N   UNL d   1      -3.061   5.702   0.292  0.00  0.00    -0.290 NA
ATOM     14  H   UNL d   1      -2.295   6.300  -0.006  0.00  0.00     0.125 HD
ATOM     15  H   UNL d   1      -3.977   6.018  -0.008  0.00  0.00     0.125 HD
ENDBRANCH   1  13
BRANCH   2  16
ATOM     16  O   UNL d   1      -0.664   4.990   0.005  0.00  0.00    -0.275 OA
BRANCH  16  17
ATOM     17  C   UNL d   1       0.529   4.714  -0.732  0.00  0.00     0.243 C 
BRANCH  17  18
ATOM     18  C   UNL d   1       1.447   5.914  -0.659  0.00  0.00     0.011 A 
ATOM     19  C   UNL d   1       2.749   5.827  -0.131  0.00  0.00     0.044 A 
ATOM     20 CL   UNL d   1       3.408   4.349   0.484  0.00  0.00    -0.084 Cl
ATOM     21  C   UNL d   1       3.593   6.946  -0.086  0.00  0.00     0.024 A 
ATOM     22  C   UNL d   1       3.159   8.178  -0.565  0.00  0.00     0.003 A 
ATOM     23  C   UNL d   1       1.879   8.289  -1.095  0.00  0.00     0.024 A 
ATOM     24  C   UNL d   1       1.034   7.172  -1.147  0.00  0.00     0.044 A 
ATOM     25 CL   UNL d   1      -0.527   7.421  -1.858  0.00  0.00    -0.084 Cl
ENDBRANCH  17  18
ENDBRANCH  16  17
ENDBRANCH   2  16
TORSDOF 7
