REMARK  4 active torsions:
REMARK  status: ('A' for Active; 'I' for Inactive)
REMARK       I    between atoms: N_2  and  C_1 
REMARK    1  A    between atoms: C_4  and  C_1 
REMARK       I    between atoms: C_3  and  N_2 
REMARK       I    between atoms: N_6  and  C_3 
REMARK    2  A    between atoms: O_7  and  C_5 
REMARK    3  A    between atoms: C_9  and  N_6 
REMARK    4  A    between atoms: C_8  and  O_7 
ROOT
ATOM      1  C   UNL d   1       0.625   0.140   0.014  0.00  0.00     0.262 C 
ATOM      2  N   UNL d   1       0.005  -1.040  -0.363  0.00  0.00    -0.275 N 
ATOM      3  C   UNL d   1      -1.214  -1.149  -0.965  0.00  0.00     0.327 C 
ATOM      4  N   UNL d   1      -1.528  -2.279  -1.657  0.00  0.00    -0.306 N 
ATOM      5  O   UNL d   1       1.823   0.267  -0.217  0.00  0.00    -0.267 OA
ATOM      6  O   UNL d   1      -2.100  -0.296  -0.900  0.00  0.00    -0.247 OA
ATOM      7  H   UNL d   1       0.702  -1.677  -0.728  0.00  0.00     0.173 HD
ATOM      8  H   UNL d   1      -2.458  -2.163  -2.046  0.00  0.00     0.171 HD
ENDROOT
BRANCH   1   9
ATOM      9  C   UNL d   1      -0.148   1.212   0.710  0.00  0.00     0.066 A 
ATOM     10  C   UNL d   1       0.205   2.570   0.584  0.00  0.00     0.091 A 
ATOM     11  C   UNL d   1      -0.499   3.531   1.331  0.00  0.00     0.038 A 
ATOM     12  C   UNL d   1      -1.591   3.167   2.118  0.00  0.00     0.003 A 
ATOM     13  C   UNL d   1      -1.950   1.828   2.226  0.00  0.00     0.001 A 
ATOM     14  C   UNL d   1      -1.206   0.854   1.559  0.00  0.00     0.020 A 
BRANCH  10  15
ATOM     15  O   UNL d   1       1.256   2.910  -0.251  0.00  0.00    -0.308 OA
BRANCH  15  16
ATOM     16  C   UNL d   1       1.314   4.186  -0.766  0.00  0.00     0.098 A 
ATOM     17  C   UNL d   1       2.493   4.929  -0.629  0.00  0.00     0.069 A 
ATOM     18  C   UNL d   1       2.559   6.239  -1.113  0.00  0.00     0.050 A 
ATOM     19 CL   UNL d   1       3.884   4.278   0.158  0.00  0.00    -0.081 Cl
ATOM     20  C   UNL d   1       1.447   6.795  -1.744  0.00  0.00     0.035 A 
ATOM     21  C   UNL d   1       0.286   6.046  -1.927  0.00  0.00     0.026 A 
ATOM     22 CL   UNL d   1       1.506   8.423  -2.299  0.00  0.00    -0.084 Cl
ATOM     23  C   UNL d   1       0.226   4.732  -1.460  0.00  0.00     0.041 A 
ENDBRANCH  15  16
ENDBRANCH  10  15
ENDBRANCH   1   9
BRANCH   4  24
ATOM     24  C   UNL d   1      -0.825  -3.421  -2.088  0.00  0.00     0.075 A 
ATOM     25  C   UNL d   1       0.405  -3.884  -1.606  0.00  0.00     0.146 A 
ATOM     26  C   UNL d   1       1.061  -4.959  -2.199  0.00  0.00     0.086 A 
ATOM     27  F   UNL d   1       0.992  -3.316  -0.545  0.00  0.00    -0.204 F 
ATOM     28  C   UNL d   1       0.478  -5.594  -3.285  0.00  0.00     0.119 A 
ATOM     29  C   UNL d   1      -0.767  -5.200  -3.754  0.00  0.00     0.044 A 
ATOM     30  F   UNL d   1       1.123  -6.598  -3.891  0.00  0.00    -0.206 F 
ATOM     31  C   UNL d   1      -1.425  -4.129  -3.144  0.00  0.00     0.036 A 
ENDBRANCH   4  24
TORSDOF 4
