REMARK  7 active torsions:
REMARK  status: ('A' for Active; 'I' for Inactive)
REMARK    1  A    between atoms: C_4  and  C_1 
REMARK    2  A    between atoms: C_5  and  CA_2 
REMARK    3  A    between atoms: C_3  and  C_7 
REMARK       I    between atoms: N_8  and  C_4 
REMARK    4  A    between atoms: OXT_17  and  C_5 
REMARK    5  A    between atoms: O_13  and  C_6 
REMARK    6  A    between atoms: C_7  and  N_8 
REMARK    7  A    between atoms: C_18  and  O_13 
ROOT
ATOM      1  C   UNL d   1      -1.366  -2.313   0.479  0.00  0.00     0.271 C 
ATOM      2  N   UNL d   1      -1.115  -3.598  -0.025  0.00  0.00    -0.351 N 
ATOM      3  O   UNL d   1      -0.432  -1.591   0.821  0.00  0.00    -0.266 OA
ATOM      4  H   UNL d   1      -1.864  -4.142  -0.428  0.00  0.00     0.163 HD
ENDROOT
BRANCH   2   5
ATOM      5  C   UNL d   1       0.246  -3.985  -0.433  0.00  0.00     0.166 C 
BRANCH   5   6
ATOM      6  C   UNL d   1       0.741  -5.404  -0.156  0.00  0.00     0.015 A 
ATOM      7  C   UNL d   1       2.151  -5.664  -0.198  0.00  0.00     0.085 A 
ATOM      8  C   UNL d   1       2.654  -6.980  -0.146  0.00  0.00     0.038 A 
ATOM      9  C   UNL d   1       1.806  -8.056   0.058  0.00  0.00     0.004 A 
ATOM     10  C   UNL d   1       0.443  -7.825   0.152  0.00  0.00     0.024 A 
ATOM     11  C   UNL d   1      -0.092  -6.528   0.019  0.00  0.00     0.044 A 
ATOM     12 CL   UNL d   1      -1.822  -6.440   0.042  0.00  0.00    -0.084 Cl
BRANCH   7  13
ATOM     13  O   UNL d   1       3.033  -4.595  -0.358  0.00  0.00    -0.310 OA
BRANCH  13  14
ATOM     14  C   UNL d   1       4.308  -4.711   0.180  0.00  0.00     0.076 A 
ATOM     15  C   UNL d   1       5.395  -4.349  -0.621  0.00  0.00     0.037 A 
ATOM     16  C   UNL d   1       6.702  -4.483  -0.137  0.00  0.00     0.003 A 
ATOM     17  C   UNL d   1       6.926  -4.974   1.152  0.00  0.00     0.000 A 
ATOM     18  C   UNL d   1       5.843  -5.305   1.964  0.00  0.00     0.003 A 
ATOM     19  C   UNL d   1       4.537  -5.153   1.489  0.00  0.00     0.037 A 
ENDBRANCH  13  14
ENDBRANCH   7  13
ENDBRANCH   5   6
ENDBRANCH   2   5
BRANCH   1  20
ATOM     20  C   UNL d   1      -2.773  -1.787   0.688  0.00  0.00     0.134 A 
ATOM     21  CA  UNL d   1      -3.899  -2.006  -0.096  0.00  0.00     0.139 A 
ATOM     22  N   UNL d   1      -5.117  -1.410   0.170  0.00  0.00    -0.357 N 
ATOM     23  C   UNL d   1      -5.153  -0.528   1.184  0.00  0.00     0.105 A 
ATOM     24  HN  UNL d   1      -5.949  -1.629  -0.377  1.00  0.00     0.165 HD
ATOM     25  C   UNL d   1      -4.036  -0.263   1.942  0.00  0.00     0.105 A 
ATOM     26  N   UNL d   1      -2.856  -0.898   1.736  0.00  0.00    -0.358 N 
ATOM     27  HN  UNL d   1      -2.053  -0.723   2.340  1.00  0.00     0.165 HD
BRANCH  21  28
ATOM     28  C   UNL d   1      -3.858  -2.682  -1.410  0.00  0.00     0.196 C 
ATOM     29  O   UNL d   1      -2.872  -2.862  -2.104  0.00  0.00    -0.645 OA
BRANCH  28  30
ATOM     30  OXT UNL d   1      -5.093  -3.003  -1.852  0.00  0.00    -0.772 OA
ATOM     31  HXT UNL d   1      -5.014  -3.168  -2.812  0.00  0.00     0.167 HD
ENDBRANCH  28  30
ENDBRANCH  21  28
ENDBRANCH   1  20
TORSDOF 7
