REMARK  5 active torsions:
REMARK  status: ('A' for Active; 'I' for Inactive)
REMARK       I    between atoms: C_2  and  N_1 
REMARK       I    between atoms: C_3  and  N_1 
REMARK    1  A    between atoms: C_7  and  C_2 
REMARK       I    between atoms: N_13  and  C_3 
REMARK    2  A    between atoms: C_4  and  C_8 
REMARK    3  A    between atoms: C_5  and  C_9 
REMARK    4  A    between atoms: C_6  and  C_10 
REMARK    5  A    between atoms: C_12  and  N_13 
ROOT
ATOM      1  N   UNL d   1       1.129   0.193   0.172  0.00  0.00    -0.275 N 
ATOM      2  C   UNL d   1       0.310  -0.916   0.270  0.00  0.00     0.260 C 
ATOM      3  C   UNL d   1       2.457   0.306   0.515  0.00  0.00     0.327 C 
ATOM      4  N   UNL d   1       3.126  -0.874   0.711  0.00  0.00    -0.309 N 
ATOM      5  O   UNL d   1       0.691  -2.065   0.447  0.00  0.00    -0.267 OA
ATOM      6  O   UNL d   1       2.932   1.434   0.616  0.00  0.00    -0.247 OA
ATOM      7  H   UNL d   1       0.704   1.105   0.069  0.00  0.00     0.173 HD
ATOM      8  H   UNL d   1       2.665  -1.703   0.353  0.00  0.00     0.170 HD
ENDROOT
BRANCH   4   9
ATOM      9  C   UNL d   1       4.421  -1.013   1.241  0.00  0.00     0.037 A 
ATOM     10  C   UNL d   1       4.998  -0.052   2.075  0.00  0.00     0.045 A 
ATOM     11  C   UNL d   1       6.265  -0.255   2.646  0.00  0.00     0.050 A 
ATOM     12  C   UNL d   1       6.979  -1.416   2.317  0.00  0.00     0.032 A 
ATOM     13  C   UNL d   1       6.426  -2.385   1.464  0.00  0.00     0.050 A 
ATOM     14  C   UNL d   1       5.128  -2.185   0.959  0.00  0.00     0.045 A 
BRANCH  11  15
ATOM     15  C   UNL d   1       6.809   0.758   3.624  0.00  0.00     0.417 C 
ATOM     16  F   UNL d   1       8.021   0.410   4.143  0.00  0.00    -0.166 F 
ATOM     17  F   UNL d   1       6.981   1.990   3.072  0.00  0.00    -0.166 F 
ATOM     18  F   UNL d   1       5.987   0.936   4.696  0.00  0.00    -0.166 F 
ENDBRANCH  11  15
BRANCH  13  19
ATOM     19  C   UNL d   1       7.204  -3.616   1.073  0.00  0.00     0.417 C 
ATOM     20  F   UNL d   1       8.419  -3.709   1.681  0.00  0.00    -0.166 F 
ATOM     21  F   UNL d   1       6.546  -4.769   1.375  0.00  0.00    -0.166 F 
ATOM     22  F   UNL d   1       7.454  -3.667  -0.265  0.00  0.00    -0.166 F 
ENDBRANCH  13  19
ENDBRANCH   4   9
BRANCH   2  23
ATOM     23  C   UNL d   1      -1.133  -0.649   0.046  0.00  0.00     0.047 A 
ATOM     24  C   UNL d   1      -2.122  -1.145   0.914  0.00  0.00     0.063 A 
ATOM     25  C   UNL d   1      -3.474  -0.955   0.563  0.00  0.00     0.017 A 
ATOM     26  C   UNL d   1      -3.829  -0.262  -0.594  0.00  0.00     0.001 A 
ATOM     27  C   UNL d   1      -2.842   0.258  -1.426  0.00  0.00     0.001 A 
ATOM     28  C   UNL d   1      -1.498   0.059  -1.112  0.00  0.00     0.018 A 
BRANCH  24  29
ATOM     29  C   UNL d   1      -1.810  -1.863   2.203  0.00  0.00     0.418 C 
ATOM     30  F   UNL d   1      -0.592  -1.585   2.735  0.00  0.00    -0.166 F 
ATOM     31  F   UNL d   1      -2.700  -1.524   3.188  0.00  0.00    -0.166 F 
ATOM     32  F   UNL d   1      -1.900  -3.215   2.091  0.00  0.00    -0.166 F 
ENDBRANCH  24  29
ENDBRANCH   2  23
TORSDOF 5
