REMARK  2 active torsions:
REMARK  status: ('A' for Active; 'I' for Inactive)
REMARK    1  A    between atoms: N_2  and  C_1 
REMARK    2  A    between atoms: C_10  and  C_5 
ROOT
ATOM      1  C   UNL d   1       3.805  -1.094   0.703  0.00  0.00     0.125 C 
ATOM      2  N   UNL d   1       4.175   1.125   1.972  0.00  0.00    -0.191 NA
ATOM      3  N   UNL d   1       5.746  -2.793   0.598  0.00  0.00    -0.191 NA
ATOM      4  C   UNL d   1       2.634  -1.406   0.107  0.00  0.00     0.046 C 
ATOM      5  C   UNL d   1       4.019   0.122   1.409  0.00  0.00     0.111 C 
ATOM      6  C   UNL d   1       4.879  -2.026   0.654  0.00  0.00     0.111 C 
ENDROOT
BRANCH   4   7
ATOM      7  C   UNL d   1       1.440  -0.609   0.028  0.00  0.00    -0.025 A 
ATOM      8  C   UNL d   1       1.366   0.817  -0.054  0.00  0.00     0.055 A 
ATOM      9  C   UNL d   1       0.063   1.266  -0.066  0.00  0.00     0.144 A 
ATOM     10  S   UNL d   1      -1.066  -0.000  -0.062  0.00  0.00    -0.077 SA
ATOM     11  C   UNL d   1       0.182  -1.179  -0.013  0.00  0.00     0.063 A 
BRANCH   9  12
ATOM     12  N   UNL d   1      -0.360   2.642  -0.085  0.00  0.00    -0.108 N 
ATOM     13  O   UNL d   1       0.541   3.491  -0.103  0.00  0.00    -0.531 OA
ATOM     14  O   UNL d   1      -1.575   2.882  -0.082  0.00  0.00    -0.531 OA
ENDBRANCH   9  12
ENDBRANCH   4   7
TORSDOF 2
