REMARK  6 active torsions:
REMARK  status: ('A' for Active; 'I' for Inactive)
REMARK    1  A    between atoms: C_3  and  C_1 
REMARK    2  A    between atoms: C_2  and  N_11 
REMARK    3  A    between atoms: N_8  and  C_2 
REMARK    4  A    between atoms: C_5  and  C_4 
REMARK       I    between atoms: N_9  and  C_5 
REMARK    5  A    between atoms: C_12  and  N_8 
REMARK    6  A    between atoms: N_11  and  N_9 
ROOT
ATOM      1  C   UNL d   1      -2.921   2.192   1.653  0.00  0.00     0.271 C 
ATOM      2  N   UNL d   1      -3.061   2.756   2.917  0.00  0.00    -0.264 N 
ATOM      3  O   UNL d   1      -3.344   1.090   1.351  0.00  0.00    -0.266 OA
ATOM      4  H   UNL d   1      -2.775   3.703   3.133  0.00  0.00     0.190 HD
ENDROOT
BRANCH   1   5
ATOM      5  C   UNL d   1      -2.224   3.021   0.636  0.00  0.00     0.047 A 
ATOM      6  C   UNL d   1      -1.326   2.445  -0.278  0.00  0.00     0.023 A 
ATOM      7  C   UNL d   1      -0.904   3.201  -1.386  0.00  0.00     0.016 A 
ATOM      8  C   UNL d   1      -1.327   4.521  -1.555  0.00  0.00     0.001 A 
ATOM      9  C   UNL d   1      -2.161   5.109  -0.609  0.00  0.00     0.001 A 
ATOM     10  C   UNL d   1      -2.620   4.361   0.478  0.00  0.00     0.018 A 
BRANCH   6  11
ATOM     11  C   UNL d   1      -0.710   1.082  -0.115  0.00  0.00     0.108 C 
ATOM     12  N   UNL d   1      -0.501   0.403  -1.198  0.00  0.00    -0.376 N 
ATOM     13  C   UNL d   1       0.090  -0.933  -1.084  0.00  0.00     0.123 C 
ATOM     14  HN  UNL d   1      -0.741   0.791  -2.110  1.00  0.00     0.161 HD
ATOM     15  C   UNL d   1       0.948  -1.105   0.155  0.00  0.00     0.039 C 
ATOM     16  C   UNL d   1       0.131  -0.685   1.357  0.00  0.00     0.123 C 
ATOM     17  N   UNL d   1      -0.329   0.667   1.142  0.00  0.00    -0.376 N 
ATOM     18  H   UNL d   1      -0.840   1.029   1.940  0.00  0.00     0.161 HD
ENDBRANCH   6  11
ENDBRANCH   1   5
BRANCH   2  19
ATOM     19  N   UNL d   1      -3.837   2.080   3.871  0.00  0.00    -0.273 N 
ATOM     20  H   UNL d   1      -4.764   2.447   4.052  0.00  0.00     0.189 HD
BRANCH  19  21
ATOM     21  C   UNL d   1      -3.457   0.898   4.466  0.00  0.00     0.191 C 
ATOM     22  S   UNL d   1      -1.887   0.321   4.570  0.00  0.00    -0.039 SA
BRANCH  21  23
ATOM     23  N   UNL d   1      -4.446   0.212   5.125  0.00  0.00    -0.331 N 
ATOM     24  H   UNL d   1      -4.110  -0.454   5.816  0.00  0.00     0.168 HD
BRANCH  23  25
ATOM     25  C   UNL d   1      -5.846   0.198   4.910  0.00  0.00     0.056 A 
ATOM     26  C   UNL d   1      -6.692  -0.280   5.926  0.00  0.00     0.060 A 
ATOM     27 CL   UNL d   1      -6.061  -0.765   7.462  0.00  0.00    -0.082 Cl
ATOM     28  C   UNL d   1      -8.076  -0.342   5.734  0.00  0.00     0.026 A 
ATOM     29  C   UNL d   1      -8.628   0.051   4.516  0.00  0.00     0.002 A 
ATOM     30  C   UNL d   1      -7.798   0.499   3.492  0.00  0.00     0.002 A 
ATOM     31  C   UNL d   1      -6.414   0.567   3.684  0.00  0.00     0.031 A 
ENDBRANCH  23  25
ENDBRANCH  21  23
ENDBRANCH  19  21
ENDBRANCH   2  19
TORSDOF 6
