REMARK  7 active torsions:
REMARK  status: ('A' for Active; 'I' for Inactive)
REMARK    1  A    between atoms: O_3  and  C_1 
REMARK    2  A    between atoms: C_6  and  C_1 
REMARK    3  A    between atoms: S_4  and  C_6 
REMARK    4  A    between atoms: C_8  and  S_4 
REMARK    5  A    between atoms: C_5  and  O_7 
REMARK    6  A    between atoms: O_7  and  C_9 
REMARK    7  A    between atoms: C_9  and  C_8 
ROOT
ATOM      1  C   UNL d   1       5.482  -1.646   2.729  0.00  0.00     0.186 C 
ENDROOT
BRANCH   1   2
ATOM      2  O   UNL d   1       6.903  -1.527   2.748  0.00  0.00    -0.350 OA
BRANCH   2   3
ATOM      3  C   UNL d   1       7.574  -2.212   3.722  0.00  0.00     0.068 A 
ATOM      4  C   UNL d   1       6.993  -2.955   4.751  0.00  0.00     0.037 A 
ATOM      5  C   UNL d   1       7.802  -3.617   5.680  0.00  0.00     0.003 A 
ATOM      6  C   UNL d   1       9.191  -3.536   5.587  0.00  0.00     0.000 A 
ATOM      7  C   UNL d   1       9.774  -2.790   4.565  0.00  0.00     0.003 A 
ATOM      8  C   UNL d   1       8.965  -2.131   3.637  0.00  0.00     0.037 A 
ENDBRANCH   2   3
ENDBRANCH   1   2
BRANCH   1   9
ATOM      9  C   UNL d   1       4.934  -0.955   1.480  0.00  0.00     0.101 C 
BRANCH   9  10
ATOM     10  S   UNL d   1       5.527  -1.638  -0.125  0.00  0.00    -0.157 SA
BRANCH  10  11
ATOM     11  C   UNL d   1       4.979  -3.377   0.018  0.00  0.00     0.183 C 
BRANCH  11  12
ATOM     12  C   UNL d   1       3.472  -3.492   0.092  0.00  0.00     0.149 C 
ATOM     13  O   UNL d   1       2.889  -4.378   0.699  0.00  0.00    -0.649 OA
BRANCH  12  14
ATOM     14  O   UNL d   1       2.810  -2.546  -0.617  0.00  0.00    -0.776 OA
ATOM     15  H   UNL d   1       3.439  -1.906  -1.017  0.00  0.00     0.167 HD
ENDBRANCH  12  14
ENDBRANCH  11  12
ENDBRANCH  10  11
ENDBRANCH   9  10
ENDBRANCH   1   9
TORSDOF 7
