REMARK  6 active torsions:
REMARK  status: ('A' for Active; 'I' for Inactive)
REMARK    1  A    between atoms: C_6  and  C_1 
REMARK    2  A    between atoms: C_2  and  C_4 
REMARK    3  A    between atoms: C_4  and  C_3 
REMARK    4  A    between atoms: N_11  and  C_5 
REMARK    5  A    between atoms: O_20  and  C_6 
REMARK    6  A    between atoms: C_8  and  N_11 
ROOT
ATOM      1  C   UNL d   1       3.651   4.137  -0.260  0.00  0.00     0.110 C 
ATOM      2  C   UNL d   1       2.587   3.325  -0.095  0.00  0.00     0.115 C 
ATOM      3  C   UNL d   1       3.497   5.537  -0.449  0.00  0.00     0.105 C 
ATOM      4  N   UNL d   1       3.348   6.677  -0.585  0.00  0.00    -0.191 NA
ENDROOT
BRANCH   1   5
ATOM      5  C   UNL d   1       4.984   3.450  -0.290  0.00  0.00     0.206 C 
ATOM      6  O   UNL d   1       5.071   2.241  -0.498  0.00  0.00    -0.286 OA
BRANCH   5   7
ATOM      7  C   UNL d   1       6.168   4.265  -0.052  0.00  0.00     0.047 A 
ATOM      8  C   UNL d   1       7.447   3.961  -0.504  0.00  0.00     0.063 A 
ATOM      9  O   UNL d   1       8.334   4.912  -0.096  0.00  0.00    -0.326 OA
ATOM     10  C   UNL d   1       8.035   2.893  -1.349  0.00  0.00     0.077 C 
ATOM     11  C   UNL d   1       7.641   5.835   0.607  0.00  0.00     0.143 A 
ATOM     12  C   UNL d   1       6.318   5.480   0.684  0.00  0.00     0.042 A 
ENDBRANCH   5   7
ENDBRANCH   1   5
BRANCH   2  13
ATOM     13  N   UNL d   1       1.235   3.578  -0.023  0.00  0.00    -0.363 N 
ATOM     14  H   UNL d   1       1.011   4.568  -0.152  0.00  0.00     0.165 HD
BRANCH  13  15
ATOM     15  C   UNL d   1       0.166   2.731   0.126  0.00  0.00     0.055 A 
ATOM     16  C   UNL d   1       0.078   1.347   0.301  0.00  0.00     0.106 A 
ATOM     17  S   UNL d   1      -1.588   0.846   0.356  0.00  0.00    -0.094 SA
ATOM     18  C   UNL d   1      -2.168   2.428   0.183  0.00  0.00     0.053 A 
ATOM     19  C   UNL d   1      -1.142   3.331   0.067  0.00  0.00     0.038 A 
BRANCH  16  20
ATOM     20  C   UNL d   1       1.019   0.240   0.440  0.00  0.00     0.302 C 
ATOM     21  O   UNL d   1       0.828  -0.914   0.066  0.00  0.00    -0.259 OA
BRANCH  20  22
ATOM     22  O   UNL d   1       2.137   0.617   1.124  0.00  0.00    -0.322 OA
ATOM     23  C   UNL d   1       3.140  -0.395   1.268  0.00  0.00     0.213 C 
ENDBRANCH  20  22
ENDBRANCH  16  20
ENDBRANCH  13  15
ENDBRANCH   2  13
TORSDOF 6
