REMARK  4 active torsions:
REMARK  status: ('A' for Active; 'I' for Inactive)
REMARK    1  A    between atoms: C_6  and  C_1 
REMARK    2  A    between atoms: C_13  and  C_4 
REMARK       I    between atoms: N_9  and  C_6 
REMARK    3  A    between atoms: C_12  and  N_9 
REMARK    4  A    between atoms: C_10  and  C_12 
ROOT
ATOM      1  C   UNL d   1      -0.087  -1.280   0.010  0.00  0.00     0.092 A 
ATOM      2  N   UNL d   1      -1.159   0.705   0.308  0.00  0.00    -0.259 N 
ATOM      3  HN  UNL d   1      -1.882   1.409   0.462  1.00  0.00     0.195 HD
ATOM      4  C   UNL d   1      -1.348  -0.626   0.215  0.00  0.00     0.083 A 
ATOM      5  O   UNL d   1       0.180   0.937   0.158  0.00  0.00    -0.241 OA
ATOM      6  C   UNL d   1       0.823  -0.237  -0.020  0.00  0.00     0.090 A 
ATOM      7  C   UNL d   1       2.290  -0.155  -0.163  0.00  0.00     0.080 C 
ENDROOT
BRANCH   1   8
ATOM      8  C   UNL d   1       0.328  -2.659  -0.158  0.00  0.00     0.256 C 
ATOM      9  N   UNL d   1      -0.324  -3.599   0.606  0.00  0.00    -0.352 N 
ATOM     10  H   UNL d   1      -1.124  -3.338   1.167  0.00  0.00     0.163 HD
ATOM     11  O   UNL d   1       1.252  -2.960  -0.904  0.00  0.00    -0.267 OA
BRANCH   9  12
ATOM     12  C   UNL d   1      -0.007  -5.003   0.451  0.00  0.00     0.164 C 
BRANCH  12  13
ATOM     13  C   UNL d   1      -0.297  -5.793   1.694  0.00  0.00    -0.002 A 
ATOM     14  C   UNL d   1      -1.617  -6.080   2.056  0.00  0.00     0.127 A 
ATOM     15  C   UNL d   1      -1.914  -6.815   3.196  0.00  0.00     0.085 A 
ATOM     16  F   UNL d   1      -2.624  -5.635   1.291  0.00  0.00    -0.205 F 
ATOM     17  C   UNL d   1      -0.871  -7.274   3.988  0.00  0.00     0.119 A 
ATOM     18  C   UNL d   1       0.454  -7.007   3.657  0.00  0.00     0.043 A 
ATOM     19  F   UNL d   1      -1.143  -7.987   5.088  0.00  0.00    -0.206 F 
ATOM     20  C   UNL d   1       0.744  -6.263   2.511  0.00  0.00     0.015 A 
ENDBRANCH  12  13
ENDBRANCH   9  12
ENDBRANCH   1   8
BRANCH   4  21
ATOM     21  C   UNL d   1      -2.722  -1.137   0.310  0.00  0.00    -0.006 A 
ATOM     22  C   UNL d   1      -3.146  -2.298  -0.347  0.00  0.00     0.014 A 
ATOM     23  C   UNL d   1      -4.480  -2.722  -0.254  0.00  0.00     0.001 A 
ATOM     24  C   UNL d   1      -5.409  -1.980   0.474  0.00  0.00     0.000 A 
ATOM     25  C   UNL d   1      -5.009  -0.814   1.117  0.00  0.00     0.001 A 
ATOM     26  C   UNL d   1      -3.678  -0.401   1.039  0.00  0.00     0.014 A 
ENDBRANCH   4  21
TORSDOF 4
