REMARK  4 active torsions:
REMARK  status: ('A' for Active; 'I' for Inactive)
REMARK    1  A    between atoms: O_2  and  S_1 
REMARK    2  A    between atoms: C_5  and  S_1 
REMARK    3  A    between atoms: N_3  and  O_2 
REMARK    4  A    between atoms: C_6  and  C_11 
ROOT
ATOM      1  N   UNL d   1       0.892  -1.549  -2.251  0.00  0.00    -0.253 N 
ATOM      2  HN  UNL d   1       1.107  -0.785  -2.892  1.00  0.00     0.195 HD
ATOM      3  C   UNL d   1       0.925  -2.810  -2.573  0.00  0.00     0.040 C 
ATOM      4  C   UNL d   1       0.610  -3.915  -1.584  0.00  0.00     0.071 C 
ENDROOT
BRANCH   1   5
ATOM      5  O   UNL d   1       0.521  -1.374  -0.896  0.00  0.00    -0.147 OA
BRANCH   5   6
ATOM      6  S   UNL d   1       1.090  -0.006  -0.171  0.00  0.00     0.318 S 
ATOM      7  O   UNL d   1       2.311   0.436  -0.824  0.00  0.00    -0.191 OA
ATOM      8  O   UNL d   1       1.081  -0.235   1.263  0.00  0.00    -0.191 OA
BRANCH   6   9
ATOM      9  C   UNL d   1      -0.166   1.215  -0.505  0.00  0.00     0.088 A 
ATOM     10  C   UNL d   1      -1.188   1.427   0.425  0.00  0.00     0.026 A 
ATOM     11  C   UNL d   1      -2.135   2.426   0.193  0.00  0.00     0.008 A 
ATOM     12  C   UNL d   1      -2.062   3.221  -0.959  0.00  0.00    -0.062 A 
ATOM     13  C   UNL d   1      -1.024   3.006  -1.877  0.00  0.00     0.008 A 
ATOM     14  C   UNL d   1      -3.084   4.297  -1.188  0.00  0.00     0.048 C 
ATOM     15  C   UNL d   1      -0.074   2.008  -1.652  0.00  0.00     0.026 A 
ENDBRANCH   6   9
ENDBRANCH   5   6
ENDBRANCH   1   5
BRANCH   3  16
ATOM     16  C   UNL d   1       1.337  -3.177  -3.964  0.00  0.00    -0.009 A 
ATOM     17  C   UNL d   1       2.196  -2.310  -4.656  0.00  0.00     0.059 A 
ATOM     18  C   UNL d   1       2.598  -2.624  -5.950  0.00  0.00     0.155 A 
ATOM     19  F   UNL d   1       3.423  -1.793  -6.602  0.00  0.00    -0.203 F 
ATOM     20  C   UNL d   1       2.152  -3.787  -6.565  0.00  0.00     0.154 A 
ATOM     21  C   UNL d   1       1.293  -4.651  -5.894  0.00  0.00     0.046 A 
ATOM     22  F   UNL d   1       2.542  -4.085  -7.812  0.00  0.00    -0.203 F 
ATOM     23  C   UNL d   1       0.881  -4.345  -4.592  0.00  0.00     0.017 A 
ENDBRANCH   3  16
TORSDOF 4
