REMARK  5 active torsions:
REMARK  status: ('A' for Active; 'I' for Inactive)
REMARK    1  A    between atoms: C_3  and  C_1 
REMARK    2  A    between atoms: C_4  and  CA_2 
REMARK       I    between atoms: N_5  and  C_3 
REMARK    3  A    between atoms: OXT_17  and  C_4 
REMARK    4  A    between atoms: C_15  and  N_5 
REMARK       I    between atoms: C_10  and  N_11 
REMARK    5  A    between atoms: N_11  and  C_16 
ROOT
ATOM      1  C   UNL d   1      -1.719  -2.717   0.850  0.00  0.00     0.275 C 
ATOM      2  N   UNL d   1      -0.947  -3.698   0.247  0.00  0.00    -0.322 N 
ATOM      3  O   UNL d   1      -1.431  -2.044   1.829  0.00  0.00    -0.266 OA
ATOM      4  H   UNL d   1      -1.408  -4.230  -0.484  0.00  0.00     0.169 HD
ENDROOT
BRANCH   1   5
ATOM      5  C   UNL d   1      -3.066  -2.566   0.238  0.00  0.00     0.134 A 
ATOM      6  CA  UNL d   1      -3.754  -1.363   0.213  0.00  0.00     0.139 A 
ATOM      7  N   UNL d   1      -5.083  -1.285  -0.141  0.00  0.00    -0.357 N 
ATOM      8  C   UNL d   1      -5.650  -2.456  -0.521  0.00  0.00     0.105 A 
ATOM      9  HN  UNL d   1      -5.604  -0.408  -0.119  1.00  0.00     0.165 HD
ATOM     10  C   UNL d   1      -4.940  -3.644  -0.570  0.00  0.00     0.105 A 
ATOM     11  N   UNL d   1      -3.642  -3.734  -0.196  0.00  0.00    -0.358 N 
ATOM     12  HN  UNL d   1      -3.125  -4.613  -0.236  1.00  0.00     0.165 HD
BRANCH   6  13
ATOM     13  C   UNL d   1      -3.106  -0.036   0.402  0.00  0.00     0.196 C 
ATOM     14  O   UNL d   1      -1.919   0.208   0.303  0.00  0.00    -0.645 OA
BRANCH  13  15
ATOM     15  OXT UNL d   1      -4.056   0.924   0.570  0.00  0.00    -0.772 OA
ATOM     16  HXT UNL d   1      -4.952   0.527   0.464  0.00  0.00     0.167 HD
ENDBRANCH  13  15
ENDBRANCH   6  13
ENDBRANCH   1   5
BRANCH   2  17
ATOM     17  C   UNL d   1       0.422  -3.952   0.458  0.00  0.00     0.035 A 
ATOM     18  C   UNL d   1       1.195  -3.298   1.415  0.00  0.00     0.032 A 
ATOM     19  C   UNL d   1       2.583  -3.486   1.455  0.00  0.00     0.032 A 
ATOM     20  C   UNL d   1       3.220  -4.319   0.530  0.00  0.00     0.034 A 
ATOM     21  C   UNL d   1       2.435  -5.043  -0.366  0.00  0.00     0.032 A 
ATOM     22  C   UNL d   1       1.046  -4.865  -0.397  0.00  0.00     0.032 A 
BRANCH  20  23
ATOM     23  N   UNL d   1       4.631  -4.316   0.526  0.00  0.00    -0.328 N 
ATOM     24  C   UNL d   1       5.463  -4.921  -0.397  0.00  0.00     0.218 C 
ATOM     25  O   UNL d   1       5.132  -5.689  -1.294  0.00  0.00    -0.274 OA
ATOM     26  C   UNL d   1       6.910  -4.517  -0.244  0.00  0.00     0.117 C 
ATOM     27  H   UNL d   1       5.066  -3.712   1.211  0.00  0.00     0.169 HD
ENDBRANCH  20  23
ENDBRANCH   2  17
TORSDOF 5
