REMARK  5 active torsions:
REMARK  status: ('A' for Active; 'I' for Inactive)
REMARK    1  A    between atoms: C_2  and  S_1 
REMARK    2  A    between atoms: N_4  and  S_1 
REMARK    3  A    between atoms: C_10  and  N_4 
REMARK    4  A    between atoms: C_8  and  C_5 
REMARK    5  A    between atoms: C_25  and  C_15 
ROOT
ATOM      1  C   UNL d   1       0.328  -3.524  -3.375  0.00  0.00     0.058 A 
ATOM      2  C   UNL d   1       0.818  -2.107  -1.640  0.00  0.00     0.171 A 
ATOM      3  N   UNL d   1      -0.078  -2.869  -2.257  0.00  0.00    -0.331 N 
ATOM      4  HN  UNL d   1      -1.031  -2.959  -1.906  1.00  0.00     0.168 HD
ATOM      5  N   UNL d   1       2.080  -1.905  -1.998  0.00  0.00    -0.341 N 
ATOM      6  HN  UNL d   1       2.714  -1.306  -1.470  1.00  0.00     0.167 HD
ATOM      7  C   UNL d   1       1.640  -3.402  -3.854  0.00  0.00    -0.015 A 
ATOM      8  C   UNL d   1       2.456  -2.555  -3.115  0.00  0.00     0.100 A 
ENDROOT
BRANCH   2   9
ATOM      9  N   UNL d   1       0.434  -1.433  -0.479  0.00  0.00    -0.151 NA
ATOM     10  H   UNL d   1       0.949  -0.563  -0.411  0.00  0.00     0.149 HD
BRANCH   9  11
ATOM     11  S   UNL d   1       0.663  -2.330   0.912  0.00  0.00     0.250 S 
ATOM     12  O   UNL d   1       0.329  -1.480   2.035  0.00  0.00    -0.205 OA
ATOM     13  O   UNL d   1       0.090  -3.654   0.783  0.00  0.00    -0.205 OA
BRANCH  11  14
ATOM     14  C   UNL d   1       2.350  -2.632   1.166  0.00  0.00     0.105 A 
ATOM     15  C   UNL d   1       3.318  -1.662   1.224  0.00  0.00     0.099 A 
ATOM     16  S   UNL d   1       4.871  -2.291   1.518  0.00  0.00    -0.064 SA
ATOM     17 CL   UNL d   1       3.154   0.042   1.042  0.00  0.00    -0.075 Cl
ATOM     18  C   UNL d   1       4.260  -3.868   1.574  0.00  0.00     0.077 A 
ATOM     19  C   UNL d   1       2.905  -3.938   1.371  0.00  0.00     0.058 A 
ATOM     20 CL   UNL d   1       5.322  -5.185   1.866  0.00  0.00    -0.076 Cl
ENDBRANCH  11  14
ENDBRANCH   9  11
ENDBRANCH   2   9
BRANCH   1  21
ATOM     21  C   UNL d   1      -0.719  -4.389  -3.969  0.00  0.00     0.068 A 
ATOM     22  C   UNL d   1      -0.988  -4.444  -5.345  0.00  0.00     0.132 A 
ATOM     23  F   UNL d   1      -0.358  -3.619  -6.195  0.00  0.00    -0.205 F 
ATOM     24  C   UNL d   1      -1.903  -5.346  -5.899  0.00  0.00     0.043 A 
ATOM     25  C   UNL d   1      -2.638  -6.188  -5.073  0.00  0.00     0.006 A 
ATOM     26  C   UNL d   1      -2.456  -6.108  -3.697  0.00  0.00     0.043 A 
ATOM     27  C   UNL d   1      -1.507  -5.229  -3.164  0.00  0.00     0.132 A 
ATOM     28  F   UNL d   1      -1.350  -5.241  -1.832  0.00  0.00    -0.205 F 
ENDBRANCH   1  21
BRANCH   7  29
ATOM     29  C   UNL d   1       2.153  -4.079  -5.103  0.00  0.00     0.038 C 
ATOM     30  C   UNL d   1       3.650  -4.355  -5.176  0.00  0.00     0.010 C 
ENDBRANCH   7  29
TORSDOF 5
