REMARK  3 active torsions:
REMARK  status: ('A' for Active; 'I' for Inactive)
REMARK    1  A    between atoms: N_4  and  C_2 
REMARK    2  A    between atoms: S_13  and  C_5 
REMARK    3  A    between atoms: C_16  and  S_13 
ROOT
ATOM      1  C   UNL d   1       0.145  -0.713  -0.036  0.00  0.00     0.119 A 
ATOM      2  C   UNL d   1      -1.062  -1.443  -0.057  0.00  0.00     0.133 A 
ATOM      3  C   UNL d   1       0.129   0.756  -0.034  0.00  0.00     0.104 A 
ATOM      4  C   UNL d   1      -1.082   1.494  -0.055  0.00  0.00     0.036 A 
ATOM      5  N   UNL d   1       1.428  -1.098  -0.010  0.00  0.00    -0.237 N 
ATOM      6  HN  UNL d   1       1.776  -2.056  -0.006  1.00  0.00     0.197 HD
ATOM      7  C   UNL d   1      -2.260  -0.694  -0.082  0.00  0.00     0.040 A 
ATOM      8  N   UNL d   1       1.399   1.184  -0.004  0.00  0.00    -0.238 N 
ATOM      9  HN  UNL d   1       1.719   2.152   0.006  1.00  0.00     0.197 HD
ATOM     10  O   UNL d   1       2.187   0.052   0.011  0.00  0.00    -0.156 OA
ATOM     11  C   UNL d   1      -2.263   0.723  -0.078  0.00  0.00     0.024 A 
ENDROOT
BRANCH   4  12
ATOM     12  S   UNL d   1      -1.086   3.254   0.036  0.00  0.00    -0.088 SA
BRANCH  12  13
ATOM     13  C   UNL d   1      -1.026   3.693  -1.689  0.00  0.00     0.005 A 
ATOM     14  C   UNL d   1      -2.213   3.959  -2.386  0.00  0.00     0.022 A 
ATOM     15  C   UNL d   1      -2.167   4.357  -3.724  0.00  0.00     0.043 A 
ATOM     16  C   UNL d   1      -0.938   4.495  -4.357  0.00  0.00     0.116 A 
ATOM     17  C   UNL d   1       0.248   4.237  -3.679  0.00  0.00     0.043 A 
ATOM     18  F   UNL d   1      -0.895   4.889  -5.636  0.00  0.00    -0.206 F 
ATOM     19  C   UNL d   1       0.204   3.838  -2.341  0.00  0.00     0.022 A 
ENDBRANCH  12  13
ENDBRANCH   4  12
BRANCH   2  20
ATOM     20  N   UNL d   1      -1.077  -2.893  -0.036  0.00  0.00    -0.113 N 
ATOM     21  O   UNL d   1      -0.004  -3.506  -0.003  0.00  0.00    -0.532 OA
ATOM     22  O   UNL d   1      -2.190  -3.438  -0.049  0.00  0.00    -0.532 OA
ENDBRANCH   2  20
TORSDOF 3
