REMARK  4 active torsions:
REMARK  status: ('A' for Active; 'I' for Inactive)
REMARK    1  A    between atoms: S_2  and  C_1 
REMARK    2  A    between atoms: C_12  and  S_2 
REMARK    3  A    between atoms: N_5  and  C_4 
REMARK       I    between atoms: C_6  and  N_5 
REMARK       I    between atoms: N_9  and  C_6 
REMARK    4  A    between atoms: C_14  and  N_9 
ROOT
ATOM      1  N   UNL d   1      -0.002   2.098  -0.069  0.00  0.00    -0.303 N 
ATOM      2  C   UNL d   1      -1.150   2.744  -0.438  0.00  0.00     0.325 C 
ATOM      3  N   UNL d   1      -2.312   2.029  -0.441  0.00  0.00    -0.309 N 
ATOM      4  O   UNL d   1      -1.058   3.950  -0.668  0.00  0.00    -0.247 OA
ATOM      5  H   UNL d   1       0.753   2.760   0.070  0.00  0.00     0.171 HD
ATOM      6  H   UNL d   1      -2.241   1.109  -0.030  0.00  0.00     0.170 HD
ENDROOT
BRANCH   1   7
ATOM      7  C   UNL d   1       0.313   0.766   0.098  0.00  0.00     0.079 A 
ATOM      8  C   UNL d   1       1.518   0.287   0.567  0.00  0.00     0.061 A 
ATOM      9  C   UNL d   1       1.565  -1.139   0.559  0.00  0.00     0.068 A 
ATOM     10  C   UNL d   1       0.387  -1.694   0.107  0.00  0.00     0.075 A 
ATOM     11  S   UNL d   1      -0.744  -0.493  -0.331  0.00  0.00    -0.083 SA
BRANCH   9  12
ATOM     12  S   UNL d   1       2.933  -2.084   1.057  0.00  0.00     0.179 S 
ATOM     13  O   UNL d   1       3.905  -1.115   1.513  0.00  0.00    -0.222 OA
ATOM     14  O   UNL d   1       2.347  -3.073   1.939  0.00  0.00    -0.222 OA
BRANCH  12  15
ATOM     15  C   UNL d   1       3.496  -2.877  -0.457  0.00  0.00     0.105 C 
ATOM     16  C   UNL d   1       4.125  -1.874  -1.418  0.00  0.00     0.026 C 
ATOM     17  C   UNL d   1       4.479  -3.996  -0.125  0.00  0.00     0.026 C 
ENDBRANCH  12  15
ENDBRANCH   9  12
ENDBRANCH   1   7
BRANCH   3  18
ATOM     18  C   UNL d   1      -3.610   2.509  -0.703  0.00  0.00     0.037 A 
ATOM     19  C   UNL d   1      -3.874   3.716  -1.353  0.00  0.00     0.053 A 
ATOM     20  C   UNL d   1      -5.192   4.147  -1.516  0.00  0.00     0.036 A 
ATOM     21 CL   UNL d   1      -5.513   5.639  -2.314  0.00  0.00    -0.084 Cl
ATOM     22  C   UNL d   1      -6.254   3.385  -1.034  0.00  0.00     0.024 A 
ATOM     23  C   UNL d   1      -6.000   2.165  -0.413  0.00  0.00     0.004 A 
ATOM     24  C   UNL d   1      -4.683   1.722  -0.263  0.00  0.00     0.029 A 
ENDBRANCH   3  18
TORSDOF 4
