REMARK  5 active torsions:
REMARK  status: ('A' for Active; 'I' for Inactive)
REMARK    1  A    between atoms: C_6  and  C_1 
REMARK    2  A    between atoms: S_15  and  C_2 
REMARK    3  A    between atoms: C_13  and  C_4 
REMARK       I    between atoms: C_10  and  N_7 
REMARK    4  A    between atoms: C_14  and  C_10 
REMARK    5  A    between atoms: O_21  and  C_13 
ROOT
ATOM      1  C   UNL d   1       1.464   2.520  -0.033  0.00  0.00     0.062 A 
ATOM      2  N   UNL d   1       2.063   4.541   0.308  0.00  0.00    -0.231 N 
ATOM      3  N   UNL d   1       1.163   3.600   0.694  0.00  0.00    -0.291 N 
ATOM      4  HN  UNL d   1       0.421   3.697   1.387  1.00  0.00     0.187 HD
ATOM      5  C   UNL d   1       1.966   5.872   0.766  0.00  0.00     0.276 C 
ATOM      6  C   UNL d   1       2.630   2.718  -0.803  0.00  0.00     0.051 A 
ATOM      7  C   UNL d   1       3.006   4.014  -0.548  0.00  0.00     0.122 A 
ATOM      8  O   UNL d   1       2.634   6.719   0.177  0.00  0.00    -0.265 OA
ENDROOT
BRANCH   1   9
ATOM      9  C   UNL d   1       0.652   1.282  -0.004  0.00  0.00     0.023 A 
ATOM     10  C   UNL d   1      -0.737   1.249  -0.054  0.00  0.00     0.054 A 
ATOM     11  S   UNL d   1      -1.318  -0.355  -0.022  0.00  0.00    -0.076 SA
ATOM     12  C   UNL d   1       0.253  -1.036   0.024  0.00  0.00     0.088 A 
ATOM     13  C   UNL d   1       1.239  -0.048   0.071  0.00  0.00    -0.024 A 
ATOM     14  C   UNL d   1       2.708  -0.348   0.177  0.00  0.00     0.050 C 
BRANCH  10  15
ATOM     15  S   UNL d   1      -1.831   2.631  -0.255  0.00  0.00    -0.126 SA
ATOM     16  C   UNL d   1      -3.273   2.182   0.737  0.00  0.00     0.096 C 
ENDBRANCH  10  15
BRANCH  12  17
ATOM     17  C   UNL d   1       0.348  -2.494   0.012  0.00  0.00     0.300 C 
ATOM     18  O   UNL d   1      -0.583  -3.286   0.054  0.00  0.00    -0.259 OA
BRANCH  17  19
ATOM     19  O   UNL d   1       1.656  -2.881  -0.072  0.00  0.00    -0.322 OA
ATOM     20  C   UNL d   1       1.876  -4.289  -0.078  0.00  0.00     0.213 C 
ENDBRANCH  17  19
ENDBRANCH  12  17
ENDBRANCH   1   9
BRANCH   5  21
ATOM     21  C   UNL d   1       1.143   6.293   1.931  0.00  0.00     0.034 A 
ATOM     22  C   UNL d   1       1.001   5.454   3.044  0.00  0.00     0.019 A 
ATOM     23  C   UNL d   1       0.311   5.894   4.173  0.00  0.00     0.025 A 
ATOM     24  C   UNL d   1      -0.233   7.176   4.195  0.00  0.00     0.034 A 
ATOM     25  C   UNL d   1      -0.099   8.020   3.092  0.00  0.00     0.025 A 
ATOM     26 CL   UNL d   1      -1.053   7.726   5.603  0.00  0.00    -0.084 Cl
ATOM     27  C   UNL d   1       0.596   7.583   1.960  0.00  0.00     0.019 A 
ENDBRANCH   5  21
TORSDOF 5
