REMARK  8 active torsions:
REMARK  status: ('A' for Active; 'I' for Inactive)
REMARK    1  A    between atoms: O_36  and  C_9 
REMARK    2  A    between atoms: O_33  and  C_10 
REMARK    3  A    between atoms: O_35  and  C_11 
REMARK    4  A    between atoms: O_34  and  C_12 
REMARK    5  A    between atoms: C_30  and  C_13 
REMARK    6  A    between atoms: C_29  and  C_14 
REMARK    7  A    between atoms: C_31  and  C_15 
REMARK    8  A    between atoms: C_32  and  C_16 
ROOT
ATOM      1  C   UNL d   1      -3.185   1.051  -0.336  0.00  0.00    -0.020 A 
ATOM      2  C   UNL d   1      -3.055  -1.383  -0.291  0.00  0.00    -0.020 A 
ATOM      3  C   UNL d   1      -1.377   2.809  -0.108  0.00  0.00    -0.020 A 
ATOM      4  C   UNL d   1      -1.067  -2.918  -0.048  0.00  0.00    -0.020 A 
ATOM      5  C   UNL d   1       1.059   2.942  -0.026  0.00  0.00    -0.020 A 
ATOM      6  C   UNL d   1       1.372  -2.779  -0.033  0.00  0.00    -0.020 A 
ATOM      7  C   UNL d   1       3.072   1.426  -0.229  0.00  0.00    -0.020 A 
ATOM      8  C   UNL d   1       3.180  -1.011  -0.230  0.00  0.00    -0.020 A 
ATOM      9  C   UNL d   1      -0.129   2.701  -0.728  0.00  0.00     0.079 A 
ATOM     10  C   UNL d   1       0.144  -2.664  -0.698  0.00  0.00     0.079 A 
ATOM     11  C   UNL d   1      -2.643  -0.149  -0.810  0.00  0.00     0.079 A 
ATOM     12  C   UNL d   1       2.639   0.188  -0.716  0.00  0.00     0.079 A 
ATOM     13  C   UNL d   1      -0.268   3.512   1.975  0.00  0.00    -0.049 A 
ATOM     14  C   UNL d   1      -4.652  -0.212   1.186  0.00  0.00    -0.049 A 
ATOM     15  C   UNL d   1       0.159  -3.445   2.013  0.00  0.00    -0.049 A 
ATOM     16  C   UNL d   1       4.676   0.285   1.246  0.00  0.00    -0.049 A 
ATOM     17  C   UNL d   1      -2.660   2.399  -0.807  0.00  0.00     0.083 C 
ATOM     18  C   UNL d   1      -2.415  -2.693  -0.710  0.00  0.00     0.083 C 
ATOM     19  C   UNL d   1       2.423   2.731  -0.654  0.00  0.00     0.083 C 
ATOM     20  C   UNL d   1       2.691  -2.377  -0.671  0.00  0.00     0.083 C 
ATOM     21  C   UNL d   1      -1.427   3.224   1.235  0.00  0.00     0.018 A 
ATOM     22  C   UNL d   1       1.358  -3.180   1.315  0.00  0.00     0.018 A 
ATOM     23  C   UNL d   1      -4.187   1.002   0.654  0.00  0.00     0.018 A 
ATOM     24  C   UNL d   1      -1.040  -3.313   1.296  0.00  0.00     0.018 A 
ATOM     25  C   UNL d   1      -4.059  -1.395   0.699  0.00  0.00     0.018 A 
ATOM     26  C   UNL d   1       4.086   1.456   0.746  0.00  0.00     0.018 A 
ATOM     27  C   UNL d   1       4.201  -0.941   0.738  0.00  0.00     0.018 A 
ATOM     28  C   UNL d   1       0.968   3.348   1.319  0.00  0.00     0.018 A 
ENDROOT
BRANCH  13  29
ATOM     29  C   UNL d   1      -0.323   3.971   3.443  0.00  0.00    -0.024 C 
ATOM     30  C   UNL d   1      -1.761   4.123   3.994  0.00  0.00     0.019 C 
ATOM     31  C   UNL d   1       0.404   2.949   4.343  0.00  0.00     0.019 C 
ATOM     32  C   UNL d   1       0.362   5.347   3.584  0.00  0.00     0.019 C 
ENDBRANCH  13  29
BRANCH   9  33
ATOM     33  O   UNL d   1      -0.082   2.345  -2.048  0.00  0.00    -0.360 OA
ATOM     34  H   UNL d   1       0.592   1.641  -2.118  0.00  0.00     0.217 HD
ENDBRANCH   9  33
BRANCH  11  35
ATOM     35  O   UNL d   1      -1.706  -0.069  -1.802  0.00  0.00    -0.360 OA
ATOM     36  H   UNL d   1      -1.252  -0.922  -1.903  0.00  0.00     0.217 HD
ENDBRANCH  11  35
BRANCH  12  37
ATOM     37  O   UNL d   1       1.677   0.194  -1.689  0.00  0.00    -0.360 OA
ATOM     38  H   UNL d   1       1.047  -0.521  -1.476  0.00  0.00     0.217 HD
ENDBRANCH  12  37
BRANCH  14  39
ATOM     39  C   UNL d   1      -5.756  -0.277   2.260  0.00  0.00    -0.024 C 
ATOM     40  C   UNL d   1      -6.295   1.109   2.683  0.00  0.00     0.019 C 
ATOM     41  C   UNL d   1      -6.957  -1.086   1.721  0.00  0.00     0.019 C 
ATOM     42  C   UNL d   1      -5.223  -0.963   3.537  0.00  0.00     0.019 C 
ENDBRANCH  14  39
BRANCH  16  43
ATOM     43  C   UNL d   1       5.777   0.310   2.321  0.00  0.00    -0.024 C 
ATOM     44  C   UNL d   1       6.149   1.736   2.789  0.00  0.00     0.019 C 
ATOM     45  C   UNL d   1       5.308  -0.471   3.568  0.00  0.00     0.019 C 
ATOM     46  C   UNL d   1       7.064  -0.340   1.771  0.00  0.00     0.019 C 
ENDBRANCH  16  43
BRANCH  10  47
ATOM     47  O   UNL d   1       0.093  -2.211  -1.990  0.00  0.00    -0.360 OA
ATOM     48  H   UNL d   1       0.735  -2.735  -2.506  0.00  0.00     0.217 HD
ENDBRANCH  10  47
BRANCH  15  49
ATOM     49  C   UNL d   1       0.177  -3.822   3.505  0.00  0.00    -0.024 C 
ATOM     50  C   UNL d   1      -1.234  -4.022   4.110  0.00  0.00     0.019 C 
ATOM     51  C   UNL d   1       0.948  -5.143   3.693  0.00  0.00     0.019 C 
ATOM     52  C   UNL d   1       0.862  -2.708   4.326  0.00  0.00     0.019 C 
ENDBRANCH  15  49
TORSDOF 8
