REMARK  3 active torsions:
REMARK  status: ('A' for Active; 'I' for Inactive)
REMARK    1  A    between atoms: C_4  and  C_1 
REMARK    2  A    between atoms: O_13  and  C_2 
REMARK    3  A    between atoms: O_12  and  C_3 
REMARK       I    between atoms: N_9  and  C_4 
ROOT
ATOM      1  C   UNL d   1       1.210  -2.420  -0.057  0.00  0.00     0.101 A 
ATOM      2  C   UNL d   1       2.220  -1.425   0.031  0.00  0.00     0.108 A 
ATOM      3  C   UNL d   1      -0.154  -2.080  -0.132  0.00  0.00     0.104 A 
ATOM      4  C   UNL d   1       1.814  -0.081   0.077  0.00  0.00     0.069 A 
ATOM      5  C   UNL d   1      -0.523  -0.737  -0.098  0.00  0.00     0.047 A 
ATOM      6  C   UNL d   1       0.450   0.251   0.024  0.00  0.00     0.048 A 
ATOM      7 CL   UNL d   1       2.867   1.287   0.182  0.00  0.00    -0.081 Cl
ATOM      8 BR   UNL d   1      -2.340  -0.197  -0.201  0.00  0.00    -0.048 Br
ENDROOT
BRANCH   1   9
ATOM      9  C   UNL d   1       1.604  -3.850  -0.030  0.00  0.00     0.255 C 
ATOM     10  O   UNL d   1       2.244  -4.326   0.900  0.00  0.00    -0.268 OA
ATOM     11  N   UNL d   1       1.163  -4.627  -1.064  0.00  0.00    -0.366 N 
ATOM     12  H   UNL d   1       0.449  -4.300  -1.704  0.00  0.00     0.159 HD
ATOM     13  H   UNL d   1       1.325  -5.624  -0.991  0.00  0.00     0.159 HD
ENDBRANCH   1   9
BRANCH   2  14
ATOM     14  O   UNL d   1       3.489  -1.936   0.007  0.00  0.00    -0.353 OA
ATOM     15  C   UNL d   1       4.643  -1.125   0.100  0.00  0.00     0.210 C 
ENDBRANCH   2  14
BRANCH   3  16
ATOM     16  O   UNL d   1      -1.124  -3.028  -0.346  0.00  0.00    -0.353 OA
ATOM     17  C   UNL d   1      -1.473  -3.723   0.854  0.00  0.00     0.210 C 
ENDBRANCH   3  16
TORSDOF 3
