REMARK  5 active torsions:
REMARK  status: ('A' for Active; 'I' for Inactive)
REMARK    1  A    between atoms: C_5  and  C_1 
REMARK    2  A    between atoms: C_9  and  C_2 
REMARK       I    between atoms: N_16  and  C_9 
REMARK    3  A    between atoms: N_10  and  C_20 
REMARK    4  A    between atoms: C_22  and  N_16 
REMARK    5  A    between atoms: C_20  and  C_22 
ROOT
ATOM      1  C   UNL d   1      -1.167  -0.793   0.578  0.00  0.00     0.088 A 
ATOM      2  C   UNL d   1       0.011  -1.333  -0.047  0.00  0.00     0.092 A 
ATOM      3  N   UNL d   1      -1.100   0.547   0.598  0.00  0.00    -0.259 N 
ATOM      4  HN  UNL d   1      -1.780   1.183   1.013  1.00  0.00     0.195 HD
ATOM      5  O   UNL d   1       0.059   0.897  -0.047  0.00  0.00    -0.241 OA
ATOM      6  C   UNL d   1       0.731  -0.217  -0.429  0.00  0.00     0.090 A 
ATOM      7  C   UNL d   1       1.986   0.042  -1.160  0.00  0.00     0.080 C 
ENDROOT
BRANCH   2   8
ATOM      8  C   UNL d   1       0.339  -2.728  -0.270  0.00  0.00     0.256 C 
ATOM      9  O   UNL d   1      -0.505  -3.549  -0.600  0.00  0.00    -0.267 OA
ATOM     10  N   UNL d   1       1.652  -3.069  -0.032  0.00  0.00    -0.355 N 
ATOM     11  H   UNL d   1       2.320  -2.372   0.265  0.00  0.00     0.162 HD
BRANCH  10  12
ATOM     12  C   UNL d   1       2.098  -4.455  -0.058  0.00  0.00     0.143 C 
BRANCH  12  13
ATOM     13  C   UNL d   1       2.380  -4.960  -1.480  0.00  0.00     0.147 C 
BRANCH  13  14
ATOM     14  N   UNL d   1       3.374  -4.144  -2.156  0.00  0.00    -0.331 N 
ATOM     15  C   UNL d   1       4.698  -4.021  -1.758  0.00  0.00     0.318 C 
ATOM     16  N   UNL d   1       5.346  -3.245  -2.710  0.00  0.00    -0.341 N 
ATOM     17  O   UNL d   1       5.217  -4.470  -0.748  0.00  0.00    -0.247 OA
ATOM     18  C   UNL d   1       4.389  -2.688  -3.626  0.00  0.00     0.144 C 
ATOM     19  H   UNL d   1       6.272  -2.888  -2.513  0.00  0.00     0.164 HD
ATOM     20  C   UNL d   1       3.201  -3.632  -3.495  0.00  0.00     0.147 C 
ENDBRANCH  13  14
ENDBRANCH  12  13
ENDBRANCH  10  12
ENDBRANCH   2   8
BRANCH   1  21
ATOM     21  C   UNL d   1      -2.299  -1.502   1.188  0.00  0.00     0.054 A 
ATOM     22  C   UNL d   1      -2.055  -2.643   1.969  0.00  0.00     0.130 A 
ATOM     23  F   UNL d   1      -0.798  -3.028   2.242  0.00  0.00    -0.205 F 
ATOM     24  C   UNL d   1      -3.088  -3.407   2.513  0.00  0.00     0.043 A 
ATOM     25  C   UNL d   1      -4.407  -3.015   2.331  0.00  0.00     0.005 A 
ATOM     26  C   UNL d   1      -4.681  -1.854   1.612  0.00  0.00     0.025 A 
ATOM     27  C   UNL d   1      -3.640  -1.105   1.035  0.00  0.00     0.049 A 
ATOM     28 CL   UNL d   1      -4.133   0.282   0.120  0.00  0.00    -0.083 Cl
ENDBRANCH   1  21
TORSDOF 5
