REMARK  3 active torsions:
REMARK  status: ('A' for Active; 'I' for Inactive)
REMARK    1  A    between atoms: C_8  and  C_1 
REMARK       I    between atoms: C_2  and  N_5 
REMARK    2  A    between atoms: C_7  and  C_2 
REMARK    3  A    between atoms: N_5  and  C_8 
ROOT
ATOM      1  C   UNL d   1       2.340  -4.265  -0.062  0.00  0.00     0.251 C 
ATOM      2  N   UNL d   1       1.920  -2.959  -0.127  0.00  0.00    -0.352 N 
ATOM      3  O   UNL d   1       1.607  -5.205   0.223  0.00  0.00    -0.268 OA
ATOM      4  H   UNL d   1       2.599  -2.211  -0.166  0.00  0.00     0.163 HD
ENDROOT
BRANCH   1   5
ATOM      5  C   UNL d   1       3.774  -4.521  -0.368  0.00  0.00     0.032 A 
ATOM      6  C   UNL d   1       4.415  -5.588   0.276  0.00  0.00     0.018 A 
ATOM      7  C   UNL d   1       5.741  -5.903  -0.035  0.00  0.00     0.025 A 
ATOM      8  C   UNL d   1       6.421  -5.161  -0.999  0.00  0.00     0.034 A 
ATOM      9  C   UNL d   1       5.789  -4.101  -1.649  0.00  0.00     0.025 A 
ATOM     10 CL   UNL d   1       8.043  -5.567  -1.403  0.00  0.00    -0.084 Cl
ATOM     11  C   UNL d   1       4.464  -3.777  -1.335  0.00  0.00     0.018 A 
ENDBRANCH   1   5
BRANCH   2  12
ATOM     12  C   UNL d   1       0.534  -2.590   0.071  0.00  0.00     0.169 C 
BRANCH  12  13
ATOM     13  C   UNL d   1       0.352  -1.999   1.438  0.00  0.00     0.006 A 
ATOM     14  C   UNL d   1      -0.116  -2.586   2.609  0.00  0.00    -0.047 A 
ATOM     15  C   UNL d   1      -0.161  -1.631   3.682  0.00  0.00     0.015 A 
ATOM     16  C   UNL d   1      -0.538  -4.008   2.796  0.00  0.00     0.049 C 
ATOM     17  C   UNL d   1       0.254  -0.378   3.301  0.00  0.00     0.051 A 
ATOM     18  S   UNL d   1       0.714  -0.331   1.663  0.00  0.00    -0.104 SA
ENDBRANCH  12  13
ENDBRANCH   2  12
TORSDOF 3
