REMARK  2 active torsions:
REMARK  status: ('A' for Active; 'I' for Inactive)
REMARK    1  A    between atoms: C_6  and  N_2 
REMARK    2  A    between atoms: C_8  and  C_6 
ROOT
ATOM      1  C   UNL d   1       0.195  -0.124  -1.011  0.00  0.00     0.326 A 
ATOM      2  N   UNL d   1       0.849  -0.691   0.099  0.00  0.00    -0.304 N 
ATOM      3  N   UNL d   1      -0.882   0.584  -0.448  0.00  0.00    -0.317 N 
ATOM      4  C   UNL d   1       0.176  -0.336   1.249  0.00  0.00     0.113 A 
ATOM      5  C   UNL d   1      -0.865   0.437   0.915  0.00  0.00     0.110 A 
ATOM      6  O   UNL d   1       0.481  -0.198  -2.192  0.00  0.00    -0.246 OA
ATOM      7  H   UNL d   1      -1.543   1.111  -0.997  0.00  0.00     0.170 HD
ENDROOT
BRANCH   2   8
ATOM      8  C   UNL d   1       2.040  -1.498   0.018  0.00  0.00     0.171 C 
BRANCH   8   9
ATOM      9  C   UNL d   1       1.746  -2.976  -0.059  0.00  0.00    -0.040 A 
ATOM     10  C   UNL d   1       1.612  -3.607  -1.305  0.00  0.00     0.009 A 
ATOM     11  C   UNL d   1       1.347  -4.976  -1.381  0.00  0.00     0.001 A 
ATOM     12  C   UNL d   1       1.201  -5.725  -0.216  0.00  0.00     0.000 A 
ATOM     13  C   UNL d   1       1.318  -5.107   1.028  0.00  0.00     0.001 A 
ATOM     14  C   UNL d   1       1.588  -3.739   1.107  0.00  0.00     0.009 A 
ENDBRANCH   8   9
ENDBRANCH   2   8
TORSDOF 2
