REMARK  6 active torsions:
REMARK  status: ('A' for Active; 'I' for Inactive)
REMARK    1  A    between atoms: C_2  and  S_1 
REMARK    2  A    between atoms: N_5  and  S_1 
REMARK    3  A    between atoms: C_11  and  N_5 
REMARK    4  A    between atoms: C_8  and  S_9 
REMARK    5  A    between atoms: S_9  and  C_15 
REMARK    6  A    between atoms: C_15  and  C_11 
ROOT
ATOM      1  S   UNL d   1       3.096  -0.163  -1.720  0.00  0.00     0.258 S 
ATOM      2  O   UNL d   1       2.048   0.616  -2.344  0.00  0.00    -0.201 OA
ATOM      3  O   UNL d   1       4.489   0.192  -1.844  0.00  0.00    -0.201 OA
ENDROOT
BRANCH   1   4
ATOM      4  C   UNL d   1       2.907  -1.838  -2.278  0.00  0.00     0.079 A 
ATOM      5  C   UNL d   1       1.662  -2.461  -2.136  0.00  0.00     0.027 A 
ATOM      6  C   UNL d   1       1.525  -3.803  -2.489  0.00  0.00     0.025 A 
ATOM      7  C   UNL d   1       2.622  -4.502  -2.995  0.00  0.00     0.034 A 
ATOM      8  C   UNL d   1       3.857  -3.871  -3.157  0.00  0.00     0.025 A 
ATOM      9 CL   UNL d   1       2.452  -6.162  -3.413  0.00  0.00    -0.084 Cl
ATOM     10  C   UNL d   1       4.005  -2.532  -2.796  0.00  0.00     0.027 A 
ENDBRANCH   1   4
BRANCH   1  11
ATOM     11  N   UNL d   1       2.699  -0.288  -0.099  0.00  0.00    -0.315 N 
ATOM     12  H   UNL d   1       1.761   0.038   0.128  0.00  0.00     0.172 HD
BRANCH  11  13
ATOM     13  C   UNL d   1       3.348  -1.238   0.814  0.00  0.00     0.142 C 
BRANCH  13  14
ATOM     14  C   UNL d   1       4.859  -1.066   0.958  0.00  0.00     0.095 C 
BRANCH  14  15
ATOM     15  S   UNL d   1       5.279   0.572   1.651  0.00  0.00    -0.159 SA
BRANCH  15  16
ATOM     16  C   UNL d   1       7.125   0.519   1.655  0.00  0.00    -0.003 C 
ATOM     17  C   UNL d   1       7.683   0.414   0.230  0.00  0.00     0.026 C 
ATOM     18  C   UNL d   1       7.589   1.845   2.278  0.00  0.00     0.026 C 
ATOM     19  C   UNL d   1       7.623  -0.646   2.517  0.00  0.00     0.026 C 
ENDBRANCH  15  16
ENDBRANCH  14  15
ENDBRANCH  13  14
ENDBRANCH  11  13
ENDBRANCH   1  11
TORSDOF 6
