REMARK  6 active torsions:
REMARK  status: ('A' for Active; 'I' for Inactive)
REMARK    1  A    between atoms: C_2  and  N_1 
REMARK    2  A    between atoms: O_5  and  C_9 
REMARK    3  A    between atoms: C_10  and  O_5 
REMARK    4  A    between atoms: O_8  and  C_11 
REMARK    5  A    between atoms: C_14  and  O_8 
REMARK    6  A    between atoms: C_19  and  C_14 
ROOT
ATOM      1  C   UNL d   1      -1.890   4.508   3.850  0.00  0.00     0.076 A 
ATOM      2  C   UNL d   1      -1.413   7.219   4.362  0.00  0.00     0.069 A 
ATOM      3  C   UNL d   1      -1.666   5.394   2.795  0.00  0.00     0.040 A 
ATOM      4  C   UNL d   1      -1.947   4.990   5.158  0.00  0.00     0.040 A 
ATOM      5  C   UNL d   1      -1.698   6.340   5.410  0.00  0.00     0.039 A 
ATOM      6  C   UNL d   1      -1.425   6.748   3.049  0.00  0.00     0.039 A 
ENDROOT
BRANCH   1   7
ATOM      7  O   UNL d   1      -2.111   3.193   3.508  0.00  0.00    -0.311 OA
BRANCH   7   8
ATOM      8  C   UNL d   1      -1.627   2.204   4.333  0.00  0.00     0.076 A 
ATOM      9  C   UNL d   1      -2.433   1.071   4.478  0.00  0.00     0.040 A 
ATOM     10  C   UNL d   1      -2.022   0.015   5.295  0.00  0.00     0.039 A 
ATOM     11  C   UNL d   1      -0.791   0.098   5.960  0.00  0.00     0.103 A 
ATOM     12  C   UNL d   1       0.038   1.215   5.789  0.00  0.00     0.039 A 
ATOM     13  C   UNL d   1      -0.376   2.259   4.958  0.00  0.00     0.040 A 
BRANCH  11  14
ATOM     14  N   UNL d   1      -0.367  -0.994   6.845  0.00  0.00    -0.116 N 
ATOM     15  O   UNL d   1       0.693  -0.850   7.470  0.00  0.00    -0.532 OA
ATOM     16  O   UNL d   1      -1.098  -1.992   6.920  0.00  0.00    -0.532 OA
ENDBRANCH  11  14
ENDBRANCH   7   8
ENDBRANCH   1   7
BRANCH   2  17
ATOM     17  O   UNL d   1      -1.179   8.509   4.744  0.00  0.00    -0.347 OA
BRANCH  17  18
ATOM     18  C   UNL d   1      -0.428   9.317   3.834  0.00  0.00     0.214 C 
BRANCH  18  19
ATOM     19  C   UNL d   1      -0.141  10.665   4.460  0.00  0.00    -0.034 A 
ATOM     20  C   UNL d   1       1.042  11.349   4.146  0.00  0.00     0.009 A 
ATOM     21  C   UNL d   1       1.294  12.614   4.677  0.00  0.00     0.001 A 
ATOM     22  C   UNL d   1       0.361  13.216   5.521  0.00  0.00     0.000 A 
ATOM     23  C   UNL d   1      -0.824  12.553   5.831  0.00  0.00     0.001 A 
ATOM     24  C   UNL d   1      -1.077  11.288   5.300  0.00  0.00     0.009 A 
ENDBRANCH  18  19
ENDBRANCH  17  18
ENDBRANCH   2  17
TORSDOF 6
