REMARK  5 active torsions:
REMARK  status: ('A' for Active; 'I' for Inactive)
REMARK    1  A    between atoms: C_2  and  C_1 
REMARK    2  A    between atoms: N_14  and  C_2 
REMARK    3  A    between atoms: O_10  and  N_5 
REMARK    4  A    between atoms: C_7  and  O_10 
REMARK    5  A    between atoms: C_11  and  C_7 
ROOT
ATOM      1  C   UNL d   1      -1.127   2.489   0.587  0.00  0.00     0.127 C 
ATOM      2  N   UNL d   1      -2.256   2.855   0.073  0.00  0.00    -0.244 N 
ATOM      3  HN  UNL d   1      -2.524   3.825  -0.095  1.00  0.00     0.196 HD
ENDROOT
BRANCH   2   4
ATOM      4  O   UNL d   1      -3.070   1.744  -0.225  0.00  0.00    -0.193 OA
BRANCH   4   5
ATOM      5  C   UNL d   1      -4.365   2.067   0.050  0.00  0.00     0.315 C 
ATOM      6  O   UNL d   1      -4.767   2.632   1.056  0.00  0.00    -0.257 OA
BRANCH   5   7
ATOM      7  C   UNL d   1      -5.266   1.655  -1.063  0.00  0.00     0.041 A 
ATOM      8  C   UNL d   1      -6.630   1.968  -0.949  0.00  0.00     0.019 A 
ATOM      9  C   UNL d   1      -7.512   1.691  -1.998  0.00  0.00     0.025 A 
ATOM     10  C   UNL d   1      -7.033   1.099  -3.164  0.00  0.00     0.034 A 
ATOM     11  C   UNL d   1      -5.683   0.770  -3.285  0.00  0.00     0.025 A 
ATOM     12 CL   UNL d   1      -8.110   0.786  -4.468  0.00  0.00    -0.084 Cl
ATOM     13  C   UNL d   1      -4.798   1.048  -2.237  0.00  0.00     0.019 A 
ENDBRANCH   5   7
ENDBRANCH   4   5
ENDBRANCH   2   4
BRANCH   1  14
ATOM     14  C   UNL d   1      -0.108   3.519   0.833  0.00  0.00     0.089 A 
ATOM     15  N   UNL d   1       1.065   3.225   1.435  0.00  0.00    -0.298 N 
ATOM     16  N   UNL d   1       1.737   4.391   1.426  0.00  0.00    -0.311 N 
ATOM     17  HN  UNL d   1       1.370   2.327   1.809  1.00  0.00     0.187 HD
ATOM     18  C   UNL d   1       1.036   5.425   0.886  0.00  0.00     0.109 A 
ATOM     19  H   UNL d   1       2.678   4.407   1.805  0.00  0.00     0.186 HD
ATOM     20  C   UNL d   1      -0.170   4.898   0.497  0.00  0.00     0.053 A 
ENDBRANCH   1  14
BRANCH   1  21
ATOM     21  N   UNL d   1      -0.729   1.235   0.966  0.00  0.00    -0.285 NA
ATOM     22  H   UNL d   1       0.056   1.271   1.617  0.00  0.00     0.125 HD
ATOM     23  H   UNL d   1      -1.493   0.656   1.289  0.00  0.00     0.125 HD
ENDBRANCH   1  21
TORSDOF 5
