REMARK  7 active torsions:
REMARK  status: ('A' for Active; 'I' for Inactive)
REMARK    1  A    between atoms: N_5  and  C_1 
REMARK    2  A    between atoms: C_2  and  N_17 
REMARK    3  A    between atoms: C_3  and  C_4 
REMARK       I    between atoms: N_11  and  C_3 
REMARK    4  A    between atoms: O_25  and  C_6 
REMARK       I    between atoms: C_14  and  N_11 
REMARK       I    between atoms: N_17  and  C_14 
REMARK    5  A    between atoms: O_27  and  C_15 
REMARK    6  A    between atoms: O_26  and  C_16 
REMARK    7  A    between atoms: O_28  and  C_19 
ROOT
ATOM      1  C   UNL d   1      -2.049  -2.216   1.021  0.00  0.00     0.265 C 
ATOM      2  N   UNL d   1      -2.924  -1.253   1.493  0.00  0.00    -0.274 N 
ATOM      3  C   UNL d   1      -4.298  -1.213   1.557  0.00  0.00     0.341 C 
ATOM      4  N   UNL d   1      -4.971  -2.343   1.215  0.00  0.00    -0.141 N 
ATOM      5  O   UNL d   1      -2.434  -3.356   0.785  0.00  0.00    -0.267 OA
ATOM      6  O   UNL d   1      -4.779  -0.138   1.909  0.00  0.00    -0.246 OA
ATOM      7  H   UNL d   1      -2.557  -0.326   1.654  0.00  0.00     0.173 HD
ATOM      8  H   UNL d   1      -4.450  -3.195   1.041  0.00  0.00     0.189 HD
ENDROOT
BRANCH   1   9
ATOM      9  C   UNL d   1      -0.604  -1.774   0.829  0.00  0.00     0.101 C 
ATOM     10  C   UNL d   1      -0.211  -0.410   0.797  0.00  0.00     0.119 C 
ATOM     11  C   UNL d   1       1.094  -0.081   0.384  0.00  0.00     0.137 C 
ATOM     12  C   UNL d   1       2.055  -1.058   0.113  0.00  0.00     0.042 C 
ATOM     13  C   UNL d   1       1.705  -2.393   0.256  0.00  0.00     0.040 C 
ATOM     14  C   UNL d   1       0.399  -2.751   0.632  0.00  0.00     0.086 C 
BRANCH  10  15
ATOM     15  O   UNL d   1      -1.131   0.554   1.135  0.00  0.00    -0.352 OA
ATOM     16  C   UNL d   1      -0.727   1.400   2.225  0.00  0.00     0.210 C 
ENDBRANCH  10  15
BRANCH  11  17
ATOM     17  N   UNL d   1       1.486   1.298   0.160  0.00  0.00    -0.113 N 
ATOM     18  O   UNL d   1       0.827   1.955  -0.655  0.00  0.00    -0.532 OA
ATOM     19  O   UNL d   1       2.464   1.709   0.798  0.00  0.00    -0.532 OA
ENDBRANCH  11  17
BRANCH  14  20
ATOM     20  O   UNL d   1       0.110  -4.084   0.759  0.00  0.00    -0.355 OA
ATOM     21  C   UNL d   1       0.900  -4.745   1.750  0.00  0.00     0.210 C 
ENDBRANCH  14  20
ENDBRANCH   1   9
BRANCH   4  22
ATOM     22  C   UNL d   1      -6.364  -2.422   1.125  0.00  0.00     0.692 A 
ATOM     23  N   UNL d   1      -6.891  -3.627   0.911  0.00  0.00    -0.154 N 
ATOM     24  C   UNL d   1      -8.227  -3.640   0.852  0.00  0.00     0.240 A 
ATOM     25  HN  UNL d   1      -6.324  -4.467   0.801  1.00  0.00     0.188 HD
ATOM     26  N   UNL d   1      -9.029  -2.590   0.945  0.00  0.00    -0.287 N 
ATOM     27  C   UNL d   1      -8.387  -1.448   1.126  0.00  0.00     0.240 A 
ATOM     28  HN  UNL d   1     -10.045  -2.655   0.883  1.00  0.00     0.173 HD
ATOM     29  N   UNL d   1      -7.080  -1.314   1.236  0.00  0.00    -0.154 N 
ATOM     30  HN  UNL d   1      -6.644  -0.406   1.398  1.00  0.00     0.188 HD
BRANCH  24  31
ATOM     31  O   UNL d   1      -8.910  -4.832   0.736  0.00  0.00    -0.327 OA
ATOM     32  C   UNL d   1      -8.098  -5.952   0.428  0.00  0.00     0.213 C 
ENDBRANCH  24  31
BRANCH  27  33
ATOM     33  O   UNL d   1      -9.094  -0.272   1.247  0.00  0.00    -0.327 OA
ATOM     34  C   UNL d   1     -10.384  -0.339   0.658  0.00  0.00     0.213 C 
ENDBRANCH  27  33
ENDBRANCH   4  22
TORSDOF 7
