REMARK  8 active torsions:
REMARK  status: ('A' for Active; 'I' for Inactive)
REMARK    1  A    between atoms: N_2  and  S_1 
REMARK    2  A    between atoms: C_3  and  S_1 
REMARK    3  A    between atoms: C_5  and  N_2 
REMARK    4  A    between atoms: C_20  and  N_2 
REMARK    5  A    between atoms: C_9  and  C_5 
REMARK    6  A    between atoms: O_21  and  C_10 
REMARK    7  A    between atoms: O_22  and  C_13 
REMARK    8  A    between atoms: C_19  and  C_20 
ROOT
ATOM      1  N   UNL d   1       1.551   5.412   0.994  0.00  0.00    -0.197 NA
ATOM      2  C   UNL d   1       1.630   4.338   0.562  0.00  0.00     0.060 C 
ATOM      3  C   UNL d   1       1.714   2.970   0.032  0.00  0.00     0.139 C 
ENDROOT
BRANCH   3   4
ATOM      4  C   UNL d   1       0.312   2.441  -0.271  0.00  0.00     0.122 C 
BRANCH   4   5
ATOM      5  N   UNL d   1       0.268   1.043  -0.906  0.00  0.00    -0.200 NA
BRANCH   5   6
ATOM      6  S   UNL d   1       1.038  -0.117   0.120  0.00  0.00     0.244 S 
ATOM      7  O   UNL d   1       0.358  -0.059   1.395  0.00  0.00    -0.206 OA
ATOM      8  O   UNL d   1       2.466   0.144   0.042  0.00  0.00    -0.206 OA
BRANCH   6   9
ATOM      9  C   UNL d   1       0.784  -1.760  -0.522  0.00  0.00     0.077 A 
ATOM     10  C   UNL d   1       1.881  -2.481  -1.023  0.00  0.00     0.064 A 
ATOM     11  C   UNL d   1       1.805  -3.874  -1.208  0.00  0.00     0.102 A 
ATOM     12  C   UNL d   1       0.599  -4.536  -0.911  0.00  0.00     0.101 A 
ATOM     13  C   UNL d   1      -0.499  -3.796  -0.446  0.00  0.00     0.041 A 
ATOM     14  C   UNL d   1      -0.407  -2.423  -0.227  0.00  0.00     0.028 A 
BRANCH  11  15
ATOM     15  O   UNL d   1       2.865  -4.630  -1.631  0.00  0.00    -0.353 OA
ATOM     16  C   UNL d   1       4.106  -3.989  -1.894  0.00  0.00     0.210 C 
ENDBRANCH  11  15
BRANCH  12  17
ATOM     17  O   UNL d   1       0.311  -5.875  -0.980  0.00  0.00    -0.353 OA
ATOM     18  C   UNL d   1       1.340  -6.793  -1.316  0.00  0.00     0.210 C 
ENDBRANCH  12  17
ENDBRANCH   6   9
ENDBRANCH   5   6
BRANCH   5  19
ATOM     19  C   UNL d   1      -1.155   0.684  -1.239  0.00  0.00     0.172 C 
BRANCH  19  20
ATOM     20  C   UNL d   1      -1.816   1.718  -2.092  0.00  0.00     0.066 A 
ATOM     21  O   UNL d   1      -2.863   2.387  -1.522  0.00  0.00    -0.326 OA
ATOM     22  C   UNL d   1      -3.308   3.289  -2.434  0.00  0.00     0.142 A 
ATOM     23  C   UNL d   1      -2.562   3.214  -3.586  0.00  0.00     0.027 A 
ATOM     24  C   UNL d   1      -1.600   2.197  -3.370  0.00  0.00     0.036 A 
ENDBRANCH  19  20
ENDBRANCH   5  19
ENDBRANCH   4   5
ENDBRANCH   3   4
TORSDOF 8
