REMARK  4 active torsions:
REMARK  status: ('A' for Active; 'I' for Inactive)
REMARK    1  A    between atoms: C_8  and  C_1 
REMARK    2  A    between atoms: C_9  and  C_2 
REMARK    3  A    between atoms: N_15  and  C_12 
REMARK    4  A    between atoms: O_19  and  C_14 
ROOT
ATOM      1  C   UNL d   1      -0.184   1.052   0.003  0.00  0.00     0.176 A 
ATOM      2  C   UNL d   1      -0.203  -1.080  -0.002  0.00  0.00     0.176 A 
ATOM      3  O   UNL d   1      -1.053  -0.006  -0.099  0.00  0.00    -0.273 OA
ATOM      4  N   UNL d   1       1.071   0.660   0.105  0.00  0.00    -0.277 N 
ATOM      5  HN  UNL d   1       1.892   1.261   0.167  1.00  0.00     0.189 HD
ATOM      6  N   UNL d   1       1.059  -0.716   0.112  0.00  0.00    -0.277 N 
ATOM      7  HN  UNL d   1       1.868  -1.332   0.189  1.00  0.00     0.189 HD
ENDROOT
BRANCH   1   8
ATOM      8  C   UNL d   1      -0.757   2.392  -0.048  0.00  0.00     0.037 A 
ATOM      9  C   UNL d   1      -0.191   3.486   0.630  0.00  0.00     0.025 A 
ATOM     10  C   UNL d   1      -0.744   4.764   0.498  0.00  0.00     0.023 A 
ATOM     11 BR   UNL d   1       1.313   3.341   1.787  0.00  0.00    -0.050 Br
ATOM     12  C   UNL d   1      -1.861   4.965  -0.309  0.00  0.00     0.038 A 
ATOM     13  C   UNL d   1      -2.450   3.896  -0.981  0.00  0.00     0.069 A 
ATOM     14  C   UNL d   1      -1.905   2.617  -0.840  0.00  0.00     0.054 A 
BRANCH  13  15
ATOM     15  O   UNL d   1      -3.533   4.231  -1.745  0.00  0.00    -0.356 OA
ATOM     16  C   UNL d   1      -4.155   3.186  -2.482  0.00  0.00     0.210 C 
ENDBRANCH  13  15
ENDBRANCH   1   8
BRANCH   2  17
ATOM     17  C   UNL d   1      -0.796  -2.412  -0.013  0.00  0.00     0.038 A 
ATOM     18  C   UNL d   1      -0.148  -3.506   0.607  0.00  0.00     0.020 A 
ATOM     19  C   UNL d   1      -0.796  -4.750   0.628  0.00  0.00     0.024 A 
ATOM     20  C   UNL d   1      -2.015  -4.942  -0.024  0.00  0.00     0.002 A 
ATOM     21  C   UNL d   1      -2.625  -3.881  -0.681  0.00  0.00     0.001 A 
ATOM     22  C   UNL d   1      -2.023  -2.623  -0.671  0.00  0.00     0.017 A 
BRANCH  18  23
ATOM     23  N   UNL d   1       0.996  -3.345   1.414  0.00  0.00    -0.302 NA
ATOM     24  H   UNL d   1       1.577  -2.549   1.145  0.00  0.00     0.124 HD
ATOM     25  H   UNL d   1       1.543  -4.189   1.543  0.00  0.00     0.124 HD
ENDBRANCH  18  23
ENDBRANCH   2  17
TORSDOF 4
