REMARK  8 active torsions:
REMARK  status: ('A' for Active; 'I' for Inactive)
REMARK    1  A    between atoms: N_8  and  C_1 
REMARK    2  A    between atoms: S_4  and  C_2 
REMARK    3  A    between atoms: C_7  and  C_3 
REMARK    4  A    between atoms: C_20  and  S_4 
REMARK    5  A    between atoms: O_21  and  C_7 
REMARK    6  A    between atoms: N_9  and  N_8 
REMARK    7  A    between atoms: C_11  and  C_15 
REMARK    8  A    between atoms: C_23  and  C_20 
ROOT
ATOM      1  C   UNL d   1       1.503   0.852   0.059  0.00  0.00     0.093 A 
ATOM      2  C   UNL d   1       1.536  -0.582  -0.006  0.00  0.00     0.095 A 
ATOM      3  C   UNL d   1       0.196   1.329   0.069  0.00  0.00     0.109 A 
ATOM      4  S   UNL d   1      -0.944   0.038   0.093  0.00  0.00    -0.092 SA
ATOM      5  C   UNL d   1       0.277  -1.142  -0.002  0.00  0.00     0.076 A 
ENDROOT
BRANCH   1   6
ATOM      6  N   UNL d   1       2.627   1.626   0.107  0.00  0.00    -0.298 N 
ATOM      7  H   UNL d   1       3.535   1.205  -0.145  0.00  0.00     0.187 HD
BRANCH   6   8
ATOM      8  N   UNL d   1       2.604   2.885   0.622  0.00  0.00    -0.310 N 
ATOM      9  C   UNL d   1       3.534   3.691   0.213  0.00  0.00     0.126 C 
ATOM     10  HN  UNL d   1       1.895   3.179   1.294  1.00  0.00     0.186 HD
BRANCH   9  11
ATOM     11  C   UNL d   1       3.494   5.080   0.607  0.00  0.00     0.021 A 
ATOM     12  S   UNL d   1       4.619   6.181  -0.057  0.00  0.00    -0.101 SA
ATOM     13  C   UNL d   1       3.872   7.511   0.720  0.00  0.00     0.050 A 
ATOM     14  C   UNL d   1       2.807   7.121   1.501  0.00  0.00     0.008 A 
ATOM     15  C   UNL d   1       2.599   5.713   1.450  0.00  0.00     0.021 A 
ENDBRANCH   9  11
ENDBRANCH   6   8
ENDBRANCH   1   6
BRANCH   2  16
ATOM     16  S   UNL d   1       2.968  -1.563  -0.021  0.00  0.00     0.178 S 
ATOM     17  O   UNL d   1       2.594  -2.740  -0.775  0.00  0.00    -0.223 OA
ATOM     18  O   UNL d   1       4.026  -0.667  -0.450  0.00  0.00    -0.223 OA
BRANCH  16  19
ATOM     19  C   UNL d   1       3.213  -1.997   1.692  0.00  0.00     0.145 C 
BRANCH  19  20
ATOM     20  C   UNL d   1       4.363  -2.985   1.856  0.00  0.00     0.011 C 
ATOM     21  C   UNL d   1       4.609  -3.317   3.319  0.00  0.00     0.006 C 
ENDBRANCH  19  20
ENDBRANCH  16  19
ENDBRANCH   2  16
BRANCH   3  22
ATOM     22  C   UNL d   1      -0.356   2.674   0.058  0.00  0.00     0.302 C 
ATOM     23  O   UNL d   1      -1.369   3.026   0.656  0.00  0.00    -0.259 OA
BRANCH  22  24
ATOM     24  O   UNL d   1       0.328   3.485  -0.803  0.00  0.00    -0.322 OA
ATOM     25  C   UNL d   1      -0.166   4.824  -0.872  0.00  0.00     0.213 C 
ENDBRANCH  22  24
ENDBRANCH   3  22
TORSDOF 8
