REMARK  2 active torsions:
REMARK  status: ('A' for Active; 'I' for Inactive)
REMARK    1  A    between atoms: C_8  and  C_1 
REMARK    2  A    between atoms: N_7  and  C_8 
ROOT
ATOM      1  C   UNL d   1      -1.080   0.775   0.730  0.00  0.00    -0.017 C 
ATOM      2  C   UNL d   1       0.164   1.225   1.257  0.00  0.00    -0.047 C 
ATOM      3  C   UNL d   1      -1.202  -0.578   0.310  0.00  0.00    -0.047 C 
ATOM      4  C   UNL d   1       1.335   0.468   1.038  0.00  0.00    -0.049 C 
ATOM      5  C   UNL d   1      -0.042  -1.399   0.243  0.00  0.00    -0.049 C 
ATOM      6  C   UNL d   1       1.234  -0.851   0.525  0.00  0.00    -0.049 C 
ATOM      7  C   UNL d   1      -2.540  -1.194  -0.032  0.00  0.00     0.049 C 
ATOM      8  C   UNL d   1       0.235   2.526   2.030  0.00  0.00     0.049 C 
ATOM      9  C   UNL d   1       2.699   1.046   1.342  0.00  0.00     0.049 C 
ATOM     10  C   UNL d   1      -0.138  -2.854  -0.165  0.00  0.00     0.049 C 
ATOM     11  C   UNL d   1       2.501  -1.623   0.228  0.00  0.00     0.049 C 
ENDROOT
BRANCH   1  12
ATOM     12  C   UNL d   1      -2.244   1.769   0.619  0.00  0.00     0.312 C 
BRANCH  12  13
ATOM     13  N   UNL d   1      -1.861   3.044  -0.022  0.00  0.00     0.092 N 
ATOM     14  C   UNL d   1      -1.615   2.943  -1.465  0.00  0.00     0.273 C 
ATOM     15  C   UNL d   1      -2.868   2.877  -2.346  0.00  0.00     0.034 C 
ATOM     16  C   UNL d   1      -3.990   3.844  -1.936  0.00  0.00    -0.015 C 
ATOM     17  C   UNL d   1      -4.146   3.950  -0.417  0.00  0.00     0.034 C 
ATOM     18  C   UNL d   1      -5.318   3.418  -2.571  0.00  0.00     0.010 C 
ATOM     19  C   UNL d   1      -2.799   4.127   0.271  0.00  0.00     0.273 C 
ENDBRANCH  12  13
ENDBRANCH   1  12
TORSDOF 2
