REMARK  2 active torsions:
REMARK  status: ('A' for Active; 'I' for Inactive)
REMARK    1  A    between atoms: N_7  and  S_1 
REMARK    2  A    between atoms: C_8  and  S_1 
ROOT
ATOM      1  N   UNL d   1      -0.583   1.740   5.528  0.00  0.00    -0.321 N 
ATOM      2  C   UNL d   1      -1.014   0.543   6.113  0.00  0.00     0.232 A 
ATOM      3  C   UNL d   1      -0.283   0.184   3.892  0.00  0.00    -0.017 A 
ATOM      4  C   UNL d   1      -0.137   1.535   4.217  0.00  0.00     0.043 A 
ATOM      5  C   UNL d   1      -0.834  -0.571   5.069  0.00  0.00     0.109 A 
ATOM      6  C   UNL d   1       0.589   0.603   1.714  0.00  0.00     0.075 A 
ATOM      7  C   UNL d   1       0.057  -0.302   2.637  0.00  0.00     0.035 A 
ATOM      8  C   UNL d   1       0.384   2.438   3.307  0.00  0.00     0.032 A 
ATOM      9  O   UNL d   1      -1.446   0.399   7.247  0.00  0.00    -0.272 OA
ATOM     10  C   UNL d   1       0.759   1.962   2.043  0.00  0.00     0.027 A 
ATOM     11  C   UNL d   1      -0.637   2.996   6.221  0.00  0.00     0.159 C 
ATOM     12  C   UNL d   1       0.132  -1.633   5.570  0.00  0.00     0.025 C 
ENDROOT
BRANCH   6  13
ATOM     13  S   UNL d   1       1.055   0.006   0.103  0.00  0.00     0.243 S 
ATOM     14  O   UNL d   1      -0.136  -0.553  -0.498  0.00  0.00    -0.206 OA
ATOM     15  O   UNL d   1       1.813   1.045  -0.559  0.00  0.00    -0.206 OA
BRANCH  13  16
ATOM     16  N   UNL d   1       2.124  -1.276   0.450  0.00  0.00    -0.202 NA
ATOM     17  C   UNL d   1       3.383  -0.942   1.186  0.00  0.00     0.134 C 
ATOM     18  C   UNL d   1       4.475  -0.427   0.245  0.00  0.00     0.183 C 
ATOM     19  O   UNL d   1       4.754  -1.387  -0.782  0.00  0.00    -0.389 OA
ATOM     20  C   UNL d   1       3.580  -1.632  -1.571  0.00  0.00     0.183 C 
ATOM     21  C   UNL d   1       2.430  -2.175  -0.713  0.00  0.00     0.134 C 
ENDBRANCH  13  16
ENDBRANCH   6  13
TORSDOF 2
