REMARK  3 active torsions:
REMARK  status: ('A' for Active; 'I' for Inactive)
REMARK    1  A    between atoms: C_8  and  C_3 
REMARK    2  A    between atoms: C_12  and  C_4 
REMARK    3  A    between atoms: O_22  and  C_19 
ROOT
ATOM      1  N   UNL d   1       0.288   0.644  -0.011  0.00  0.00    -0.202 N 
ATOM      2  C   UNL d   1       0.281  -0.734   0.050  0.00  0.00     0.144 A 
ATOM      3  C   UNL d   1       2.353   0.073  -0.056  0.00  0.00     0.147 A 
ATOM      4  C   UNL d   1       1.600  -1.150   0.027  0.00  0.00     0.053 A 
ATOM      5  N   UNL d   1       1.538   1.153  -0.056  0.00  0.00    -0.284 N 
ATOM      6  HN  UNL d   1       1.809   2.136  -0.084  1.00  0.00     0.187 HD
ATOM      7  C   UNL d   1      -0.866   1.450  -0.025  0.00  0.00     0.270 A 
ATOM      8  N   UNL d   1      -0.922  -1.360   0.116  0.00  0.00    -0.344 N 
ATOM      9  C   UNL d   1      -2.142   0.685  -0.003  0.00  0.00     0.101 A 
ATOM     10  C   UNL d   1      -2.116  -0.659   0.060  0.00  0.00     0.012 A 
ATOM     11  O   UNL d   1      -0.815   2.672  -0.065  0.00  0.00    -0.266 OA
ATOM     12  C   UNL d   1      -3.388  -1.461   0.055  0.00  0.00     0.068 C 
ATOM     13  H   UNL d   1      -0.994  -2.371   0.232  0.00  0.00     0.167 HD
ENDROOT
BRANCH   4  14
ATOM     14  C   UNL d   1       2.018  -2.548   0.071  0.00  0.00    -0.020 A 
ATOM     15  C   UNL d   1       1.332  -3.531  -0.660  0.00  0.00     0.015 A 
ATOM     16  C   UNL d   1       1.719  -4.877  -0.608  0.00  0.00     0.037 A 
ATOM     17  C   UNL d   1       2.822  -5.254   0.153  0.00  0.00     0.068 A 
ATOM     18  C   UNL d   1       3.535  -4.282   0.852  0.00  0.00     0.037 A 
ATOM     19  C   UNL d   1       3.120  -2.945   0.838  0.00  0.00     0.015 A 
BRANCH  17  20
ATOM     20  O   UNL d   1       3.322  -6.524   0.228  0.00  0.00    -0.356 OA
ATOM     21  C   UNL d   1       2.345  -7.559   0.232  0.00  0.00     0.210 C 
ENDBRANCH  17  20
ENDBRANCH   4  14
BRANCH   3  22
ATOM     22  C   UNL d   1       3.848   0.268  -0.144  0.00  0.00     0.434 C 
ATOM     23  F   UNL d   1       4.527  -0.876  -0.422  0.00  0.00    -0.165 F 
ATOM     24  F   UNL d   1       4.200   1.151  -1.117  0.00  0.00    -0.165 F 
ATOM     25  F   UNL d   1       4.364   0.741   1.024  0.00  0.00    -0.165 F 
ENDBRANCH   3  22
TORSDOF 3
