REMARK  6 active torsions:
REMARK  status: ('A' for Active; 'I' for Inactive)
REMARK    1  A    between atoms: C_4  and  N_1 
REMARK    2  A    between atoms: S_3  and  C_2 
REMARK    3  A    between atoms: C_11  and  S_3 
REMARK    4  A    between atoms: O_23  and  C_7 
REMARK    5  A    between atoms: C_12  and  C_8 
REMARK    6  A    between atoms: C_14  and  C_13 
ROOT
ATOM      1  N   UNL d   1      -0.126  -1.233   0.095  0.00  0.00    -0.254 N 
ATOM      2  C   UNL d   1       1.099  -0.599  -0.098  0.00  0.00     0.175 A 
ATOM      3  N   UNL d   1       0.919   0.685  -0.330  0.00  0.00    -0.276 N 
ATOM      4  HN  UNL d   1       1.654   1.364  -0.528  1.00  0.00     0.189 HD
ATOM      5  C   UNL d   1      -1.030  -0.169   0.005  0.00  0.00     0.245 A 
ATOM      6  N   UNL d   1      -0.416   0.954  -0.263  0.00  0.00    -0.263 N 
ATOM      7  HN  UNL d   1      -0.855   1.865  -0.396  1.00  0.00     0.190 HD
ENDROOT
BRANCH   2   8
ATOM      8  S   UNL d   1       2.630  -1.366  -0.363  0.00  0.00    -0.033 SA
BRANCH   8   9
ATOM      9  C   UNL d   1       3.583  -0.733   1.028  0.00  0.00     0.092 A 
ATOM     10  C   UNL d   1       4.897  -1.120   1.290  0.00  0.00     0.081 A 
ATOM     11  C   UNL d   1       5.509  -0.623   2.462  0.00  0.00     0.020 A 
ATOM     12  C   UNL d   1       4.827   0.237   3.313  0.00  0.00     0.018 A 
ATOM     13  C   UNL d   1       3.543   0.578   2.969  0.00  0.00     0.089 A 
ATOM     14  N   UNL d   1       2.921   0.108   1.869  0.00  0.00    -0.360 N 
ATOM     15  HN  UNL d   1       1.960   0.382   1.668  1.00  0.00     0.166 HD
BRANCH  10  16
ATOM     16  C   UNL d   1       5.715  -2.044   0.436  0.00  0.00     0.420 C 
ATOM     17  F   UNL d   1       5.135  -2.523  -0.694  0.00  0.00    -0.166 F 
ATOM     18  F   UNL d   1       6.870  -1.445   0.018  0.00  0.00    -0.166 F 
ATOM     19  F   UNL d   1       6.121  -3.148   1.129  0.00  0.00    -0.166 F 
ENDBRANCH  10  16
ENDBRANCH   8   9
ENDBRANCH   2   8
BRANCH   1  20
ATOM     20  C   UNL d   1      -0.485  -2.626   0.193  0.00  0.00     0.060 A 
ATOM     21  C   UNL d   1       0.205  -3.602   0.947  0.00  0.00     0.075 A 
ATOM     22  C   UNL d   1      -0.237  -4.949   0.879  0.00  0.00     0.018 A 
ATOM     23  C   UNL d   1      -1.383  -5.315   0.181  0.00  0.00     0.001 A 
ATOM     24  C   UNL d   1      -2.101  -4.347  -0.498  0.00  0.00     0.002 A 
ATOM     25  C   UNL d   1      -1.644  -3.027  -0.516  0.00  0.00     0.031 A 
BRANCH  21  26
ATOM     26  C   UNL d   1       1.306  -3.357   1.956  0.00  0.00     0.419 C 
ATOM     27  F   UNL d   1       1.315  -2.094   2.445  0.00  0.00    -0.166 F 
ATOM     28  F   UNL d   1       1.179  -4.155   3.059  0.00  0.00    -0.166 F 
ATOM     29  F   UNL d   1       2.546  -3.623   1.472  0.00  0.00    -0.166 F 
ENDBRANCH  21  26
ENDBRANCH   1  20
BRANCH   5  30
ATOM     30  O   UNL d   1      -2.345  -0.217   0.194  0.00  0.00    -0.331 OA
ATOM     31  H   UNL d   1      -2.552  -0.995   0.733  0.00  0.00     0.221 HD
ENDBRANCH   5  30
TORSDOF 6
