REMARK  3 active torsions:
REMARK  status: ('A' for Active; 'I' for Inactive)
REMARK    1  A    between atoms: N_2  and  S_1 
REMARK    2  A    between atoms: C_8  and  S_1 
REMARK    3  A    between atoms: C_3  and  N_2 
ROOT
ATOM      1  C   UNL d   1       0.357   1.628  -0.007  0.00  0.00     0.074 A 
ATOM      2  N   UNL d   1      -1.702   6.599   0.304  0.00  0.00    -0.191 NA
ATOM      3  C   UNL d   1      -1.253   5.534   0.229  0.00  0.00     0.099 C 
ATOM      4  C   UNL d   1       1.148   2.675   0.475  0.00  0.00     0.026 A 
ATOM      5  C   UNL d   1      -0.950   1.866  -0.444  0.00  0.00     0.026 A 
ATOM      6  C   UNL d   1      -0.702   4.210   0.134  0.00  0.00     0.044 A 
ATOM      7  C   UNL d   1       0.614   3.966   0.550  0.00  0.00     0.024 A 
ATOM      8  C   UNL d   1      -1.480   3.157  -0.363  0.00  0.00     0.024 A 
ENDROOT
BRANCH   1   9
ATOM      9  S   UNL d   1       1.032  -0.012  -0.095  0.00  0.00     0.247 S 
ATOM     10  O   UNL d   1       0.304  -0.736  -1.119  0.00  0.00    -0.205 OA
ATOM     11  O   UNL d   1       2.476   0.075  -0.146  0.00  0.00    -0.205 OA
BRANCH   9  12
ATOM     12  N   UNL d   1       0.552  -0.685   1.377  0.00  0.00    -0.165 NA
ATOM     13  H   UNL d   1       0.175  -1.616   1.209  0.00  0.00     0.147 HD
BRANCH  12  14
ATOM     14  C   UNL d   1       1.425  -0.541   2.447  0.00  0.00     0.117 A 
ATOM     15  N   UNL d   1       1.356   0.502   3.276  0.00  0.00    -0.249 N 
ATOM     16  O   UNL d   1       2.357   0.300   4.212  0.00  0.00    -0.241 OA
ATOM     17  HN  UNL d   1       0.703   1.284   3.230  1.00  0.00     0.196 HD
ATOM     18  C   UNL d   1       3.015  -0.856   3.924  0.00  0.00     0.075 A 
ATOM     19  C   UNL d   1       2.447  -1.436   2.816  0.00  0.00     0.079 A 
ATOM     20  C   UNL d   1       4.141  -1.212   4.804  0.00  0.00     0.079 C 
ENDBRANCH  12  14
ENDBRANCH   9  12
ENDBRANCH   1   9
TORSDOF 3
