REMARK  5 active torsions:
REMARK  status: ('A' for Active; 'I' for Inactive)
REMARK    1  A    between atoms: N_7  and  C_1 
REMARK    2  A    between atoms: O_11  and  C_2 
REMARK    3  A    between atoms: C_13  and  C_5 
REMARK    4  A    between atoms: C_12  and  N_9 
REMARK    5  A    between atoms: O_20  and  C_13 
ROOT
ATOM      1  C   UNL d   1      -0.170  -1.390  -0.084  0.00  0.00     0.126 A 
ATOM      2  C   UNL d   1       1.092  -0.841  -0.025  0.00  0.00     0.187 A 
ATOM      3  N   UNL d   1      -0.409   0.873   0.013  0.00  0.00    -0.296 N 
ATOM      4  HN  UNL d   1      -0.802   1.814   0.049  1.00  0.00     0.187 HD
ATOM      5  C   UNL d   1      -1.067  -0.299  -0.032  0.00  0.00     0.082 A 
ATOM      6  N   UNL d   1       0.894   0.514  -0.001  0.00  0.00    -0.274 N 
ATOM      7  C   UNL d   1       1.903   1.544   0.000  0.00  0.00     0.180 C 
ENDROOT
BRANCH   1   8
ATOM      8  N   UNL d   1      -0.532  -2.744  -0.149  0.00  0.00    -0.294 N 
ATOM      9  N   UNL d   1       0.407  -3.478  -0.524  0.00  0.00    -0.300 N 
ATOM     10  HN  UNL d   1       1.344  -3.131  -0.731  1.00  0.00     0.187 HD
ATOM     11  HN  UNL d   1      -1.462  -3.092   0.084  1.00  0.00     0.187 HD
BRANCH   9  12
ATOM     12  C   UNL d   1       0.038  -4.836  -0.632  0.00  0.00     0.048 A 
ATOM     13  C   UNL d   1       0.558  -5.577  -1.696  0.00  0.00     0.031 A 
ATOM     14  C   UNL d   1       0.283  -6.943  -1.825  0.00  0.00     0.009 A 
ATOM     15  C   UNL d   1      -0.515  -7.594  -0.881  0.00  0.00    -0.062 A 
ATOM     16  C   UNL d   1      -1.034  -6.860   0.191  0.00  0.00     0.009 A 
ATOM     17  C   UNL d   1      -0.797  -9.062  -1.021  0.00  0.00     0.048 C 
ATOM     18  C   UNL d   1      -0.754  -5.495   0.317  0.00  0.00     0.031 A 
ENDBRANCH   9  12
ENDBRANCH   1   8
BRANCH   2  19
ATOM     19  O   UNL d   1       2.306  -1.387   0.003  0.00  0.00    -0.343 OA
ATOM     20  H   UNL d   1       2.155  -2.353  -0.024  0.00  0.00     0.219 HD
ENDBRANCH   2  19
BRANCH   5  21
ATOM     21  C   UNL d   1      -2.561  -0.322   0.004  0.00  0.00     0.228 C 
BRANCH  21  22
ATOM     22  O   UNL d   1      -3.104  -0.991   1.154  0.00  0.00    -0.390 OA
ATOM     23  C   UNL d   1      -2.805  -0.312   2.368  0.00  0.00     0.201 C 
ENDBRANCH  21  22
ENDBRANCH   5  21
TORSDOF 5
