REMARK  6 active torsions:
REMARK  status: ('A' for Active; 'I' for Inactive)
REMARK    1  A    between atoms: C_2  and  O_15 
REMARK    2  A    between atoms: C_9  and  C_2 
REMARK    3  A    between atoms: O_15  and  N_3 
REMARK    4  A    between atoms: C_7  and  C_9 
REMARK    5  A    between atoms: O_19  and  C_12 
REMARK    6  A    between atoms: C_16  and  C_17 
ROOT
ATOM      1  N   UNL d   1       4.816  -1.514   2.792  0.00  0.00    -0.268 N 
ATOM      2  HN  UNL d   1       5.570  -1.918   3.348  1.00  0.00     0.194 HD
ATOM      3  C   UNL d   1       3.570  -1.802   3.018  0.00  0.00     0.126 C 
ENDROOT
BRANCH   1   4
ATOM      4  O   UNL d   1       5.069  -0.624   1.748  0.00  0.00    -0.200 OA
BRANCH   4   5
ATOM      5  C   UNL d   1       6.444  -0.453   1.622  0.00  0.00     0.285 C 
ATOM      6  O   UNL d   1       7.311  -1.076   2.220  0.00  0.00    -0.263 OA
BRANCH   5   7
ATOM      7  C   UNL d   1       6.703   0.603   0.579  0.00  0.00     0.154 C 
BRANCH   7   8
ATOM      8  C   UNL d   1       8.038   1.310   0.685  0.00  0.00    -0.015 A 
ATOM      9  C   UNL d   1       8.981   1.276  -0.351  0.00  0.00     0.074 A 
ATOM     10  C   UNL d   1      10.085   2.132  -0.353  0.00  0.00     0.037 A 
ATOM     11  C   UNL d   1      10.314   2.972   0.734  0.00  0.00     0.003 A 
ATOM     12  C   UNL d   1       9.449   2.939   1.826  0.00  0.00     0.001 A 
ATOM     13  C   UNL d   1       8.315   2.120   1.799  0.00  0.00     0.010 A 
BRANCH   9  14
ATOM     14  O   UNL d   1       8.844   0.430  -1.421  0.00  0.00    -0.355 OA
ATOM     15  C   UNL d   1       9.285  -0.884  -1.057  0.00  0.00     0.210 C 
ENDBRANCH   9  14
ENDBRANCH   7   8
ENDBRANCH   5   7
ENDBRANCH   4   5
ENDBRANCH   1   4
BRANCH   3  16
ATOM     16  C   UNL d   1       2.286  -1.422   2.378  0.00  0.00    -0.016 A 
ATOM     17  C   UNL d   1       2.148  -0.693   1.194  0.00  0.00     0.052 A 
ATOM     18  C   UNL d   1       0.863  -0.478   0.717  0.00  0.00     0.105 A 
ATOM     19  C   UNL d   1      -0.253  -0.953   1.369  0.00  0.00     0.105 A 
ATOM     20  O   UNL d   1       0.536   0.192  -0.423  0.00  0.00    -0.323 OA
ATOM     21  O   UNL d   1      -1.411  -0.646   0.727  0.00  0.00    -0.323 OA
ATOM     22  C   UNL d   1      -0.156  -1.665   2.539  0.00  0.00     0.040 A 
ATOM     23  C   UNL d   1      -0.904   0.063  -0.421  0.00  0.00     0.352 A 
ATOM     24  C   UNL d   1       1.127  -1.901   3.043  0.00  0.00     0.016 A 
ENDBRANCH   3  16
TORSDOF 6
