REMARK  7 active torsions:
REMARK  status: ('A' for Active; 'I' for Inactive)
REMARK    1  A    between atoms: C_7  and  C_1 
REMARK    2  A    between atoms: C_13  and  N_2 
REMARK    3  A    between atoms: C_20  and  C_3 
REMARK    4  A    between atoms: O_16  and  C_7 
REMARK    5  A    between atoms: C_9  and  C_15 
REMARK    6  A    between atoms: N_11  and  O_16 
REMARK    7  A    between atoms: C_25  and  C_20 
ROOT
ATOM      1  C   UNL d   1      -0.333   1.206   0.030  0.00  0.00     0.082 A 
ATOM      2  N   UNL d   1       0.905  -0.654   0.081  0.00  0.00    -0.260 N 
ATOM      3  C   UNL d   1       0.985   0.739   0.020  0.00  0.00     0.052 A 
ATOM      4  N   UNL d   1      -0.391  -1.058   0.206  0.00  0.00    -0.304 N 
ATOM      5  HN  UNL d   1      -0.731  -2.008   0.356  1.00  0.00     0.186 HD
ATOM      6  C   UNL d   1      -1.116   0.046   0.092  0.00  0.00     0.127 A 
ENDROOT
BRANCH   1   7
ATOM      7  C   UNL d   1      -0.790   2.580  -0.045  0.00  0.00     0.318 C 
ATOM      8  O   UNL d   1      -0.042   3.550  -0.057  0.00  0.00    -0.257 OA
BRANCH   7   9
ATOM      9  O   UNL d   1      -2.165   2.657  -0.146  0.00  0.00    -0.195 OA
BRANCH   9  10
ATOM     10  N   UNL d   1      -2.466   3.586  -1.153  0.00  0.00    -0.268 N 
ATOM     11  C   UNL d   1      -3.743   3.753  -1.262  0.00  0.00     0.127 C 
ATOM     12  HN  UNL d   1      -1.770   4.066  -1.723  1.00  0.00     0.194 HD
BRANCH  11  13
ATOM     13  C   UNL d   1      -4.275   4.556  -2.385  0.00  0.00     0.003 A 
ATOM     14  C   UNL d   1      -5.640   4.817  -2.538  0.00  0.00     0.047 A 
ATOM     15  C   UNL d   1      -6.092   5.512  -3.667  0.00  0.00     0.048 A 
ATOM     16 CL   UNL d   1      -6.825   4.310  -1.388  0.00  0.00    -0.083 Cl
ATOM     17  C   UNL d   1      -5.183   5.937  -4.636  0.00  0.00     0.035 A 
ATOM     18  C   UNL d   1      -3.823   5.690  -4.487  0.00  0.00     0.025 A 
ATOM     19 CL   UNL d   1      -5.746   6.766  -6.033  0.00  0.00    -0.084 Cl
ATOM     20  C   UNL d   1      -3.369   5.003  -3.361  0.00  0.00     0.016 A 
ENDBRANCH  11  13
ENDBRANCH   9  10
ENDBRANCH   7   9
ENDBRANCH   1   7
BRANCH   3  21
ATOM     21  C   UNL d   1       2.247   1.552   0.036  0.00  0.00     0.060 C 
BRANCH  21  22
ATOM     22  C   UNL d   1       2.629   2.069  -1.357  0.00  0.00     0.002 C 
ATOM     23  C   UNL d   1       3.892   2.915  -1.308  0.00  0.00     0.005 C 
ENDBRANCH  21  22
ENDBRANCH   3  21
BRANCH   2  24
ATOM     24  C   UNL d   1       1.905  -1.669  -0.013  0.00  0.00     0.056 A 
ATOM     25  C   UNL d   1       1.612  -2.944   0.505  0.00  0.00     0.031 A 
ATOM     26  C   UNL d   1       2.514  -3.999   0.359  0.00  0.00     0.002 A 
ATOM     27  C   UNL d   1       3.709  -3.800  -0.324  0.00  0.00     0.000 A 
ATOM     28  C   UNL d   1       4.014  -2.541  -0.834  0.00  0.00     0.002 A 
ATOM     29  C   UNL d   1       3.123  -1.475  -0.669  0.00  0.00     0.031 A 
ENDBRANCH   2  24
TORSDOF 7
