REMARK  7 active torsions:
REMARK  status: ('A' for Active; 'I' for Inactive)
REMARK    1  A    between atoms: C_2  and  S_1 
REMARK    2  A    between atoms: N_5  and  S_1 
REMARK    3  A    between atoms: C_14  and  C_4 
REMARK    4  A    between atoms: C_7  and  N_9 
REMARK    5  A    between atoms: O_26  and  C_14 
REMARK    6  A    between atoms: C_28  and  C_20 
REMARK    7  A    between atoms: C_30  and  C_28 
ROOT
ATOM      1  N   UNL d   1       0.652   1.484  -0.499  0.00  0.00    -0.204 NA
ATOM      2  N   UNL d   1       0.941   4.354  -1.401  0.00  0.00    -0.216 N 
ATOM      3  C   UNL d   1       1.437   2.551   0.231  0.00  0.00     0.128 C 
ATOM      4  C   UNL d   1       0.842   3.949  -0.002  0.00  0.00     0.157 C 
ATOM      5  C   UNL d   1      -0.072   2.480  -2.700  0.00  0.00     0.036 C 
ATOM      6  C   UNL d   1       0.918   1.574  -1.978  0.00  0.00     0.109 C 
ATOM      7  C   UNL d   1      -0.121   3.955  -2.303  0.00  0.00     0.142 C 
ENDROOT
BRANCH   1   8
ATOM      8  S   UNL d   1       0.946  -0.101   0.100  0.00  0.00     0.259 S 
ATOM      9  O   UNL d   1       0.142  -1.034  -0.659  0.00  0.00    -0.204 OA
ATOM     10  O   UNL d   1       2.376  -0.267   0.242  0.00  0.00    -0.204 OA
BRANCH   8  11
ATOM     11  C   UNL d   1       0.310  -0.269   1.761  0.00  0.00     0.146 A 
ATOM     12  N   UNL d   1       0.444  -1.438   2.504  0.00  0.00    -0.336 N 
ATOM     13  C   UNL d   1      -0.123  -1.284   3.767  0.00  0.00     0.111 A 
ATOM     14  C   UNL d   1       1.056  -2.675   2.051  0.00  0.00     0.157 C 
ATOM     15  C   UNL d   1      -0.644   0.000   3.801  0.00  0.00     0.039 A 
ATOM     16  C   UNL d   1      -0.400   0.616   2.557  0.00  0.00     0.046 A 
BRANCH  13  17
ATOM     17  C   UNL d   1      -0.156  -2.295   4.812  0.00  0.00     0.309 C 
ATOM     18  O   UNL d   1       0.293  -3.430   4.733  0.00  0.00    -0.258 OA
BRANCH  17  19
ATOM     19  O   UNL d   1      -0.772  -1.786   5.919  0.00  0.00    -0.321 OA
ATOM     20  C   UNL d   1      -0.869  -2.688   7.020  0.00  0.00     0.213 C 
ENDBRANCH  17  19
ENDBRANCH  13  17
ENDBRANCH   8  11
ENDBRANCH   1   8
BRANCH   2  21
ATOM     21  C   UNL d   1       1.999   5.118  -1.834  0.00  0.00     0.679 A 
ATOM     22  N   UNL d   1       2.912   5.524  -0.936  0.00  0.00    -0.201 N 
ATOM     23  C   UNL d   1       3.893   6.348  -1.360  0.00  0.00     0.114 A 
ATOM     24  HN  UNL d   1       2.866   5.218   0.036  1.00  0.00     0.183 HD
ATOM     25  C   UNL d   1       4.025   6.787  -2.656  0.00  0.00    -0.026 A 
ATOM     26  C   UNL d   1       3.077   6.276  -3.512  0.00  0.00     0.114 A 
ATOM     27  N   UNL d   1       2.076   5.457  -3.131  0.00  0.00    -0.201 N 
ATOM     28  HN  UNL d   1       1.398   5.106  -3.807  1.00  0.00     0.183 HD
BRANCH  25  29
ATOM     29  C   UNL d   1       5.111   7.724  -3.088  0.00  0.00     0.041 C 
BRANCH  29  30
ATOM     30  C   UNL d   1       4.611   9.035  -3.708  0.00  0.00     0.000 C 
ATOM     31  C   UNL d   1       3.810   9.893  -2.738  0.00  0.00     0.005 C 
ENDBRANCH  29  30
ENDBRANCH  25  29
ENDBRANCH   2  21
TORSDOF 7
