REMARK  2 active torsions:
REMARK  status: ('A' for Active; 'I' for Inactive)
REMARK    1  A    between atoms: C_2  and  C_1 
REMARK    2  A    between atoms: O_10  and  C_2 
ROOT
ATOM      1  C   UNL d   1      -0.033   2.180  -0.151  0.00  0.00     0.110 C 
ATOM      2  C   UNL d   1       0.446   2.921   0.873  0.00  0.00     0.158 C 
ATOM      3  C   UNL d   1       0.568   4.335   0.750  0.00  0.00     0.113 C 
ATOM      4  C   UNL d   1       0.841   2.325   2.104  0.00  0.00     0.113 C 
ATOM      5  N   UNL d   1       0.673   5.488   0.680  0.00  0.00    -0.191 NA
ATOM      6  N   UNL d   1       1.158   1.810   3.095  0.00  0.00    -0.191 NA
ENDROOT
BRANCH   1   7
ATOM      7  C   UNL d   1      -0.205   0.710  -0.081  0.00  0.00     0.043 A 
ATOM      8  C   UNL d   1      -1.438   0.145   0.297  0.00  0.00     0.048 A 
ATOM      9 CL   UNL d   1      -2.825   1.126   0.628  0.00  0.00    -0.083 Cl
ATOM     10  C   UNL d   1      -1.589  -1.241   0.413  0.00  0.00     0.025 A 
ATOM     11  C   UNL d   1      -0.512  -2.086   0.155  0.00  0.00     0.003 A 
ATOM     12  C   UNL d   1       0.711  -1.548  -0.236  0.00  0.00     0.025 A 
ATOM     13  C   UNL d   1       0.865  -0.163  -0.358  0.00  0.00     0.048 A 
ATOM     14 CL   UNL d   1       2.409   0.426  -0.870  0.00  0.00    -0.083 Cl
ENDBRANCH   1   7
BRANCH   1  15
ATOM     15  O   UNL d   1      -0.416   2.761  -1.348  0.00  0.00    -0.357 OA
ATOM     16  H   UNL d   1      -0.744   2.077  -1.960  0.00  0.00     0.217 HD
ENDBRANCH   1  15
TORSDOF 2
