REMARK  5 active torsions:
REMARK  status: ('A' for Active; 'I' for Inactive)
REMARK    1  A    between atoms: C_6  and  C_1 
REMARK    2  A    between atoms: C_9  and  C_2 
REMARK    3  A    between atoms: C_13  and  N_3 
REMARK       I    between atoms: C_8  and  N_10 
REMARK    4  A    between atoms: C_12  and  C_8 
REMARK       I    between atoms: N_11  and  C_9 
REMARK    5  A    between atoms: N_10  and  N_11 
ROOT
ATOM      1  C   UNL d   1       1.140  -0.785  -0.286  0.00  0.00     0.157 A 
ATOM      2  C   UNL d   1      -0.155  -1.282  -0.092  0.00  0.00     0.084 A 
ATOM      3  N   UNL d   1       1.071   0.592  -0.096  0.00  0.00    -0.251 N 
ATOM      4  N   UNL d   1      -0.180   0.972   0.269  0.00  0.00    -0.303 N 
ATOM      5  HN  UNL d   1      -0.489   1.906   0.538  1.00  0.00     0.186 HD
ATOM      6  C   UNL d   1      -0.914  -0.131   0.201  0.00  0.00     0.127 A 
ENDROOT
BRANCH   2   7
ATOM      7  C   UNL d   1      -0.725  -2.625  -0.126  0.00  0.00     0.273 C 
ATOM      8  N   UNL d   1       0.144  -3.684   0.006  0.00  0.00    -0.263 N 
ATOM      9  H   UNL d   1       1.125  -3.568   0.264  0.00  0.00     0.190 HD
ATOM     10  O   UNL d   1      -1.939  -2.804  -0.217  0.00  0.00    -0.266 OA
BRANCH   8  11
ATOM     11  N   UNL d   1      -0.371  -4.976   0.201  0.00  0.00    -0.265 N 
ATOM     12  C   UNL d   1       0.369  -5.859   0.970  0.00  0.00     0.269 C 
ATOM     13  O   UNL d   1       1.456  -5.529   1.454  0.00  0.00    -0.269 OA
ATOM     14  H   UNL d   1      -1.353  -5.129  -0.037  0.00  0.00     0.190 HD
BRANCH  12  15
ATOM     15  C   UNL d   1      -0.240  -7.235   1.206  0.00  0.00     0.271 C 
ATOM     16 CL   UNL d   1      -1.493  -7.107   2.453  0.00  0.00    -0.098 Cl
ATOM     17 CL   UNL d   1      -0.918  -7.887  -0.301  0.00  0.00    -0.098 Cl
ENDBRANCH  12  15
ENDBRANCH   8  11
ENDBRANCH   2   7
BRANCH   1  18
ATOM     18  C   UNL d   1       2.417  -1.457  -0.564  0.00  0.00     0.435 C 
ATOM     19  F   UNL d   1       2.374  -2.783  -0.284  0.00  0.00    -0.165 F 
ATOM     20  F   UNL d   1       2.760  -1.366  -1.873  0.00  0.00    -0.165 F 
ATOM     21  F   UNL d   1       3.445  -0.974   0.170  0.00  0.00    -0.165 F 
ENDBRANCH   1  18
BRANCH   3  22
ATOM     22  C   UNL d   1       2.083   1.600  -0.159  0.00  0.00     0.057 A 
ATOM     23  C   UNL d   1       3.186   1.516  -1.016  0.00  0.00     0.031 A 
ATOM     24  C   UNL d   1       4.199   2.479  -0.958  0.00  0.00     0.002 A 
ATOM     25  C   UNL d   1       4.110   3.541  -0.062  0.00  0.00     0.000 A 
ATOM     26  C   UNL d   1       2.987   3.668   0.751  0.00  0.00     0.002 A 
ATOM     27  C   UNL d   1       1.969   2.713   0.692  0.00  0.00     0.031 A 
ENDBRANCH   3  22
TORSDOF 5
