REMARK  1 active torsions:
REMARK  status: ('A' for Active; 'I' for Inactive)
REMARK    1  A    between atoms: C_11  and  N_2 
ROOT
ATOM      1  C   UNL d   1      -0.410   0.758   0.019  0.00  0.00     0.096 A 
ATOM      2  N   UNL d   1       1.964   1.088  -0.028  0.00  0.00    -0.220 N 
ATOM      3  C   UNL d   1       0.674   1.698   0.024  0.00  0.00     0.282 A 
ATOM      4  C   UNL d   1      -0.153  -0.575  -0.019  0.00  0.00     0.140 A 
ATOM      5  N   UNL d   1       2.179  -0.317  -0.099  0.00  0.00    -0.292 N 
ATOM      6  HN  UNL d   1       3.126  -0.690  -0.170  1.00  0.00     0.187 HD
ATOM      7  C   UNL d   1       1.154  -1.122  -0.072  0.00  0.00     0.059 A 
ATOM      8  O   UNL d   1      -1.300  -1.283  -0.017  0.00  0.00    -0.235 OA
ATOM      9  N   UNL d   1      -2.366  -0.384   0.015  0.00  0.00    -0.264 N 
ATOM     10  HN  UNL d   1      -3.361  -0.610   0.024  1.00  0.00     0.194 HD
ATOM     11  C   UNL d   1      -1.813   0.842   0.029  0.00  0.00     0.047 A 
ATOM     12  O   UNL d   1       0.439   2.903   0.044  0.00  0.00    -0.265 OA
ATOM     13  C   UNL d   1       1.343  -2.609  -0.089  0.00  0.00     0.072 C 
ATOM     14  C   UNL d   1      -2.653   2.062   0.040  0.00  0.00     0.071 C 
ENDROOT
BRANCH   2  15
ATOM     15  C   UNL d   1       3.181   1.845   0.036  0.00  0.00     0.061 A 
ATOM     16  C   UNL d   1       3.233   3.120   0.623  0.00  0.00     0.058 A 
ATOM     17  C   UNL d   1       4.439   3.825   0.701  0.00  0.00     0.074 A 
ATOM     18 CL   UNL d   1       4.467   5.365   1.472  0.00  0.00    -0.081 Cl
ATOM     19  C   UNL d   1       5.603   3.276   0.177  0.00  0.00     0.138 A 
ATOM     20  C   UNL d   1       5.579   2.019  -0.415  0.00  0.00     0.046 A 
ATOM     21  F   UNL d   1       6.766   3.939   0.240  0.00  0.00    -0.204 F 
ATOM     22  C   UNL d   1       4.378   1.304  -0.472  0.00  0.00     0.035 A 
ENDBRANCH   2  15
TORSDOF 1
