REMARK  3 active torsions:
REMARK  status: ('A' for Active; 'I' for Inactive)
REMARK    1  A    between atoms: C_8  and  C_1 
REMARK    2  A    between atoms: O_14  and  C_8 
REMARK    3  A    between atoms: C_15  and  O_14 
ROOT
ATOM      1  C   UNL d   1      -0.343   1.130  -0.061  0.00  0.00     0.125 A 
ATOM      2  C   UNL d   1       1.131  -0.553  -0.057  0.00  0.00     0.067 A 
ATOM      3  N   UNL d   1      -1.073   0.001  -0.135  0.00  0.00    -0.295 N 
ATOM      4  HN  UNL d   1      -2.089  -0.084  -0.188  1.00  0.00     0.187 HD
ATOM      5  C   UNL d   1       1.046   0.821  -0.030  0.00  0.00     0.069 A 
ATOM      6  N   UNL d   1      -0.166  -0.986  -0.122  0.00  0.00    -0.299 N 
ATOM      7  C   UNL d   1       2.267  -1.425  -0.015  0.00  0.00     0.033 A 
ATOM      8  S   UNL d   1       2.106  -3.134  -0.069  0.00  0.00    -0.100 SA
ATOM      9  C   UNL d   1       3.595  -1.055   0.072  0.00  0.00     0.021 A 
ATOM     10  C   UNL d   1       3.797  -3.367   0.004  0.00  0.00     0.050 A 
ATOM     11  C   UNL d   1       4.479  -2.174   0.078  0.00  0.00     0.008 A 
ATOM     12  H   UNL d   1      -0.492  -1.946  -0.145  0.00  0.00     0.187 HD
ENDROOT
BRANCH   1  13
ATOM     13  C   UNL d   1      -0.930   2.470   0.049  0.00  0.00     0.311 C 
ATOM     14  O   UNL d   1      -0.254   3.483   0.200  0.00  0.00    -0.258 OA
BRANCH  13  15
ATOM     15  O   UNL d   1      -2.297   2.446   0.057  0.00  0.00    -0.317 OA
BRANCH  15  16
ATOM     16  C   UNL d   1      -2.930   3.598   0.619  0.00  0.00     0.175 C 
ATOM     17  C   UNL d   1      -3.008   3.408   2.123  0.00  0.00     0.034 C 
ENDBRANCH  15  16
ENDBRANCH  13  15
ENDBRANCH   1  13
TORSDOF 3
