REMARK  4 active torsions:
REMARK  status: ('A' for Active; 'I' for Inactive)
REMARK    1  A    between atoms: S_13  and  C_3 
REMARK    2  A    between atoms: C_8  and  C_6 
REMARK    3  A    between atoms: C_20  and  S_13 
REMARK    4  A    between atoms: C_22  and  C_20 
ROOT
ATOM      1  N   UNL d   1       1.164   0.440   0.587  0.00  0.00    -0.336 N 
ATOM      2  HN  UNL d   1       2.038   0.775   0.994  1.00  0.00     0.168 HD
ATOM      3  C   UNL d   1       0.059   1.204   0.594  0.00  0.00     0.144 A 
ATOM      4  C   UNL d   1       1.085  -0.789   0.025  0.00  0.00     0.045 A 
ATOM      5  N   UNL d   1      -1.132   0.828   0.097  0.00  0.00    -0.347 N 
ATOM      6  HN  UNL d   1      -1.949   1.438   0.131  1.00  0.00     0.167 HD
ATOM      7  C   UNL d   1      -0.101  -1.254  -0.510  0.00  0.00     0.047 A 
ATOM      8  C   UNL d   1      -1.181  -0.402  -0.447  0.00  0.00     0.092 A 
ENDROOT
BRANCH   4   9
ATOM      9  C   UNL d   1       2.337  -1.580   0.013  0.00  0.00    -0.009 A 
ATOM     10  C   UNL d   1       3.302  -1.429   1.029  0.00  0.00     0.023 A 
ATOM     11  C   UNL d   1       4.501  -2.167   1.036  0.00  0.00    -0.024 A 
ATOM     12  C   UNL d   1       5.495  -1.977   2.143  0.00  0.00     0.044 C 
ATOM     13  C   UNL d   1       4.735  -3.093   0.020  0.00  0.00     0.076 A 
ATOM     14  C   UNL d   1       6.856  -2.519   1.728  0.00  0.00     0.042 C 
ATOM     15  C   UNL d   1       6.727  -3.902   1.071  0.00  0.00     0.061 C 
ATOM     16  O   UNL d   1       5.853  -3.872  -0.071  0.00  0.00    -0.340 OA
ATOM     17  C   UNL d   1       8.102  -4.327   0.532  0.00  0.00     0.046 C 
ATOM     18  C   UNL d   1       6.233  -4.980   2.047  0.00  0.00     0.046 C 
ATOM     19  C   UNL d   1       3.808  -3.248  -1.006  0.00  0.00     0.038 A 
ATOM     20  C   UNL d   1       2.625  -2.501  -1.011  0.00  0.00     0.016 A 
ENDBRANCH   4   9
BRANCH   3  21
ATOM     21  S   UNL d   1       0.265   2.854   1.214  0.00  0.00    -0.089 SA
BRANCH  21  22
ATOM     22  C   UNL d   1      -1.411   3.209   1.826  0.00  0.00     0.121 C 
BRANCH  22  23
ATOM     23  C   UNL d   1      -1.481   4.601   2.425  0.00  0.00    -0.048 A 
ATOM     24  C   UNL d   1      -1.802   5.707   1.619  0.00  0.00     0.009 A 
ATOM     25  C   UNL d   1      -1.831   6.998   2.158  0.00  0.00     0.024 A 
ATOM     26  C   UNL d   1      -1.531   7.194   3.504  0.00  0.00     0.034 A 
ATOM     27  C   UNL d   1      -1.210   6.111   4.317  0.00  0.00     0.024 A 
ATOM     28 CL   UNL d   1      -1.550   8.785   4.162  0.00  0.00    -0.084 Cl
ATOM     29  C   UNL d   1      -1.184   4.819   3.780  0.00  0.00     0.009 A 
ENDBRANCH  22  23
ENDBRANCH  21  22
ENDBRANCH   3  21
TORSDOF 4
