REMARK  4 active torsions:
REMARK  status: ('A' for Active; 'I' for Inactive)
REMARK    1  A    between atoms: C_6  and  C_1 
REMARK    2  A    between atoms: N_5  and  C_2 
REMARK    3  A    between atoms: C_3  and  C_4 
REMARK       I    between atoms: C_4  and  N_5 
REMARK    4  A    between atoms: O_17  and  C_6 
ROOT
ATOM      1  C   UNL d   1       2.381   2.627  -0.196  0.00  0.00     0.282 C 
ATOM      2  N   UNL d   1       2.335   1.267  -0.446  0.00  0.00    -0.320 N 
ATOM      3  O   UNL d   1       1.461   3.286   0.279  0.00  0.00    -0.265 OA
ATOM      4  H   UNL d   1       3.231   0.820  -0.607  0.00  0.00     0.169 HD
ENDROOT
BRANCH   2   5
ATOM      5  C   UNL d   1       1.252   0.416  -0.244  0.00  0.00     0.058 A 
ATOM      6  C   UNL d   1      -0.106   0.705  -0.243  0.00  0.00     0.106 A 
ATOM      7  S   UNL d   1      -1.037  -0.689   0.176  0.00  0.00    -0.094 SA
ATOM      8  C   UNL d   1       0.337  -1.689   0.227  0.00  0.00     0.053 A 
ATOM      9  C   UNL d   1       1.487  -0.984  -0.034  0.00  0.00     0.038 A 
BRANCH   6  10
ATOM     10  C   UNL d   1      -0.821   1.899  -0.664  0.00  0.00     0.302 C 
ATOM     11  O   UNL d   1      -0.524   2.600  -1.625  0.00  0.00    -0.259 OA
BRANCH  10  12
ATOM     12  O   UNL d   1      -1.932   2.088   0.112  0.00  0.00    -0.322 OA
ATOM     13  C   UNL d   1      -2.774   3.159  -0.311  0.00  0.00     0.213 C 
ENDBRANCH  10  12
ENDBRANCH   6  10
ENDBRANCH   2   5
BRANCH   1  14
ATOM     14  C   UNL d   1       3.685   3.201  -0.462  0.00  0.00     0.167 A 
ATOM     15  O   UNL d   1       4.705   2.377  -0.850  0.00  0.00    -0.233 OA
ATOM     16  N   UNL d   1       5.865   3.114  -1.011  0.00  0.00    -0.272 N 
ATOM     17  C   UNL d   1       5.526   4.373  -0.727  0.00  0.00     0.117 A 
ATOM     18  HN  UNL d   1       6.784   2.769  -1.289  1.00  0.00     0.194 HD
ATOM     19  C   UNL d   1       4.169   4.487  -0.376  0.00  0.00     0.064 A 
ENDBRANCH   1  14
TORSDOF 4
