REMARK  4 active torsions:
REMARK  status: ('A' for Active; 'I' for Inactive)
REMARK    1  A    between atoms: O_6  and  C_1 
REMARK    2  A    between atoms: C_10  and  N_2 
REMARK    3  A    between atoms: C_7  and  O_6 
REMARK    4  A    between atoms: C_9  and  C_7 
ROOT
ATOM      1  C   UNL d   1      -0.465  -1.110   0.200  0.00  0.00     0.175 A 
ATOM      2  N   UNL d   1       0.868  -0.714   0.058  0.00  0.00    -0.234 N 
ATOM      3  N   UNL d   1       0.973   0.646   0.040  0.00  0.00    -0.296 N 
ATOM      4  HN  UNL d   1       1.820   1.199  -0.088  1.00  0.00     0.187 HD
ATOM      5  C   UNL d   1      -1.185   0.051   0.397  0.00  0.00     0.084 A 
ATOM      6  C   UNL d   1      -0.267   1.101   0.227  0.00  0.00     0.026 A 
ATOM      7  C   UNL d   1      -0.537   2.559   0.193  0.00  0.00     0.070 C 
ENDROOT
BRANCH   1   8
ATOM      8  O   UNL d   1      -0.826  -2.379   0.089  0.00  0.00    -0.256 OA
BRANCH   8   9
ATOM      9  C   UNL d   1      -2.000  -2.838   0.550  0.00  0.00     0.300 C 
ATOM     10  O   UNL d   1      -2.837  -2.261   1.224  0.00  0.00    -0.259 OA
BRANCH   9  11
ATOM     11  C   UNL d   1      -2.100  -4.277   0.195  0.00  0.00     0.042 A 
ATOM     12  C   UNL d   1      -2.709  -5.148   1.102  0.00  0.00     0.059 A 
ATOM     13  C   UNL d   1      -2.781  -6.503   0.799  0.00  0.00     0.117 A 
ATOM     14  F   UNL d   1      -3.344  -7.344   1.675  0.00  0.00    -0.206 F 
ATOM     15  C   UNL d   1      -2.271  -7.004  -0.395  0.00  0.00     0.042 A 
ATOM     16  C   UNL d   1      -1.682  -6.135  -1.313  0.00  0.00     0.004 A 
ATOM     17  C   UNL d   1      -1.596  -4.771  -1.020  0.00  0.00     0.018 A 
ENDBRANCH   9  11
ENDBRANCH   8   9
ENDBRANCH   1   8
BRANCH   2  18
ATOM     18  C   UNL d   1       2.052  -1.512  -0.074  0.00  0.00     0.059 A 
ATOM     19  C   UNL d   1       2.021  -2.913  -0.077  0.00  0.00     0.031 A 
ATOM     20  C   UNL d   1       3.200  -3.652  -0.223  0.00  0.00     0.002 A 
ATOM     21  C   UNL d   1       4.424  -3.003  -0.351  0.00  0.00     0.000 A 
ATOM     22  C   UNL d   1       4.473  -1.612  -0.331  0.00  0.00     0.002 A 
ATOM     23  C   UNL d   1       3.297  -0.869  -0.196  0.00  0.00     0.031 A 
ENDBRANCH   2  18
TORSDOF 4
