REMARK  9 active torsions:
REMARK  status: ('A' for Active; 'I' for Inactive)
REMARK    1  A    between atoms: C_8  and  C_1 
REMARK    2  A    between atoms: N_4  and  C_12 
REMARK    3  A    between atoms: C_26  and  C_7 
REMARK    4  A    between atoms: S_20  and  C_11 
REMARK    5  A    between atoms: C_14  and  C_18 
REMARK    6  A    between atoms: C_18  and  C_23 
REMARK    7  A    between atoms: C_23  and  S_20 
REMARK    8  A    between atoms: O_21  and  C_26 
REMARK    9  A    between atoms: C_22  and  O_21 
ROOT
ATOM      1  C   UNL d   1      -0.337  -2.569  -0.011  0.00  0.00     0.054 A 
ATOM      2  N   UNL d   1       0.278  -3.283   0.954  0.00  0.00    -0.336 N 
ATOM      3  HN  UNL d   1       0.834  -2.828   1.678  1.00  0.00     0.168 HD
ATOM      4  C   UNL d   1       0.128  -4.615   0.921  0.00  0.00     0.144 A 
ATOM      5  N   UNL d   1      -0.574  -5.280  -0.007  0.00  0.00    -0.347 N 
ATOM      6  HN  UNL d   1      -0.660  -6.296   0.011  1.00  0.00     0.167 HD
ATOM      7  C   UNL d   1      -1.071  -3.169  -1.017  0.00  0.00     0.048 A 
ATOM      8  C   UNL d   1      -1.159  -4.538  -0.962  0.00  0.00     0.092 A 
ENDROOT
BRANCH   1   9
ATOM      9  C   UNL d   1      -0.150  -1.116   0.099  0.00  0.00     0.055 A 
ATOM     10  C   UNL d   1       0.907  -0.382   0.630  0.00  0.00     0.025 A 
ATOM     11  N   UNL d   1       0.766   0.999   0.573  0.00  0.00    -0.355 N 
ATOM     12  C   UNL d   1       2.163  -0.916   1.220  0.00  0.00     0.070 C 
ATOM     13  C   UNL d   1      -0.389   1.317   0.030  0.00  0.00     0.076 A 
ATOM     14  HN  UNL d   1       1.459   1.669   0.905  1.00  0.00     0.166 HD
ATOM     15  S   UNL d   1      -1.367  -0.019  -0.433  0.00  0.00    -0.070 SA
BRANCH  13  16
ATOM     16  C   UNL d   1      -0.839   2.717  -0.289  0.00  0.00     0.240 C 
BRANCH  16  17
ATOM     17  O   UNL d   1      -1.732   3.142   0.740  0.00  0.00    -0.343 OA
BRANCH  17  18
ATOM     18  C   UNL d   1      -2.169   4.443   0.733  0.00  0.00     0.090 A 
ATOM     19  C   UNL d   1      -2.411   5.298  -0.354  0.00  0.00     0.067 A 
ATOM     20 CL   UNL d   1      -2.167   4.900  -2.017  0.00  0.00    -0.081 Cl
ATOM     21  C   UNL d   1      -2.946   6.579  -0.135  0.00  0.00     0.026 A 
ATOM     22  C   UNL d   1      -3.245   7.022   1.151  0.00  0.00     0.002 A 
ATOM     23  C   UNL d   1      -3.007   6.186   2.234  0.00  0.00     0.003 A 
ATOM     24  C   UNL d   1      -2.477   4.909   2.024  0.00  0.00     0.038 A 
ENDBRANCH  17  18
ENDBRANCH  16  17
ENDBRANCH  13  16
ENDBRANCH   1   9
BRANCH   4  25
ATOM     25  S   UNL d   1       0.940  -5.600   2.155  0.00  0.00    -0.086 SA
BRANCH  25  26
ATOM     26  C   UNL d   1       1.822  -4.301   3.064  0.00  0.00     0.166 C 
BRANCH  26  27
ATOM     27  C   UNL d   1       2.682  -4.920   4.144  0.00  0.00     0.169 C 
ATOM     28  O   UNL d   1       2.296  -4.971   5.314  0.00  0.00    -0.291 OA
BRANCH  27  29
ATOM     29  C   UNL d   1       4.025  -5.493   3.802  0.00  0.00     0.013 A 
ATOM     30  C   UNL d   1       4.576  -5.423   2.517  0.00  0.00     0.051 A 
ATOM     31  C   UNL d   1       5.807  -6.049   2.255  0.00  0.00     0.103 A 
ATOM     32  C   UNL d   1       6.503  -6.721   3.266  0.00  0.00     0.036 A 
ATOM     33  C   UNL d   1       5.968  -6.763   4.552  0.00  0.00     0.003 A 
ATOM     34  C   UNL d   1       4.738  -6.155   4.816  0.00  0.00     0.015 A 
BRANCH  31  35
ATOM     35  N   UNL d   1       6.353  -6.014   0.892  0.00  0.00    -0.116 N 
ATOM     36  O   UNL d   1       5.718  -5.391   0.032  0.00  0.00    -0.532 OA
ATOM     37  O   UNL d   1       7.423  -6.609   0.684  0.00  0.00    -0.532 OA
ENDBRANCH  31  35
ENDBRANCH  27  29
ENDBRANCH  26  27
ENDBRANCH  25  26
ENDBRANCH   4  25
TORSDOF 9
