REMARK  5 active torsions:
REMARK  status: ('A' for Active; 'I' for Inactive)
REMARK    1  A    between atoms: N_2  and  S_1 
REMARK    2  A    between atoms: C_3  and  S_1 
REMARK    3  A    between atoms: C_8  and  N_2 
REMARK    4  A    between atoms: C_4  and  C_7 
REMARK    5  A    between atoms: O_14  and  C_4 
ROOT
ATOM      1  N   UNL d   1       0.520  -0.613   1.497  0.00  0.00    -0.281 N 
ATOM      2  H   UNL d   1       0.889  -0.131   0.678  0.00  0.00     0.179 HD
ENDROOT
BRANCH   1   3
ATOM      3  S   UNL d   1       0.640   0.362   2.882  0.00  0.00     0.263 S 
ATOM      4  O   UNL d   1      -0.171  -0.202   3.932  0.00  0.00    -0.200 OA
ATOM      5  O   UNL d   1       0.467   1.728   2.436  0.00  0.00    -0.200 OA
BRANCH   3   6
ATOM      6  C   UNL d   1       2.350   0.165   3.350  0.00  0.00     0.080 A 
ATOM      7  C   UNL d   1       3.312   1.060   2.865  0.00  0.00     0.027 A 
ATOM      8  C   UNL d   1       4.656   0.853   3.180  0.00  0.00     0.025 A 
ATOM      9  C   UNL d   1       5.029  -0.237   3.969  0.00  0.00     0.034 A 
ATOM     10  C   UNL d   1       4.067  -1.119   4.463  0.00  0.00     0.025 A 
ATOM     11 CL   UNL d   1       6.690  -0.502   4.328  0.00  0.00    -0.084 Cl
ATOM     12  C   UNL d   1       2.719  -0.907   4.173  0.00  0.00     0.027 A 
ENDBRANCH   3   6
ENDBRANCH   1   3
BRANCH   1  13
ATOM     13  C   UNL d   1       0.826  -1.999   1.618  0.00  0.00     0.043 A 
ATOM     14  C   UNL d   1       2.132  -2.437   1.406  0.00  0.00     0.047 A 
ATOM     15  C   UNL d   1       2.461  -3.788   1.574  0.00  0.00     0.041 A 
ATOM     16  C   UNL d   1       1.466  -4.696   1.957  0.00  0.00     0.018 A 
ATOM     17  C   UNL d   1       0.157  -4.253   2.172  0.00  0.00     0.003 A 
ATOM     18  C   UNL d   1      -0.160  -2.901   2.011  0.00  0.00     0.030 A 
BRANCH  15  19
ATOM     19  C   UNL d   1       3.844  -4.284   1.339  0.00  0.00     0.293 C 
ATOM     20  O   UNL d   1       4.180  -5.448   1.455  0.00  0.00    -0.259 OA
BRANCH  19  21
ATOM     21  O   UNL d   1       4.639  -3.253   0.957  0.00  0.00    -0.323 OA
ATOM     22  C   UNL d   1       5.980  -3.619   0.633  0.00  0.00     0.213 C 
ENDBRANCH  19  21
ENDBRANCH  15  19
ENDBRANCH   1  13
TORSDOF 5
