REMARK  2 active torsions:
REMARK  status: ('A' for Active; 'I' for Inactive)
REMARK    1  A    between atoms: N_2  and  C_1 
REMARK       I    between atoms: C_3  and  N_2 
REMARK       I    between atoms: N_6  and  C_3 
REMARK    2  A    between atoms: C_9  and  N_6 
ROOT
ATOM      1  N   UNL d   1       3.226  -1.399  -0.527  0.00  0.00    -0.303 N 
ATOM      2  C   UNL d   1       4.346  -0.640  -0.336  0.00  0.00     0.325 C 
ATOM      3  N   UNL d   1       4.215   0.718  -0.336  0.00  0.00    -0.308 N 
ATOM      4  O   UNL d   1       5.413  -1.248  -0.263  0.00  0.00    -0.247 OA
ATOM      5  H   UNL d   1       3.478  -2.368  -0.674  0.00  0.00     0.171 HD
ATOM      6  H   UNL d   1       3.392   1.048  -0.812  0.00  0.00     0.170 HD
ENDROOT
BRANCH   1   7
ATOM      7  C   UNL d   1       1.888  -1.150  -0.324  0.00  0.00     0.079 C 
ATOM      8  S   UNL d   1       1.284   0.327   0.234  0.00  0.00    -0.072 SA
ATOM      9  C   UNL d   1      -0.295  -0.320   0.482  0.00  0.00     0.017 A 
ATOM     10  C   UNL d   1      -1.401   0.324   1.069  0.00  0.00     0.020 A 
ATOM     11  C   UNL d   1      -0.374  -1.640   0.033  0.00  0.00    -0.016 A 
ATOM     12  C   UNL d   1      -2.591  -0.392   1.228  0.00  0.00     0.001 A 
ATOM     13  C   UNL d   1      -2.695  -1.703   0.781  0.00  0.00     0.001 A 
ATOM     14  C   UNL d   1      -1.603  -2.328   0.172  0.00  0.00     0.013 A 
ATOM     15  C   UNL d   1       0.891  -2.087  -0.471  0.00  0.00     0.050 C 
ENDBRANCH   1   7
BRANCH   3  16
ATOM     16  C   UNL d   1       5.316   1.599  -0.213  0.00  0.00     0.042 A 
ATOM     17  C   UNL d   1       5.397   2.765  -0.997  0.00  0.00    -0.035 A 
ATOM     18  C   UNL d   1       4.365   3.159  -2.017  0.00  0.00     0.050 C 
ATOM     19  C   UNL d   1       6.571   3.541  -0.930  0.00  0.00     0.009 A 
ATOM     20  C   UNL d   1       7.607   3.213  -0.057  0.00  0.00     0.001 A 
ATOM     21  C   UNL d   1       7.485   2.107   0.773  0.00  0.00     0.002 A 
ATOM     22  C   UNL d   1       6.348   1.304   0.692  0.00  0.00     0.030 A 
ENDBRANCH   3  16
TORSDOF 2
