REMARK  5 active torsions:
REMARK  status: ('A' for Active; 'I' for Inactive)
REMARK    1  A    between atoms: C_2  and  C_1 
REMARK    2  A    between atoms: S_4  and  C_1 
REMARK    3  A    between atoms: C_5  and  C_2 
REMARK    4  A    between atoms: N_7  and  C_3 
REMARK    5  A    between atoms: C_8  and  S_4 
ROOT
ATOM      1  C   UNL d   1       1.106   0.125   0.033  0.00  0.00     0.071 C 
ATOM      2  C   UNL d   1       0.437  -0.933   0.536  0.00  0.00     0.107 C 
ENDROOT
BRANCH   1   3
ATOM      3  C   UNL d   1       0.527   1.264  -0.768  0.00  0.00     0.200 C 
ATOM      4  O   UNL d   1       1.195   1.902  -1.582  0.00  0.00    -0.286 OA
BRANCH   3   5
ATOM      5  C   UNL d   1      -0.898   1.644  -0.597  0.00  0.00     0.015 A 
ATOM      6  C   UNL d   1      -1.536   1.632   0.648  0.00  0.00     0.016 A 
ATOM      7  C   UNL d   1      -2.924   1.785   0.718  0.00  0.00     0.007 A 
ATOM      8  C   UNL d   1      -3.676   1.989  -0.446  0.00  0.00    -0.062 A 
ATOM      9  C   UNL d   1      -3.015   2.116  -1.674  0.00  0.00     0.007 A 
ATOM     10  C   UNL d   1      -5.175   1.951  -0.395  0.00  0.00     0.048 C 
ATOM     11  C   UNL d   1      -1.630   1.958  -1.748  0.00  0.00     0.016 A 
ENDBRANCH   3   5
ENDBRANCH   1   3
BRANCH   1  12
ATOM     12  S   UNL d   1       2.800   0.313   0.442  0.00  0.00    -0.085 SA
BRANCH  12  13
ATOM     13  C   UNL d   1       3.548  -0.564  -0.927  0.00  0.00     0.005 A 
ATOM     14  C   UNL d   1       3.953   0.138  -2.064  0.00  0.00     0.019 A 
ATOM     15  C   UNL d   1       4.647  -0.517  -3.091  0.00  0.00     0.008 A 
ATOM     16  C   UNL d   1       4.947  -1.880  -2.991  0.00  0.00    -0.062 A 
ATOM     17  C   UNL d   1       4.524  -2.584  -1.857  0.00  0.00     0.008 A 
ATOM     18  C   UNL d   1       5.753  -2.550  -4.065  0.00  0.00     0.048 C 
ATOM     19  C   UNL d   1       3.832  -1.928  -0.833  0.00  0.00     0.019 A 
ENDBRANCH  12  13
ENDBRANCH   1  12
BRANCH   2  20
ATOM     20  N   UNL d   1      -0.858  -1.423   0.407  0.00  0.00    -0.397 N 
ATOM     21  C   UNL d   1      -1.587  -1.486  -0.858  0.00  0.00     0.148 C 
ATOM     22  C   UNL d   1      -1.591  -1.939   1.563  0.00  0.00     0.148 C 
ENDBRANCH   2  20
TORSDOF 5
