REMARK  4 active torsions:
REMARK  status: ('A' for Active; 'I' for Inactive)
REMARK    1  A    between atoms: C_2  and  C_1 
REMARK       I    between atoms: N_3  and  C_1 
REMARK       I    between atoms: C_4  and  N_3 
REMARK       I    between atoms: N_7  and  C_4 
REMARK    2  A    between atoms: O_19  and  C_5 
REMARK    3  A    between atoms: C_6  and  N_7 
REMARK    4  A    between atoms: O_23  and  C_8 
ROOT
ATOM      1  C   UNL d   1       0.965  -0.609  -0.023  0.00  0.00     0.265 C 
ATOM      2  N   UNL d   1       0.610  -1.451   1.043  0.00  0.00    -0.275 N 
ATOM      3  C   UNL d   1      -0.133  -2.589   1.347  0.00  0.00     0.327 C 
ATOM      4  N   UNL d   1      -0.304  -3.516   0.343  0.00  0.00    -0.309 N 
ATOM      5  O   UNL d   1       1.767   0.306   0.164  0.00  0.00    -0.267 OA
ATOM      6  O   UNL d   1      -0.529  -2.708   2.504  0.00  0.00    -0.247 OA
ATOM      7  H   UNL d   1       0.889  -1.009   1.909  0.00  0.00     0.173 HD
ATOM      8  H   UNL d   1       0.245  -3.345  -0.483  0.00  0.00     0.170 HD
ENDROOT
BRANCH   1   9
ATOM      9  C   UNL d   1       0.340  -0.755  -1.351  0.00  0.00     0.100 C 
ATOM     10  C   UNL d   1       0.652  -1.871  -2.152  0.00  0.00     0.108 C 
ATOM     11  C   UNL d   1      -0.053  -2.046  -3.347  0.00  0.00     0.068 C 
ATOM     12 CL   UNL d   1       0.017  -3.486  -4.298  0.00  0.00    -0.081 Cl
ATOM     13  C   UNL d   1      -0.970  -1.075  -3.768  0.00  0.00     0.029 C 
ATOM     14  C   UNL d   1      -1.192   0.080  -3.015  0.00  0.00     0.039 C 
ATOM     15  C   UNL d   1      -0.520   0.267  -1.810  0.00  0.00     0.086 C 
BRANCH  10  16
ATOM     16  O   UNL d   1       1.520  -2.765  -1.580  0.00  0.00    -0.353 OA
ATOM     17  C   UNL d   1       2.442  -3.461  -2.410  0.00  0.00     0.210 C 
ENDBRANCH  10  16
BRANCH  15  18
ATOM     18  O   UNL d   1      -0.697   1.361  -1.008  0.00  0.00    -0.355 OA
ATOM     19  C   UNL d   1      -1.139   2.584  -1.595  0.00  0.00     0.210 C 
ENDBRANCH  15  18
ENDBRANCH   1   9
BRANCH   4  20
ATOM     20  C   UNL d   1      -0.791  -4.838   0.478  0.00  0.00     0.039 A 
ATOM     21  C   UNL d   1      -1.383  -5.335   1.645  0.00  0.00     0.053 A 
ATOM     22  C   UNL d   1      -1.712  -6.692   1.742  0.00  0.00     0.037 A 
ATOM     23 CL   UNL d   1      -2.379  -7.298   3.210  0.00  0.00    -0.084 Cl
ATOM     24  C   UNL d   1      -1.482  -7.565   0.685  0.00  0.00     0.048 A 
ATOM     25  C   UNL d   1      -0.939  -7.063  -0.491  0.00  0.00     0.037 A 
ATOM     26  C   UNL d   1      -0.603  -5.706  -0.603  0.00  0.00     0.053 A 
ATOM     27 CL   UNL d   1      -0.652  -8.128  -1.814  0.00  0.00    -0.084 Cl
ENDBRANCH   4  20
TORSDOF 4
