REMARK  4 active torsions:
REMARK  status: ('A' for Active; 'I' for Inactive)
REMARK    1  A    between atoms: C_2  and  C_1 
REMARK    2  A    between atoms: C_3  and  C_2 
REMARK    3  A    between atoms: O_10  and  C_2 
REMARK    4  A    between atoms: O_8  and  C_3 
ROOT
ATOM      1  C   UNL d   1       0.670   1.255  -0.010  0.00  0.00    -0.013 A 
ATOM      2  C   UNL d   1       1.389   0.036  -0.034  0.00  0.00    -0.053 A 
ATOM      3  C   UNL d   1      -0.741   1.189  -0.032  0.00  0.00     0.017 A 
ATOM      4  C   UNL d   1       0.689  -1.185  -0.021  0.00  0.00     0.008 A 
ATOM      5  C   UNL d   1      -1.430  -0.033  -0.025  0.00  0.00    -0.061 A 
ATOM      6  C   UNL d   1      -0.703  -1.220  -0.014  0.00  0.00     0.007 A 
ATOM      7  C   UNL d   1       2.894  -0.059  -0.054  0.00  0.00     0.049 C 
ATOM      8  C   UNL d   1      -2.930  -0.074  -0.029  0.00  0.00     0.048 C 
ENDROOT
BRANCH   1   9
ATOM      9  C   UNL d   1       1.389   2.598   0.011  0.00  0.00     0.249 C 
BRANCH   9  10
ATOM     10  C   UNL d   1       1.783   3.122  -1.382  0.00  0.00     0.174 C 
ATOM     11  O   UNL d   1       2.131   2.454  -2.344  0.00  0.00    -0.648 OA
BRANCH  10  12
ATOM     12  O   UNL d   1       1.745   4.486  -1.419  0.00  0.00    -0.774 OA
ATOM     13  H   UNL d   1       1.470   4.816  -0.531  0.00  0.00     0.167 HD
ENDBRANCH  10  12
ENDBRANCH   9  10
BRANCH   9  14
ATOM     14  O   UNL d   1       0.645   3.654   0.660  0.00  0.00    -0.380 OA
ATOM     15  H   UNL d   1      -0.249   3.659   0.280  0.00  0.00     0.211 HD
ENDBRANCH   9  14
ENDBRANCH   1   9
TORSDOF 4
