REMARK  4 active torsions:
REMARK  status: ('A' for Active; 'I' for Inactive)
REMARK    1  A    between atoms: C_28  and  C_13 
REMARK    2  A    between atoms: C_27  and  C_14 
REMARK    3  A    between atoms: C_29  and  C_15 
REMARK    4  A    between atoms: C_30  and  C_16 
ROOT
ATOM      1  C   UNL d   1      -2.877   1.020  -0.037  0.00  0.00     0.046 A 
ATOM      2  C   UNL d   1       2.790   1.233  -0.023  0.00  0.00     0.046 A 
ATOM      3  C   UNL d   1       1.019   2.959   0.019  0.00  0.00     0.046 A 
ATOM      4  C   UNL d   1      -1.245   2.875   0.040  0.00  0.00     0.046 A 
ATOM      5  C   UNL d   1      -1.038  -2.891   0.013  0.00  0.00     0.046 A 
ATOM      6  C   UNL d   1       1.258  -2.805   0.021  0.00  0.00     0.046 A 
ATOM      7  N   UNL d   1       2.004   0.090  -0.013  0.00  0.00    -0.355 N 
ATOM      8  HN  UNL d   1       0.986   0.043   0.006  1.00  0.00     0.166 HD
ATOM      9  N   UNL d   1      -2.007  -0.058  -0.012  0.00  0.00    -0.355 N 
ATOM     10  HN  UNL d   1      -0.987  -0.026   0.009  1.00  0.00     0.166 HD
ATOM     11  C   UNL d   1       2.841  -0.916  -0.036  0.00  0.00     0.046 A 
ATOM     12  C   UNL d   1      -2.764  -1.126  -0.020  0.00  0.00     0.046 A 
ATOM     13  C   UNL d   1       2.387   2.525  -0.003  0.00  0.00     0.028 A 
ATOM     14  C   UNL d   1      -2.578   2.340  -0.001  0.00  0.00     0.028 A 
ATOM     15  C   UNL d   1      -2.346  -2.567   0.002  0.00  0.00     0.028 A 
ATOM     16  C   UNL d   1       2.538  -2.385  -0.001  0.00  0.00     0.028 A 
ATOM     17  N   UNL d   1       0.082  -2.097   0.004  0.00  0.00    -0.355 N 
ATOM     18  N   UNL d   1      -0.083   2.121   0.009  0.00  0.00    -0.355 N 
ATOM     19  C   UNL d   1      -4.221   0.484  -0.090  0.00  0.00     0.033 A 
ATOM     20  C   UNL d   1       4.172   0.803  -0.052  0.00  0.00     0.033 A 
ATOM     21  C   UNL d   1      -0.860   4.203   0.101  0.00  0.00     0.033 A 
ATOM     22  C   UNL d   1       0.536   4.257   0.052  0.00  0.00     0.033 A 
ATOM     23  C   UNL d   1       0.833  -4.202   0.063  0.00  0.00     0.033 A 
ATOM     24  C   UNL d   1      -0.508  -4.252   0.043  0.00  0.00     0.033 A 
ATOM     25  C   UNL d   1       4.259  -0.522  -0.086  0.00  0.00     0.033 A 
ATOM     26  C   UNL d   1      -4.207  -0.843  -0.058  0.00  0.00     0.033 A 
ATOM     27  H   UNL d   1       0.044  -1.081  -0.017  0.00  0.00     0.166 HD
ATOM     28  H   UNL d   1      -0.046   1.109  -0.022  0.00  0.00     0.166 HD
ENDROOT
BRANCH  13  29
ATOM     29  C   UNL d   1       3.447   3.585   0.025  0.00  0.00    -0.021 A 
ATOM     30  C   UNL d   1       3.977   4.103  -1.164  0.00  0.00     0.013 A 
ATOM     31  C   UNL d   1       4.886   5.164  -1.125  0.00  0.00     0.007 A 
ATOM     32  C   UNL d   1       5.262   5.734   0.098  0.00  0.00    -0.062 A 
ATOM     33  C   UNL d   1       4.729   5.219   1.284  0.00  0.00     0.007 A 
ATOM     34  C   UNL d   1       6.215   6.893   0.124  0.00  0.00     0.048 C 
ATOM     35  C   UNL d   1       3.833   4.148   1.249  0.00  0.00     0.013 A 
ENDBRANCH  13  29
BRANCH  16  36
ATOM     36  C   UNL d   1       3.642  -3.375   0.016  0.00  0.00    -0.021 A 
ATOM     37  C   UNL d   1       4.143  -3.901  -1.181  0.00  0.00     0.013 A 
ATOM     38  C   UNL d   1       5.197  -4.820  -1.162  0.00  0.00     0.007 A 
ATOM     39  C   UNL d   1       5.771  -5.218   0.051  0.00  0.00    -0.062 A 
ATOM     40  C   UNL d   1       5.261  -4.700   1.248  0.00  0.00     0.007 A 
ATOM     41  C   UNL d   1       6.919  -6.184   0.057  0.00  0.00     0.048 C 
ATOM     42  C   UNL d   1       4.200  -3.791   1.232  0.00  0.00     0.013 A 
ENDBRANCH  16  36
BRANCH  14  43
ATOM     43  C   UNL d   1      -3.713   3.317  -0.018  0.00  0.00    -0.021 A 
ATOM     44  C   UNL d   1      -4.305   3.746   1.179  0.00  0.00     0.013 A 
ATOM     45  C   UNL d   1      -5.290   4.737   1.161  0.00  0.00     0.007 A 
ATOM     46  C   UNL d   1      -5.684   5.327  -0.048  0.00  0.00    -0.062 A 
ATOM     47  C   UNL d   1      -5.090   4.900  -1.241  0.00  0.00     0.007 A 
ATOM     48  C   UNL d   1      -6.720   6.412  -0.051  0.00  0.00     0.048 C 
ATOM     49  C   UNL d   1      -4.116   3.900  -1.228  0.00  0.00     0.013 A 
ENDBRANCH  14  43
BRANCH  15  50
ATOM     50  C   UNL d   1      -3.366  -3.642   0.016  0.00  0.00    -0.021 A 
ATOM     51  C   UNL d   1      -3.840  -4.152   1.232  0.00  0.00     0.013 A 
ATOM     52  C   UNL d   1      -4.795  -5.171   1.244  0.00  0.00     0.007 A 
ATOM     53  C   UNL d   1      -5.300  -5.688   0.044  0.00  0.00    -0.062 A 
ATOM     54  C   UNL d   1      -4.824  -5.179  -1.170  0.00  0.00     0.007 A 
ATOM     55  C   UNL d   1      -6.334  -6.776   0.074  0.00  0.00     0.048 C 
ATOM     56  C   UNL d   1      -3.859  -4.169  -1.185  0.00  0.00     0.013 A 
ENDBRANCH  15  50
TORSDOF 4
