REMARK  2 active torsions:
REMARK  status: ('A' for Active; 'I' for Inactive)
REMARK    1  A    between atoms: C_7  and  C_4 
REMARK    2  A    between atoms: O_8  and  C_7 
ROOT
ATOM      1  N   UNL d   1      -0.971  -1.634   0.000  0.00  0.00    -0.351 N 
ATOM      2  HN  UNL d   1      -0.987  -2.653   0.027  1.00  0.00     0.166 HD
ATOM      3  S   UNL d   1      -1.736   0.828  -0.056  0.00  0.00    -0.072 SA
ATOM      4  C   UNL d   1      -2.037  -0.859  -0.043  0.00  0.00     0.075 A 
ATOM      5  C   UNL d   1       0.174  -0.853   0.004  0.00  0.00     0.050 A 
ATOM      6  C   UNL d   1      -0.041   0.526  -0.018  0.00  0.00     0.033 A 
ATOM      7  C   UNL d   1       1.501  -1.331   0.025  0.00  0.00     0.031 A 
ATOM      8  C   UNL d   1       1.022   1.444  -0.012  0.00  0.00     0.021 A 
ATOM      9  C   UNL d   1       2.328   0.945   0.009  0.00  0.00     0.002 A 
ATOM     10  C   UNL d   1       2.567  -0.426   0.025  0.00  0.00     0.002 A 
ENDROOT
BRANCH   4  11
ATOM     11  C   UNL d   1      -3.438  -1.385  -0.068  0.00  0.00     0.229 C 
BRANCH  11  12
ATOM     12  O   UNL d   1      -3.596  -2.268   1.042  0.00  0.00    -0.394 OA
ATOM     13  H   UNL d   1      -2.772  -2.791   1.082  0.00  0.00     0.209 HD
ENDBRANCH  11  12
ENDBRANCH   4  11
TORSDOF 2
