REMARK  5 active torsions:
REMARK  status: ('A' for Active; 'I' for Inactive)
REMARK    1  A    between atoms: S_5  and  C_1 
REMARK    2  A    between atoms: C_7  and  C_2 
REMARK       I    between atoms: N_12  and  C_7 
REMARK    3  A    between atoms: C_8  and  C_10 
REMARK    4  A    between atoms: C_9  and  C_11 
REMARK    5  A    between atoms: C_13  and  N_12 
ROOT
ATOM      1  C   UNL d   1      -2.476  -2.082  -0.168  0.00  0.00     0.263 C 
ATOM      2  N   UNL d   1      -3.856  -2.074  -0.006  0.00  0.00    -0.322 N 
ATOM      3  O   UNL d   1      -1.814  -3.117  -0.215  0.00  0.00    -0.267 OA
ATOM      4  H   UNL d   1      -4.313  -1.186  -0.175  0.00  0.00     0.169 HD
ENDROOT
BRANCH   2   5
ATOM      5  C   UNL d   1      -4.660  -3.123   0.492  0.00  0.00     0.036 A 
ATOM      6  C   UNL d   1      -4.136  -4.308   1.017  0.00  0.00     0.045 A 
ATOM      7  C   UNL d   1      -4.962  -5.253   1.652  0.00  0.00     0.050 A 
ATOM      8  C   UNL d   1      -6.342  -5.020   1.713  0.00  0.00     0.032 A 
ATOM      9  C   UNL d   1      -6.893  -3.844   1.184  0.00  0.00     0.050 A 
ATOM     10  C   UNL d   1      -6.042  -2.907   0.567  0.00  0.00     0.045 A 
BRANCH   7  11
ATOM     11  C   UNL d   1      -4.338  -6.460   2.313  0.00  0.00     0.417 C 
ATOM     12  F   UNL d   1      -5.229  -7.200   3.030  0.00  0.00    -0.166 F 
ATOM     13  F   UNL d   1      -3.767  -7.316   1.425  0.00  0.00    -0.166 F 
ATOM     14  F   UNL d   1      -3.357  -6.114   3.193  0.00  0.00    -0.166 F 
ENDBRANCH   7  11
BRANCH   9  15
ATOM     15  C   UNL d   1      -8.371  -3.556   1.316  0.00  0.00     0.417 C 
ATOM     16  F   UNL d   1      -9.015  -4.412   2.156  0.00  0.00    -0.166 F 
ATOM     17  F   UNL d   1      -8.609  -2.307   1.805  0.00  0.00    -0.166 F 
ATOM     18  F   UNL d   1      -9.027  -3.627   0.128  0.00  0.00    -0.166 F 
ENDBRANCH   9  15
ENDBRANCH   2   5
BRANCH   1  19
ATOM     19  C   UNL d   1      -1.838  -0.761  -0.243  0.00  0.00     0.081 A 
ATOM     20  S   UNL d   1      -2.732   0.694  -0.066  0.00  0.00    -0.071 SA
ATOM     21  C   UNL d   1      -1.325   1.683  -0.067  0.00  0.00     0.111 A 
ATOM     22  C   UNL d   1      -0.194   0.907  -0.207  0.00  0.00    -0.000 A 
ATOM     23  C   UNL d   1      -0.484  -0.489  -0.389  0.00  0.00    -0.023 A 
ATOM     24  C   UNL d   1       1.162   1.363  -0.198  0.00  0.00     0.010 C 
ATOM     25  C   UNL d   1       0.621  -1.492  -0.607  0.00  0.00     0.045 C 
ATOM     26  C   UNL d   1       1.948  -0.849  -1.059  0.00  0.00     0.032 C 
ATOM     27  C   UNL d   1       2.171   0.560  -0.574  0.00  0.00    -0.025 C 
BRANCH  21  28
ATOM     28  S   UNL d   1      -1.626   3.436   0.080  0.00  0.00     0.179 S 
ATOM     29  O   UNL d   1      -0.323   4.077   0.114  0.00  0.00    -0.222 OA
ATOM     30  O   UNL d   1      -2.601   3.757  -0.940  0.00  0.00    -0.222 OA
ATOM     31  C   UNL d   1      -2.376   3.635   1.675  0.00  0.00     0.167 C 
ENDBRANCH  21  28
ENDBRANCH   1  19
TORSDOF 5
