REMARK  2 active torsions:
REMARK  status: ('A' for Active; 'I' for Inactive)
REMARK    1  A    between atoms: C_6  and  C_3 
REMARK    2  A    between atoms: O_10  and  C_6 
ROOT
ATOM      1  C   UNL d   1      -0.739   0.531  -0.008  0.00  0.00    -0.019 A 
ATOM      2  C   UNL d   1       0.743   0.510   0.007  0.00  0.00    -0.019 A 
ATOM      3  C   UNL d   1      -0.007  -2.596   0.040  0.00  0.00     0.092 C 
ATOM      4  C   UNL d   1      -1.502  -0.569   0.454  0.00  0.00    -0.046 A 
ATOM      5  C   UNL d   1       1.471  -0.592  -0.499  0.00  0.00    -0.046 A 
ATOM      6  C   UNL d   1       0.753  -1.808  -1.039  0.00  0.00     0.055 C 
ATOM      7  C   UNL d   1      -0.823  -1.779   1.050  0.00  0.00     0.055 C 
ATOM      8  C   UNL d   1      -1.427   1.649  -0.515  0.00  0.00     0.013 A 
ATOM      9  C   UNL d   1       1.466   1.589   0.546  0.00  0.00     0.013 A 
ATOM     10  C   UNL d   1      -2.905  -0.529   0.390  0.00  0.00     0.008 A 
ATOM     11  C   UNL d   1       2.877  -0.584  -0.473  0.00  0.00     0.008 A 
ATOM     12  C   UNL d   1      -2.822   1.681  -0.566  0.00  0.00     0.001 A 
ATOM     13  C   UNL d   1       2.863   1.582   0.580  0.00  0.00     0.001 A 
ATOM     14  C   UNL d   1       3.567   0.497   0.069  0.00  0.00     0.001 A 
ATOM     15  C   UNL d   1      -3.559   0.591  -0.117  0.00  0.00     0.001 A 
ENDROOT
BRANCH   3  16
ATOM     16  C   UNL d   1       0.920  -3.545   0.775  0.00  0.00     0.144 C 
ATOM     17  O   UNL d   1       0.829  -4.762   0.684  0.00  0.00    -0.650 OA
BRANCH  16  18
ATOM     18  O   UNL d   1       1.861  -2.963   1.545  0.00  0.00    -0.776 OA
ATOM     19  H   UNL d   1       1.865  -1.984   1.536  0.00  0.00     0.167 HD
ENDBRANCH  16  18
ENDBRANCH   3  16
TORSDOF 2
