REMARK  5 active torsions:
REMARK  status: ('A' for Active; 'I' for Inactive)
REMARK    1  A    between atoms: N_4  and  C_1 
REMARK    2  A    between atoms: N_5  and  C_2 
REMARK    3  A    between atoms: N_6  and  C_3 
REMARK    4  A    between atoms: C_7  and  C_10 
REMARK    5  A    between atoms: C_12  and  C_11 
ROOT
ATOM      1  C   UNL d   1       1.446  -0.092   0.062  0.00  0.00     0.097 C 
ATOM      2  C   UNL d   1       0.632   0.321   1.159  0.00  0.00     0.132 C 
ATOM      3  C   UNL d   1       0.703  -0.074  -1.155  0.00  0.00     0.132 C 
ATOM      4  C   UNL d   1      -0.766   0.555   1.100  0.00  0.00     0.054 C 
ATOM      5  C   UNL d   1      -0.705   0.139  -1.231  0.00  0.00     0.054 C 
ATOM      6  C   UNL d   1      -1.458   0.421  -0.095  0.00  0.00     0.052 C 
ENDROOT
BRANCH   1   7
ATOM      7  N   UNL d   1       2.756  -0.543   0.192  0.00  0.00    -0.367 N 
ATOM      8  C   UNL d   1       3.544  -1.397  -0.755  0.00  0.00     0.124 C 
ATOM      9  C   UNL d   1       4.676  -1.947   0.134  0.00  0.00     0.032 C 
ATOM     10  C   UNL d   1       5.022  -0.750   0.986  0.00  0.00     0.022 C 
ATOM     11  C   UNL d   1       3.653  -0.165   1.309  0.00  0.00     0.124 C 
BRANCH   8  12
ATOM     12  C   UNL d   1       2.888  -2.545  -1.473  0.00  0.00     0.005 A 
ATOM     13  S   UNL d   1       3.537  -3.042  -2.991  0.00  0.00    -0.104 SA
ATOM     14  C   UNL d   1       2.308  -4.203  -3.213  0.00  0.00     0.050 A 
ATOM     15  C   UNL d   1       1.453  -4.261  -2.136  0.00  0.00     0.008 A 
ATOM     16  C   UNL d   1       1.807  -3.329  -1.116  0.00  0.00     0.017 A 
ENDBRANCH   8  12
ENDBRANCH   1   7
BRANCH   2  17
ATOM     17  N   UNL d   1       1.163   0.578   2.482  0.00  0.00    -0.113 N 
ATOM     18  O   UNL d   1       1.645   1.700   2.684  0.00  0.00    -0.532 OA
ATOM     19  O   UNL d   1       1.017  -0.315   3.329  0.00  0.00    -0.532 OA
ENDBRANCH   2  17
BRANCH   3  20
ATOM     20  N   UNL d   1       1.347  -0.086  -2.467  0.00  0.00    -0.113 N 
ATOM     21  O   UNL d   1       2.299   0.686  -2.638  0.00  0.00    -0.532 OA
ATOM     22  O   UNL d   1       0.822  -0.781  -3.350  0.00  0.00    -0.532 OA
ENDBRANCH   3  20
BRANCH   6  23
ATOM     23  C   UNL d   1      -2.951   0.627  -0.177  0.00  0.00     0.417 C 
ATOM     24  F   UNL d   1      -3.526   0.863   1.033  0.00  0.00    -0.166 F 
ATOM     25  F   UNL d   1      -3.282   1.683  -0.967  0.00  0.00    -0.166 F 
ATOM     26  F   UNL d   1      -3.593  -0.454  -0.695  0.00  0.00    -0.166 F 
ENDBRANCH   6  23
TORSDOF 5
