REMARK  4 active torsions:
REMARK  status: ('A' for Active; 'I' for Inactive)
REMARK    1  A    between atoms: C_7  and  S_1 
REMARK    2  A    between atoms: C_10  and  S_1 
REMARK    3  A    between atoms: N_2  and  C_9 
REMARK    4  A    between atoms: C_9  and  C_7 
ROOT
ATOM      1  S   UNL d   1       0.900   0.099  -0.168  0.00  0.00     0.177 S 
ATOM      2  O   UNL d   1       0.230   0.550  -1.375  0.00  0.00    -0.223 OA
ATOM      3  O   UNL d   1       2.346   0.133  -0.077  0.00  0.00    -0.223 OA
ENDROOT
BRANCH   1   4
ATOM      4  C   UNL d   1       0.370  -1.554   0.164  0.00  0.00     0.167 C 
BRANCH   4   5
ATOM      5  C   UNL d   1       0.829  -2.464  -0.968  0.00  0.00     0.164 C 
BRANCH   5   6
ATOM      6  N   UNL d   1       0.441  -3.856  -0.808  0.00  0.00    -0.296 N 
ATOM      7  N   UNL d   1      -0.251  -4.227   0.287  0.00  0.00    -0.303 N 
ATOM      8  C   UNL d   1      -0.459  -5.537   0.123  0.00  0.00     0.024 A 
ATOM      9  HN  UNL d   1      -0.550  -3.640   1.066  1.00  0.00     0.186 HD
ATOM     10  C   UNL d   1      -1.210  -6.317   1.133  0.00  0.00     0.070 C 
ATOM     11  C   UNL d   1       0.110  -6.004  -1.078  0.00  0.00     0.052 A 
ATOM     12  C   UNL d   1       0.687  -4.899  -1.668  0.00  0.00     0.026 A 
ATOM     13  C   UNL d   1       1.422  -4.798  -2.954  0.00  0.00     0.070 C 
ENDBRANCH   5   6
ENDBRANCH   4   5
ENDBRANCH   1   4
BRANCH   1  14
ATOM     14  C   UNL d   1       0.262   1.074   1.181  0.00  0.00     0.059 A 
ATOM     15  C   UNL d   1       1.059   1.307   2.307  0.00  0.00     0.025 A 
ATOM     16  C   UNL d   1       0.601   2.167   3.310  0.00  0.00     0.025 A 
ATOM     17  C   UNL d   1      -0.639   2.795   3.176  0.00  0.00     0.034 A 
ATOM     18  C   UNL d   1      -1.432   2.563   2.052  0.00  0.00     0.025 A 
ATOM     19 CL   UNL d   1      -1.183   3.881   4.395  0.00  0.00    -0.084 Cl
ATOM     20  C   UNL d   1      -0.981   1.703   1.047  0.00  0.00     0.025 A 
ENDBRANCH   1  14
TORSDOF 4
