REMARK  8 active torsions:
REMARK  status: ('A' for Active; 'I' for Inactive)
REMARK    1  A    between atoms: C_7  and  C_1 
REMARK    2  A    between atoms: C_8  and  C_1 
REMARK    3  A    between atoms: C_5  and  C_2 
REMARK    4  A    between atoms: N_6  and  C_3 
REMARK    5  A    between atoms: O_16  and  C_4 
REMARK    6  A    between atoms: O_17  and  C_5 
REMARK    7  A    between atoms: C_9  and  N_6 
REMARK    8  A    between atoms: O_18  and  C_10 
ROOT
ATOM      1  C   UNL d   1      -1.854  -4.836   1.035  0.00  0.00     0.108 A 
ATOM      2  C   UNL d   1      -1.047  -3.769   0.578  0.00  0.00     0.114 A 
ATOM      3  C   UNL d   1       0.195  -3.486   1.195  0.00  0.00     0.067 A 
ATOM      4  C   UNL d   1      -1.391  -5.666   2.068  0.00  0.00     0.087 A 
ATOM      5  C   UNL d   1       0.622  -4.324   2.233  0.00  0.00     0.035 A 
ATOM      6  C   UNL d   1      -0.161  -5.393   2.666  0.00  0.00     0.040 A 
ENDROOT
BRANCH   3   7
ATOM      7  N   UNL d   1       0.979  -2.401   0.747  0.00  0.00    -0.363 N 
ATOM      8  H   UNL d   1       0.454  -1.667   0.253  0.00  0.00     0.165 HD
BRANCH   7   9
ATOM      9  C   UNL d   1       2.292  -2.111   1.043  0.00  0.00     0.107 C 
ATOM     10  C   UNL d   1       2.980  -0.962   0.884  0.00  0.00     0.070 C 
BRANCH  10  11
ATOM     11  C   UNL d   1       4.433  -0.919   1.235  0.00  0.00     0.160 C 
ATOM     12  O   UNL d   1       5.180  -0.127   0.659  0.00  0.00    -0.293 OA
ATOM     13  C   UNL d   1       5.005  -1.853   2.280  0.00  0.00     0.097 C 
ENDBRANCH  10  11
BRANCH  10  14
ATOM     14  C   UNL d   1       2.270   0.233   0.317  0.00  0.00     0.160 C 
ATOM     15  O   UNL d   1       1.199   0.102  -0.286  0.00  0.00    -0.293 OA
ATOM     16  C   UNL d   1       2.841   1.614   0.517  0.00  0.00     0.097 C 
ENDBRANCH  10  14
ENDBRANCH   7   9
ENDBRANCH   3   7
BRANCH   2  17
ATOM     17  O   UNL d   1      -1.511  -2.848  -0.336  0.00  0.00    -0.352 OA
ATOM     18  C   UNL d   1      -1.449  -3.316  -1.685  0.00  0.00     0.210 C 
ENDBRANCH   2  17
BRANCH   1  19
ATOM     19  C   UNL d   1      -3.259  -4.909   0.615  0.00  0.00     0.298 C 
ATOM     20  O   UNL d   1      -4.197  -4.701   1.369  0.00  0.00    -0.259 OA
BRANCH  19  21
ATOM     21  O   UNL d   1      -3.350  -5.239  -0.697  0.00  0.00    -0.322 OA
ATOM     22  C   UNL d   1      -4.676  -5.098  -1.215  0.00  0.00     0.213 C 
ENDBRANCH  19  21
ENDBRANCH   1  19
BRANCH   4  23
ATOM     23  O   UNL d   1      -2.079  -6.683   2.673  0.00  0.00    -0.355 OA
ATOM     24  C   UNL d   1      -2.635  -7.660   1.800  0.00  0.00     0.210 C 
ENDBRANCH   4  23
TORSDOF 8
