REMARK  3 active torsions:
REMARK  status: ('A' for Active; 'I' for Inactive)
REMARK    1  A    between atoms: N_5  and  C_1 
REMARK       I    between atoms: C_7  and  N_5 
REMARK    2  A    between atoms: C_10  and  C_7 
REMARK    3  A    between atoms: N_9  and  C_10 
ROOT
ATOM      1  N   UNL d   1      -3.485  -2.839  -1.279  0.00  0.00    -0.310 N 
ATOM      2  C   UNL d   1      -2.768  -2.649  -0.120  0.00  0.00     0.251 C 
ATOM      3  O   UNL d   1      -3.032  -1.808   0.740  0.00  0.00    -0.271 OA
ATOM      4  H   UNL d   1      -3.362  -3.676  -1.831  0.00  0.00     0.170 HD
ENDROOT
BRANCH   1   5
ATOM      5  C   UNL d   1      -4.579  -2.084  -1.641  0.00  0.00     0.130 A 
ATOM      6  N   UNL d   1      -5.414  -2.540  -2.579  0.00  0.00    -0.245 N 
ATOM      7  O   UNL d   1      -6.433  -1.609  -2.664  0.00  0.00    -0.241 OA
ATOM      8  HN  UNL d   1      -5.320  -3.399  -3.121  1.00  0.00     0.196 HD
ATOM      9  C   UNL d   1      -6.171  -0.575  -1.820  0.00  0.00     0.076 A 
ATOM     10  C   UNL d   1      -4.991  -0.821  -1.165  0.00  0.00     0.084 A 
ATOM     11  C   UNL d   1      -7.162   0.513  -1.789  0.00  0.00     0.079 C 
ENDBRANCH   1   5
BRANCH   2  12
ATOM     12  C   UNL d   1      -1.595  -3.611   0.040  0.00  0.00     0.375 C 
BRANCH  12  13
ATOM     13  N   UNL d   1      -0.268  -2.994  -0.097  0.00  0.00     0.101 N 
ATOM     14  C   UNL d   1       0.032  -1.924   0.871  0.00  0.00     0.299 C 
ATOM     15  C   UNL d   1      -0.232  -0.480   0.394  0.00  0.00     0.198 C 
ATOM     16  O   UNL d   1       0.300  -0.240  -0.914  0.00  0.00    -0.388 OA
ATOM     17  C   UNL d   1      -0.245  -1.171  -1.853  0.00  0.00     0.198 C 
ATOM     18  C   UNL d   1       0.117  -2.609  -1.461  0.00  0.00     0.299 C 
ENDBRANCH  12  13
ENDBRANCH   2  12
TORSDOF 3
