REMARK  8 active torsions:
REMARK  status: ('A' for Active; 'I' for Inactive)
REMARK    1  A    between atoms: C_8  and  N_1 
REMARK    2  A    between atoms: C_12  and  C_5 
REMARK    3  A    between atoms: C_7  and  C_8 
REMARK    4  A    between atoms: C_15  and  C_12 
REMARK    5  A    between atoms: C_13  and  N_18 
REMARK    6  A    between atoms: N_19  and  C_13 
REMARK       I    between atoms: N_22  and  C_15 
REMARK    7  A    between atoms: N_18  and  N_22 
REMARK    8  A    between atoms: C_24  and  N_19 
ROOT
ATOM      1  N   UNL d   1       2.327  -0.908   0.659  0.00  0.00    -0.251 N 
ATOM      2  N   UNL d   1       2.246   0.462   0.567  0.00  0.00    -0.298 N 
ATOM      3  HN  UNL d   1       3.085   1.028   0.696  1.00  0.00     0.187 HD
ATOM      4  C   UNL d   1       1.227  -1.749   0.587  0.00  0.00     0.273 A 
ATOM      5  C   UNL d   1       1.107   1.042   0.319  0.00  0.00     0.046 A 
ATOM      6  C   UNL d   1      -0.079  -1.109   0.341  0.00  0.00     0.046 A 
ATOM      7  C   UNL d   1      -0.153   0.266   0.126  0.00  0.00     0.004 A 
ATOM      8  O   UNL d   1       1.291  -2.977   0.665  0.00  0.00    -0.266 OA
ATOM      9  C   UNL d   1      -1.230  -1.912   0.255  0.00  0.00     0.018 A 
ATOM     10  C   UNL d   1      -1.393   0.804  -0.241  0.00  0.00     0.014 A 
ATOM     11  C   UNL d   1      -2.465  -1.347  -0.046  0.00  0.00     0.001 A 
ATOM     12  C   UNL d   1      -2.545   0.014  -0.306  0.00  0.00     0.001 A 
ENDROOT
BRANCH   5  13
ATOM     13  C   UNL d   1       1.152   2.563   0.381  0.00  0.00     0.164 C 
BRANCH  13  14
ATOM     14  C   UNL d   1       0.263   3.370  -0.523  0.00  0.00     0.241 C 
ATOM     15  N   UNL d   1      -0.793   4.043   0.054  0.00  0.00    -0.268 N 
ATOM     16  H   UNL d   1      -1.406   4.586  -0.556  0.00  0.00     0.190 HD
ATOM     17  O   UNL d   1       0.432   3.412  -1.740  0.00  0.00    -0.271 OA
BRANCH  15  18
ATOM     18  N   UNL d   1      -1.247   3.798   1.363  0.00  0.00    -0.274 N 
ATOM     19  H   UNL d   1      -1.287   2.822   1.649  0.00  0.00     0.189 HD
BRANCH  18  20
ATOM     20  C   UNL d   1      -2.242   4.603   1.932  0.00  0.00     0.191 C 
ATOM     21  S   UNL d   1      -2.908   5.917   1.137  0.00  0.00    -0.039 SA
BRANCH  20  22
ATOM     22  N   UNL d   1      -2.483   4.167   3.233  0.00  0.00    -0.332 N 
ATOM     23  H   UNL d   1      -1.686   3.700   3.649  0.00  0.00     0.168 HD
BRANCH  22  24
ATOM     24  C   UNL d   1      -3.458   4.584   4.166  0.00  0.00     0.034 A 
ATOM     25  C   UNL d   1      -4.724   5.052   3.815  0.00  0.00     0.029 A 
ATOM     26  C   UNL d   1      -5.617   5.482   4.801  0.00  0.00     0.002 A 
ATOM     27  C   UNL d   1      -5.258   5.429   6.146  0.00  0.00     0.000 A 
ATOM     28  C   UNL d   1      -4.017   4.915   6.509  0.00  0.00     0.002 A 
ATOM     29  C   UNL d   1      -3.127   4.480   5.524  0.00  0.00     0.029 A 
ENDBRANCH  22  24
ENDBRANCH  20  22
ENDBRANCH  18  20
ENDBRANCH  15  18
ENDBRANCH  13  14
ENDBRANCH   5  13
BRANCH   1  30
ATOM     30  C   UNL d   1       3.669  -1.489   0.563  0.00  0.00     0.217 C 
BRANCH  30  31
ATOM     31  C   UNL d   1       4.319  -1.978   1.831  0.00  0.00     0.071 A 
ATOM     32  N   UNL d   1       5.524  -2.527   1.811  0.00  0.00    -0.356 N 
ATOM     33  C   UNL d   1       5.942  -2.863   3.085  0.00  0.00     0.012 A 
ATOM     34  HN  UNL d   1       6.072  -2.682   0.965  1.00  0.00     0.166 HD
ATOM     35  C   UNL d   1       7.292  -3.464   3.247  0.00  0.00     0.068 C 
ATOM     36  C   UNL d   1       5.030  -2.568   4.078  0.00  0.00     0.076 A 
ATOM     37  S   UNL d   1       3.625  -1.850   3.397  0.00  0.00    -0.085 SA
ENDBRANCH  30  31
ENDBRANCH   1  30
TORSDOF 8
