REMARK  4 active torsions:
REMARK  status: ('A' for Active; 'I' for Inactive)
REMARK    1  A    between atoms: N_5  and  C_1 
REMARK    2  A    between atoms: S_6  and  C_1 
REMARK    3  A    between atoms: C_2  and  C_9 
REMARK    4  A    between atoms: C_9  and  S_6 
ROOT
ATOM      1  C   UNL d   1      -2.187  -1.509   2.179  0.00  0.00    -0.013 A 
ATOM      2  C   UNL d   1      -2.003  -2.897   2.280  0.00  0.00     0.087 A 
ATOM      3  C   UNL d   1      -2.663  -3.638   3.271  0.00  0.00     0.001 A 
ATOM      4  O   UNL d   1      -1.178  -3.501   1.366  0.00  0.00    -0.325 OA
ATOM      5  C   UNL d   1      -3.486  -2.980   4.195  0.00  0.00     0.036 A 
ATOM      6  C   UNL d   1      -3.015  -0.866   3.116  0.00  0.00     0.034 A 
ATOM      7  C   UNL d   1      -3.657  -1.600   4.113  0.00  0.00     0.035 A 
ATOM      8  O   UNL d   1      -1.958  -5.623   2.125  0.00  0.00    -0.362 OA
ATOM      9  C   UNL d   1      -0.844  -4.846   1.708  0.00  0.00     0.345 C 
ATOM     10  C   UNL d   1      -2.454  -5.119   3.358  0.00  0.00     0.212 C 
ATOM     11 CL   UNL d   1      -4.672  -0.799   5.247  0.00  0.00    -0.084 Cl
ENDROOT
BRANCH   1  12
ATOM     12  C   UNL d   1      -1.496  -0.691   1.113  0.00  0.00     0.123 C 
BRANCH  12  13
ATOM     13  S   UNL d   1       0.157  -0.161   1.649  0.00  0.00    -0.096 SA
BRANCH  13  14
ATOM     14  C   UNL d   1       0.648   0.716   0.198  0.00  0.00     0.137 C 
ATOM     15  S   UNL d   1       0.175   2.328   0.064  0.00  0.00    -0.053 SA
BRANCH  14  16
ATOM     16  N   UNL d   1       1.443   0.021  -0.728  0.00  0.00    -0.365 N 
ATOM     17  C   UNL d   1       1.749  -1.426  -0.662  0.00  0.00     0.134 C 
ATOM     18  C   UNL d   1       1.253  -2.186  -1.897  0.00  0.00     0.093 C 
ATOM     19  S   UNL d   1       2.026  -1.587  -3.434  0.00  0.00    -0.166 SA
ATOM     20  C   UNL d   1       1.668   0.188  -3.224  0.00  0.00     0.093 C 
ATOM     21  C   UNL d   1       2.119   0.702  -1.856  0.00  0.00     0.134 C 
ENDBRANCH  14  16
ENDBRANCH  13  14
ENDBRANCH  12  13
ENDBRANCH   1  12
TORSDOF 4
