REMARK  6 active torsions:
REMARK  status: ('A' for Active; 'I' for Inactive)
REMARK    1  A    between atoms: O_5  and  C_1 
REMARK    2  A    between atoms: O_12  and  C_4 
REMARK    3  A    between atoms: C_7  and  O_5 
REMARK    4  A    between atoms: C_16  and  C_6 
REMARK       I    between atoms: N_14  and  C_7 
REMARK    5  A    between atoms: C_10  and  C_13 
REMARK    6  A    between atoms: C_18  and  O_12 
ROOT
ATOM      1  C   UNL d   1       0.905  -1.133  -0.568  0.00  0.00     0.190 C 
ATOM      2  N   UNL d   1       1.629  -0.013  -0.400  0.00  0.00    -0.320 N 
ATOM      3  HN  UNL d   1       2.648  -0.031  -0.372  1.00  0.00     0.169 HD
ATOM      4  C   UNL d   1      -0.482  -1.173  -0.579  0.00  0.00     0.149 C 
ATOM      5  C   UNL d   1       0.941   1.129  -0.270  0.00  0.00     0.117 C 
ATOM      6  N   UNL d   1      -0.403   1.186  -0.181  0.00  0.00    -0.343 N 
ATOM      7  HN  UNL d   1      -0.880   2.076  -0.037  1.00  0.00     0.167 HD
ATOM      8  C   UNL d   1      -1.101   0.033  -0.288  0.00  0.00     0.045 C 
ATOM      9  C   UNL d   1      -2.575   0.174  -0.052  0.00  0.00     0.071 C 
ENDROOT
BRANCH   4  10
ATOM     10  O   UNL d   1      -1.119  -2.372  -0.739  0.00  0.00    -0.304 OA
BRANCH  10  11
ATOM     11  C   UNL d   1      -2.087  -2.519  -1.710  0.00  0.00     0.077 A 
ATOM     12  C   UNL d   1      -2.868  -3.670  -1.597  0.00  0.00     0.053 A 
ATOM     13  C   UNL d   1      -3.918  -3.934  -2.492  0.00  0.00     0.050 A 
ATOM     14  C   UNL d   1      -4.195  -2.996  -3.496  0.00  0.00     0.016 A 
ATOM     15  C   UNL d   1      -3.398  -1.861  -3.641  0.00  0.00     0.004 A 
ATOM     16  C   UNL d   1      -2.322  -1.643  -2.775  0.00  0.00     0.037 A 
BRANCH  13  17
ATOM     17  C   UNL d   1      -4.728  -5.202  -2.399  0.00  0.00     0.417 C 
ATOM     18  F   UNL d   1      -4.303  -6.051  -1.423  0.00  0.00    -0.166 F 
ATOM     19  F   UNL d   1      -6.044  -4.965  -2.144  0.00  0.00    -0.166 F 
ATOM     20  F   UNL d   1      -4.697  -5.922  -3.555  0.00  0.00    -0.166 F 
ENDBRANCH  13  17
ENDBRANCH  10  11
ENDBRANCH   4  10
BRANCH   1  21
ATOM     21  O   UNL d   1       1.580  -2.390  -0.601  0.00  0.00    -0.241 OA
BRANCH  21  22
ATOM     22  C   UNL d   1       2.943  -2.459  -0.880  0.00  0.00     0.368 C 
ATOM     23  N   UNL d   1       3.491  -3.713  -0.603  0.00  0.00    -0.336 N 
ATOM     24  C   UNL d   1       4.871  -3.938  -0.984  0.00  0.00     0.154 C 
ATOM     25  C   UNL d   1       2.683  -4.883  -0.311  0.00  0.00     0.154 C 
ATOM     26  O   UNL d   1       3.616  -1.546  -1.349  0.00  0.00    -0.238 OA
ENDBRANCH  21  22
ENDBRANCH   1  21
BRANCH   5  27
ATOM     27  C   UNL d   1       1.679   2.406  -0.278  0.00  0.00     0.008 A 
ATOM     28  C   UNL d   1       3.084   2.453  -0.360  0.00  0.00     0.015 A 
ATOM     29  C   UNL d   1       3.769   3.672  -0.423  0.00  0.00     0.001 A 
ATOM     30  C   UNL d   1       3.063   4.873  -0.409  0.00  0.00     0.000 A 
ATOM     31  C   UNL d   1       1.676   4.858  -0.315  0.00  0.00     0.001 A 
ATOM     32  C   UNL d   1       0.996   3.639  -0.246  0.00  0.00     0.015 A 
ENDBRANCH   5  27
TORSDOF 6
