REMARK  6 active torsions:
REMARK  status: ('A' for Active; 'I' for Inactive)
REMARK    1  A    between atoms: O_3  and  S_1 
REMARK    2  A    between atoms: C_6  and  S_1 
REMARK    3  A    between atoms: S_2  and  C_5 
REMARK    4  A    between atoms: O_4  and  S_2 
REMARK    5  A    between atoms: C_7  and  O_3 
REMARK    6  A    between atoms: C_8  and  O_4 
ROOT
ATOM      1  C   UNL d   1      -0.029   2.713  -2.700  0.00  0.00     0.088 A 
ATOM      2  C   UNL d   1       0.279   0.692  -1.430  0.00  0.00     0.088 A 
ATOM      3  C   UNL d   1       0.413   2.079  -1.535  0.00  0.00     0.051 A 
ATOM      4  C   UNL d   1      -0.616   1.975  -3.736  0.00  0.00     0.026 A 
ATOM      5  C   UNL d   1      -0.322  -0.054  -2.450  0.00  0.00     0.026 A 
ATOM      6  C   UNL d   1      -0.771   0.593  -3.602  0.00  0.00     0.003 A 
ENDROOT
BRANCH   1   7
ATOM      7  S   UNL d   1       0.401   4.428  -2.970  0.00  0.00     0.303 S 
ATOM      8  O   UNL d   1       1.558   4.672  -2.127  0.00  0.00    -0.193 OA
ATOM      9  O   UNL d   1       0.466   4.593  -4.410  0.00  0.00    -0.193 OA
BRANCH   7  10
ATOM     10  O   UNL d   1      -0.871   5.272  -2.391  0.00  0.00    -0.226 OA
BRANCH  10  11
ATOM     11  C   UNL d   1      -0.950   6.640  -2.521  0.00  0.00     0.128 A 
ATOM     12  C   UNL d   1       0.061   7.481  -3.005  0.00  0.00     0.153 A 
ATOM     13  C   UNL d   1      -0.127   8.856  -3.111  0.00  0.00     0.087 A 
ATOM     14  F   UNL d   1       1.252   7.004  -3.384  0.00  0.00    -0.203 F 
ATOM     15  C   UNL d   1      -1.339   9.403  -2.724  0.00  0.00     0.119 A 
ATOM     16  C   UNL d   1      -2.357   8.598  -2.227  0.00  0.00     0.045 A 
ATOM     17  F   UNL d   1      -1.528  10.724  -2.830  0.00  0.00    -0.206 F 
ATOM     18  C   UNL d   1      -2.164   7.217  -2.122  0.00  0.00     0.044 A 
ENDBRANCH  10  11
ENDBRANCH   7  10
ENDBRANCH   1   7
BRANCH   2  19
ATOM     19  S   UNL d   1       0.920  -0.143   0.015  0.00  0.00     0.303 S 
ATOM     20  O   UNL d   1       0.957   0.855   1.067  0.00  0.00    -0.193 OA
ATOM     21  O   UNL d   1       0.153  -1.369   0.145  0.00  0.00    -0.193 OA
BRANCH  19  22
ATOM     22  O   UNL d   1       2.442  -0.499  -0.453  0.00  0.00    -0.226 OA
BRANCH  22  23
ATOM     23  C   UNL d   1       3.306  -1.240   0.310  0.00  0.00     0.128 A 
ATOM     24  C   UNL d   1       3.096  -1.664   1.624  0.00  0.00     0.153 A 
ATOM     25  C   UNL d   1       4.056  -2.411   2.300  0.00  0.00     0.087 A 
ATOM     26  F   UNL d   1       1.972  -1.364   2.284  0.00  0.00    -0.203 F 
ATOM     27  C   UNL d   1       5.240  -2.738   1.655  0.00  0.00     0.119 A 
ATOM     28  C   UNL d   1       5.478  -2.326   0.349  0.00  0.00     0.045 A 
ATOM     29  F   UNL d   1       6.166  -3.457   2.300  0.00  0.00    -0.206 F 
ATOM     30  C   UNL d   1       4.511  -1.575  -0.324  0.00  0.00     0.044 A 
ENDBRANCH  22  23
ENDBRANCH  19  22
ENDBRANCH   2  19
TORSDOF 6
