REMARK  5 active torsions:
REMARK  status: ('A' for Active; 'I' for Inactive)
REMARK    1  A    between atoms: C_3  and  N_1 
REMARK    2  A    between atoms: S_2  and  C_6 
REMARK    3  A    between atoms: N_7  and  S_2 
REMARK    4  A    between atoms: O_15  and  C_10 
REMARK    5  A    between atoms: C_18  and  O_15 
ROOT
ATOM      1  C   UNL d   1      -0.884  -1.565   8.156  0.00  0.00     0.038 A 
ATOM      2  C   UNL d   1      -0.977  -2.857   7.631  0.00  0.00     0.024 A 
ATOM      3  C   UNL d   1      -1.124  -0.450   7.351  0.00  0.00     0.024 A 
ATOM      4  C   UNL d   1      -1.563  -1.922   5.473  0.00  0.00     0.077 A 
ATOM      5  C   UNL d   1      -1.314  -3.032   6.285  0.00  0.00     0.039 A 
ATOM      6  C   UNL d   1      -1.438  -0.632   6.004  0.00  0.00     0.039 A 
ENDROOT
BRANCH   4   7
ATOM      7  O   UNL d   1      -1.854  -2.179   4.149  0.00  0.00    -0.294 OA
BRANCH   7   8
ATOM      8  C   UNL d   1      -2.749  -1.333   3.508  0.00  0.00     0.148 A 
ATOM      9  C   UNL d   1      -2.574  -1.143   2.145  0.00  0.00     0.059 A 
ATOM     10  C   UNL d   1      -3.417  -0.247   1.485  0.00  0.00     0.041 A 
ATOM     11  C   UNL d   1      -4.407   0.412   2.223  0.00  0.00     0.118 A 
ATOM     12  C   UNL d   1      -4.539   0.130   3.572  0.00  0.00     0.126 A 
ATOM     13  N   UNL d   1      -3.736  -0.743   4.224  0.00  0.00    -0.344 N 
ATOM     14  HN  UNL d   1      -3.869  -0.948   5.215  1.00  0.00     0.167 HD
BRANCH  11  15
ATOM     15  N   UNL d   1      -5.279   1.401   1.607  0.00  0.00    -0.114 N 
ATOM     16  O   UNL d   1      -6.104   1.972   2.330  0.00  0.00    -0.532 OA
ATOM     17  O   UNL d   1      -5.132   1.617   0.395  0.00  0.00    -0.532 OA
ENDBRANCH  11  15
ENDBRANCH   7   8
ENDBRANCH   4   7
BRANCH   1  18
ATOM     18  S   UNL d   1      -0.427  -1.330   9.863  0.00  0.00     0.046 S 
ATOM     19  O   UNL d   1       0.070  -2.604  10.345  0.00  0.00    -0.245 OA
ATOM     20  C   UNL d   1       0.974  -0.242   9.781  0.00  0.00     0.142 C 
BRANCH  18  21
ATOM     21  N   UNL d   1      -1.592  -0.561  10.512  0.00  0.00    -0.357 N 
ATOM     22  H   UNL d   1      -2.417  -1.159  10.588  0.00  0.00     0.166 HD
ATOM     23  HN  UNL d   1      -1.547   0.409  10.823  1.00  0.00     0.166 HD
ENDBRANCH  18  21
ENDBRANCH   1  18
TORSDOF 5
