REMARK  3 active torsions:
REMARK  status: ('A' for Active; 'I' for Inactive)
REMARK    1  A    between atoms: C_2  and  S_1 
REMARK    2  A    between atoms: O_3  and  S_1 
REMARK    3  A    between atoms: C_6  and  O_3 
ROOT
ATOM      1  S   UNL d   1       1.105   0.077   0.158  0.00  0.00     0.304 S 
ATOM      2  O   UNL d   1       2.451   0.003   0.675  0.00  0.00    -0.193 OA
ATOM      3  O   UNL d   1       0.104   0.793   0.928  0.00  0.00    -0.193 OA
ENDROOT
BRANCH   1   4
ATOM      4  C   UNL d   1       0.480  -1.640  -0.077  0.00  0.00     0.099 A 
ATOM      5  C   UNL d   1       1.410  -2.720  -0.178  0.00  0.00    -0.031 A 
ATOM      6  C   UNL d   1       0.926  -4.062  -0.127  0.00  0.00    -0.048 A 
ATOM      7  C   UNL d   1       2.902  -2.534  -0.338  0.00  0.00     0.050 C 
ATOM      8  C   UNL d   1       1.872  -5.251  -0.129  0.00  0.00     0.049 C 
ATOM      9  C   UNL d   1      -0.465  -4.323  -0.073  0.00  0.00    -0.049 A 
ATOM     10  C   UNL d   1      -1.390  -3.251  -0.082  0.00  0.00    -0.048 A 
ATOM     11  C   UNL d   1      -0.936  -5.766  -0.018  0.00  0.00     0.049 C 
ATOM     12  C   UNL d   1      -0.925  -1.899  -0.068  0.00  0.00    -0.031 A 
ATOM     13  C   UNL d   1      -2.872  -3.579  -0.088  0.00  0.00     0.049 C 
ATOM     14  C   UNL d   1      -1.993  -0.824  -0.077  0.00  0.00     0.050 C 
ENDBRANCH   1   4
BRANCH   1  15
ATOM     15  O   UNL d   1       1.144   0.657  -1.364  0.00  0.00    -0.226 OA
BRANCH  15  16
ATOM     16  C   UNL d   1       1.555   1.908  -1.773  0.00  0.00     0.133 A 
ATOM     17  C   UNL d   1       1.910   3.028  -1.006  0.00  0.00     0.070 A 
ATOM     18 CL   UNL d   1       1.999   3.098   0.714  0.00  0.00    -0.081 Cl
ATOM     19  C   UNL d   1       2.248   4.244  -1.632  0.00  0.00     0.027 A 
ATOM     20  C   UNL d   1       2.263   4.372  -3.018  0.00  0.00     0.003 A 
ATOM     21  C   UNL d   1       1.940   3.271  -3.799  0.00  0.00     0.027 A 
ATOM     22  C   UNL d   1       1.591   2.060  -3.183  0.00  0.00     0.070 A 
ATOM     23 CL   UNL d   1       1.208   0.737  -4.239  0.00  0.00    -0.081 Cl
ENDBRANCH  15  16
ENDBRANCH   1  15
TORSDOF 3
