REMARK  5 active torsions:
REMARK  status: ('A' for Active; 'I' for Inactive)
REMARK       I    between atoms: C_3  and  N_4 
REMARK    1  A    between atoms: C_11  and  C_3 
REMARK    2  A    between atoms: N_4  and  N_5 
REMARK    3  A    between atoms: N_5  and  C_8 
REMARK    4  A    between atoms: C_13  and  C_11 
REMARK    5  A    between atoms: C_14  and  C_13 
ROOT
ATOM      1  C   UNL d   1      -4.891  -3.659   0.200  0.00  0.00     0.232 C 
ATOM      2  N   UNL d   1      -4.227  -2.456   0.322  0.00  0.00    -0.287 N 
ATOM      3  O   UNL d   1      -4.270  -4.720   0.224  0.00  0.00    -0.272 OA
ATOM      4  H   UNL d   1      -3.213  -2.455   0.351  0.00  0.00     0.184 HD
ENDROOT
BRANCH   2   5
ATOM      5  N   UNL d   1      -4.892  -1.257   0.077  0.00  0.00    -0.203 NA
ATOM      6  H   UNL d   1      -5.011  -1.049  -0.917  0.00  0.00     0.153 HD
BRANCH   5   7
ATOM      7  C   UNL d   1      -4.474  -0.135   0.823  0.00  0.00     0.029 A 
ATOM      8  C   UNL d   1      -4.884   1.133   0.391  0.00  0.00     0.049 A 
ATOM      9  C   UNL d   1      -4.595   2.287   1.127  0.00  0.00     0.041 A 
ATOM     10  C   UNL d   1      -3.900   2.201   2.338  0.00  0.00    -0.040 A 
ATOM     11 CL   UNL d   1      -5.147   3.792   0.479  0.00  0.00    -0.084 Cl
ATOM     12  C   UNL d   1      -3.513   0.929   2.790  0.00  0.00     0.010 A 
ATOM     13  C   UNL d   1      -3.570   3.388   3.200  0.00  0.00     0.050 C 
ATOM     14  C   UNL d   1      -3.814  -0.223   2.053  0.00  0.00     0.026 A 
ENDBRANCH   5   7
ENDBRANCH   2   5
BRANCH   1  15
ATOM     15  C   UNL d   1      -6.398  -3.568   0.029  0.00  0.00     0.108 C 
BRANCH  15  16
ATOM     16  C   UNL d   1      -7.056  -4.939  -0.061  0.00  0.00     0.048 C 
BRANCH  16  17
ATOM     17  C   UNL d   1      -8.557  -4.819  -0.172  0.00  0.00    -0.058 A 
ATOM     18  C   UNL d   1      -9.174  -4.695  -1.425  0.00  0.00     0.007 A 
ATOM     19  C   UNL d   1     -10.563  -4.592  -1.522  0.00  0.00     0.001 A 
ATOM     20  C   UNL d   1     -11.346  -4.604  -0.369  0.00  0.00     0.000 A 
ATOM     21  C   UNL d   1     -10.741  -4.704   0.882  0.00  0.00     0.001 A 
ATOM     22  C   UNL d   1      -9.353  -4.806   0.981  0.00  0.00     0.007 A 
ENDBRANCH  16  17
ENDBRANCH  15  16
ENDBRANCH   1  15
TORSDOF 5
