REMARK  7 active torsions:
REMARK  status: ('A' for Active; 'I' for Inactive)
REMARK    1  A    between atoms: C_6  and  C_1 
REMARK    2  A    between atoms: N_7  and  C_3 
REMARK       I    between atoms: C_10  and  N_7 
REMARK    3  A    between atoms: C_11  and  C_10 
REMARK       I    between atoms: N_12  and  C_11 
REMARK    4  A    between atoms: C_19  and  N_12 
REMARK    5  A    between atoms: C_18  and  C_19 
REMARK    6  A    between atoms: O_20  and  C_18 
REMARK    7  A    between atoms: O_21  and  C_18 
ROOT
ATOM      1  N   UNL d   1       1.362  -0.274   0.040  0.00  0.00    -0.298 N 
ATOM      2  C   UNL d   1       2.450  -0.827  -0.589  0.00  0.00     0.315 C 
ATOM      3  O   UNL d   1       3.165  -0.352  -1.463  0.00  0.00    -0.262 OA
ATOM      4  H   UNL d   1       0.977  -0.769   0.837  0.00  0.00     0.171 HD
ENDROOT
BRANCH   1   5
ATOM      5  C   UNL d   1       0.777   0.932  -0.256  0.00  0.00     0.168 A 
ATOM      6  S   UNL d   1       1.127   1.798  -1.682  0.00  0.00    -0.029 SA
ATOM      7  C   UNL d   1       0.021   3.006  -1.150  0.00  0.00     0.177 A 
ATOM      8  N   UNL d   1      -0.560   2.708  -0.001  0.00  0.00    -0.288 N 
ATOM      9  N   UNL d   1      -0.139   1.490   0.500  0.00  0.00    -0.279 N 
ATOM     10  HN  UNL d   1      -1.241   3.309   0.464  1.00  0.00     0.187 HD
ATOM     11  HN  UNL d   1      -0.500   1.073   1.358  1.00  0.00     0.189 HD
BRANCH   7  12
ATOM     12  C   UNL d   1      -0.204   4.250  -1.945  0.00  0.00     0.440 C 
ATOM     13  F   UNL d   1       0.398   4.227  -3.167  0.00  0.00    -0.164 F 
ATOM     14  F   UNL d   1      -1.524   4.478  -2.181  0.00  0.00    -0.164 F 
ATOM     15  F   UNL d   1       0.274   5.353  -1.308  0.00  0.00    -0.164 F 
ENDBRANCH   7  12
ENDBRANCH   1   5
BRANCH   2  16
ATOM     16  C   UNL d   1       2.784  -2.235  -0.059  0.00  0.00     0.309 C 
ATOM     17  N   UNL d   1       3.922  -2.807  -0.599  0.00  0.00    -0.348 N 
ATOM     18  H   UNL d   1       4.573  -2.178  -1.066  0.00  0.00     0.163 HD
ATOM     19  O   UNL d   1       2.056  -2.745   0.783  0.00  0.00    -0.262 OA
BRANCH  17  20
ATOM     20  C   UNL d   1       4.388  -4.092  -0.116  0.00  0.00     0.183 C 
BRANCH  20  21
ATOM     21  C   UNL d   1       5.591  -4.716  -0.869  0.00  0.00     0.275 C 
BRANCH  21  22
ATOM     22  O   UNL d   1       6.734  -3.858  -0.781  0.00  0.00    -0.364 OA
ATOM     23  C   UNL d   1       7.822  -4.328  -1.575  0.00  0.00     0.204 C 
ENDBRANCH  21  22
BRANCH  21  24
ATOM     24  O   UNL d   1       5.872  -6.031  -0.369  0.00  0.00    -0.364 OA
ATOM     25  C   UNL d   1       6.289  -6.055   0.993  0.00  0.00     0.204 C 
ENDBRANCH  21  24
ENDBRANCH  20  21
ENDBRANCH  17  20
ENDBRANCH   2  16
TORSDOF 7
