REMARK  6 active torsions:
REMARK  status: ('A' for Active; 'I' for Inactive)
REMARK    1  A    between atoms: N_6  and  C_1 
REMARK    2  A    between atoms: C_11  and  N_2 
REMARK    3  A    between atoms: C_8  and  C_4 
REMARK       I    between atoms: C_7  and  N_6 
REMARK    4  A    between atoms: C_13  and  C_7 
REMARK    5  A    between atoms: O_16  and  C_8 
REMARK    6  A    between atoms: C_21  and  O_16 
ROOT
ATOM      1  C   UNL d   1      -0.129  -1.265  -0.043  0.00  0.00     0.137 A 
ATOM      2  N   UNL d   1       1.154  -0.685  -0.091  0.00  0.00    -0.290 N 
ATOM      3  C   UNL d   1      -1.053  -0.240   0.069  0.00  0.00     0.097 A 
ATOM      4  C   UNL d   1       1.002   0.714  -0.034  0.00  0.00     0.124 A 
ATOM      5  C   UNL d   1      -0.362   1.000   0.058  0.00  0.00    -0.004 A 
ATOM      6  C   UNL d   1      -2.482  -0.399   0.052  0.00  0.00     0.104 C 
ATOM      7  N   UNL d   1      -3.636  -0.489  -0.030  0.00  0.00    -0.191 NA
ATOM      8  C   UNL d   1      -0.985   2.361   0.046  0.00  0.00     0.052 C 
ENDROOT
BRANCH   1   9
ATOM      9  N   UNL d   1      -0.385  -2.639  -0.054  0.00  0.00    -0.307 N 
ATOM     10  C   UNL d   1      -1.206  -3.216   0.900  0.00  0.00     0.257 C 
ATOM     11  O   UNL d   1      -1.655  -2.613   1.872  0.00  0.00    -0.267 OA
ATOM     12  H   UNL d   1       0.047  -3.218  -0.759  0.00  0.00     0.170 HD
BRANCH  10  13
ATOM     13  C   UNL d   1      -1.539  -4.668   0.741  0.00  0.00     0.032 A 
ATOM     14  C   UNL d   1      -0.732  -5.584   0.053  0.00  0.00     0.017 A 
ATOM     15  C   UNL d   1      -1.116  -6.929  -0.035  0.00  0.00     0.001 A 
ATOM     16  C   UNL d   1      -2.297  -7.367   0.565  0.00  0.00     0.000 A 
ATOM     17  C   UNL d   1      -3.097  -6.465   1.262  0.00  0.00     0.001 A 
ATOM     18  C   UNL d   1      -2.717  -5.125   1.351  0.00  0.00     0.017 A 
ENDBRANCH  10  13
ENDBRANCH   1   9
BRANCH   2  19
ATOM     19  C   UNL d   1       2.407  -1.390  -0.084  0.00  0.00     0.041 A 
ATOM     20  C   UNL d   1       2.583  -2.558  -0.835  0.00  0.00     0.030 A 
ATOM     21  C   UNL d   1       3.826  -3.199  -0.872  0.00  0.00     0.002 A 
ATOM     22  C   UNL d   1       4.912  -2.668  -0.182  0.00  0.00     0.000 A 
ATOM     23  C   UNL d   1       4.747  -1.516   0.579  0.00  0.00     0.002 A 
ATOM     24  C   UNL d   1       3.497  -0.894   0.649  0.00  0.00     0.030 A 
ENDBRANCH   2  19
BRANCH   4  25
ATOM     25  C   UNL d   1       2.080   1.682  -0.173  0.00  0.00     0.311 C 
ATOM     26  O   UNL d   1       3.084   1.543  -0.849  0.00  0.00    -0.258 OA
BRANCH  25  27
ATOM     27  O   UNL d   1       1.811   2.784   0.584  0.00  0.00    -0.317 OA
BRANCH  27  28
ATOM     28  C   UNL d   1       2.815   3.808   0.615  0.00  0.00     0.175 C 
ATOM     29  C   UNL d   1       2.823   4.627  -0.663  0.00  0.00     0.034 C 
ENDBRANCH  27  28
ENDBRANCH  25  27
ENDBRANCH   4  25
TORSDOF 6
