REMARK  6 active torsions:
REMARK  status: ('A' for Active; 'I' for Inactive)
REMARK    1  A    between atoms: C_4  and  C_3 
REMARK    2  A    between atoms: C_13  and  C_4 
REMARK    3  A    between atoms: C_12  and  C_7 
REMARK    4  A    between atoms: N_14  and  C_13 
REMARK    5  A    between atoms: C_17  and  N_14 
REMARK    6  A    between atoms: C_18  and  N_14 
ROOT
ATOM      1  S   UNL d   1       0.770   1.508  -0.551  0.00  0.00     0.163 S 
ATOM      2  S   UNL d   1       0.773  -1.391  -0.589  0.00  0.00     0.163 S 
ATOM      3  C   UNL d   1       1.625   0.046   0.046  0.00  0.00     0.231 C 
ATOM      4  C   UNL d   1      -0.888   1.326   0.068  0.00  0.00     0.152 C 
ATOM      5  C   UNL d   1      -0.862  -1.253   0.086  0.00  0.00     0.152 C 
ATOM      6  C   UNL d   1      -1.575   0.026  -0.352  0.00  0.00     0.046 C 
ATOM      7  O   UNL d   1       1.335   2.657   0.127  0.00  0.00    -0.227 OA
ATOM      8  O   UNL d   1       0.663  -1.315  -2.031  0.00  0.00    -0.227 OA
ATOM      9  O   UNL d   1       1.364  -2.586  -0.014  0.00  0.00    -0.227 OA
ATOM     10  O   UNL d   1       0.709   1.507  -1.998  0.00  0.00    -0.227 OA
ENDROOT
BRANCH   3  11
ATOM     11  C   UNL d   1       1.698   0.099   1.587  0.00  0.00     0.066 C 
BRANCH  11  12
ATOM     12  C   UNL d   1       2.528  -1.000   2.257  0.00  0.00     0.274 C 
BRANCH  12  13
ATOM     13  N   UNL d   1       2.498  -0.976   3.738  0.00  0.00     0.087 N 
BRANCH  13  14
ATOM     14  C   UNL d   1       1.146  -1.003   4.327  0.00  0.00     0.268 C 
ATOM     15  C   UNL d   1       0.311  -2.256   4.074  0.00  0.00     0.037 C 
ENDBRANCH  13  14
BRANCH  13  16
ATOM     16  C   UNL d   1       3.360  -2.076   4.227  0.00  0.00     0.268 C 
ATOM     17  C   UNL d   1       3.513  -2.154   5.740  0.00  0.00     0.037 C 
ENDBRANCH  13  16
ENDBRANCH  12  13
ENDBRANCH  11  12
ENDBRANCH   3  11
BRANCH   6  18
ATOM     18  C   UNL d   1      -2.994   0.039   0.201  0.00  0.00    -0.052 A 
ATOM     19  C   UNL d   1      -3.252  -0.015   1.582  0.00  0.00     0.007 A 
ATOM     20  C   UNL d   1      -4.559   0.059   2.066  0.00  0.00     0.001 A 
ATOM     21  C   UNL d   1      -5.622   0.186   1.177  0.00  0.00     0.000 A 
ATOM     22  C   UNL d   1      -5.382   0.231  -0.194  0.00  0.00     0.001 A 
ATOM     23  C   UNL d   1      -4.076   0.156  -0.680  0.00  0.00     0.007 A 
ENDBRANCH   6  18
TORSDOF 6
