REMARK  3 active torsions:
REMARK  status: ('A' for Active; 'I' for Inactive)
REMARK    1  A    between atoms: N_7  and  C_1 
REMARK       I    between atoms: C_2  and  N_7 
REMARK    2  A    between atoms: C_3  and  C_2 
REMARK       I    between atoms: N_8  and  C_3 
REMARK    3  A    between atoms: C_12  and  N_8 
ROOT
ATOM      1  C   UNL d   1      -0.298  -4.820   0.928  0.00  0.00     0.310 C 
ATOM      2  N   UNL d   1      -1.153  -5.039  -0.134  0.00  0.00    -0.340 N 
ATOM      3  O   UNL d   1      -0.425  -5.259   2.062  0.00  0.00    -0.262 OA
ATOM      4  H   UNL d   1      -0.783  -4.779  -1.045  0.00  0.00     0.163 HD
ENDROOT
BRANCH   1   5
ATOM      5  C   UNL d   1       0.889  -3.889   0.582  0.00  0.00     0.315 C 
ATOM      6  N   UNL d   1       1.755  -3.741   1.639  0.00  0.00    -0.303 N 
ATOM      7  H   UNL d   1       1.593  -4.318   2.455  0.00  0.00     0.171 HD
ATOM      8  O   UNL d   1       0.929  -3.393  -0.534  0.00  0.00    -0.262 OA
BRANCH   6   9
ATOM      9  C   UNL d   1       2.754  -2.789   1.696  0.00  0.00     0.131 A 
ATOM     10  N   UNL d   1       2.954  -1.824   0.795  0.00  0.00    -0.245 N 
ATOM     11  O   UNL d   1       3.988  -1.047   1.274  0.00  0.00    -0.241 OA
ATOM     12  HN  UNL d   1       2.443  -1.689  -0.078  1.00  0.00     0.196 HD
ATOM     13  C   UNL d   1       4.424  -1.553   2.455  0.00  0.00     0.076 A 
ATOM     14  C   UNL d   1       3.685  -2.670   2.761  0.00  0.00     0.084 A 
ATOM     15  C   UNL d   1       5.521  -0.821   3.112  0.00  0.00     0.079 C 
ENDBRANCH   6   9
ENDBRANCH   1   5
BRANCH   2  16
ATOM     16  C   UNL d   1      -2.321  -5.906  -0.057  0.00  0.00     0.177 C 
ATOM     17  C   UNL d   1      -1.950  -7.334  -0.499  0.00  0.00     0.240 C 
ATOM     18  N   UNL d   1      -2.932  -8.284  -0.469  0.00  0.00    -0.359 N 
ATOM     19  O   UNL d   1      -0.828  -7.646  -0.899  0.00  0.00    -0.271 OA
ATOM     20  C   UNL d   1      -4.246  -8.158   0.124  0.00  0.00     0.122 C 
ATOM     21  H   UNL d   1      -2.614  -9.204  -0.757  0.00  0.00     0.162 HD
ATOM     22  C   UNL d   1      -5.168  -7.223  -0.649  0.00  0.00     0.020 C 
ATOM     23  C   UNL d   1      -4.832  -5.741  -0.490  0.00  0.00     0.004 C 
ATOM     24  C   UNL d   1      -3.430  -5.354  -0.960  0.00  0.00     0.035 C 
ENDBRANCH   2  16
TORSDOF 3
