REMARK  5 active torsions:
REMARK  status: ('A' for Active; 'I' for Inactive)
REMARK    1  A    between atoms: C_14  and  N_1 
REMARK    2  A    between atoms: C_7  and  C_14 
REMARK    3  A    between atoms: C_19  and  C_8 
REMARK    4  A    between atoms: C_15  and  C_17 
REMARK    5  A    between atoms: C_16  and  C_18 
ROOT
ATOM      1  C   UNL d   1       1.047  -3.309  -0.042  0.00  0.00     0.160 A 
ATOM      2  C   UNL d   1       2.928  -3.995   0.688  0.00  0.00     0.174 A 
ATOM      3  N   UNL d   1       2.810  -4.454  -0.540  0.00  0.00    -0.277 N 
ATOM      4  HN  UNL d   1       3.489  -5.026  -1.044  1.00  0.00     0.189 HD
ATOM      5  O   UNL d   1       1.832  -3.273   1.080  0.00  0.00    -0.276 OA
ATOM      6  N   UNL d   1       1.590  -4.013  -1.015  0.00  0.00    -0.280 N 
ATOM      7  HN  UNL d   1       1.189  -4.195  -1.935  1.00  0.00     0.189 HD
ENDROOT
BRANCH   2   8
ATOM      8  C   UNL d   1       4.013  -4.129   1.655  0.00  0.00     0.018 A 
ATOM      9  C   UNL d   1       3.937  -3.537   2.926  0.00  0.00     0.032 A 
ATOM     10  C   UNL d   1       4.980  -3.669   3.861  0.00  0.00     0.049 A 
ATOM     11  C   UNL d   1       6.121  -4.402   3.502  0.00  0.00     0.032 A 
ATOM     12  C   UNL d   1       6.224  -5.006   2.240  0.00  0.00     0.049 A 
ATOM     13  C   UNL d   1       5.164  -4.862   1.325  0.00  0.00     0.032 A 
BRANCH  10  14
ATOM     14  C   UNL d   1       4.846  -3.042   5.228  0.00  0.00     0.417 C 
ATOM     15  F   UNL d   1       5.906  -3.295   6.046  0.00  0.00    -0.166 F 
ATOM     16  F   UNL d   1       4.732  -1.688   5.170  0.00  0.00    -0.166 F 
ATOM     17  F   UNL d   1       3.746  -3.486   5.896  0.00  0.00    -0.166 F 
ENDBRANCH  10  14
BRANCH  12  18
ATOM     18  C   UNL d   1       7.444  -5.816   1.861  0.00  0.00     0.417 C 
ATOM     19  F   UNL d   1       8.384  -5.869   2.846  0.00  0.00    -0.166 F 
ATOM     20  F   UNL d   1       7.137  -7.109   1.570  0.00  0.00    -0.166 F 
ATOM     21  F   UNL d   1       8.079  -5.320   0.764  0.00  0.00    -0.166 F 
ENDBRANCH  12  18
ENDBRANCH   2   8
BRANCH   1  22
ATOM     22  C   UNL d   1      -0.257  -2.617   0.007  0.00  0.00     0.234 C 
BRANCH  22  23
ATOM     23  N   UNL d   1      -0.074  -1.193   0.252  0.00  0.00    -0.288 N 
ATOM     24  N   UNL d   1      -0.124  -0.752   1.532  0.00  0.00    -0.301 N 
ATOM     25  C   UNL d   1       0.063   0.571   1.441  0.00  0.00     0.041 A 
ATOM     26  HN  UNL d   1      -0.270  -1.305   2.377  1.00  0.00     0.187 HD
ATOM     27  C   UNL d   1       0.095   1.406   2.666  0.00  0.00     0.071 C 
ATOM     28  C   UNL d   1       0.200   0.964   0.098  0.00  0.00     0.058 A 
ATOM     29  C   UNL d   1       0.105  -0.179  -0.662  0.00  0.00     0.044 A 
ATOM     30 BR   UNL d   1       0.459   2.720  -0.501  0.00  0.00    -0.047 Br
ATOM     31  C   UNL d   1       0.181  -0.358  -2.134  0.00  0.00     0.071 C 
ENDBRANCH  22  23
ENDBRANCH   1  22
TORSDOF 5
