REMARK  7 active torsions:
REMARK  status: ('A' for Active; 'I' for Inactive)
REMARK    1  A    between atoms: C_4  and  C_1 
REMARK    2  A    between atoms: C_22  and  N_5 
REMARK    3  A    between atoms: C_29  and  C_6 
REMARK    4  A    between atoms: C_16  and  C_9 
REMARK    5  A    between atoms: C_13  and  C_17 
REMARK    6  A    between atoms: C_14  and  C_18 
REMARK    7  A    between atoms: C_32  and  C_29 
ROOT
ATOM      1  N   UNL d   1      -0.096   3.761  -0.172  0.00  0.00    -0.318 N 
ATOM      2  HN  UNL d   1       0.906   3.834  -0.348  1.00  0.00     0.169 HD
ATOM      3  C   UNL d   1      -0.805   2.685   0.101  0.00  0.00     0.185 A 
ATOM      4  C   UNL d   1      -1.041   4.766  -0.161  0.00  0.00     0.138 A 
ATOM      5  N   UNL d   1      -2.274   4.347   0.161  0.00  0.00    -0.242 N 
ATOM      6  HN  UNL d   1      -3.122   4.904   0.261  1.00  0.00     0.196 HD
ATOM      7  O   UNL d   1      -2.125   2.979   0.325  0.00  0.00    -0.217 OA
ENDROOT
BRANCH   3   8
ATOM      8  C   UNL d   1      -0.293   1.291   0.148  0.00  0.00     0.059 A 
ATOM      9  C   UNL d   1       1.008   0.827   0.034  0.00  0.00     0.050 A 
ATOM     10  N   UNL d   1       0.917  -0.568   0.141  0.00  0.00    -0.260 N 
ATOM     11  N   UNL d   1      -0.365  -0.950   0.420  0.00  0.00    -0.304 N 
ATOM     12  C   UNL d   1      -1.085   0.162   0.365  0.00  0.00     0.125 A 
ATOM     13  HN  UNL d   1      -0.698  -1.892   0.627  1.00  0.00     0.186 HD
BRANCH   9  14
ATOM     14  C   UNL d   1       2.275   1.624  -0.032  0.00  0.00     0.060 C 
BRANCH  14  15
ATOM     15  C   UNL d   1       2.591   2.127  -1.443  0.00  0.00     0.002 C 
ATOM     16  C   UNL d   1       3.879   2.938  -1.456  0.00  0.00     0.005 C 
ENDBRANCH  14  15
ENDBRANCH   9  14
BRANCH  10  17
ATOM     17  C   UNL d   1       1.897  -1.602   0.006  0.00  0.00     0.056 A 
ATOM     18  C   UNL d   1       1.610  -2.872   0.544  0.00  0.00     0.031 A 
ATOM     19  C   UNL d   1       2.513  -3.929   0.409  0.00  0.00     0.002 A 
ATOM     20  C   UNL d   1       3.705  -3.739  -0.281  0.00  0.00     0.000 A 
ATOM     21  C   UNL d   1       3.995  -2.492  -0.829  0.00  0.00     0.002 A 
ATOM     22  C   UNL d   1       3.099  -1.426  -0.684  0.00  0.00     0.031 A 
ENDBRANCH  10  17
ENDBRANCH   3   8
BRANCH   4  23
ATOM     23  C   UNL d   1      -0.745   6.141  -0.554  0.00  0.00     0.011 A 
ATOM     24  C   UNL d   1       0.569   6.546  -0.828  0.00  0.00     0.031 A 
ATOM     25  C   UNL d   1       0.844   7.846  -1.292  0.00  0.00     0.049 A 
ATOM     26  C   UNL d   1      -0.219   8.747  -1.473  0.00  0.00     0.032 A 
ATOM     27  C   UNL d   1      -1.541   8.367  -1.200  0.00  0.00     0.049 A 
ATOM     28  C   UNL d   1      -1.787   7.067  -0.729  0.00  0.00     0.031 A 
BRANCH  25  29
ATOM     29  C   UNL d   1       2.267   8.250  -1.610  0.00  0.00     0.417 C 
ATOM     30  F   UNL d   1       2.371   9.493  -2.151  0.00  0.00    -0.166 F 
ATOM     31  F   UNL d   1       3.064   8.252  -0.507  0.00  0.00    -0.166 F 
ATOM     32  F   UNL d   1       2.857   7.404  -2.499  0.00  0.00    -0.166 F 
ENDBRANCH  25  29
BRANCH  27  33
ATOM     33  C   UNL d   1      -2.702   9.308  -1.426  0.00  0.00     0.417 C 
ATOM     34  F   UNL d   1      -2.335  10.496  -1.980  0.00  0.00    -0.166 F 
ATOM     35  F   UNL d   1      -3.639   8.780  -2.261  0.00  0.00    -0.166 F 
ATOM     36  F   UNL d   1      -3.355   9.615  -0.273  0.00  0.00    -0.166 F 
ENDBRANCH  27  33
ENDBRANCH   4  23
TORSDOF 7
