REMARK  4 active torsions:
REMARK  status: ('A' for Active; 'I' for Inactive)
REMARK    1  A    between atoms: C_11  and  C_1 
REMARK    2  A    between atoms: C_7  and  C_2 
REMARK    3  A    between atoms: S_19  and  C_10 
REMARK    4  A    between atoms: C_26  and  S_19 
ROOT
ATOM      1  C   UNL d   1      -7.037   5.381   0.006  0.00  0.00    -0.107 C 
ATOM      2  C   UNL d   1      -8.226   5.538   0.076  0.00  0.00     0.013 C 
ATOM      3  C   UNL d   1      -5.581   5.170  -0.065  0.00  0.00     0.175 C 
ENDROOT
BRANCH   3   4
ATOM      4  S   UNL d   1      -5.148   3.515   0.538  0.00  0.00    -0.082 SA
BRANCH   4   5
ATOM      5  C   UNL d   1      -3.390   3.553   0.327  0.00  0.00     0.145 A 
ATOM      6  N   UNL d   1      -2.790   2.358   0.235  0.00  0.00    -0.334 N 
ATOM      7  C   UNL d   1      -1.444   2.348   0.142  0.00  0.00     0.071 A 
ATOM      8  HN  UNL d   1      -3.328   1.492   0.236  1.00  0.00     0.168 HD
ATOM      9  C   UNL d   1      -0.690   3.499   0.145  0.00  0.00     0.049 A 
ATOM     10  C   UNL d   1      -1.400   4.672   0.243  0.00  0.00     0.092 A 
ATOM     11  N   UNL d   1      -2.744   4.728   0.331  0.00  0.00    -0.347 N 
ATOM     12  HN  UNL d   1      -3.242   5.616   0.397  1.00  0.00     0.167 HD
BRANCH   7  13
ATOM     13  C   UNL d   1      -0.877   1.014   0.055  0.00  0.00     0.127 A 
ATOM     14  C   UNL d   1      -1.419  -0.247   0.069  0.00  0.00     0.074 A 
ATOM     15  C   UNL d   1      -0.321  -1.134  -0.071  0.00  0.00     0.069 A 
ATOM     16  N   UNL d   1       0.825  -0.434  -0.128  0.00  0.00    -0.260 N 
ATOM     17  O   UNL d   1       0.474   0.902  -0.060  0.00  0.00    -0.235 OA
ATOM     18  HN  UNL d   1       1.769  -0.814  -0.205  1.00  0.00     0.195 HD
BRANCH  15  19
ATOM     19  C   UNL d   1      -0.330  -2.600  -0.094  0.00  0.00     0.014 A 
ATOM     20  C   UNL d   1      -1.319  -3.362  -0.744  0.00  0.00     0.048 A 
ATOM     21  C   UNL d   1      -1.307  -4.762  -0.671  0.00  0.00     0.048 A 
ATOM     22 CL   UNL d   1      -2.573  -2.666  -1.715  0.00  0.00    -0.083 Cl
ATOM     23  C   UNL d   1      -0.297  -5.414   0.031  0.00  0.00     0.035 A 
ATOM     24  C   UNL d   1       0.709  -4.684   0.653  0.00  0.00     0.025 A 
ATOM     25 CL   UNL d   1      -0.294  -7.131   0.124  0.00  0.00    -0.084 Cl
ATOM     26  C   UNL d   1       0.692  -3.286   0.591  0.00  0.00     0.017 A 
ENDBRANCH  15  19
ENDBRANCH   7  13
ENDBRANCH   4   5
ENDBRANCH   3   4
TORSDOF 4
