REMARK  6 active torsions:
REMARK  status: ('A' for Active; 'I' for Inactive)
REMARK       I    between atoms: C_4  and  N_7 
REMARK    1  A    between atoms: C_15  and  C_4 
REMARK    2  A    between atoms: N_7  and  C_12 
REMARK    3  A    between atoms: C_12  and  C_11 
REMARK    4  A    between atoms: O_14  and  C_16 
REMARK    5  A    between atoms: C_17  and  C_15 
REMARK    6  A    between atoms: C_16  and  C_17 
ROOT
ATOM      1  C   UNL d   1       3.522  -1.429  -0.047  0.00  0.00     0.161 C 
ENDROOT
BRANCH   1   2
ATOM      2  N   UNL d   1       4.683  -0.570  -0.058  0.00  0.00    -0.357 N 
ATOM      3  C   UNL d   1       5.632  -0.637  -1.050  0.00  0.00     0.217 C 
ATOM      4  O   UNL d   1       5.571  -1.419  -1.993  0.00  0.00    -0.274 OA
ATOM      5  H   UNL d   1       4.776   0.116   0.678  0.00  0.00     0.162 HD
BRANCH   3   6
ATOM      6  C   UNL d   1       6.797   0.310  -0.845  0.00  0.00     0.105 C 
BRANCH   6   7
ATOM      7  C   UNL d   1       7.409   0.761  -2.171  0.00  0.00     0.035 C 
BRANCH   7   8
ATOM      8  C   UNL d   1       6.433   1.563  -3.025  0.00  0.00     0.164 C 
BRANCH   8   9
ATOM      9  O   UNL d   1       5.989   2.701  -2.298  0.00  0.00    -0.401 OA
ATOM     10  H   UNL d   1       5.347   3.163  -2.865  0.00  0.00     0.209 HD
ENDBRANCH   8   9
ENDBRANCH   7   8
ENDBRANCH   6   7
ENDBRANCH   3   6
ENDBRANCH   1   2
BRANCH   1  11
ATOM     11  C   UNL d   1       2.247  -0.629   0.027  0.00  0.00    -0.038 A 
ATOM     12  C   UNL d   1       1.693  -0.285   1.271  0.00  0.00     0.048 A 
ATOM     13  C   UNL d   1       0.513   0.430   1.282  0.00  0.00     0.105 A 
ATOM     14  C   UNL d   1      -0.115   0.814   0.121  0.00  0.00     0.105 A 
ATOM     15  O   UNL d   1      -0.161   0.830   2.394  0.00  0.00    -0.323 OA
ATOM     16  O   UNL d   1      -1.266   1.498   0.356  0.00  0.00    -0.323 OA
ATOM     17  C   UNL d   1       0.405   0.511  -1.117  0.00  0.00     0.040 A 
ATOM     18  C   UNL d   1      -1.279   1.520   1.798  0.00  0.00     0.352 A 
ATOM     19  C   UNL d   1       1.603  -0.211  -1.162  0.00  0.00     0.012 A 
ENDBRANCH   1  11
TORSDOF 6
