REMARK  7 active torsions:
REMARK  status: ('A' for Active; 'I' for Inactive)
REMARK    1  A    between atoms: C_2  and  S_1 
REMARK    2  A    between atoms: C_8  and  S_1 
REMARK    3  A    between atoms: C_3  and  C_2 
REMARK    4  A    between atoms: N_20  and  C_3 
REMARK    5  A    between atoms: C_4  and  O_9 
REMARK    6  A    between atoms: C_5  and  C_4 
REMARK    7  A    between atoms: O_9  and  N_6 
ROOT
ATOM      1  C   UNL d   1       0.975   2.673  -0.557  0.00  0.00     0.110 C 
ATOM      2  N   UNL d   1       1.807   2.799   0.429  0.00  0.00    -0.245 N 
ATOM      3  HN  UNL d   1       2.263   3.677   0.679  1.00  0.00     0.196 HD
ENDROOT
BRANCH   1   4
ATOM      4  C   UNL d   1       0.684   3.917  -1.359  0.00  0.00     0.223 C 
BRANCH   4   5
ATOM      5  S   UNL d   1      -0.663   4.833  -0.677  0.00  0.00     0.182 S 
ATOM      6  O   UNL d   1      -1.803   3.943  -0.551  0.00  0.00    -0.222 OA
ATOM      7  O   UNL d   1      -0.791   6.057  -1.451  0.00  0.00    -0.222 OA
BRANCH   5   8
ATOM      8  C   UNL d   1      -0.168   5.334   0.952  0.00  0.00     0.059 A 
ATOM      9  C   UNL d   1       0.937   6.181   1.096  0.00  0.00     0.025 A 
ATOM     10  C   UNL d   1       1.323   6.595   2.372  0.00  0.00     0.025 A 
ATOM     11  C   UNL d   1       0.596   6.177   3.487  0.00  0.00     0.034 A 
ATOM     12  C   UNL d   1      -0.518   5.349   3.339  0.00  0.00     0.025 A 
ATOM     13 CL   UNL d   1       1.068   6.699   5.057  0.00  0.00    -0.084 Cl
ATOM     14  C   UNL d   1      -0.906   4.924   2.066  0.00  0.00     0.025 A 
ENDBRANCH   5   8
ENDBRANCH   4   5
ENDBRANCH   1   4
BRANCH   1  15
ATOM     15  N   UNL d   1       0.390   1.494  -0.938  0.00  0.00    -0.387 N 
ATOM     16  H   UNL d   1      -0.048   1.410  -1.849  0.00  0.00     0.157 HD
ATOM     17  H   UNL d   1       0.797   0.643  -0.571  0.00  0.00     0.157 HD
ENDBRANCH   1  15
BRANCH   2  18
ATOM     18  O   UNL d   1       2.010   1.583   1.118  0.00  0.00    -0.193 OA
BRANCH  18  19
ATOM     19  C   UNL d   1       2.942   1.775   2.102  0.00  0.00     0.315 C 
ATOM     20  O   UNL d   1       3.578   2.795   2.327  0.00  0.00    -0.257 OA
BRANCH  19  21
ATOM     21  C   UNL d   1       3.126   0.541   2.918  0.00  0.00     0.044 A 
ATOM     22  C   UNL d   1       4.093   0.575   3.936  0.00  0.00     0.041 A 
ATOM     23  C   UNL d   1       4.303  -0.544   4.742  0.00  0.00     0.036 A 
ATOM     24 CL   UNL d   1       5.488  -0.487   5.988  0.00  0.00    -0.084 Cl
ATOM     25  C   UNL d   1       3.562  -1.704   4.549  0.00  0.00     0.047 A 
ATOM     26  C   UNL d   1       2.603  -1.738   3.539  0.00  0.00     0.036 A 
ATOM     27  C   UNL d   1       2.378  -0.626   2.722  0.00  0.00     0.041 A 
ATOM     28 CL   UNL d   1       1.679  -3.170   3.298  0.00  0.00    -0.084 Cl
ENDBRANCH  19  21
ENDBRANCH  18  19
ENDBRANCH   2  18
TORSDOF 7
