REMARK  6 active torsions:
REMARK  status: ('A' for Active; 'I' for Inactive)
REMARK    1  A    between atoms: C_5  and  C_1 
REMARK    2  A    between atoms: C_7  and  C_2 
REMARK    3  A    between atoms: O_11  and  C_7 
REMARK    4  A    between atoms: N_9  and  O_11 
REMARK    5  A    between atoms: O_18  and  C_14 
REMARK    6  A    between atoms: C_24  and  O_18 
ROOT
ATOM      1  C   UNL d   1      -1.433  -0.550   0.256  0.00  0.00     0.088 A 
ATOM      2  C   UNL d   1      -0.137  -1.166   0.224  0.00  0.00     0.102 A 
ATOM      3  N   UNL d   1      -1.292   0.784   0.340  0.00  0.00    -0.259 N 
ATOM      4  HN  UNL d   1      -2.045   1.467   0.426  1.00  0.00     0.195 HD
ATOM      5  O   UNL d   1       0.049   1.056   0.290  0.00  0.00    -0.241 OA
ATOM      6  C   UNL d   1       0.745  -0.101   0.224  0.00  0.00     0.091 A 
ATOM      7  C   UNL d   1       2.211   0.045   0.107  0.00  0.00     0.080 C 
ENDROOT
BRANCH   2   8
ATOM      8  C   UNL d   1       0.285  -2.545   0.119  0.00  0.00     0.320 C 
ATOM      9  O   UNL d   1       1.364  -2.940   0.554  0.00  0.00    -0.257 OA
BRANCH   8  10
ATOM     10  O   UNL d   1      -0.558  -3.288  -0.683  0.00  0.00    -0.193 OA
BRANCH  10  11
ATOM     11  N   UNL d   1       0.173  -4.294  -1.375  0.00  0.00    -0.239 N 
ATOM     12  C   UNL d   1       0.809  -3.771  -2.378  0.00  0.00     0.134 C 
ATOM     13  C   UNL d   1       1.700  -4.591  -3.253  0.00  0.00     0.099 C 
ATOM     14  HN  UNL d   1       0.193  -5.281  -1.120  1.00  0.00     0.197 HD
BRANCH  12  15
ATOM     15  O   UNL d   1       0.701  -2.448  -2.626  0.00  0.00    -0.338 OA
BRANCH  15  16
ATOM     16  C   UNL d   1       1.278  -1.804  -3.770  0.00  0.00     0.172 C 
ATOM     17  C   UNL d   1       0.812  -0.360  -3.727  0.00  0.00     0.034 C 
ENDBRANCH  15  16
ENDBRANCH  12  15
ENDBRANCH  10  11
ENDBRANCH   8  10
ENDBRANCH   2   8
BRANCH   1  18
ATOM     18  C   UNL d   1      -2.777  -1.141   0.278  0.00  0.00     0.054 A 
ATOM     19  C   UNL d   1      -3.890  -0.560  -0.365  0.00  0.00     0.049 A 
ATOM     20 CL   UNL d   1      -3.791   0.837  -1.389  0.00  0.00    -0.083 Cl
ATOM     21  C   UNL d   1      -5.172  -1.122  -0.235  0.00  0.00     0.025 A 
ATOM     22  C   UNL d   1      -5.364  -2.287   0.503  0.00  0.00     0.005 A 
ATOM     23  C   UNL d   1      -4.275  -2.888   1.120  0.00  0.00     0.043 A 
ATOM     24  C   UNL d   1      -3.009  -2.308   1.019  0.00  0.00     0.130 A 
ATOM     25  F   UNL d   1      -2.008  -2.902   1.685  0.00  0.00    -0.205 F 
ENDBRANCH   1  18
TORSDOF 6
