REMARK  1 active torsions:
REMARK  status: ('A' for Active; 'I' for Inactive)
REMARK    1  A    between atoms: C_4  and  C_1 
ROOT
ATOM      1  C   UNL d   1       2.222  -1.217   0.065  0.00  0.00     0.007 A 
ATOM      2  C   UNL d   1       2.517   0.137   0.109  0.00  0.00     0.036 A 
ATOM      3  S   UNL d   1       0.528  -1.485   0.234  0.00  0.00    -0.103 SA
ATOM      4  C   UNL d   1       1.356   0.926   0.300  0.00  0.00     0.018 A 
ATOM      5  C   UNL d   1       0.204   0.188   0.385  0.00  0.00     0.069 A 
ATOM      6 BR   UNL d   1       1.436   2.805   0.427  0.00  0.00    -0.051 Br
ENDROOT
BRANCH   1   7
ATOM      7  C   UNL d   1       3.142  -2.395  -0.093  0.00  0.00     0.148 C 
ATOM      8  S   UNL d   1       4.351  -2.481   1.265  0.00  0.00    -0.147 SA
ATOM      9  C   UNL d   1       5.652  -3.259   0.284  0.00  0.00     0.085 C 
ATOM     10  C   UNL d   1       5.711  -2.513  -1.033  0.00  0.00     0.085 C 
ATOM     11  S   UNL d   1       4.027  -2.345  -1.691  0.00  0.00    -0.147 SA
ENDBRANCH   1   7
TORSDOF 1
