REMARK  5 active torsions:
REMARK  status: ('A' for Active; 'I' for Inactive)
REMARK    1  A    between atoms: C_2  and  S_1 
REMARK    2  A    between atoms: C_9  and  S_1 
REMARK    3  A    between atoms: C_4  and  C_3 
REMARK    4  A    between atoms: O_13  and  C_5 
REMARK    5  A    between atoms: C_18  and  O_13 
ROOT
ATOM      1  C   UNL d   1       0.462  -1.633   0.565  0.00  0.00     0.145 C 
ATOM      2  C   UNL d   1      -0.439  -1.688   1.565  0.00  0.00     0.057 C 
ATOM      3  C   UNL d   1       0.992  -0.432   0.039  0.00  0.00     0.112 C 
ATOM      4  N   UNL d   1       1.384   0.553  -0.432  0.00  0.00    -0.191 NA
ENDROOT
BRANCH   1   5
ATOM      5  S   UNL d   1       1.177  -3.122   0.039  0.00  0.00     0.216 S 
ATOM      6  O   UNL d   1       0.373  -4.238   0.510  0.00  0.00    -0.216 OA
ATOM      7  O   UNL d   1       2.594  -3.080   0.356  0.00  0.00    -0.216 OA
BRANCH   5   8
ATOM      8  C   UNL d   1       1.101  -3.247  -1.744  0.00  0.00     0.065 A 
ATOM      9  C   UNL d   1       0.565  -2.269  -2.585  0.00  0.00     0.025 A 
ATOM     10  C   UNL d   1       0.584  -2.468  -3.972  0.00  0.00     0.025 A 
ATOM     11  C   UNL d   1       1.108  -3.644  -4.510  0.00  0.00     0.034 A 
ATOM     12  C   UNL d   1       1.622  -4.630  -3.674  0.00  0.00     0.025 A 
ATOM     13 CL   UNL d   1       1.113  -3.879  -6.214  0.00  0.00    -0.084 Cl
ATOM     14  C   UNL d   1       1.624  -4.431  -2.293  0.00  0.00     0.025 A 
ENDBRANCH   5   8
ENDBRANCH   1   5
BRANCH   2  15
ATOM     15  C   UNL d   1      -0.975  -0.523   2.189  0.00  0.00     0.040 C 
ATOM     16  C   UNL d   1      -2.227   0.079   2.121  0.00  0.00     0.093 C 
ATOM     17  C   UNL d   1      -2.268   1.322   2.822  0.00  0.00     0.046 C 
ATOM     18  C   UNL d   1      -1.099   1.590   3.493  0.00  0.00     0.053 C 
ATOM     19  S   UNL d   1       0.040   0.340   3.298  0.00  0.00    -0.099 SA
BRANCH  16  20
ATOM     20  O   UNL d   1      -3.298  -0.315   1.385  0.00  0.00    -0.309 OA
BRANCH  20  21
ATOM     21  C   UNL d   1      -3.611  -1.617   1.093  0.00  0.00     0.076 A 
ATOM     22  C   UNL d   1      -3.463  -2.676   1.988  0.00  0.00     0.037 A 
ATOM     23  C   UNL d   1      -3.775  -3.975   1.583  0.00  0.00     0.003 A 
ATOM     24  C   UNL d   1      -4.293  -4.205   0.308  0.00  0.00     0.000 A 
ATOM     25  C   UNL d   1      -4.517  -3.135  -0.557  0.00  0.00     0.003 A 
ATOM     26  C   UNL d   1      -4.177  -1.842  -0.163  0.00  0.00     0.037 A 
ENDBRANCH  20  21
ENDBRANCH  16  20
ENDBRANCH   2  15
TORSDOF 5
