REMARK  3 active torsions:
REMARK  status: ('A' for Active; 'I' for Inactive)
REMARK    1  A    between atoms: C_4  and  C_1 
REMARK    2  A    between atoms: C_16  and  C_9 
REMARK    3  A    between atoms: C_11  and  C_15 
ROOT
ATOM      1  C   UNL d   1       0.299   1.119  -0.017  0.00  0.00     0.155 A 
ATOM      2  N   UNL d   1       1.303   0.176   0.005  0.00  0.00    -0.317 N 
ATOM      3  HN  UNL d   1       2.313   0.314   0.032  1.00  0.00     0.169 HD
ATOM      4  N   UNL d   1      -0.943   0.619  -0.057  0.00  0.00    -0.241 N 
ATOM      5  HN  UNL d   1      -1.829   1.124  -0.081  1.00  0.00     0.196 HD
ATOM      6  C   UNL d   1       0.621  -0.949  -0.019  0.00  0.00     0.182 A 
ATOM      7  O   UNL d   1      -0.732  -0.757  -0.058  0.00  0.00    -0.217 OA
ENDROOT
BRANCH   6   8
ATOM      8  C   UNL d   1       1.083  -2.333   0.017  0.00  0.00     0.017 A 
ATOM      9  C   UNL d   1       2.452  -2.613   0.123  0.00  0.00     0.017 A 
ATOM     10  C   UNL d   1       2.911  -3.934   0.200  0.00  0.00     0.017 A 
ATOM     11  C   UNL d   1       2.007  -5.005   0.171  0.00  0.00     0.048 A 
ATOM     12  C   UNL d   1       0.639  -4.729   0.042  0.00  0.00     0.017 A 
ATOM     13  C   UNL d   1       0.184  -3.409  -0.034  0.00  0.00     0.017 A 
BRANCH  11  14
ATOM     14  C   UNL d   1       2.476  -6.435   0.293  0.00  0.00     0.417 C 
ATOM     15  F   UNL d   1       3.825  -6.557   0.432  0.00  0.00    -0.166 F 
ATOM     16  F   UNL d   1       1.932  -7.067   1.370  0.00  0.00    -0.166 F 
ATOM     17  F   UNL d   1       2.141  -7.189  -0.790  0.00  0.00    -0.166 F 
ENDBRANCH  11  14
ENDBRANCH   6   8
BRANCH   1  18
ATOM     18  C   UNL d   1       0.616   2.553   0.013  0.00  0.00     0.085 A 
ATOM     19  N   UNL d   1      -0.415   3.483  -0.003  0.00  0.00    -0.351 N 
ATOM     20  C   UNL d   1       0.078   4.701   0.036  0.00  0.00     0.047 A 
ATOM     21  HN  UNL d   1      -1.409   3.255  -0.040  1.00  0.00     0.166 HD
ATOM     22  C   UNL d   1      -0.747   5.940   0.038  0.00  0.00     0.076 C 
ATOM     23  S   UNL d   1       1.794   4.804   0.088  0.00  0.00    -0.087 SA
ATOM     24  C   UNL d   1       1.885   3.092   0.062  0.00  0.00     0.084 A 
ENDBRANCH   1  18
TORSDOF 3
