REMARK  4 active torsions:
REMARK  status: ('A' for Active; 'I' for Inactive)
REMARK    1  A    between atoms: C_6  and  C_11 
REMARK    2  A    between atoms: O_7  and  C_10 
REMARK    3  A    between atoms: C_11  and  O_7 
REMARK    4  A    between atoms: C_14  and  C_19 
ROOT
ATOM      1  N   UNL d   1       5.628   0.080  -1.845  0.00  0.00    -0.197 NA
ATOM      2  C   UNL d   1       4.800   0.030  -1.036  0.00  0.00     0.063 C 
ATOM      3  C   UNL d   1       3.725  -0.028  -0.030  0.00  0.00     0.162 C 
ENDROOT
BRANCH   3   4
ATOM      4  C   UNL d   1       4.247   0.025   1.386  0.00  0.00    -0.045 A 
ATOM      5  C   UNL d   1       4.426   1.263   2.014  0.00  0.00     0.011 A 
ATOM      6  C   UNL d   1       4.953   1.334   3.301  0.00  0.00     0.037 A 
ATOM      7  C   UNL d   1       5.346   0.172   3.968  0.00  0.00     0.069 A 
ATOM      8  C   UNL d   1       5.129  -1.069   3.370  0.00  0.00     0.037 A 
ATOM      9  C   UNL d   1       4.588  -1.144   2.082  0.00  0.00     0.011 A 
BRANCH   7  10
ATOM     10  O   UNL d   1       5.959   0.163   5.194  0.00  0.00    -0.347 OA
BRANCH  10  11
ATOM     11  C   UNL d   1       6.661   1.375   5.500  0.00  0.00     0.214 C 
BRANCH  11  12
ATOM     12  C   UNL d   1       7.723   1.153   6.548  0.00  0.00    -0.031 A 
ATOM     13  C   UNL d   1       8.363  -0.085   6.691  0.00  0.00     0.033 A 
ATOM     14  C   UNL d   1       9.386  -0.242   7.625  0.00  0.00     0.036 A 
ATOM     15 CL   UNL d   1      10.150  -1.774   7.795  0.00  0.00    -0.084 Cl
ATOM     16  C   UNL d   1       9.799   0.829   8.413  0.00  0.00     0.047 A 
ATOM     17  C   UNL d   1       9.181   2.066   8.259  0.00  0.00     0.036 A 
ATOM     18  C   UNL d   1       8.154   2.235   7.331  0.00  0.00     0.033 A 
ATOM     19 CL   UNL d   1       9.694   3.404   9.211  0.00  0.00    -0.084 Cl
ENDBRANCH  11  12
ENDBRANCH  10  11
ENDBRANCH   7  10
ENDBRANCH   3   4
TORSDOF 4
