REMARK  2 active torsions:
REMARK  status: ('A' for Active; 'I' for Inactive)
REMARK    1  A    between atoms: C_8  and  C_3 
REMARK    2  A    between atoms: O_9  and  C_5 
ROOT
ATOM      1  N   UNL d   1      -0.447  -1.872   0.029  0.00  0.00    -0.355 N 
ATOM      2  HN  UNL d   1      -0.108  -2.834   0.032  1.00  0.00     0.166 HD
ATOM      3  C   UNL d   1      -1.780  -1.617   0.022  0.00  0.00     0.045 A 
ATOM      4  C   UNL d   1      -2.266  -0.319   0.018  0.00  0.00     0.067 A 
ATOM      5  C   UNL d   1      -1.364   0.735   0.022  0.00  0.00     0.080 A 
ATOM      6  C   UNL d   1       0.424  -0.848   0.030  0.00  0.00     0.045 A 
ATOM      7  C   UNL d   1       0.023   0.504   0.024  0.00  0.00     0.024 A 
ATOM      8  C   UNL d   1       1.017   1.515   0.010  0.00  0.00     0.016 A 
ATOM      9  C   UNL d   1       1.781  -1.144   0.031  0.00  0.00     0.030 A 
ATOM     10  C   UNL d   1       2.373   1.189   0.003  0.00  0.00     0.001 A 
ATOM     11  C   UNL d   1       2.756  -0.145   0.015  0.00  0.00     0.002 A 
ENDROOT
BRANCH   3  12
ATOM     12  C   UNL d   1      -2.667  -2.799  -0.016  0.00  0.00    -0.009 A 
ATOM     13  C   UNL d   1      -3.954  -2.783   0.555  0.00  0.00     0.013 A 
ATOM     14  C   UNL d   1      -4.799  -3.894   0.479  0.00  0.00     0.001 A 
ATOM     15  C   UNL d   1      -4.371  -5.052  -0.163  0.00  0.00     0.000 A 
ATOM     16  C   UNL d   1      -3.098  -5.101  -0.722  0.00  0.00     0.001 A 
ATOM     17  C   UNL d   1      -2.255  -3.988  -0.645  0.00  0.00     0.013 A 
ENDBRANCH   3  12
BRANCH   5  18
ATOM     18  O   UNL d   1      -1.936   1.981   0.014  0.00  0.00    -0.360 OA
ATOM     19  H   UNL d   1      -1.247   2.660   0.023  0.00  0.00     0.217 HD
ENDBRANCH   5  18
TORSDOF 2
