REMARK  4 active torsions:
REMARK  status: ('A' for Active; 'I' for Inactive)
REMARK    1  A    between atoms: C_4  and  C_1 
REMARK    2  A    between atoms: C_5  and  C_1 
REMARK    3  A    between atoms: N_6  and  N_2 
REMARK    4  A    between atoms: C_9  and  N_6 
ROOT
ATOM      1  C   UNL d   1       1.084  -0.051   0.043  0.00  0.00     0.139 C 
ATOM      2  N   UNL d   1       0.389  -0.334  -1.027  0.00  0.00    -0.294 N 
ATOM      3  HN  UNL d   1      -0.630  -0.288  -1.021  1.00  0.00     0.187 HD
ENDROOT
BRANCH   2   4
ATOM      4  N   UNL d   1       1.069  -0.692  -2.147  0.00  0.00    -0.300 N 
ATOM      5  H   UNL d   1       2.038  -0.369  -2.272  0.00  0.00     0.187 HD
BRANCH   4   6
ATOM      6  C   UNL d   1       0.369  -0.806  -3.367  0.00  0.00     0.048 A 
ATOM      7  C   UNL d   1      -1.014  -0.620  -3.472  0.00  0.00     0.031 A 
ATOM      8  C   UNL d   1      -1.676  -0.816  -4.688  0.00  0.00     0.002 A 
ATOM      9  C   UNL d   1      -0.965  -1.240  -5.809  0.00  0.00     0.000 A 
ATOM     10  C   UNL d   1       0.406  -1.461  -5.715  0.00  0.00     0.002 A 
ATOM     11  C   UNL d   1       1.066  -1.249  -4.502  0.00  0.00     0.031 A 
ENDBRANCH   4   6
ENDBRANCH   2   4
BRANCH   1  12
ATOM     12  C   UNL d   1       0.289   0.314   1.276  0.00  0.00     0.177 C 
ATOM     13  O   UNL d   1       0.818   1.037   2.114  0.00  0.00    -0.291 OA
ATOM     14  C   UNL d   1      -1.075  -0.293   1.453  0.00  0.00     0.098 C 
ENDBRANCH   1  12
BRANCH   1  15
ATOM     15  C   UNL d   1       2.606  -0.075   0.064  0.00  0.00     0.177 C 
ATOM     16  O   UNL d   1       3.233   0.277  -0.933  0.00  0.00    -0.291 OA
ATOM     17  C   UNL d   1       3.283  -0.555   1.314  0.00  0.00     0.098 C 
ENDBRANCH   1  15
TORSDOF 4
