REMARK  4 active torsions:
REMARK  status: ('A' for Active; 'I' for Inactive)
REMARK    1  A    between atoms: N_6  and  C_1 
REMARK    2  A    between atoms: C_2  and  N_5 
REMARK    3  A    between atoms: C_3  and  C_7 
REMARK       I    between atoms: N_5  and  C_3 
REMARK       I    between atoms: C_4  and  N_6 
REMARK    4  A    between atoms: C_8  and  C_4 
ROOT
ATOM      1  C   UNL d   1      -2.938  -2.338  -0.694  0.00  0.00     0.080 C 
ATOM      2  C   UNL d   1      -2.519  -3.611  -0.600  0.00  0.00     0.080 C 
ENDROOT
BRANCH   1   3
ATOM      3  C   UNL d   1      -4.374  -2.057  -0.467  0.00  0.00     0.245 C 
ATOM      4  N   UNL d   1      -4.738  -0.763  -0.783  0.00  0.00    -0.324 N 
ATOM      5  H   UNL d   1      -4.053  -0.184  -1.253  0.00  0.00     0.169 HD
ATOM      6  O   UNL d   1      -5.116  -2.947  -0.069  0.00  0.00    -0.268 OA
BRANCH   4   7
ATOM      7  C   UNL d   1      -6.041  -0.223  -0.652  0.00  0.00     0.038 A 
ATOM      8  C   UNL d   1      -7.046  -0.826   0.110  0.00  0.00     0.053 A 
ATOM      9  C   UNL d   1      -8.333  -0.285   0.142  0.00  0.00     0.037 A 
ATOM     10 CL   UNL d   1      -9.559  -1.058   1.072  0.00  0.00    -0.084 Cl
ATOM     11  C   UNL d   1      -8.637   0.866  -0.574  0.00  0.00     0.048 A 
ATOM     12  C   UNL d   1      -7.629   1.492  -1.300  0.00  0.00     0.037 A 
ATOM     13  C   UNL d   1      -6.332   0.966  -1.330  0.00  0.00     0.053 A 
ATOM     14 CL   UNL d   1      -7.990   2.920  -2.191  0.00  0.00    -0.084 Cl
ENDBRANCH   4   7
ENDBRANCH   1   3
BRANCH   2  15
ATOM     15  C   UNL d   1      -1.070  -3.924  -0.664  0.00  0.00     0.245 C 
ATOM     16  N   UNL d   1      -0.822  -5.280  -0.614  0.00  0.00    -0.324 N 
ATOM     17  H   UNL d   1      -1.614  -5.904  -0.717  0.00  0.00     0.169 HD
ATOM     18  O   UNL d   1      -0.242  -3.023  -0.743  0.00  0.00    -0.268 OA
BRANCH  16  19
ATOM     19  C   UNL d   1       0.429  -5.900  -0.393  0.00  0.00     0.038 A 
ATOM     20  C   UNL d   1       1.581  -5.199  -0.026  0.00  0.00     0.053 A 
ATOM     21  C   UNL d   1       2.764  -5.886   0.257  0.00  0.00     0.037 A 
ATOM     22 CL   UNL d   1       4.161  -5.008   0.749  0.00  0.00    -0.084 Cl
ATOM     23  C   UNL d   1       2.823  -7.272   0.166  0.00  0.00     0.048 A 
ATOM     24  C   UNL d   1       1.684  -7.971  -0.216  0.00  0.00     0.037 A 
ATOM     25  C   UNL d   1       0.490  -7.297  -0.490  0.00  0.00     0.053 A 
ATOM     26 CL   UNL d   1       1.740  -9.687  -0.339  0.00  0.00    -0.084 Cl
ENDBRANCH  16  19
ENDBRANCH   2  15
TORSDOF 4
