REMARK  6 active torsions:
REMARK  status: ('A' for Active; 'I' for Inactive)
REMARK       I    between atoms: N_2  and  C_1 
REMARK    1  A    between atoms: O_5  and  C_1 
REMARK    2  A    between atoms: C_4  and  N_2 
REMARK    3  A    between atoms: C_3  and  C_4 
REMARK       I    between atoms: N_10  and  C_3 
REMARK    4  A    between atoms: C_8  and  C_4 
REMARK    5  A    between atoms: C_9  and  O_5 
REMARK    6  A    between atoms: C_11  and  C_8 
ROOT
ATOM      1  C   UNL d   1       1.051  -1.273   2.213  0.00  0.00     0.179 C 
ENDROOT
BRANCH   1   2
ATOM      2  C   UNL d   1       1.805  -0.087   2.856  0.00  0.00     0.238 C 
ATOM      3  O   UNL d   1       1.660   1.081   2.494  0.00  0.00    -0.271 OA
ATOM      4  N   UNL d   1       2.679  -0.377   3.861  0.00  0.00    -0.368 N 
ATOM      5  H   UNL d   1       3.065  -1.302   3.982  0.00  0.00     0.159 HD
ATOM      6  H   UNL d   1       3.232   0.405   4.195  0.00  0.00     0.159 HD
ENDBRANCH   1   2
BRANCH   1   7
ATOM      7  N   UNL d   1       0.488  -0.764   0.970  0.00  0.00    -0.324 N 
ATOM      8  C   UNL d   1       0.140  -1.487  -0.128  0.00  0.00     0.362 C 
ATOM      9  O   UNL d   1       0.355  -1.035  -1.240  0.00  0.00    -0.238 OA
ATOM     10  H   UNL d   1       0.844   0.149   0.704  0.00  0.00     0.165 HD
BRANCH   8  11
ATOM     11  O   UNL d   1      -0.485  -2.655   0.155  0.00  0.00    -0.294 OA
BRANCH  11  12
ATOM     12  C   UNL d   1      -1.006  -3.465  -0.938  0.00  0.00     0.061 C 
ATOM     13  C   UNL d   1       0.153  -4.185  -1.633  0.00  0.00     0.046 C 
ATOM     14  C   UNL d   1      -1.927  -4.513  -0.288  0.00  0.00     0.046 C 
ATOM     15  C   UNL d   1      -1.865  -2.674  -1.941  0.00  0.00     0.046 C 
ENDBRANCH  11  12
ENDBRANCH   8  11
ENDBRANCH   1   7
BRANCH   1  16
ATOM     16  C   UNL d   1       0.071  -1.938   3.187  0.00  0.00     0.038 C 
BRANCH  16  17
ATOM     17  C   UNL d   1      -1.075  -1.066   3.743  0.00  0.00    -0.020 C 
ATOM     18  C   UNL d   1      -2.026  -0.548   2.665  0.00  0.00     0.009 C 
ATOM     19  C   UNL d   1      -1.876  -1.882   4.765  0.00  0.00     0.009 C 
ENDBRANCH  16  17
ENDBRANCH   1  16
TORSDOF 6
