REMARK  0 active torsions:
REMARK  status: ('A' for Active; 'I' for Inactive)
ROOT
ATOM      1  S   UNL d   1      -2.571   0.747  -0.471  0.00  0.00     0.239 S 
ATOM      2  N   UNL d   1      -1.238   1.432   0.338  0.00  0.00    -0.279 N 
ATOM      3  C   UNL d   1      -2.544  -0.835   0.282  0.00  0.00     0.247 C 
ATOM      4  C   UNL d   1       0.008   0.727   0.118  0.00  0.00     0.058 A 
ATOM      5  C   UNL d   1      -1.223  -1.491   0.057  0.00  0.00     0.177 C 
ATOM      6  C   UNL d   1       0.026  -0.677   0.016  0.00  0.00     0.038 A 
ATOM      7  O   UNL d   1      -2.253   0.632  -1.876  0.00  0.00    -0.205 OA
ATOM      8  O   UNL d   1      -3.775   1.427  -0.031  0.00  0.00    -0.205 OA
ATOM      9  O   UNL d   1      -1.144  -2.720   0.000  0.00  0.00    -0.291 OA
ATOM     10  C   UNL d   1      -1.256   2.903   0.453  0.00  0.00     0.169 C 
ATOM     11  C   UNL d   1       1.246  -1.365  -0.101  0.00  0.00     0.017 A 
ATOM     12  C   UNL d   1       1.236   1.406   0.143  0.00  0.00     0.031 A 
ATOM     13  C   UNL d   1       2.452  -0.669  -0.096  0.00  0.00     0.001 A 
ATOM     14  C   UNL d   1       2.446   0.716   0.025  0.00  0.00     0.002 A 
ENDROOT
TORSDOF 0
