REMARK  4 active torsions:
REMARK  status: ('A' for Active; 'I' for Inactive)
REMARK    1  A    between atoms: C_7  and  C_1 
REMARK    2  A    between atoms: C_8  and  C_3 
REMARK       I    between atoms: N_10  and  C_7 
REMARK       I    between atoms: C_9  and  N_12 
REMARK       I    between atoms: N_13  and  C_9 
REMARK    3  A    between atoms: N_12  and  N_10 
REMARK    4  A    between atoms: C_19  and  N_13 
ROOT
ATOM      1  C   UNL d   1      -0.266  -2.568   0.127  0.00  0.00     0.279 C 
ATOM      2  N   UNL d   1       0.870  -3.283   0.456  0.00  0.00    -0.261 N 
ATOM      3  O   UNL d   1      -1.327  -3.152  -0.098  0.00  0.00    -0.265 OA
ATOM      4  H   UNL d   1       1.745  -2.834   0.726  0.00  0.00     0.190 HD
ENDROOT
BRANCH   2   5
ATOM      5  N   UNL d   1       0.790  -4.665   0.665  0.00  0.00    -0.248 N 
ATOM      6  C   UNL d   1       1.931  -5.310   1.105  0.00  0.00     0.339 C 
ATOM      7  N   UNL d   1       1.735  -6.662   1.277  0.00  0.00    -0.308 N 
ATOM      8  O   UNL d   1       2.958  -4.676   1.331  0.00  0.00    -0.245 OA
ATOM      9  H   UNL d   1       0.841  -7.024   0.980  0.00  0.00     0.170 HD
ATOM     10  H   UNL d   1      -0.041  -5.133   0.317  0.00  0.00     0.192 HD
BRANCH   7  11
ATOM     11  C   UNL d   1       2.638  -7.590   1.835  0.00  0.00     0.036 A 
ATOM     12  C   UNL d   1       3.889  -7.243   2.353  0.00  0.00     0.031 A 
ATOM     13  C   UNL d   1       4.714  -8.213   2.934  0.00  0.00     0.026 A 
ATOM     14  C   UNL d   1       4.293  -9.536   2.996  0.00  0.00     0.034 A 
ATOM     15  C   UNL d   1       3.056  -9.902   2.473  0.00  0.00     0.026 A 
ATOM     16 CL   UNL d   1       5.300 -10.723   3.727  0.00  0.00    -0.084 Cl
ATOM     17  C   UNL d   1       2.231  -8.930   1.895  0.00  0.00     0.031 A 
ENDBRANCH   7  11
ENDBRANCH   2   5
BRANCH   1  18
ATOM     18  C   UNL d   1      -0.111  -1.125   0.073  0.00  0.00     0.098 A 
ATOM     19  S   UNL d   1       1.397  -0.350   0.345  0.00  0.00    -0.064 SA
ATOM     20  C   UNL d   1       0.674   1.187   0.096  0.00  0.00     0.092 A 
ATOM     21  N   UNL d   1      -0.616   1.146  -0.170  0.00  0.00    -0.352 N 
ATOM     22  C   UNL d   1      -1.075  -0.164  -0.189  0.00  0.00     0.029 A 
ATOM     23  HN  UNL d   1      -1.198   1.967  -0.339  1.00  0.00     0.166 HD
ATOM     24  C   UNL d   1      -2.517  -0.395  -0.477  0.00  0.00     0.070 C 
BRANCH  20  25
ATOM     25  C   UNL d   1       1.387   2.444   0.168  0.00  0.00     0.038 A 
ATOM     26  S   UNL d   1       3.077   2.573   0.450  0.00  0.00    -0.099 SA
ATOM     27  C   UNL d   1       3.041   4.279   0.376  0.00  0.00     0.050 A 
ATOM     28  C   UNL d   1       1.773   4.757   0.142  0.00  0.00     0.008 A 
ATOM     29  C   UNL d   1       0.823   3.701   0.021  0.00  0.00     0.022 A 
ENDBRANCH  20  25
ENDBRANCH   1  18
TORSDOF 4
