REMARK  3 active torsions:
REMARK  status: ('A' for Active; 'I' for Inactive)
REMARK    1  A    between atoms: C_2  and  C_1 
REMARK    2  A    between atoms: O_3  and  C_1 
REMARK    3  A    between atoms: C_4  and  O_3 
ROOT
ATOM      1  C   UNL d   1       0.874  -0.169   0.036  0.00  0.00     0.302 C 
ATOM      2  O   UNL d   1       2.039  -0.505  -0.022  0.00  0.00    -0.259 OA
ENDROOT
BRANCH   1   3
ATOM      3  C   UNL d   1       0.364   1.166   0.449  0.00  0.00     0.083 A 
ATOM      4  C   UNL d   1      -0.673   1.804  -0.254  0.00  0.00     0.052 A 
ATOM      5 CL   UNL d   1      -1.329   1.204  -1.742  0.00  0.00    -0.083 Cl
ATOM      6  C   UNL d   1      -1.214   3.009   0.214  0.00  0.00     0.025 A 
ATOM      7  C   UNL d   1      -0.710   3.608   1.364  0.00  0.00     0.003 A 
ATOM      8  C   UNL d   1       0.342   3.005   2.047  0.00  0.00     0.025 A 
ATOM      9  C   UNL d   1       0.876   1.787   1.600  0.00  0.00     0.052 A 
ATOM     10 CL   UNL d   1       2.137   1.108   2.571  0.00  0.00    -0.083 Cl
ENDBRANCH   1   3
BRANCH   1  11
ATOM     11  O   UNL d   1      -0.237  -0.970  -0.165  0.00  0.00    -0.273 OA
BRANCH  11  12
ATOM     12  C   UNL d   1      -0.041  -2.356  -0.083  0.00  0.00     0.101 A 
ATOM     13  C   UNL d   1      -0.017  -2.977   1.171  0.00  0.00     0.069 A 
ATOM     14  C   UNL d   1      -0.041  -4.365   1.255  0.00  0.00     0.050 A 
ATOM     15 CL   UNL d   1      -0.050  -2.058   2.632  0.00  0.00    -0.081 Cl
ATOM     16  C   UNL d   1      -0.111  -5.122   0.086  0.00  0.00     0.035 A 
ATOM     17  C   UNL d   1      -0.134  -4.505  -1.168  0.00  0.00     0.026 A 
ATOM     18 CL   UNL d   1      -0.220  -6.836   0.195  0.00  0.00    -0.084 Cl
ATOM     19  C   UNL d   1      -0.101  -3.110  -1.257  0.00  0.00     0.041 A 
ENDBRANCH  11  12
ENDBRANCH   1  11
TORSDOF 3
