REMARK  3 active torsions:
REMARK  status: ('A' for Active; 'I' for Inactive)
REMARK    1  A    between atoms: S_9  and  C_1 
REMARK    2  A    between atoms: C_5  and  C_8 
REMARK    3  A    between atoms: C_8  and  S_9 
ROOT
ATOM      1  C   UNL d   1       2.770  -1.153   0.106  0.00  0.00     0.113 A 
ATOM      2  N   UNL d   1       1.607  -1.767   0.033  0.00  0.00    -0.344 N 
ATOM      3  HN  UNL d   1       1.479  -2.772  -0.085  1.00  0.00     0.167 HD
ATOM      4  S   UNL d   1       2.704   0.550   0.306  0.00  0.00    -0.063 SA
ATOM      5  C   UNL d   1       0.577  -0.832   0.143  0.00  0.00     0.052 A 
ATOM      6  C   UNL d   1       0.989   0.496   0.301  0.00  0.00     0.034 A 
ATOM      7  C   UNL d   1      -0.811  -1.099   0.111  0.00  0.00     0.054 A 
ATOM      8  C   UNL d   1       0.078   1.561   0.426  0.00  0.00     0.023 A 
ATOM      9  C   UNL d   1      -1.722  -0.041   0.236  0.00  0.00     0.036 A 
ATOM     10  C   UNL d   1      -1.287   1.271   0.392  0.00  0.00     0.025 A 
ATOM     11 CL   UNL d   1      -3.413  -0.366   0.196  0.00  0.00    -0.084 Cl
ENDROOT
BRANCH   1  12
ATOM     12  S   UNL d   1       4.326  -1.952   0.011  0.00  0.00    -0.100 SA
BRANCH  12  13
ATOM     13  C   UNL d   1       3.910  -3.712  -0.101  0.00  0.00     0.123 C 
BRANCH  13  14
ATOM     14  C   UNL d   1       5.164  -4.571  -0.031  0.00  0.00    -0.005 A 
ATOM     15  C   UNL d   1       5.686  -5.011   1.204  0.00  0.00     0.042 A 
ATOM     16 CL   UNL d   1       4.933  -4.618   2.712  0.00  0.00    -0.084 Cl
ATOM     17  C   UNL d   1       6.852  -5.788   1.272  0.00  0.00     0.024 A 
ATOM     18  C   UNL d   1       7.535  -6.137   0.112  0.00  0.00     0.003 A 
ATOM     19  C   UNL d   1       7.052  -5.702  -1.118  0.00  0.00     0.024 A 
ATOM     20  C   UNL d   1       5.885  -4.926  -1.190  0.00  0.00     0.042 A 
ATOM     21 CL   UNL d   1       5.390  -4.426  -2.771  0.00  0.00    -0.084 Cl
ENDBRANCH  13  14
ENDBRANCH  12  13
ENDBRANCH   1  12
TORSDOF 3
