REMARK  4 active torsions:
REMARK  status: ('A' for Active; 'I' for Inactive)
REMARK    1  A    between atoms: N_5  and  S_1 
REMARK    2  A    between atoms: C_9  and  S_1 
REMARK    3  A    between atoms: C_2  and  N_5 
REMARK    4  A    between atoms: S_16  and  C_6 
ROOT
ATOM      1  N   UNL d   1       0.564  -1.645  -0.607  0.00  0.00    -0.150 NA
ATOM      2  H   UNL d   1      -0.446  -1.642  -0.471  0.00  0.00     0.149 HD
ENDROOT
BRANCH   1   3
ATOM      3  C   UNL d   1       0.900  -2.097  -1.861  0.00  0.00     0.188 A 
ATOM      4  N   UNL d   1       2.042  -2.784  -2.148  0.00  0.00    -0.310 N 
ATOM      5  C   UNL d   1       1.901  -3.078  -3.418  0.00  0.00     0.163 A 
ATOM      6  HN  UNL d   1       2.817  -3.013  -1.526  1.00  0.00     0.170 HD
ATOM      7  N   UNL d   1       0.730  -2.551  -3.879  0.00  0.00    -0.273 N 
ATOM      8  N   UNL d   1       0.039  -1.976  -2.873  0.00  0.00    -0.271 N 
ATOM      9  C   UNL d   1       0.206  -2.528  -5.220  0.00  0.00     0.180 C 
ATOM     10  HN  UNL d   1      -0.892  -1.559  -2.882  1.00  0.00     0.190 HD
BRANCH   5  11
ATOM     11  S   UNL d   1       2.979  -3.999  -4.405  0.00  0.00    -0.097 SA
ATOM     12  C   UNL d   1       4.194  -4.546  -3.184  0.00  0.00     0.099 C 
ENDBRANCH   5  11
ENDBRANCH   1   3
BRANCH   1  13
ATOM     13  S   UNL d   1       1.137  -0.117  -0.180  0.00  0.00     0.251 S 
ATOM     14  O   UNL d   1       2.572  -0.066  -0.365  0.00  0.00    -0.205 OA
ATOM     15  O   UNL d   1       0.544   0.233   1.093  0.00  0.00    -0.205 OA
BRANCH  13  16
ATOM     16  C   UNL d   1       0.405   0.956  -1.385  0.00  0.00     0.113 A 
ATOM     17  C   UNL d   1      -0.983   1.014  -1.473  0.00  0.00     0.142 A 
ATOM     18  C   UNL d   1      -1.597   1.842  -2.406  0.00  0.00     0.086 A 
ATOM     19  F   UNL d   1      -1.753   0.247  -0.687  0.00  0.00    -0.204 F 
ATOM     20  C   UNL d   1      -0.803   2.612  -3.249  0.00  0.00     0.119 A 
ATOM     21  C   UNL d   1       0.588   2.566  -3.171  0.00  0.00     0.044 A 
ATOM     22  F   UNL d   1      -1.384   3.407  -4.154  0.00  0.00    -0.206 F 
ATOM     23  C   UNL d   1       1.202   1.734  -2.232  0.00  0.00     0.031 A 
ENDBRANCH  13  16
ENDBRANCH   1  13
TORSDOF 4
