REMARK  9 active torsions:
REMARK  status: ('A' for Active; 'I' for Inactive)
REMARK       I    between atoms: N_2  and  C_1 
REMARK    1  A    between atoms: O_5  and  C_1 
REMARK    2  A    between atoms: C_16  and  N_2 
REMARK    3  A    between atoms: C_3  and  S_11 
REMARK    4  A    between atoms: C_4  and  S_12 
REMARK    5  A    between atoms: C_13  and  O_5 
REMARK    6  A    between atoms: S_11  and  C_15 
REMARK    7  A    between atoms: S_12  and  C_14 
REMARK    8  A    between atoms: C_14  and  C_13 
REMARK    9  A    between atoms: C_15  and  C_13 
ROOT
ATOM      1  C   UNL d   1      -1.198   0.384   1.058  0.00  0.00     0.153 C 
ENDROOT
BRANCH   1   2
ATOM      2  O   UNL d   1       0.259   0.335   1.173  0.00  0.00    -0.297 OA
BRANCH   2   3
ATOM      3  C   UNL d   1       0.965   0.321   0.005  0.00  0.00     0.365 C 
ATOM      4  N   UNL d   1       2.305   0.416   0.292  0.00  0.00    -0.303 N 
ATOM      5  H   UNL d   1       2.507   0.525   1.277  0.00  0.00     0.171 HD
ATOM      6  O   UNL d   1       0.439   0.238  -1.092  0.00  0.00    -0.238 OA
BRANCH   4   7
ATOM      7  C   UNL d   1       3.393   0.400  -0.608  0.00  0.00     0.036 A 
ATOM      8  C   UNL d   1       3.248   0.257  -1.991  0.00  0.00     0.029 A 
ATOM      9  C   UNL d   1       4.367   0.233  -2.830  0.00  0.00     0.002 A 
ATOM     10  C   UNL d   1       5.646   0.351  -2.298  0.00  0.00     0.000 A 
ATOM     11  C   UNL d   1       5.808   0.500  -0.922  0.00  0.00     0.002 A 
ATOM     12  C   UNL d   1       4.688   0.526  -0.082  0.00  0.00     0.029 A 
ENDBRANCH   4   7
ENDBRANCH   2   3
ENDBRANCH   1   2
BRANCH   1  13
ATOM     13  C   UNL d   1      -1.750  -1.047   0.858  0.00  0.00     0.114 C 
BRANCH  13  14
ATOM     14  S   UNL d   1      -3.567  -1.069   0.581  0.00  0.00    -0.110 SA
BRANCH  14  15
ATOM     15  C   UNL d   1      -3.926  -2.815   0.685  0.00  0.00     0.069 A 
ATOM     16  N   UNL d   1      -3.017  -3.630   1.262  0.00  0.00    -0.361 N 
ATOM     17  C   UNL d   1      -3.336  -4.941   1.360  0.00  0.00     0.089 A 
ATOM     18  HN  UNL d   1      -2.128  -3.272   1.610  1.00  0.00     0.165 HD
ATOM     19  C   UNL d   1      -4.525  -5.486   0.908  0.00  0.00     0.017 A 
ATOM     20  C   UNL d   1      -5.450  -4.635   0.319  0.00  0.00     0.004 A 
ATOM     21  C   UNL d   1      -5.151  -3.278   0.209  0.00  0.00     0.037 A 
ENDBRANCH  14  15
ENDBRANCH  13  14
ENDBRANCH   1  13
BRANCH   1  22
ATOM     22  C   UNL d   1      -1.737   1.007   2.360  0.00  0.00     0.114 C 
BRANCH  22  23
ATOM     23  S   UNL d   1      -1.249   2.768   2.517  0.00  0.00    -0.110 SA
BRANCH  23  24
ATOM     24  C   UNL d   1      -1.852   3.120   4.161  0.00  0.00     0.069 A 
ATOM     25  N   UNL d   1      -2.568   2.174   4.808  0.00  0.00    -0.361 N 
ATOM     26  C   UNL d   1      -2.974   2.454   6.066  0.00  0.00     0.089 A 
ATOM     27  HN  UNL d   1      -2.793   1.283   4.364  1.00  0.00     0.165 HD
ATOM     28  C   UNL d   1      -2.695   3.642   6.720  0.00  0.00     0.017 A 
ATOM     29  C   UNL d   1      -1.970   4.609   6.036  0.00  0.00     0.004 A 
ATOM     30  C   UNL d   1      -1.545   4.349   4.735  0.00  0.00     0.037 A 
ENDBRANCH  23  24
ENDBRANCH  22  23
ENDBRANCH   1  22
TORSDOF 9
