REMARK  3 active torsions:
REMARK  status: ('A' for Active; 'I' for Inactive)
REMARK    1  A    between atoms: C_4  and  C_1 
REMARK       I    between atoms: N_10  and  C_4 
REMARK    2  A    between atoms: C_5  and  C_7 
REMARK       I    between atoms: C_7  and  N_11 
REMARK    3  A    between atoms: N_11  and  N_10 
ROOT
ATOM      1  C   UNL d   1       5.530  -1.037  -0.124  0.00  0.00     0.276 C 
ATOM      2  N   UNL d   1       4.149  -1.006  -0.126  0.00  0.00    -0.263 N 
ATOM      3  O   UNL d   1       6.152  -2.068   0.119  0.00  0.00    -0.266 OA
ATOM      4  H   UNL d   1       3.593  -0.165  -0.283  0.00  0.00     0.190 HD
ENDROOT
BRANCH   2   5
ATOM      5  N   UNL d   1       3.445  -2.186   0.149  0.00  0.00    -0.262 N 
ATOM      6  C   UNL d   1       2.070  -2.192   0.051  0.00  0.00     0.287 C 
ATOM      7  O   UNL d   1       1.427  -1.195  -0.277  0.00  0.00    -0.264 OA
ATOM      8  H   UNL d   1       3.972  -3.028   0.381  0.00  0.00     0.190 HD
BRANCH   6   9
ATOM      9  C   UNL d   1       1.444  -3.477   0.373  0.00  0.00     0.109 A 
ATOM     10  N   UNL d   1       2.178  -4.585   0.808  0.00  0.00    -0.349 N 
ATOM     11  C   UNL d   1       1.366  -5.592   1.060  0.00  0.00     0.047 A 
ATOM     12  HN  UNL d   1       3.192  -4.611   0.916  1.00  0.00     0.166 HD
ATOM     13  C   UNL d   1       1.789  -6.925   1.574  0.00  0.00     0.076 C 
ATOM     14  S   UNL d   1      -0.302  -5.292   0.765  0.00  0.00    -0.087 SA
ATOM     15  C   UNL d   1       0.081  -3.696   0.289  0.00  0.00     0.086 A 
ENDBRANCH   6   9
ENDBRANCH   2   5
BRANCH   1  16
ATOM     16  C   UNL d   1       6.235   0.232  -0.440  0.00  0.00     0.110 A 
ATOM     17  C   UNL d   1       5.613   1.478  -0.345  0.00  0.00     0.135 A 
ATOM     18  F   UNL d   1       4.332   1.583   0.042  0.00  0.00    -0.205 F 
ATOM     19  C   UNL d   1       6.299   2.660  -0.639  0.00  0.00     0.043 A 
ATOM     20  C   UNL d   1       7.632   2.610  -1.043  0.00  0.00     0.006 A 
ATOM     21  C   UNL d   1       8.268   1.375  -1.144  0.00  0.00     0.043 A 
ATOM     22  C   UNL d   1       7.573   0.201  -0.843  0.00  0.00     0.135 A 
ATOM     23  F   UNL d   1       8.234  -0.957  -0.982  0.00  0.00    -0.205 F 
ENDBRANCH   1  16
TORSDOF 3
