REMARK  7 active torsions:
REMARK  status: ('A' for Active; 'I' for Inactive)
REMARK    1  A    between atoms: N_6  and  S_1 
REMARK    2  A    between atoms: C_12  and  S_1 
REMARK    3  A    between atoms: C_2  and  C_8 
REMARK    4  A    between atoms: C_10  and  N_6 
REMARK    5  A    between atoms: C_21  and  N_6 
REMARK    6  A    between atoms: C_16  and  C_11 
REMARK    7  A    between atoms: C_19  and  C_21 
ROOT
ATOM      1  C   UNL d   1      -1.658  -1.647   0.237  0.00  0.00     0.043 A 
ATOM      2  C   UNL d   1      -2.839  -1.862   0.971  0.00  0.00     0.060 A 
ATOM      3  C   UNL d   1      -0.867  -2.739  -0.161  0.00  0.00     0.018 A 
ATOM      4  C   UNL d   1      -3.239  -3.176   1.238  0.00  0.00     0.031 A 
ATOM      5  C   UNL d   1      -1.273  -4.040   0.117  0.00  0.00     0.001 A 
ATOM      6  C   UNL d   1      -2.467  -4.257   0.799  0.00  0.00     0.002 A 
ENDROOT
BRANCH   1   7
ATOM      7  C   UNL d   1      -1.290  -0.349  -0.349  0.00  0.00     0.165 C 
ATOM      8  N   UNL d   1      -0.713  -0.244  -1.500  0.00  0.00    -0.331 N 
ATOM      9  C   UNL d   1      -0.769   1.095  -1.750  0.00  0.00     0.111 C 
ATOM     10  HN  UNL d   1      -0.314  -0.982  -2.080  1.00  0.00     0.168 HD
ATOM     11  C   UNL d   1      -0.654   1.684  -2.946  0.00  0.00     0.047 C 
ATOM     12  C   UNL d   1      -1.246   1.818  -0.536  0.00  0.00     0.316 C 
ATOM     13  O   UNL d   1      -1.596   0.794   0.304  0.00  0.00    -0.255 OA
ATOM     14  O   UNL d   1      -1.334   3.010  -0.332  0.00  0.00    -0.257 OA
BRANCH  11  15
ATOM     15  C   UNL d   1      -0.428   1.022  -4.253  0.00  0.00    -0.033 A 
ATOM     16  C   UNL d   1       0.071  -0.286  -4.409  0.00  0.00     0.018 A 
ATOM     17  C   UNL d   1       0.237  -0.862  -5.681  0.00  0.00    -0.061 A 
ATOM     18  C   UNL d   1       0.781  -2.252  -5.839  0.00  0.00     0.048 C 
ATOM     19  C   UNL d   1      -0.093  -0.115  -6.814  0.00  0.00     0.007 A 
ATOM     20  C   UNL d   1      -0.581   1.183  -6.679  0.00  0.00     0.001 A 
ATOM     21  C   UNL d   1      -0.741   1.744  -5.409  0.00  0.00     0.011 A 
ENDBRANCH  11  15
ENDBRANCH   1   7
BRANCH   2  22
ATOM     22  N   UNL d   1      -3.693  -0.766   1.346  0.00  0.00    -0.267 N 
BRANCH  22  23
ATOM     23  S   UNL d   1      -4.874  -0.286   0.222  0.00  0.00     0.265 S 
ATOM     24  O   UNL d   1      -4.512  -0.768  -1.093  0.00  0.00    -0.200 OA
ATOM     25  O   UNL d   1      -5.129   1.123   0.439  0.00  0.00    -0.200 OA
BRANCH  23  26
ATOM     26  C   UNL d   1      -6.372  -1.141   0.712  0.00  0.00     0.080 A 
ATOM     27  C   UNL d   1      -7.261  -0.489   1.580  0.00  0.00     0.027 A 
ATOM     28  C   UNL d   1      -8.535  -1.016   1.802  0.00  0.00     0.025 A 
ATOM     29  C   UNL d   1      -8.920  -2.188   1.154  0.00  0.00     0.034 A 
ATOM     30  C   UNL d   1      -8.030  -2.854   0.307  0.00  0.00     0.025 A 
ATOM     31 CL   UNL d   1     -10.519  -2.786   1.359  0.00  0.00    -0.084 Cl
ATOM     32  C   UNL d   1      -6.752  -2.327   0.076  0.00  0.00     0.027 A 
ENDBRANCH  23  26
ENDBRANCH  22  23
BRANCH  22  33
ATOM     33  C   UNL d   1      -3.983  -0.513   2.768  0.00  0.00     0.168 C 
BRANCH  33  34
ATOM     34  C   UNL d   1      -2.709  -0.366   3.550  0.00  0.00    -0.016 C 
ATOM     35  C   UNL d   1      -2.396  -1.088   4.635  0.00  0.00     0.008 C 
ENDBRANCH  33  34
ENDBRANCH  22  33
ENDBRANCH   2  22
TORSDOF 7
