REMARK  5 active torsions:
REMARK  status: ('A' for Active; 'I' for Inactive)
REMARK    1  A    between atoms: C_5  and  C_1 
REMARK    2  A    between atoms: N_6  and  C_1 
REMARK    3  A    between atoms: O_10  and  N_2 
REMARK    4  A    between atoms: O_7  and  C_5 
REMARK    5  A    between atoms: C_8  and  O_7 
ROOT
ATOM      1  C   UNL d   1      -0.191   0.332   1.363  0.00  0.00     0.247 C 
ENDROOT
BRANCH   1   2
ATOM      2  C   UNL d   1       0.643   0.933   0.227  0.00  0.00     0.099 C 
ATOM      3  N   UNL d   1       1.548   1.810   0.553  0.00  0.00    -0.260 N 
ATOM      4  HN  UNL d   1       1.742   2.115   1.507  1.00  0.00     0.195 HD
BRANCH   3   5
ATOM      5  O   UNL d   1       2.220   2.281  -0.587  0.00  0.00    -0.289 OA
ATOM      6  H   UNL d   1       2.917   2.840  -0.196  0.00  0.00     0.244 HD
ENDBRANCH   3   5
BRANCH   2   7
ATOM      7  N   UNL d   1       0.402   0.526  -1.063  0.00  0.00    -0.289 NA
ATOM      8  H   UNL d   1       0.775   1.179  -1.745  0.00  0.00     0.125 HD
ATOM      9  H   UNL d   1      -0.540   0.197  -1.245  0.00  0.00     0.125 HD
ENDBRANCH   2   7
ENDBRANCH   1   2
BRANCH   1  10
ATOM     10  O   UNL d   1      -1.266  -0.450   0.855  0.00  0.00    -0.344 OA
BRANCH  10  11
ATOM     11  C   UNL d   1      -2.079  -1.046   1.783  0.00  0.00     0.070 A 
ATOM     12  C   UNL d   1      -1.939  -0.960   3.170  0.00  0.00     0.060 A 
ATOM     13  C   UNL d   1      -2.852  -1.613   4.001  0.00  0.00     0.036 A 
ATOM     14 CL   UNL d   1      -2.676  -1.500   5.711  0.00  0.00    -0.084 Cl
ATOM     15  C   UNL d   1      -3.903  -2.353   3.466  0.00  0.00     0.024 A 
ATOM     16  C   UNL d   1      -4.042  -2.446   2.082  0.00  0.00     0.004 A 
ATOM     17  C   UNL d   1      -3.131  -1.794   1.247  0.00  0.00     0.037 A 
ENDBRANCH  10  11
ENDBRANCH   1  10
TORSDOF 5
