REMARK  4 active torsions:
REMARK  status: ('A' for Active; 'I' for Inactive)
REMARK    1  A    between atoms: C_5  and  N_1 
REMARK    2  A    between atoms: N_16  and  C_2 
REMARK    3  A    between atoms: S_17  and  C_8 
REMARK    4  A    between atoms: C_9  and  C_12 
ROOT
ATOM      1  N   UNL d   1      -0.083  -1.172  -0.042  0.00  0.00    -0.068 N 
ATOM      2  C   UNL d   1      -0.533  -0.207  -0.946  0.00  0.00     0.701 A 
ATOM      3  N   UNL d   1       0.011   0.948  -0.661  0.00  0.00    -0.168 N 
ATOM      4  HN  UNL d   1      -0.118   1.842  -1.136  1.00  0.00     0.186 HD
ATOM      5  N   UNL d   1       0.745  -0.585   0.863  0.00  0.00    -0.257 N 
ATOM      6  HN  UNL d   1       1.210  -0.999   1.671  1.00  0.00     0.190 HD
ATOM      7  C   UNL d   1       0.790   0.672   0.422  0.00  0.00     0.174 A 
ENDROOT
BRANCH   1   8
ATOM      8  C   UNL d   1      -0.374  -2.570  -0.015  0.00  0.00     0.146 A 
ATOM      9  N   UNL d   1      -1.127  -3.105  -1.019  0.00  0.00    -0.344 N 
ATOM     10  C   UNL d   1      -1.321  -4.444  -1.027  0.00  0.00     0.007 A 
ATOM     11  HN  UNL d   1      -1.531  -2.512  -1.743  1.00  0.00     0.167 HD
ATOM     12  C   UNL d   1      -2.077  -5.026  -2.185  0.00  0.00     0.068 C 
ATOM     13  C   UNL d   1      -0.827  -5.277  -0.031  0.00  0.00     0.041 A 
ATOM     14  C   UNL d   1      -0.083  -4.725   1.017  0.00  0.00     0.053 A 
ATOM     15  C   UNL d   1       0.151  -3.345   1.018  0.00  0.00     0.067 A 
BRANCH  14  16
ATOM     16  C   UNL d   1       0.461  -5.614   2.103  0.00  0.00     0.417 C 
ATOM     17  F   UNL d   1       1.152  -4.946   3.066  0.00  0.00    -0.166 F 
ATOM     18  F   UNL d   1      -0.524  -6.297   2.753  0.00  0.00    -0.166 F 
ATOM     19  F   UNL d   1       1.313  -6.559   1.617  0.00  0.00    -0.166 F 
ENDBRANCH  14  16
ENDBRANCH   1   8
BRANCH   2  20
ATOM     20  N   UNL d   1      -1.404  -0.444  -1.948  0.00  0.00    -0.233 N 
ATOM     21  H   UNL d   1      -1.903  -1.332  -1.985  0.00  0.00     0.174 HD
ATOM     22  H   UNL d   1      -1.847   0.339  -2.411  0.00  0.00     0.174 HD
ENDBRANCH   2  20
BRANCH   7  23
ATOM     23  S   UNL d   1       1.798   1.856   1.209  0.00  0.00    -0.097 SA
ATOM     24  C   UNL d   1       1.618   3.245   0.071  0.00  0.00     0.099 C 
ENDBRANCH   7  23
TORSDOF 4
