REMARK  6 active torsions:
REMARK  status: ('A' for Active; 'I' for Inactive)
REMARK    1  A    between atoms: C_3  and  C_1 
REMARK    2  A    between atoms: C_12  and  C_2 
REMARK       I    between atoms: C_7  and  N_4 
REMARK    3  A    between atoms: C_14  and  C_7 
REMARK    4  A    between atoms: O_20  and  C_12 
REMARK    5  A    between atoms: C_26  and  O_20 
REMARK    6  A    between atoms: O_25  and  C_21 
ROOT
ATOM      1  C   UNL d   1       3.006   0.436  -0.056  0.00  0.00     0.081 A 
ATOM      2  N   UNL d   1       3.620   1.189   0.946  0.00  0.00    -0.219 N 
ATOM      3  C   UNL d   1       3.168   1.538   2.241  0.00  0.00     0.277 C 
ATOM      4  N   UNL d   1       4.875   1.590   0.573  0.00  0.00    -0.302 N 
ATOM      5  HN  UNL d   1       5.506   2.212   1.079  1.00  0.00     0.186 HD
ATOM      6  C   UNL d   1       3.960   0.306  -1.051  0.00  0.00     0.052 A 
ATOM      7  C   UNL d   1       5.089   0.991  -0.593  0.00  0.00     0.110 A 
ATOM      8  O   UNL d   1       2.386   0.776   2.802  0.00  0.00    -0.265 OA
ENDROOT
BRANCH   1   9
ATOM      9  C   UNL d   1       1.645  -0.056  -0.063  0.00  0.00     0.068 C 
ATOM     10  C   UNL d   1       1.122  -1.222  -0.625  0.00  0.00     0.128 C 
ATOM     11  N   UNL d   1      -0.262  -1.375  -0.470  0.00  0.00    -0.348 N 
ATOM     12  C   UNL d   1      -0.760  -0.368   0.207  0.00  0.00     0.048 C 
ATOM     13  HN  UNL d   1      -0.805  -2.159  -0.832  1.00  0.00     0.166 HD
ATOM     14  S   UNL d   1       0.336   0.902   0.529  0.00  0.00    -0.072 SA
ATOM     15  C   UNL d   1      -2.174  -0.289   0.669  0.00  0.00     0.076 C 
BRANCH  10  16
ATOM     16  C   UNL d   1       1.907  -2.240  -1.329  0.00  0.00     0.311 C 
ATOM     17  O   UNL d   1       3.080  -2.494  -1.083  0.00  0.00    -0.258 OA
BRANCH  16  18
ATOM     18  O   UNL d   1       1.203  -2.827  -2.346  0.00  0.00    -0.317 OA
BRANCH  18  19
ATOM     19  C   UNL d   1       1.968  -3.699  -3.188  0.00  0.00     0.175 C 
ATOM     20  C   UNL d   1       2.114  -5.067  -2.549  0.00  0.00     0.034 C 
ENDBRANCH  18  19
ENDBRANCH  16  18
ENDBRANCH  10  16
ENDBRANCH   1   9
BRANCH   3  21
ATOM     21  C   UNL d   1       3.588   2.783   2.949  0.00  0.00     0.034 A 
ATOM     22  C   UNL d   1       3.998   3.921   2.242  0.00  0.00     0.020 A 
ATOM     23  C   UNL d   1       4.333   5.097   2.921  0.00  0.00     0.038 A 
ATOM     24  C   UNL d   1       4.248   5.148   4.311  0.00  0.00     0.068 A 
ATOM     25  C   UNL d   1       3.799   4.029   5.015  0.00  0.00     0.038 A 
ATOM     26  C   UNL d   1       3.473   2.848   4.341  0.00  0.00     0.020 A 
BRANCH  24  27
ATOM     27  O   UNL d   1       4.531   6.247   5.074  0.00  0.00    -0.356 OA
ATOM     28  C   UNL d   1       5.495   7.140   4.525  0.00  0.00     0.210 C 
ENDBRANCH  24  27
ENDBRANCH   3  21
TORSDOF 6
