REMARK  2 active torsions:
REMARK  status: ('A' for Active; 'I' for Inactive)
REMARK    1  A    between atoms: C_2  and  N_1 
REMARK    2  A    between atoms: N_3  and  C_4 
ROOT
ATOM      1  C   UNL d   1       1.204   2.176  -0.975  0.00  0.00     0.137 A 
ATOM      2  C   UNL d   1       0.971   3.552  -1.059  0.00  0.00     0.146 A 
ATOM      3  N   UNL d   1       2.004   1.597  -1.908  0.00  0.00    -0.350 N 
ATOM      4  HN  UNL d   1       2.195   0.595  -1.871  1.00  0.00     0.166 HD
ATOM      5  C   UNL d   1       1.524   4.337  -2.081  0.00  0.00     0.041 A 
ATOM      6  C   UNL d   1       2.547   2.362  -2.889  0.00  0.00     0.090 A 
ATOM      7  C   UNL d   1       2.337   3.723  -3.018  0.00  0.00     0.020 A 
ENDROOT
BRANCH   1   8
ATOM      8  N   UNL d   1       0.714   1.362   0.033  0.00  0.00    -0.360 N 
ATOM      9  C   UNL d   1       1.444   0.119   0.347  0.00  0.00     0.156 C 
ATOM     10  C   UNL d   1       0.730  -1.123  -0.220  0.00  0.00     0.136 C 
ATOM     11  C   UNL d   1       1.402  -2.402   0.266  0.00  0.00     0.041 C 
ATOM     12  O   UNL d   1      -0.638  -1.170   0.228  0.00  0.00    -0.378 OA
ATOM     13  C   UNL d   1      -1.358  -0.015  -0.231  0.00  0.00     0.136 C 
ATOM     14  C   UNL d   1      -0.734   1.292   0.305  0.00  0.00     0.156 C 
ATOM     15  C   UNL d   1      -2.796  -0.155   0.256  0.00  0.00     0.041 C 
ENDBRANCH   1   8
BRANCH   2  16
ATOM     16  N   UNL d   1       0.222   4.245  -0.041  0.00  0.00    -0.112 N 
ATOM     17  O   UNL d   1       0.703   4.304   1.097  0.00  0.00    -0.532 OA
ATOM     18  O   UNL d   1      -0.836   4.784  -0.403  0.00  0.00    -0.532 OA
ENDBRANCH   2  16
TORSDOF 2
