REMARK  7 active torsions:
REMARK  status: ('A' for Active; 'I' for Inactive)
REMARK    1  A    between atoms: C_7  and  C_1 
REMARK    2  A    between atoms: C_8  and  N_2 
REMARK    3  A    between atoms: C_16  and  C_3 
REMARK       I    between atoms: N_12  and  C_7 
REMARK    4  A    between atoms: C_19  and  N_12 
REMARK    5  A    between atoms: C_15  and  C_18 
REMARK    6  A    between atoms: C_25  and  C_16 
REMARK    7  A    between atoms: C_18  and  C_19 
ROOT
ATOM      1  C   UNL d   1      -0.318   1.232   0.024  0.00  0.00     0.073 A 
ATOM      2  N   UNL d   1       0.938  -0.622  -0.011  0.00  0.00    -0.260 N 
ATOM      3  C   UNL d   1       1.004   0.773   0.044  0.00  0.00     0.051 A 
ATOM      4  N   UNL d   1      -0.338  -1.042  -0.205  0.00  0.00    -0.304 N 
ATOM      5  HN  UNL d   1      -0.658  -1.995  -0.384  1.00  0.00     0.186 HD
ATOM      6  C   UNL d   1      -1.080   0.056  -0.113  0.00  0.00     0.126 A 
ENDROOT
BRANCH   1   7
ATOM      7  C   UNL d   1      -0.759   2.625   0.091  0.00  0.00     0.255 C 
ATOM      8  O   UNL d   1       0.024   3.569   0.120  0.00  0.00    -0.268 OA
ATOM      9  N   UNL d   1      -2.119   2.839   0.113  0.00  0.00    -0.356 N 
ATOM     10  H   UNL d   1      -2.771   2.092  -0.078  0.00  0.00     0.162 HD
BRANCH   9  11
ATOM     11  C   UNL d   1      -2.659   4.191   0.097  0.00  0.00     0.129 C 
BRANCH  11  12
ATOM     12  C   UNL d   1      -2.746   4.780  -1.314  0.00  0.00     0.076 C 
BRANCH  12  13
ATOM     13  C   UNL d   1      -3.715   4.048  -2.212  0.00  0.00     0.010 A 
ATOM     14  N   UNL d   1      -4.767   3.420  -1.629  0.00  0.00    -0.369 N 
ATOM     15  C   UNL d   1      -5.654   2.802  -2.438  0.00  0.00     0.088 A 
ATOM     16  HN  UNL d   1      -4.884   3.415  -0.615  1.00  0.00     0.165 HD
ATOM     17  C   UNL d   1      -5.545   2.774  -3.817  0.00  0.00     0.017 A 
ATOM     18  C   UNL d   1      -4.469   3.427  -4.402  0.00  0.00     0.003 A 
ATOM     19  C   UNL d   1      -3.543   4.080  -3.592  0.00  0.00     0.025 A 
ENDBRANCH  12  13
ENDBRANCH  11  12
ENDBRANCH   9  11
ENDBRANCH   1   7
BRANCH   3  20
ATOM     20  C   UNL d   1       2.274   1.583   0.037  0.00  0.00     0.060 C 
BRANCH  20  21
ATOM     21  C   UNL d   1       3.137   1.423  -1.219  0.00  0.00     0.002 C 
ATOM     22  C   UNL d   1       2.431   1.819  -2.508  0.00  0.00     0.005 C 
ENDBRANCH  20  21
ENDBRANCH   3  20
BRANCH   2  23
ATOM     23  C   UNL d   1       1.984  -1.593   0.032  0.00  0.00     0.056 A 
ATOM     24  C   UNL d   1       3.173  -1.370   0.735  0.00  0.00     0.033 A 
ATOM     25  C   UNL d   1       4.237  -2.270   0.630  0.00  0.00     0.026 A 
ATOM     26  C   UNL d   1       4.103  -3.414  -0.151  0.00  0.00     0.034 A 
ATOM     27  C   UNL d   1       2.895  -3.693  -0.785  0.00  0.00     0.026 A 
ATOM     28 CL   UNL d   1       5.439  -4.481  -0.336  0.00  0.00    -0.084 Cl
ATOM     29  C   UNL d   1       1.828  -2.793  -0.681  0.00  0.00     0.033 A 
ENDBRANCH   2  23
TORSDOF 7
