REMARK  5 active torsions:
REMARK  status: ('A' for Active; 'I' for Inactive)
REMARK    1  A    between atoms: C_8  and  C_1 
REMARK    2  A    between atoms: C_13  and  C_7 
REMARK       I    between atoms: C_9  and  N_11 
REMARK       I    between atoms: N_12  and  C_9 
REMARK    3  A    between atoms: N_11  and  C_10 
REMARK    4  A    between atoms: C_21  and  N_12 
REMARK    5  A    between atoms: C_14  and  C_15 
ROOT
ATOM      1  C   UNL d   1      -0.879  -2.478  -1.502  0.00  0.00     0.043 C 
ATOM      2  C   UNL d   1      -0.365  -3.589  -2.197  0.00  0.00     0.051 C 
ATOM      3  C   UNL d   1      -1.818  -2.739  -0.489  0.00  0.00     0.018 C 
ATOM      4  C   UNL d   1      -0.431  -4.859  -1.604  0.00  0.00     0.030 C 
ATOM      5  C   UNL d   1      -2.078  -4.044  -0.063  0.00  0.00     0.001 C 
ATOM      6  C   UNL d   1      -1.318  -5.095  -0.560  0.00  0.00     0.002 C 
ENDROOT
BRANCH   1   7
ATOM      7  C   UNL d   1      -0.357  -1.121  -1.676  0.00  0.00     0.177 A 
ATOM      8  O   UNL d   1      -1.024  -0.086  -1.052  0.00  0.00    -0.273 OA
ATOM      9  C   UNL d   1      -0.109   0.938  -1.136  0.00  0.00     0.174 A 
ATOM     10  N   UNL d   1       0.992   0.573  -1.763  0.00  0.00    -0.277 N 
ATOM     11  N   UNL d   1       0.819  -0.746  -2.141  0.00  0.00    -0.277 N 
ATOM     12  HN  UNL d   1       1.814   1.151  -1.935  1.00  0.00     0.189 HD
ATOM     13  HN  UNL d   1       1.473  -1.317  -2.676  1.00  0.00     0.189 HD
BRANCH   9  14
ATOM     14  C   UNL d   1      -0.447   2.220  -0.520  0.00  0.00     0.017 A 
ATOM     15  C   UNL d   1      -1.756   2.708  -0.480  0.00  0.00     0.016 A 
ATOM     16  C   UNL d   1      -2.036   3.996   0.015  0.00  0.00     0.009 A 
ATOM     17  C   UNL d   1      -1.020   4.847   0.488  0.00  0.00    -0.051 A 
ATOM     18  C   UNL d   1       0.280   4.314   0.516  0.00  0.00     0.009 A 
ATOM     19  C   UNL d   1       0.562   3.034   0.010  0.00  0.00     0.016 A 
BRANCH  17  20
ATOM     20  C   UNL d   1      -1.319   6.288   0.960  0.00  0.00    -0.024 C 
ATOM     21  C   UNL d   1      -0.095   7.228   0.825  0.00  0.00     0.019 C 
ATOM     22  C   UNL d   1      -2.454   6.944   0.139  0.00  0.00     0.019 C 
ATOM     23  C   UNL d   1      -1.741   6.264   2.442  0.00  0.00     0.019 C 
ENDBRANCH  17  20
ENDBRANCH   9  14
ENDBRANCH   1   7
BRANCH   2  24
ATOM     24  N   UNL d   1       0.022  -3.492  -3.565  0.00  0.00    -0.308 N 
ATOM     25  C   UNL d   1      -0.579  -4.188  -4.628  0.00  0.00     0.325 C 
ATOM     26  N   UNL d   1      -1.460  -5.176  -4.275  0.00  0.00    -0.309 N 
ATOM     27  O   UNL d   1      -0.339  -3.833  -5.782  0.00  0.00    -0.247 OA
ATOM     28  H   UNL d   1      -1.528  -5.374  -3.300  0.00  0.00     0.170 HD
ATOM     29  H   UNL d   1       0.364  -2.590  -3.890  0.00  0.00     0.170 HD
BRANCH  26  30
ATOM     30  C   UNL d   1      -2.387  -5.926  -5.019  0.00  0.00     0.036 A 
ATOM     31  C   UNL d   1      -2.637  -5.769  -6.376  0.00  0.00     0.031 A 
ATOM     32  C   UNL d   1      -3.665  -6.510  -6.981  0.00  0.00     0.026 A 
ATOM     33  C   UNL d   1      -4.427  -7.410  -6.233  0.00  0.00     0.034 A 
ATOM     34  C   UNL d   1      -4.163  -7.598  -4.882  0.00  0.00     0.026 A 
ATOM     35 CL   UNL d   1      -5.717  -8.280  -6.970  0.00  0.00    -0.084 Cl
ATOM     36  C   UNL d   1      -3.144  -6.857  -4.282  0.00  0.00     0.031 A 
ENDBRANCH  26  30
ENDBRANCH   2  24
TORSDOF 5
