REMARK  5 active torsions:
REMARK  status: ('A' for Active; 'I' for Inactive)
REMARK    1  A    between atoms: C_3  and  C_1 
REMARK    2  A    between atoms: C_12  and  C_2 
REMARK    3  A    between atoms: C_4  and  C_9 
REMARK       I    between atoms: N_21  and  C_12 
REMARK       I    between atoms: C_20  and  N_22 
REMARK    4  A    between atoms: C_25  and  C_20 
REMARK    5  A    between atoms: N_22  and  N_21 
ROOT
ATOM      1  C   UNL d   1      -0.110  -1.356   0.050  0.00  0.00     0.057 A 
ATOM      2  C   UNL d   1      -1.447  -0.833   0.046  0.00  0.00     0.139 A 
ATOM      3  N   UNL d   1      -1.408   0.514   0.004  0.00  0.00    -0.255 N 
ATOM      4  HN  UNL d   1      -2.209   1.144  -0.031  1.00  0.00     0.195 HD
ATOM      5  O   UNL d   1      -0.086   0.876   0.016  0.00  0.00    -0.241 OA
ATOM      6  C   UNL d   1       0.693  -0.233   0.040  0.00  0.00     0.087 A 
ATOM      7  C   UNL d   1       2.147   0.024   0.053  0.00  0.00     0.080 C 
ENDROOT
BRANCH   2   8
ATOM      8  C   UNL d   1      -2.765  -1.479   0.055  0.00  0.00     0.289 C 
ATOM      9  N   UNL d   1      -2.844  -2.662   0.751  0.00  0.00    -0.262 N 
ATOM     10  H   UNL d   1      -2.022  -3.086   1.188  0.00  0.00     0.190 HD
ATOM     11  O   UNL d   1      -3.759  -1.001  -0.499  0.00  0.00    -0.264 OA
BRANCH   9  12
ATOM     12  N   UNL d   1      -4.052  -3.361   0.831  0.00  0.00    -0.263 N 
ATOM     13  C   UNL d   1      -4.327  -4.048   1.996  0.00  0.00     0.270 C 
ATOM     14  O   UNL d   1      -3.613  -3.973   2.995  0.00  0.00    -0.266 OA
ATOM     15  H   UNL d   1      -4.736  -3.187   0.097  0.00  0.00     0.190 HD
BRANCH  13  16
ATOM     16  C   UNL d   1      -5.481  -4.986   1.975  0.00  0.00     0.033 A 
ATOM     17  C   UNL d   1      -6.043  -5.463   0.782  0.00  0.00     0.017 A 
ATOM     18  C   UNL d   1      -7.118  -6.356   0.827  0.00  0.00     0.001 A 
ATOM     19  C   UNL d   1      -7.618  -6.789   2.055  0.00  0.00     0.000 A 
ATOM     20  C   UNL d   1      -7.027  -6.360   3.241  0.00  0.00     0.001 A 
ATOM     21  C   UNL d   1      -5.954  -5.469   3.201  0.00  0.00     0.017 A 
ENDBRANCH  13  16
ENDBRANCH   9  12
ENDBRANCH   2   8
BRANCH   1  22
ATOM     22  C   UNL d   1       0.344  -2.755   0.032  0.00  0.00     0.055 A 
ATOM     23  N   UNL d   1      -0.460  -3.751   0.561  0.00  0.00    -0.347 N 
ATOM     24  C   UNL d   1       0.160  -4.923   0.507  0.00  0.00     0.102 A 
ATOM     25  HN  UNL d   1      -1.396  -3.604   0.940  1.00  0.00     0.167 HD
ATOM     26  S   UNL d   1       1.725  -4.886  -0.199  0.00  0.00    -0.080 SA
ATOM     27  C   UNL d   1       1.553  -3.203  -0.461  0.00  0.00     0.082 A 
BRANCH  24  28
ATOM     28  C   UNL d   1      -0.453  -6.201   1.021  0.00  0.00     0.073 A 
ATOM     29  N   UNL d   1       0.220  -7.412   1.108  0.00  0.00    -0.352 N 
ATOM     30  C   UNL d   1      -0.570  -8.325   1.635  0.00  0.00     0.047 A 
ATOM     31  HN  UNL d   1       1.182  -7.570   0.810  1.00  0.00     0.166 HD
ATOM     32  C   UNL d   1      -0.182  -9.728   1.929  0.00  0.00     0.076 C 
ATOM     33  S   UNL d   1      -2.169  -7.812   1.999  0.00  0.00    -0.087 SA
ATOM     34  C   UNL d   1      -1.766  -6.256   1.439  0.00  0.00     0.083 A 
ENDBRANCH  24  28
ENDBRANCH   1  22
TORSDOF 5
