REMARK  6 active torsions:
REMARK  status: ('A' for Active; 'I' for Inactive)
REMARK    1  A    between atoms: C_2  and  S_1 
REMARK    2  A    between atoms: C_4  and  S_1 
REMARK    3  A    between atoms: C_8  and  C_3 
REMARK    4  A    between atoms: C_5  and  N_10 
REMARK    5  A    between atoms: N_10  and  N_6 
REMARK    6  A    between atoms: O_22  and  C_8 
ROOT
ATOM      1  C   UNL d   1       0.516   1.810   0.437  0.00  0.00     0.229 C 
ATOM      2  N   UNL d   1      -0.451   2.290  -0.292  0.00  0.00    -0.281 N 
ATOM      3  HN  UNL d   1      -1.008   3.065   0.066  1.00  0.00     0.188 HD
ATOM      4  C   UNL d   1       1.325   0.739  -0.058  0.00  0.00     0.132 C 
ATOM      5  N   UNL d   1       1.949  -0.136  -0.507  0.00  0.00    -0.189 NA
ENDROOT
BRANCH   1   6
ATOM      6  S   UNL d   1       0.952   2.462   1.991  0.00  0.00     0.240 S 
ATOM      7  O   UNL d   1       2.235   3.123   1.823  0.00  0.00    -0.214 OA
ATOM      8  O   UNL d   1       0.754   1.419   2.979  0.00  0.00    -0.214 OA
BRANCH   6   9
ATOM      9  C   UNL d   1      -0.170   3.770   2.427  0.00  0.00     0.106 A 
ATOM     10  S   UNL d   1      -1.825   3.357   2.570  0.00  0.00    -0.090 SA
ATOM     11  C   UNL d   1      -2.251   4.949   3.034  0.00  0.00     0.051 A 
ATOM     12  C   UNL d   1      -1.155   5.781   3.093  0.00  0.00     0.009 A 
ATOM     13  C   UNL d   1       0.047   5.101   2.741  0.00  0.00     0.032 A 
ENDBRANCH   6   9
ENDBRANCH   1   6
BRANCH   2  14
ATOM     14  N   UNL d   1      -0.735   1.774  -1.533  0.00  0.00    -0.298 N 
ATOM     15  H   UNL d   1      -0.459   0.817  -1.792  0.00  0.00     0.187 HD
BRANCH  14  16
ATOM     16  C   UNL d   1      -1.395   2.526  -2.461  0.00  0.00     0.071 A 
ATOM     17  C   UNL d   1      -1.707   2.133  -3.755  0.00  0.00     0.108 A 
ATOM     18  S   UNL d   1      -2.494   3.413  -4.607  0.00  0.00    -0.094 SA
ATOM     19  C   UNL d   1      -2.430   4.458  -3.265  0.00  0.00     0.053 A 
ATOM     20  C   UNL d   1      -1.829   3.861  -2.185  0.00  0.00     0.039 A 
BRANCH  17  21
ATOM     21  C   UNL d   1      -1.489   0.895  -4.483  0.00  0.00     0.302 C 
ATOM     22  O   UNL d   1      -1.825   0.670  -5.641  0.00  0.00    -0.259 OA
BRANCH  21  23
ATOM     23  O   UNL d   1      -0.852  -0.028  -3.696  0.00  0.00    -0.322 OA
ATOM     24  C   UNL d   1      -0.628  -1.276  -4.362  0.00  0.00     0.213 C 
ENDBRANCH  21  23
ENDBRANCH  17  21
ENDBRANCH  14  16
ENDBRANCH   2  14
TORSDOF 6
