REMARK  2 active torsions:
REMARK  status: ('A' for Active; 'I' for Inactive)
REMARK    1  A    between atoms: N_5  and  S_1 
REMARK    2  A    between atoms: C_8  and  S_1 
ROOT
ATOM      1  C   UNL d   1       3.644   0.563   4.362  0.00  0.00     0.148 A 
ATOM      2  N   UNL d   1       3.541   1.585   5.181  0.00  0.00    -0.335 N 
ATOM      3  HN  UNL d   1       2.877   2.350   5.065  1.00  0.00     0.168 HD
ATOM      4  N   UNL d   1       0.521   0.146   1.535  0.00  0.00    -0.203 NA
ATOM      5  S   UNL d   1       4.912  -0.538   4.772  0.00  0.00    -0.052 SA
ATOM      6  N   UNL d   1       2.817   0.408   3.295  0.00  0.00    -0.359 N 
ATOM      7  C   UNL d   1       4.447   1.491   6.218  0.00  0.00     0.053 A 
ATOM      8  C   UNL d   1       5.313   0.402   6.153  0.00  0.00     0.035 A 
ATOM      9  C   UNL d   1       0.796   1.424   2.275  0.00  0.00     0.127 C 
ATOM     10  C   UNL d   1       1.036  -1.009   2.358  0.00  0.00     0.127 C 
ATOM     11  C   UNL d   1       4.549   2.388   7.299  0.00  0.00     0.054 A 
ATOM     12  C   UNL d   1       2.546  -0.883   2.662  0.00  0.00     0.140 C 
ATOM     13  C   UNL d   1       2.286   1.603   2.626  0.00  0.00     0.140 C 
ATOM     14  C   UNL d   1       6.311   0.189   7.119  0.00  0.00     0.023 A 
ATOM     15  C   UNL d   1       5.524   2.171   8.272  0.00  0.00     0.036 A 
ATOM     16  C   UNL d   1       6.400   1.094   8.182  0.00  0.00     0.025 A 
ATOM     17 CL   UNL d   1       5.639   3.254   9.606  0.00  0.00    -0.084 Cl
ENDROOT
BRANCH   4  18
ATOM     18  S   UNL d   1       0.989   0.055  -0.104  0.00  0.00     0.243 S 
ATOM     19  O   UNL d   1       0.641  -1.268  -0.574  0.00  0.00    -0.206 OA
ATOM     20  O   UNL d   1       2.354   0.525  -0.221  0.00  0.00    -0.206 OA
BRANCH  18  21
ATOM     21  C   UNL d   1      -0.052   1.210  -0.973  0.00  0.00     0.075 A 
ATOM     22  C   UNL d   1      -1.255   0.748  -1.529  0.00  0.00     0.034 A 
ATOM     23  C   UNL d   1      -1.919   1.581  -2.416  0.00  0.00    -0.021 A 
ATOM     24  C   UNL d   1      -3.165   1.350  -3.183  0.00  0.00     0.068 C 
ATOM     25  C   UNL d   1      -1.431   2.844  -2.711  0.00  0.00     0.075 A 
ATOM     26  C   UNL d   1      -3.055   2.509  -4.177  0.00  0.00     0.180 C 
ATOM     27  O   UNL d   1      -2.194   3.531  -3.620  0.00  0.00    -0.350 OA
ATOM     28  C   UNL d   1      -0.265   3.330  -2.154  0.00  0.00     0.039 A 
ATOM     29  C   UNL d   1       0.446   2.490  -1.289  0.00  0.00     0.027 A 
ENDBRANCH  18  21
ENDBRANCH   4  18
TORSDOF 2
