REMARK  7 active torsions:
REMARK  status: ('A' for Active; 'I' for Inactive)
REMARK    1  A    between atoms: C_5  and  S_1 
REMARK    2  A    between atoms: N_9  and  S_1 
REMARK    3  A    between atoms: N_3  and  C_19 
REMARK    4  A    between atoms: C_4  and  O_11 
REMARK    5  A    between atoms: C_14  and  N_9 
REMARK    6  A    between atoms: O_11  and  C_18 
REMARK    7  A    between atoms: C_19  and  C_14 
ROOT
ATOM      1  S   UNL d   1       1.094  -0.075  -0.122  0.00  0.00     0.258 S 
ATOM      2  O   UNL d   1       0.741  -0.363   1.253  0.00  0.00    -0.201 OA
ATOM      3  O   UNL d   1       0.661   1.125  -0.795  0.00  0.00    -0.201 OA
ENDROOT
BRANCH   1   4
ATOM      4  C   UNL d   1       0.615  -1.474  -1.108  0.00  0.00     0.079 A 
ATOM      5  C   UNL d   1       0.576  -2.749  -0.537  0.00  0.00     0.028 A 
ATOM      6  C   UNL d   1       0.213  -3.851  -1.322  0.00  0.00     0.038 A 
ATOM      7  C   UNL d   1      -0.137  -3.668  -2.663  0.00  0.00     0.078 A 
ATOM      8  C   UNL d   1      -0.077  -2.387  -3.223  0.00  0.00     0.038 A 
ATOM      9  C   UNL d   1       0.283  -1.284  -2.449  0.00  0.00     0.028 A 
BRANCH   7  10
ATOM     10  O   UNL d   1      -0.540  -4.633  -3.537  0.00  0.00    -0.255 OA
BRANCH  10  11
ATOM     11  C   UNL d   1      -1.093  -5.833  -3.022  0.00  0.00     0.530 C 
ATOM     12  F   UNL d   1      -1.754  -5.652  -1.860  0.00  0.00    -0.144 F 
ATOM     13  F   UNL d   1      -1.974  -6.315  -3.927  0.00  0.00    -0.144 F 
ATOM     14  F   UNL d   1      -0.121  -6.753  -2.845  0.00  0.00    -0.144 F 
ENDBRANCH  10  11
ENDBRANCH   7  10
ENDBRANCH   1   4
BRANCH   1  15
ATOM     15  N   UNL d   1       2.771  -0.142  -0.203  0.00  0.00    -0.314 N 
ATOM     16  H   UNL d   1       3.157  -0.806   0.471  0.00  0.00     0.172 HD
BRANCH  15  17
ATOM     17  C   UNL d   1       3.424  -0.082  -1.525  0.00  0.00     0.152 C 
BRANCH  17  18
ATOM     18  C   UNL d   1       4.933   0.090  -1.333  0.00  0.00     0.148 C 
BRANCH  18  19
ATOM     19  N   UNL d   1       5.689   0.018  -2.566  0.00  0.00    -0.331 N 
ATOM     20  C   UNL d   1       5.896  -1.151  -3.287  0.00  0.00     0.318 C 
ATOM     21  N   UNL d   1       6.575  -0.809  -4.446  0.00  0.00    -0.341 N 
ATOM     22  O   UNL d   1       5.556  -2.278  -2.972  0.00  0.00    -0.247 OA
ATOM     23  C   UNL d   1       7.005   0.563  -4.388  0.00  0.00     0.144 C 
ATOM     24  H   UNL d   1       6.993  -1.539  -5.009  0.00  0.00     0.164 HD
ATOM     25  C   UNL d   1       6.077   1.174  -3.344  0.00  0.00     0.147 C 
ENDBRANCH  18  19
ENDBRANCH  17  18
ENDBRANCH  15  17
ENDBRANCH   1  15
TORSDOF 7
