REMARK  6 active torsions:
REMARK  status: ('A' for Active; 'I' for Inactive)
REMARK    1  A    between atoms: C_8  and  C_1 
REMARK    2  A    between atoms: C_7  and  C_2 
REMARK    3  A    between atoms: C_9  and  N_3 
REMARK    4  A    between atoms: O_13  and  C_7 
REMARK    5  A    between atoms: N_10  and  C_8 
REMARK    6  A    between atoms: O_14  and  N_10 
ROOT
ATOM      1  C   UNL d   1       1.016  -0.890   0.005  0.00  0.00     0.091 C 
ATOM      2  C   UNL d   1      -0.309  -1.314  -0.007  0.00  0.00     0.086 C 
ATOM      3  N   UNL d   1       0.977   0.496   0.076  0.00  0.00    -0.255 N 
ATOM      4  N   UNL d   1      -0.289   0.954   0.256  0.00  0.00    -0.303 N 
ATOM      5  HN  UNL d   1      -0.586   1.909   0.456  1.00  0.00     0.186 HD
ATOM      6  C   UNL d   1      -1.055  -0.125   0.113  0.00  0.00     0.127 C 
ENDROOT
BRANCH   3   7
ATOM      7  C   UNL d   1       2.053   1.422  -0.024  0.00  0.00     0.057 A 
ATOM      8  C   UNL d   1       3.187   1.134  -0.797  0.00  0.00     0.031 A 
ATOM      9  C   UNL d   1       4.247   2.041  -0.849  0.00  0.00     0.002 A 
ATOM     10  C   UNL d   1       4.180   3.236  -0.134  0.00  0.00     0.000 A 
ATOM     11  C   UNL d   1       3.042   3.540   0.612  0.00  0.00     0.002 A 
ATOM     12  C   UNL d   1       1.970   2.646   0.653  0.00  0.00     0.031 A 
ENDBRANCH   3   7
BRANCH   1  13
ATOM     13  C   UNL d   1       2.224  -1.669   0.016  0.00  0.00     0.146 C 
BRANCH  13  14
ATOM     14  N   UNL d   1       2.295  -2.813  -0.582  0.00  0.00    -0.278 N 
ATOM     15  HN  UNL d   1       1.538  -3.257  -1.101  1.00  0.00     0.193 HD
BRANCH  14  16
ATOM     16  O   UNL d   1       3.578  -3.343  -0.400  0.00  0.00    -0.290 OA
ATOM     17  H   UNL d   1       3.468  -4.259  -0.719  0.00  0.00     0.244 HD
ENDBRANCH  14  16
ENDBRANCH  13  14
ENDBRANCH   1  13
BRANCH   2  18
ATOM     18  C   UNL d   1      -0.821  -2.670  -0.028  0.00  0.00     0.296 C 
ATOM     19  O   UNL d   1      -0.229  -3.635   0.443  0.00  0.00    -0.259 OA
BRANCH  18  20
ATOM     20  O   UNL d   1      -2.067  -2.742  -0.583  0.00  0.00    -0.322 OA
ATOM     21  C   UNL d   1      -2.595  -4.069  -0.620  0.00  0.00     0.213 C 
ENDBRANCH  18  20
ENDBRANCH   2  18
TORSDOF 6
