REMARK  5 active torsions:
REMARK  status: ('A' for Active; 'I' for Inactive)
REMARK    1  A    between atoms: S_10  and  C_4 
REMARK    2  A    between atoms: C_8  and  C_16 
REMARK       I    between atoms: N_12  and  C_8 
REMARK    3  A    between atoms: C_16  and  S_10 
REMARK    4  A    between atoms: C_17  and  N_12 
REMARK    5  A    between atoms: O_23  and  C_18 
ROOT
ATOM      1  S   UNL d   1       3.993  -0.598   1.432  0.00  0.00    -0.085 SA
ENDROOT
BRANCH   1   2
ATOM      2  C   UNL d   1       4.621   0.213   2.839  0.00  0.00     0.147 A 
ATOM      3  N   UNL d   1       3.853   0.002   3.940  0.00  0.00    -0.303 N 
ATOM      4  C   UNL d   1       4.150   0.562   5.144  0.00  0.00     0.256 A 
ATOM      5  H   UNL d   1       3.037  -0.585   3.877  0.00  0.00     0.171 HD
ATOM      6  C   UNL d   1       5.344   1.406   5.144  0.00  0.00     0.043 A 
ATOM      7  O   UNL d   1       3.478   0.385   6.151  0.00  0.00    -0.267 OA
ATOM      8  C   UNL d   1       5.803   2.143   6.342  0.00  0.00     0.120 A 
ATOM      9  C   UNL d   1       6.039   1.526   4.005  0.00  0.00     0.033 A 
ATOM     10  S   UNL d   1       7.287   3.052   5.790  0.00  0.00    -0.158 SA
ATOM     11  C   UNL d   1       7.259   2.390   4.084  0.00  0.00     0.132 A 
ATOM     12  N   UNL d   1       5.689   0.936   2.819  0.00  0.00    -0.339 N 
ATOM     13  HN  UNL d   1       6.241   1.062   1.971  1.00  0.00     0.168 HD
ENDBRANCH   1   2
BRANCH   1  14
ATOM     14  C   UNL d   1       4.938   0.233   0.125  0.00  0.00     0.185 C 
BRANCH  14  15
ATOM     15  C   UNL d   1       6.392  -0.204   0.099  0.00  0.00     0.231 C 
ATOM     16  N   UNL d   1       6.567  -1.575  -0.068  0.00  0.00    -0.327 N 
ATOM     17  H   UNL d   1       5.746  -2.119  -0.310  0.00  0.00     0.169 HD
ATOM     18  O   UNL d   1       7.292   0.635   0.107  0.00  0.00    -0.272 OA
BRANCH  16  19
ATOM     19  C   UNL d   1       7.815  -2.222  -0.151  0.00  0.00     0.034 A 
ATOM     20  C   UNL d   1       8.986  -1.653   0.349  0.00  0.00     0.032 A 
ATOM     21  C   UNL d   1      10.223  -2.273   0.157  0.00  0.00     0.039 A 
ATOM     22  C   UNL d   1      10.303  -3.476  -0.540  0.00  0.00     0.068 A 
ATOM     23  C   UNL d   1       9.125  -4.088  -0.974  0.00  0.00     0.039 A 
ATOM     24  C   UNL d   1       7.883  -3.474  -0.769  0.00  0.00     0.032 A 
BRANCH  22  25
ATOM     25  O   UNL d   1      11.460  -4.137  -0.846  0.00  0.00    -0.356 OA
ATOM     26  C   UNL d   1      12.671  -3.427  -0.597  0.00  0.00     0.210 C 
ENDBRANCH  22  25
ENDBRANCH  16  19
ENDBRANCH  14  15
ENDBRANCH   1  14
TORSDOF 5
