REMARK  2 active torsions:
REMARK  status: ('A' for Active; 'I' for Inactive)
REMARK    1  A    between atoms: N_2  and  S_1 
REMARK    2  A    between atoms: C_10  and  S_1 
ROOT
ATOM      1  N   UNL d   1       0.740  -0.764  -1.500  0.00  0.00    -0.298 N 
ATOM      2  C   UNL d   1       0.826  -0.919  -3.966  0.00  0.00    -0.021 A 
ATOM      3  C   UNL d   1       1.133  -0.040  -2.764  0.00  0.00     0.126 C 
ATOM      4  C   UNL d   1       0.486  -2.254  -3.864  0.00  0.00    -0.008 A 
ATOM      5  C   UNL d   1       1.107  -2.217  -1.482  0.00  0.00     0.141 C 
ATOM      6  S   UNL d   1       0.248  -3.008  -5.366  0.00  0.00    -0.106 SA
ATOM      7  C   UNL d   1       0.330  -2.974  -2.567  0.00  0.00     0.067 C 
ATOM      8  C   UNL d   1       0.859  -0.514  -5.342  0.00  0.00     0.017 A 
ATOM      9  C   UNL d   1       0.588  -1.556  -6.203  0.00  0.00     0.051 A 
ATOM     10  C   UNL d   1       2.592   0.411  -2.790  0.00  0.00     0.038 C 
ENDROOT
BRANCH   1  11
ATOM     11  S   UNL d   1       0.981   0.015  -0.006  0.00  0.00     0.261 S 
ATOM     12  O   UNL d   1       2.402   0.246   0.157  0.00  0.00    -0.200 OA
ATOM     13  O   UNL d   1       0.236  -0.710   1.001  0.00  0.00    -0.200 OA
BRANCH  11  14
ATOM     14  C   UNL d   1       0.169   1.573  -0.233  0.00  0.00     0.079 A 
ATOM     15  C   UNL d   1      -1.204   1.581  -0.494  0.00  0.00     0.025 A 
ATOM     16  C   UNL d   1      -1.845   2.791  -0.751  0.00  0.00     0.002 A 
ATOM     17  C   UNL d   1      -1.117   3.982  -0.737  0.00  0.00     0.000 A 
ATOM     18  C   UNL d   1       0.251   3.971  -0.450  0.00  0.00     0.002 A 
ATOM     19  C   UNL d   1       0.899   2.764  -0.193  0.00  0.00     0.025 A 
ENDBRANCH  11  14
ENDBRANCH   1  11
TORSDOF 2
