REMARK  3 active torsions:
REMARK  status: ('A' for Active; 'I' for Inactive)
REMARK    1  A    between atoms: C_2  and  C_1 
REMARK       I    between atoms: N_6  and  C_2 
REMARK    2  A    between atoms: N_10  and  N_6 
REMARK    3  A    between atoms: C_14  and  N_10 
ROOT
ATOM      1  C   UNL d   1      -0.774   2.091   0.941  0.00  0.00     0.291 C 
ATOM      2  N   UNL d   1      -0.534   3.399   0.534  0.00  0.00    -0.281 N 
ATOM      3  O   UNL d   1       0.032   1.185   0.719  0.00  0.00    -0.264 OA
ATOM      4  H   UNL d   1      -1.317   4.037   0.439  0.00  0.00     0.184 HD
ENDROOT
BRANCH   2   5
ATOM      5  N   UNL d   1       0.544   3.612  -0.340  0.00  0.00    -0.203 NA
ATOM      6  H   UNL d   1       1.157   2.789  -0.407  0.00  0.00     0.153 HD
BRANCH   5   7
ATOM      7  C   UNL d   1       1.286   4.801  -0.131  0.00  0.00     0.029 A 
ATOM      8  C   UNL d   1       2.431   5.008  -0.913  0.00  0.00     0.049 A 
ATOM      9  C   UNL d   1       3.139   6.216  -0.858  0.00  0.00     0.041 A 
ATOM     10 CL   UNL d   1       4.524   6.387  -1.878  0.00  0.00    -0.084 Cl
ATOM     11  C   UNL d   1       2.719   7.255  -0.018  0.00  0.00    -0.040 A 
ATOM     12  C   UNL d   1       1.579   7.049   0.769  0.00  0.00     0.010 A 
ATOM     13  C   UNL d   1       3.430   8.577   0.036  0.00  0.00     0.050 C 
ATOM     14  C   UNL d   1       0.867   5.844   0.703  0.00  0.00     0.026 A 
ENDBRANCH   5   7
ENDBRANCH   2   5
BRANCH   1  15
ATOM     15  C   UNL d   1      -2.026   1.888   1.625  0.00  0.00     0.168 A 
ATOM     16  O   UNL d   1      -2.819   2.963   1.908  0.00  0.00    -0.233 OA
ATOM     17  N   UNL d   1      -3.943   2.541   2.599  0.00  0.00    -0.272 N 
ATOM     18  C   UNL d   1      -3.812   1.218   2.716  0.00  0.00     0.117 A 
ATOM     19  HN  UNL d   1      -4.709   3.119   2.945  1.00  0.00     0.194 HD
ATOM     20  C   UNL d   1      -2.634   0.751   2.110  0.00  0.00     0.064 A 
ENDBRANCH   1  15
TORSDOF 3
