REMARK  5 active torsions:
REMARK  status: ('A' for Active; 'I' for Inactive)
REMARK    1  A    between atoms: C_7  and  C_1 
REMARK    2  A    between atoms: C_3  and  C_2 
REMARK    3  A    between atoms: N_15  and  C_6 
REMARK    4  A    between atoms: O_16  and  C_7 
REMARK    5  A    between atoms: C_17  and  O_16 
ROOT
ATOM      1  C   UNL d   1       1.914  -0.060  -0.096  0.00  0.00     0.086 A 
ATOM      2  C   UNL d   1       1.151  -1.213  -0.036  0.00  0.00     0.136 A 
ATOM      3  N   UNL d   1      -0.216  -1.144  -0.061  0.00  0.00    -0.328 N 
ATOM      4  HN  UNL d   1      -0.781  -1.992  -0.023  1.00  0.00     0.168 HD
ATOM      5  C   UNL d   1      -0.795   0.055  -0.136  0.00  0.00     0.155 A 
ATOM      6  N   UNL d   1      -0.130   1.210  -0.141  0.00  0.00    -0.342 N 
ATOM      7  HN  UNL d   1      -0.614   2.107  -0.152  1.00  0.00     0.167 HD
ATOM      8  C   UNL d   1       1.216   1.129  -0.131  0.00  0.00     0.110 A 
ENDROOT
BRANCH   1   9
ATOM      9  C   UNL d   1       3.376  -0.046  -0.132  0.00  0.00     0.296 C 
ATOM     10  O   UNL d   1       4.040  -0.755  -0.861  0.00  0.00    -0.259 OA
BRANCH   9  11
ATOM     11  O   UNL d   1       3.804   0.824   0.810  0.00  0.00    -0.318 OA
BRANCH  11  12
ATOM     12  C   UNL d   1       5.201   0.777   1.138  0.00  0.00     0.174 C 
ATOM     13  C   UNL d   1       5.331   0.074   2.475  0.00  0.00     0.034 C 
ENDBRANCH  11  12
ENDBRANCH   9  11
ENDBRANCH   1   9
BRANCH   2  14
ATOM     14  C   UNL d   1       1.761  -2.592   0.108  0.00  0.00     0.433 C 
ATOM     15  F   UNL d   1       3.059  -2.622   0.516  0.00  0.00    -0.165 F 
ATOM     16  F   UNL d   1       1.103  -3.339   1.047  0.00  0.00    -0.165 F 
ATOM     17  F   UNL d   1       1.702  -3.320  -1.043  0.00  0.00    -0.165 F 
ENDBRANCH   2  14
BRANCH   5  18
ATOM     18  N   UNL d   1      -2.168   0.101  -0.164  0.00  0.00    -0.274 NA
ATOM     19  H   UNL d   1      -2.505   0.987   0.184  0.00  0.00     0.127 HD
ATOM     20  H   UNL d   1      -2.564  -0.741   0.231  0.00  0.00     0.127 HD
ENDBRANCH   5  18
TORSDOF 5
