REMARK  16 active torsions:
REMARK  status: ('A' for Active; 'I' for Inactive)
REMARK    1  A    between atoms: C_19  and  C_7 
REMARK    2  A    between atoms: C_20  and  C_8 
REMARK    3  A    between atoms: C_21  and  C_13 
REMARK    4  A    between atoms: C_22  and  C_14 
REMARK    5  A    between atoms: O_53  and  C_29 
REMARK    6  A    between atoms: O_51  and  C_30 
REMARK    7  A    between atoms: O_52  and  C_31 
REMARK    8  A    between atoms: O_54  and  C_32 
REMARK    9  A    between atoms: O_59  and  C_35 
REMARK   10  A    between atoms: O_55  and  C_36 
REMARK   11  A    between atoms: O_62  and  C_37 
REMARK   12  A    between atoms: O_56  and  C_38 
REMARK   13  A    between atoms: O_57  and  C_39 
REMARK   14  A    between atoms: O_60  and  C_40 
REMARK   15  A    between atoms: O_61  and  C_41 
REMARK   16  A    between atoms: O_58  and  C_42 
ROOT
ATOM      1  C   UNL d   1       2.771   1.236  -0.081  0.00  0.00     0.046 A 
ATOM      2  C   UNL d   1      -2.874   0.979   0.034  0.00  0.00     0.046 A 
ATOM      3  C   UNL d   1      -1.260   2.848   0.119  0.00  0.00     0.046 A 
ATOM      4  C   UNL d   1       1.011   2.970   0.111  0.00  0.00     0.046 A 
ATOM      5  C   UNL d   1       1.233  -2.826   0.125  0.00  0.00     0.046 A 
ATOM      6  C   UNL d   1      -1.052  -2.925   0.111  0.00  0.00     0.046 A 
ATOM      7  C   UNL d   1      -2.584   2.296   0.065  0.00  0.00     0.028 A 
ATOM      8  C   UNL d   1       2.396   2.543   0.002  0.00  0.00     0.028 A 
ATOM      9  N   UNL d   1      -2.006  -0.095   0.063  0.00  0.00    -0.355 N 
ATOM     10  HN  UNL d   1      -0.987  -0.066   0.095  1.00  0.00     0.166 HD
ATOM     11  N   UNL d   1       1.973   0.099   0.010  0.00  0.00    -0.355 N 
ATOM     12  HN  UNL d   1       0.956   0.065   0.077  1.00  0.00     0.166 HD
ATOM     13  C   UNL d   1       2.504  -2.385   0.058  0.00  0.00     0.028 A 
ATOM     14  C   UNL d   1      -2.355  -2.599   0.059  0.00  0.00     0.028 A 
ATOM     15  C   UNL d   1       2.797  -0.921  -0.006  0.00  0.00     0.046 A 
ATOM     16  C   UNL d   1      -2.768  -1.157   0.040  0.00  0.00     0.046 A 
ATOM     17  N   UNL d   1       0.060  -2.119   0.152  0.00  0.00    -0.355 N 
ATOM     18  N   UNL d   1      -0.083   2.116   0.058  0.00  0.00    -0.355 N 
ATOM     19  C   UNL d   1      -4.223   0.452  -0.018  0.00  0.00     0.033 A 
ATOM     20  C   UNL d   1       4.131   0.767  -0.249  0.00  0.00     0.033 A 
ATOM     21  C   UNL d   1      -0.903   4.179   0.226  0.00  0.00     0.033 A 
ATOM     22  C   UNL d   1      -0.521  -4.281   0.122  0.00  0.00     0.033 A 
ATOM     23  C   UNL d   1       0.820  -4.224   0.137  0.00  0.00     0.033 A 
ATOM     24  C   UNL d   1       0.491   4.248   0.266  0.00  0.00     0.033 A 
ATOM     25  C   UNL d   1      -4.204  -0.867  -0.017  0.00  0.00     0.033 A 
ATOM     26  C   UNL d   1       4.213  -0.554  -0.134  0.00  0.00     0.033 A 
ATOM     27  H   UNL d   1       0.012  -1.106   0.092  0.00  0.00     0.166 HD
ATOM     28  H   UNL d   1      -0.029   1.107  -0.021  0.00  0.00     0.166 HD
ENDROOT
BRANCH   7  29
ATOM     29  C   UNL d   1      -3.737   3.242   0.027  0.00  0.00    -0.016 A 
ATOM     30  C   UNL d   1      -4.366   3.652   1.207  0.00  0.00     0.052 A 
ATOM     31  C   UNL d   1      -5.444   4.550   1.175  0.00  0.00     0.105 A 
ATOM     32  C   UNL d   1      -5.897   5.035  -0.071  0.00  0.00     0.135 A 
ATOM     33  C   UNL d   1      -5.250   4.629  -1.262  0.00  0.00     0.105 A 
ATOM     34  C   UNL d   1      -4.169   3.744  -1.200  0.00  0.00     0.052 A 
BRANCH  31  35
ATOM     35  O   UNL d   1      -6.056   5.005   2.313  0.00  0.00    -0.353 OA
ATOM     36  C   UNL d   1      -5.605   4.504   3.565  0.00  0.00     0.210 C 
ENDBRANCH  31  35
BRANCH  32  37
ATOM     37  O   UNL d   1      -6.910   5.955  -0.245  0.00  0.00    -0.351 OA
ATOM     38  C   UNL d   1      -8.022   5.876   0.638  0.00  0.00     0.210 C 
ENDBRANCH  32  37
BRANCH  33  39
ATOM     39  O   UNL d   1      -5.713   5.148  -2.450  0.00  0.00    -0.353 OA
ATOM     40  C   UNL d   1      -5.363   4.421  -3.625  0.00  0.00     0.210 C 
ENDBRANCH  33  39
ENDBRANCH   7  29
BRANCH  14  41
ATOM     41  C   UNL d   1      -3.387  -3.658   0.029  0.00  0.00    -0.016 A 
ATOM     42  C   UNL d   1      -3.836  -4.229   1.225  0.00  0.00     0.052 A 
ATOM     43  C   UNL d   1      -4.837  -5.213   1.227  0.00  0.00     0.105 A 
ATOM     44  C   UNL d   1      -5.411  -5.622   0.001  0.00  0.00     0.135 A 
ATOM     45  C   UNL d   1      -4.978  -5.007  -1.197  0.00  0.00     0.105 A 
ATOM     46  C   UNL d   1      -3.951  -4.060  -1.179  0.00  0.00     0.052 A 
BRANCH  43  47
ATOM     47  O   UNL d   1      -5.296  -5.783   2.384  0.00  0.00    -0.353 OA
ATOM     48  C   UNL d   1      -4.709  -5.402   3.621  0.00  0.00     0.210 C 
ENDBRANCH  43  47
BRANCH  44  49
ATOM     49  O   UNL d   1      -6.353  -6.604  -0.168  0.00  0.00    -0.351 OA
ATOM     50  C   UNL d   1      -6.838  -7.341   0.940  0.00  0.00     0.210 C 
ENDBRANCH  44  49
BRANCH  45  51
ATOM     51  O   UNL d   1      -5.439  -5.271  -2.466  0.00  0.00    -0.353 OA
ATOM     52  C   UNL d   1      -6.839  -5.507  -2.587  0.00  0.00     0.210 C 
ENDBRANCH  45  51
ENDBRANCH  14  41
BRANCH   8  53
ATOM     53  C   UNL d   1       3.480   3.608  -0.010  0.00  0.00    -0.016 C 
ATOM     54  C   UNL d   1       3.342   4.753  -0.808  0.00  0.00     0.052 C 
ATOM     55  C   UNL d   1       4.237   5.833  -0.735  0.00  0.00     0.105 C 
ATOM     56  C   UNL d   1       5.414   5.706   0.032  0.00  0.00     0.135 C 
ATOM     57  C   UNL d   1       5.586   4.539   0.805  0.00  0.00     0.105 C 
ATOM     58  C   UNL d   1       4.598   3.547   0.825  0.00  0.00     0.052 C 
BRANCH  55  59
ATOM     59  O   UNL d   1       4.001   7.014  -1.393  0.00  0.00    -0.353 OA
ATOM     60  C   UNL d   1       2.728   7.218  -1.996  0.00  0.00     0.210 C 
ENDBRANCH  55  59
BRANCH  56  61
ATOM     61  O   UNL d   1       6.448   6.603   0.090  0.00  0.00    -0.351 OA
ATOM     62  C   UNL d   1       6.378   7.820  -0.633  0.00  0.00     0.210 C 
ENDBRANCH  56  61
BRANCH  57  63
ATOM     63  O   UNL d   1       6.694   4.183   1.535  0.00  0.00    -0.353 OA
ATOM     64  C   UNL d   1       7.355   5.225   2.238  0.00  0.00     0.210 C 
ENDBRANCH  57  63
ENDBRANCH   8  53
BRANCH  13  65
ATOM     65  C   UNL d   1       3.602  -3.368  -0.017  0.00  0.00    -0.016 A 
ATOM     66  C   UNL d   1       4.029  -3.840  -1.270  0.00  0.00     0.052 A 
ATOM     67  C   UNL d   1       5.093  -4.741  -1.374  0.00  0.00     0.105 A 
ATOM     68  C   UNL d   1       5.731  -5.199  -0.203  0.00  0.00     0.135 A 
ATOM     69  C   UNL d   1       5.299  -4.719   1.063  0.00  0.00     0.105 A 
ATOM     70  C   UNL d   1       4.241  -3.810   1.137  0.00  0.00     0.052 A 
BRANCH  67  71
ATOM     71  O   UNL d   1       5.569  -5.174  -2.586  0.00  0.00    -0.353 OA
ATOM     72  C   UNL d   1       4.921  -4.716  -3.766  0.00  0.00     0.210 C 
ENDBRANCH  67  71
BRANCH  68  73
ATOM     73  O   UNL d   1       6.817  -6.045  -0.167  0.00  0.00    -0.351 OA
ATOM     74  C   UNL d   1       6.867  -7.084  -1.141  0.00  0.00     0.210 C 
ENDBRANCH  68  73
BRANCH  69  75
ATOM     75  O   UNL d   1       5.980  -5.170   2.170  0.00  0.00    -0.353 OA
ATOM     76  C   UNL d   1       5.301  -5.049   3.417  0.00  0.00     0.210 C 
ENDBRANCH  69  75
ENDBRANCH  13  65
TORSDOF 16
