REMARK  4 active torsions:
REMARK  status: ('A' for Active; 'I' for Inactive)
REMARK    1  A    between atoms: C_10  and  C_3 
REMARK    2  A    between atoms: C_13  and  N_7 
REMARK    3  A    between atoms: N_16  and  C_8 
REMARK       I    between atoms: N_15  and  C_10 
REMARK    4  A    between atoms: N_17  and  N_15 
ROOT
ATOM      1  C   UNL d   1      -0.379  -0.724  -0.017  0.00  0.00     0.080 A 
ATOM      2  C   UNL d   1      -0.358   0.695   0.021  0.00  0.00     0.023 A 
ATOM      3  C   UNL d   1       0.907   1.396   0.056  0.00  0.00     0.129 A 
ATOM      4  C   UNL d   1       0.855  -1.492  -0.004  0.00  0.00     0.281 A 
ATOM      5  N   UNL d   1       2.027   0.723   0.036  0.00  0.00    -0.285 N 
ATOM      6  HN  UNL d   1       2.915   1.225   0.062  1.00  0.00     0.188 HD
ATOM      7  N   UNL d   1       2.029  -0.688  -0.021  0.00  0.00    -0.219 N 
ATOM      8  C   UNL d   1      -1.661  -1.234  -0.070  0.00  0.00     0.084 A 
ATOM      9  C   UNL d   1      -1.627   1.229   0.009  0.00  0.00     0.067 A 
ATOM     10  S   UNL d   1      -2.829   0.015  -0.045  0.00  0.00    -0.083 SA
ATOM     11  O   UNL d   1       0.825  -2.720   0.049  0.00  0.00    -0.265 OA
ENDROOT
BRANCH   3  12
ATOM     12  C   UNL d   1       0.993   2.927   0.059  0.00  0.00     0.284 C 
ATOM     13  O   UNL d   1       0.117   3.613   0.564  0.00  0.00    -0.265 OA
ATOM     14  N   UNL d   1       2.114   3.430  -0.588  0.00  0.00    -0.288 N 
ATOM     15  H   UNL d   1       2.870   2.791  -0.837  0.00  0.00     0.183 HD
BRANCH  14  16
ATOM     16  N   UNL d   1       2.316   4.828  -0.658  0.00  0.00    -0.247 NA
ATOM     17  H   UNL d   1       1.586   5.275  -0.082  0.00  0.00     0.143 HD
ATOM     18  H   UNL d   1       2.104   5.136  -1.612  0.00  0.00     0.143 HD
ENDBRANCH  14  16
ENDBRANCH   3  12
BRANCH   7  19
ATOM     19  C   UNL d   1       3.346  -1.260  -0.125  0.00  0.00     0.060 A 
ATOM     20  C   UNL d   1       3.564  -2.543  -0.655  0.00  0.00     0.031 A 
ATOM     21  C   UNL d   1       4.851  -3.081  -0.763  0.00  0.00     0.002 A 
ATOM     22  C   UNL d   1       5.951  -2.349  -0.336  0.00  0.00     0.000 A 
ATOM     23  C   UNL d   1       5.765  -1.075   0.191  0.00  0.00     0.002 A 
ATOM     24  C   UNL d   1       4.476  -0.532   0.287  0.00  0.00     0.031 A 
ENDBRANCH   7  19
BRANCH   8  25
ATOM     25  N   UNL d   1      -2.033  -2.527  -0.139  0.00  0.00    -0.393 N 
ATOM     26  H   UNL d   1      -1.338  -3.257   0.026  0.00  0.00     0.156 HD
ATOM     27  H   UNL d   1      -2.991  -2.797   0.062  0.00  0.00     0.156 HD
ENDBRANCH   8  25
TORSDOF 4
