REMARK  3 active torsions:
REMARK  status: ('A' for Active; 'I' for Inactive)
REMARK    1  A    between atoms: C_9  and  C_4 
REMARK    2  A    between atoms: C_8  and  C_9 
REMARK       I    between atoms: N_10  and  C_8 
REMARK    3  A    between atoms: C_12  and  N_10 
ROOT
ATOM      1  C   UNL d   1      -0.447   3.272  -0.015  0.00  0.00     0.229 C 
ATOM      2  N   UNL d   1      -1.713   2.724  -0.003  0.00  0.00    -0.327 N 
ATOM      3  O   UNL d   1       0.593   2.626   0.140  0.00  0.00    -0.273 OA
ATOM      4  H   UNL d   1      -2.473   3.338  -0.300  0.00  0.00     0.169 HD
ENDROOT
BRANCH   1   5
ATOM      5  C   UNL d   1      -0.323   4.756  -0.297  0.00  0.00     0.182 C 
BRANCH   5   6
ATOM      6  C   UNL d   1      -1.539   5.593  -0.214  0.00  0.00     0.118 A 
ATOM      7  N   UNL d   1      -1.482   6.892   0.222  0.00  0.00    -0.270 N 
ATOM      8  N   UNL d   1      -2.697   7.395   0.074  0.00  0.00    -0.005 NA
ATOM      9  HN  UNL d   1      -0.662   7.376   0.588  1.00  0.00     0.185 HD
ATOM     10  N   UNL d   1      -3.420   6.398  -0.447  0.00  0.00    -0.225 N 
ATOM     11  N   UNL d   1      -2.762   5.237  -0.649  0.00  0.00    -0.275 N 
ATOM     12  H   UNL d   1      -4.402   6.521  -0.681  0.00  0.00     0.205 HD
ATOM     13  HN  UNL d   1      -3.095   4.348  -1.022  1.00  0.00     0.189 HD
ENDBRANCH   5   6
ENDBRANCH   1   5
BRANCH   2  14
ATOM     14  C   UNL d   1      -2.066   1.395   0.321  0.00  0.00     0.034 A 
ATOM     15  C   UNL d   1      -1.163   0.453   0.827  0.00  0.00     0.032 A 
ATOM     16  C   UNL d   1      -1.584  -0.842   1.144  0.00  0.00     0.044 A 
ATOM     17  C   UNL d   1      -2.911  -1.199   0.956  0.00  0.00     0.116 A 
ATOM     18  C   UNL d   1      -3.827  -0.279   0.459  0.00  0.00     0.044 A 
ATOM     19  F   UNL d   1      -3.315  -2.438   1.260  0.00  0.00    -0.206 F 
ATOM     20  C   UNL d   1      -3.405   1.017   0.144  0.00  0.00     0.032 A 
ENDBRANCH   2  14
TORSDOF 3
