REMARK  3 active torsions:
REMARK  status: ('A' for Active; 'I' for Inactive)
REMARK    1  A    between atoms: S_6  and  C_2 
REMARK    2  A    between atoms: C_9  and  C_3 
REMARK    3  A    between atoms: O_17  and  C_13 
ROOT
ATOM      1  C   UNL d   1      -0.608   0.016  -0.450  0.00  0.00     0.082 A 
ATOM      2  C   UNL d   1       0.325   1.028  -0.314  0.00  0.00     0.093 A 
ATOM      3  C   UNL d   1      -0.085  -1.266  -0.006  0.00  0.00     0.003 A 
ATOM      4  S   UNL d   1       1.776   0.478   0.396  0.00  0.00    -0.090 SA
ATOM      5  C   UNL d   1       1.194  -1.122   0.502  0.00  0.00     0.065 A 
ATOM      6  C   UNL d   1      -1.930   0.190  -0.985  0.00  0.00     0.102 C 
ATOM      7  N   UNL d   1      -3.007   0.236  -1.420  0.00  0.00    -0.191 NA
ENDROOT
BRANCH   2   8
ATOM      8  S   UNL d   1       0.167   2.680  -0.875  0.00  0.00     0.054 S 
ATOM      9  O   UNL d   1      -1.251   2.895  -1.302  0.00  0.00    -0.253 OA
ATOM     10  C   UNL d   1       0.446   3.562   0.672  0.00  0.00     0.133 C 
ENDBRANCH   2   8
BRANCH   3  11
ATOM     11  C   UNL d   1      -0.722  -2.590  -0.079  0.00  0.00    -0.024 A 
ATOM     12  C   UNL d   1      -1.504  -2.940  -1.189  0.00  0.00     0.015 A 
ATOM     13  C   UNL d   1      -2.144  -4.183  -1.265  0.00  0.00     0.037 A 
ATOM     14  C   UNL d   1      -1.988  -5.117  -0.245  0.00  0.00     0.068 A 
ATOM     15  C   UNL d   1      -1.180  -4.795   0.847  0.00  0.00     0.037 A 
ATOM     16  C   UNL d   1      -0.559  -3.542   0.936  0.00  0.00     0.015 A 
BRANCH  14  17
ATOM     17  O   UNL d   1      -2.559  -6.359  -0.203  0.00  0.00    -0.356 OA
ATOM     18  C   UNL d   1      -3.442  -6.689  -1.270  0.00  0.00     0.210 C 
ENDBRANCH  14  17
ENDBRANCH   3  11
TORSDOF 3
