REMARK  5 active torsions:
REMARK  status: ('A' for Active; 'I' for Inactive)
REMARK    1  A    between atoms: C_3  and  C_4 
REMARK    2  A    between atoms: C_4  and  C_10 
REMARK    3  A    between atoms: S_5  and  C_11 
REMARK    4  A    between atoms: C_6  and  S_5 
REMARK    5  A    between atoms: C_11  and  C_12 
ROOT
ATOM      1  N   UNL d   1       1.740   0.472  -1.380  0.00  0.00    -0.197 NA
ATOM      2  C   UNL d   1       2.677   0.266  -0.729  0.00  0.00     0.067 C 
ATOM      3  C   UNL d   1       3.837  -0.022   0.116  0.00  0.00     0.207 C 
ENDROOT
BRANCH   3   4
ATOM      4  C   UNL d   1       4.380   1.227   0.762  0.00  0.00     0.172 C 
ATOM      5  O   UNL d   1       5.552   1.565   0.594  0.00  0.00    -0.291 OA
BRANCH   4   6
ATOM      6  C   UNL d   1       3.502   2.065   1.632  0.00  0.00     0.011 A 
ATOM      7  C   UNL d   1       2.410   1.548   2.352  0.00  0.00     0.023 A 
ATOM      8  C   UNL d   1       1.601   2.393   3.145  0.00  0.00    -0.048 A 
ATOM      9  C   UNL d   1       1.948   3.753   3.217  0.00  0.00     0.008 A 
ATOM     10  C   UNL d   1       3.034   4.266   2.508  0.00  0.00     0.002 A 
ATOM     11  C   UNL d   1       3.811   3.426   1.720  0.00  0.00     0.015 A 
BRANCH   8  12
ATOM     12  C   UNL d   1       0.422   1.794   3.906  0.00  0.00     0.118 C 
BRANCH  12  13
ATOM     13  S   UNL d   1      -0.758   3.014   4.593  0.00  0.00    -0.124 SA
BRANCH  13  14
ATOM     14  C   UNL d   1      -1.931   1.964   5.443  0.00  0.00     0.022 A 
ATOM     15  C   UNL d   1      -2.152   2.036   6.831  0.00  0.00     0.050 A 
ATOM     16 CL   UNL d   1      -1.218   3.057   7.872  0.00  0.00    -0.083 Cl
ATOM     17  C   UNL d   1      -3.164   1.274   7.428  0.00  0.00     0.025 A 
ATOM     18  C   UNL d   1      -3.967   0.441   6.651  0.00  0.00     0.002 A 
ATOM     19  C   UNL d   1      -3.760   0.366   5.276  0.00  0.00     0.001 A 
ATOM     20  C   UNL d   1      -2.752   1.125   4.676  0.00  0.00     0.020 A 
ENDBRANCH  13  14
ENDBRANCH  12  13
ENDBRANCH   8  12
ENDBRANCH   4   6
ENDBRANCH   3   4
TORSDOF 5
