REMARK  2 active torsions:
REMARK  status: ('A' for Active; 'I' for Inactive)
REMARK    1  A    between atoms: N_2  and  C_1 
REMARK    2  A    between atoms: N_4  and  C_3 
REMARK       I    between atoms: C_7  and  N_4 
ROOT
ATOM      1  C   UNL d   1       2.325  -1.344  -0.093  0.00  0.00     0.130 A 
ATOM      2  C   UNL d   1       3.156  -0.214  -0.134  0.00  0.00     0.068 A 
ATOM      3  C   UNL d   1       0.928  -1.240  -0.048  0.00  0.00     0.057 A 
ATOM      4  C   UNL d   1       2.545   1.047  -0.112  0.00  0.00     0.033 A 
ATOM      5  C   UNL d   1       0.353   0.027  -0.018  0.00  0.00     0.013 A 
ATOM      6  C   UNL d   1       1.152   1.167  -0.049  0.00  0.00     0.021 A 
ATOM      7 BR   UNL d   1      -1.528   0.200   0.052  0.00  0.00    -0.051 Br
ENDROOT
BRANCH   2   8
ATOM      8  N   UNL d   1       4.567  -0.326  -0.163  0.00  0.00    -0.325 N 
ATOM      9  C   UNL d   1       5.390   0.511  -0.890  0.00  0.00     0.218 C 
ATOM     10  O   UNL d   1       4.999   1.398  -1.652  0.00  0.00    -0.274 OA
ATOM     11  C   UNL d   1       6.855   0.254  -0.688  0.00  0.00     0.117 C 
ATOM     12  H   UNL d   1       4.970  -1.211   0.146  0.00  0.00     0.169 HD
ENDBRANCH   2   8
BRANCH   1  13
ATOM     13  N   UNL d   1       2.899  -2.673  -0.220  0.00  0.00    -0.113 N 
ATOM     14  O   UNL d   1       3.891  -2.932   0.481  0.00  0.00    -0.532 OA
ATOM     15  O   UNL d   1       2.379  -3.445  -1.036  0.00  0.00    -0.532 OA
ENDBRANCH   1  13
TORSDOF 2
