REMARK  3 active torsions:
REMARK  status: ('A' for Active; 'I' for Inactive)
REMARK    1  A    between atoms: C_2  and  C_1 
REMARK       I    between atoms: N_3  and  C_1 
REMARK    2  A    between atoms: C_10  and  N_3 
REMARK    3  A    between atoms: C_4  and  C_8 
ROOT
ATOM      1  C   UNL d   1      -3.969  -0.767  -1.194  0.00  0.00    -0.035 A 
ATOM      2  C   UNL d   1      -1.139  -0.868  -1.024  0.00  0.00     0.035 A 
ATOM      3  C   UNL d   1      -3.218   0.390  -0.928  0.00  0.00     0.011 A 
ATOM      4  C   UNL d   1      -3.274  -1.970  -1.385  0.00  0.00     0.011 A 
ATOM      5  C   UNL d   1      -1.878  -2.017  -1.306  0.00  0.00     0.030 A 
ATOM      6  C   UNL d   1      -1.822   0.337  -0.835  0.00  0.00     0.030 A 
ENDROOT
BRANCH   2   7
ATOM      7  N   UNL d   1       0.265  -0.863  -0.868  0.00  0.00    -0.323 N 
ATOM      8  C   UNL d   1       1.131  -1.903  -1.155  0.00  0.00     0.259 C 
ATOM      9  O   UNL d   1       0.832  -2.930  -1.759  0.00  0.00    -0.267 OA
ATOM     10  H   UNL d   1       0.665  -0.009  -0.493  0.00  0.00     0.169 HD
BRANCH   8  11
ATOM     11  C   UNL d   1       2.544  -1.756  -0.703  0.00  0.00     0.070 A 
ATOM     12  C   UNL d   1       2.984  -0.717   0.119  0.00  0.00     0.132 A 
ATOM     13  F   UNL d   1       2.148   0.259   0.509  0.00  0.00    -0.205 F 
ATOM     14  C   UNL d   1       4.304  -0.662   0.567  0.00  0.00     0.043 A 
ATOM     15  C   UNL d   1       5.210  -1.653   0.188  0.00  0.00     0.003 A 
ATOM     16  C   UNL d   1       4.793  -2.692  -0.642  0.00  0.00     0.001 A 
ATOM     17  C   UNL d   1       3.469  -2.744  -1.084  0.00  0.00     0.020 A 
ENDBRANCH   8  11
ENDBRANCH   2   7
BRANCH   1  18
ATOM     18  C   UNL d   1      -5.482  -0.765  -1.251  0.00  0.00     0.141 C 
ATOM     19  S   UNL d   1      -6.135   0.329  -2.556  0.00  0.00    -0.148 SA
ATOM     20  C   UNL d   1      -7.506   1.006  -1.589  0.00  0.00     0.085 C 
ATOM     21  C   UNL d   1      -7.007   1.209  -0.173  0.00  0.00     0.085 C 
ATOM     22  S   UNL d   1      -6.229  -0.335   0.359  0.00  0.00    -0.148 SA
ENDBRANCH   1  18
TORSDOF 3
