REMARK  3 active torsions:
REMARK  status: ('A' for Active; 'I' for Inactive)
REMARK    1  A    between atoms: C_15  and  C_8 
REMARK    2  A    between atoms: C_14  and  C_10 
REMARK    3  A    between atoms: C_16  and  C_17 
ROOT
ATOM      1  C   UNL d   1      -0.161  -1.108   0.048  0.00  0.00     0.082 A 
ATOM      2  C   UNL d   1      -0.340  -2.525   0.083  0.00  0.00     0.191 A 
ATOM      3  N   UNL d   1      -0.973  -3.189  -0.860  0.00  0.00    -0.318 N 
ATOM      4  HN  UNL d   1      -1.406  -2.822  -1.708  1.00  0.00     0.169 HD
ATOM      5  S   UNL d   1       0.769  -0.268   1.214  0.00  0.00    -0.065 SA
ATOM      6  N   UNL d   1      -0.327   1.111  -0.652  0.00  0.00    -0.352 N 
ATOM      7  HN  UNL d   1      -0.642   1.896  -1.221  1.00  0.00     0.166 HD
ATOM      8  C   UNL d   1       0.461   1.216   0.402  0.00  0.00     0.085 A 
ATOM      9  C   UNL d   1      -0.668  -0.210  -0.878  0.00  0.00     0.027 A 
ATOM     10  C   UNL d   1      -0.912  -4.492  -0.433  0.00  0.00     0.138 A 
ATOM     11  N   UNL d   1      -0.270  -4.649   0.735  0.00  0.00    -0.242 N 
ATOM     12  HN  UNL d   1      -0.103  -5.512   1.251  1.00  0.00     0.196 HD
ATOM     13  O   UNL d   1       0.115  -3.353   1.076  0.00  0.00    -0.216 OA
ATOM     14  C   UNL d   1      -1.517  -0.516  -2.062  0.00  0.00     0.070 C 
ENDROOT
BRANCH  10  15
ATOM     15  C   UNL d   1      -1.502  -5.570  -1.213  0.00  0.00     0.010 A 
ATOM     16  C   UNL d   1      -2.079  -5.304  -2.461  0.00  0.00     0.016 A 
ATOM     17  C   UNL d   1      -2.656  -6.330  -3.217  0.00  0.00     0.009 A 
ATOM     18  C   UNL d   1      -2.689  -7.654  -2.747  0.00  0.00    -0.051 A 
ATOM     19  C   UNL d   1      -2.093  -7.908  -1.500  0.00  0.00     0.009 A 
ATOM     20  C   UNL d   1      -1.510  -6.884  -0.743  0.00  0.00     0.016 A 
BRANCH  18  21
ATOM     21  C   UNL d   1      -3.391  -8.752  -3.565  0.00  0.00    -0.024 C 
ATOM     22  C   UNL d   1      -3.366 -10.133  -2.874  0.00  0.00     0.019 C 
ATOM     23  C   UNL d   1      -4.872  -8.367  -3.775  0.00  0.00     0.019 C 
ATOM     24  C   UNL d   1      -2.719  -8.917  -4.945  0.00  0.00     0.019 C 
ENDBRANCH  18  21
ENDBRANCH  10  15
BRANCH   8  25
ATOM     25  C   UNL d   1       1.026   2.493   0.865  0.00  0.00    -0.002 A 
ATOM     26  C   UNL d   1       2.245   2.580   1.554  0.00  0.00     0.014 A 
ATOM     27  C   UNL d   1       2.778   3.824   1.907  0.00  0.00     0.001 A 
ATOM     28  C   UNL d   1       2.098   4.996   1.580  0.00  0.00     0.000 A 
ATOM     29  C   UNL d   1       0.880   4.927   0.909  0.00  0.00     0.001 A 
ATOM     30  C   UNL d   1       0.350   3.685   0.554  0.00  0.00     0.014 A 
ENDBRANCH   8  25
TORSDOF 3
