REMARK  7 active torsions:
REMARK  status: ('A' for Active; 'I' for Inactive)
REMARK    1  A    between atoms: C_6  and  C_1 
REMARK    2  A    between atoms: C_7  and  C_2 
REMARK    3  A    between atoms: C_16  and  N_3 
REMARK    4  A    between atoms: S_13  and  C_7 
REMARK    5  A    between atoms: C_9  and  C_11 
REMARK    6  A    between atoms: C_10  and  C_12 
REMARK    7  A    between atoms: C_14  and  S_13 
ROOT
ATOM      1  C   UNL d   1       0.474  -0.613   0.385  0.00  0.00     0.156 C 
ATOM      2  C   UNL d   1      -0.627  -1.237  -0.196  0.00  0.00     0.072 C 
ATOM      3  N   UNL d   1       0.449   0.700  -0.044  0.00  0.00    -0.251 N 
ATOM      4  N   UNL d   1      -0.733   0.999  -0.638  0.00  0.00    -0.303 N 
ATOM      5  HN  UNL d   1      -1.087   1.920  -0.896  1.00  0.00     0.186 HD
ATOM      6  C   UNL d   1      -1.329  -0.178  -0.809  0.00  0.00     0.126 C 
ENDROOT
BRANCH   2   7
ATOM      7  C   UNL d   1      -1.032  -2.626  -0.077  0.00  0.00     0.227 C 
ATOM      8  O   UNL d   1      -1.055  -3.214   0.991  0.00  0.00    -0.279 OA
BRANCH   7   9
ATOM      9  S   UNL d   1      -1.482  -3.334  -1.618  0.00  0.00    -0.047 SA
BRANCH   9  10
ATOM     10  C   UNL d   1      -1.710  -5.094  -1.425  0.00  0.00     0.010 A 
ATOM     11  C   UNL d   1      -1.437  -5.851  -0.284  0.00  0.00     0.035 A 
ATOM     12  C   UNL d   1      -1.667  -7.241  -0.248  0.00  0.00     0.050 A 
ATOM     13  C   UNL d   1      -2.148  -7.886  -1.396  0.00  0.00     0.032 A 
ATOM     14  C   UNL d   1      -2.410  -7.160  -2.564  0.00  0.00     0.050 A 
ATOM     15  C   UNL d   1      -2.195  -5.769  -2.559  0.00  0.00     0.035 A 
BRANCH  12  16
ATOM     16  C   UNL d   1      -1.378  -8.017   1.017  0.00  0.00     0.417 C 
ATOM     17  F   UNL d   1      -1.842  -9.297   0.981  0.00  0.00    -0.166 F 
ATOM     18  F   UNL d   1      -0.045  -8.109   1.273  0.00  0.00    -0.166 F 
ATOM     19  F   UNL d   1      -1.939  -7.450   2.120  0.00  0.00    -0.166 F 
ENDBRANCH  12  16
BRANCH  14  20
ATOM     20  C   UNL d   1      -2.930  -7.839  -3.807  0.00  0.00     0.417 C 
ATOM     21  F   UNL d   1      -2.927  -9.198  -3.725  0.00  0.00    -0.166 F 
ATOM     22  F   UNL d   1      -4.212  -7.483  -4.095  0.00  0.00    -0.166 F 
ATOM     23  F   UNL d   1      -2.199  -7.531  -4.915  0.00  0.00    -0.166 F 
ENDBRANCH  14  20
ENDBRANCH   9  10
ENDBRANCH   7   9
ENDBRANCH   2   7
BRANCH   1  24
ATOM     24  C   UNL d   1       1.459  -1.090   1.373  0.00  0.00     0.435 C 
ATOM     25  F   UNL d   1       1.225  -2.359   1.781  0.00  0.00    -0.165 F 
ATOM     26  F   UNL d   1       2.726  -1.098   0.894  0.00  0.00    -0.165 F 
ATOM     27  F   UNL d   1       1.457  -0.317   2.487  0.00  0.00    -0.165 F 
ENDBRANCH   1  24
BRANCH   3  28
ATOM     28  C   UNL d   1       1.456   1.701  -0.001  0.00  0.00     0.057 A 
ATOM     29  C   UNL d   1       2.790   1.391  -0.290  0.00  0.00     0.033 A 
ATOM     30  C   UNL d   1       3.761   2.396  -0.274  0.00  0.00     0.026 A 
ATOM     31  C   UNL d   1       3.400   3.708   0.025  0.00  0.00     0.034 A 
ATOM     32  C   UNL d   1       2.068   4.031   0.279  0.00  0.00     0.026 A 
ATOM     33 CL   UNL d   1       4.603   4.936   0.057  0.00  0.00    -0.084 Cl
ATOM     34  C   UNL d   1       1.089   3.032   0.244  0.00  0.00     0.033 A 
ENDBRANCH   3  28
TORSDOF 7
