REMARK  2 active torsions:
REMARK  status: ('A' for Active; 'I' for Inactive)
REMARK    1  A    between atoms: C_2  and  S_1 
REMARK    2  A    between atoms: O_7  and  S_1 
ROOT
ATOM      1  C   UNL d   1       0.382   0.141  -1.710  0.00  0.00     0.085 A 
ATOM      2  C   UNL d   1       0.229   1.453  -2.306  0.00  0.00     0.019 A 
ATOM      3  C   UNL d   1       0.525   2.774  -1.797  0.00  0.00     0.046 A 
ATOM      4  C   UNL d   1      -0.302   1.442  -3.634  0.00  0.00    -0.023 A 
ATOM      5 CL   UNL d   1       1.288   3.111  -0.279  0.00  0.00    -0.083 Cl
ATOM      6  C   UNL d   1       0.085  -1.044  -2.418  0.00  0.00     0.026 A 
ATOM      7  C   UNL d   1      -0.396  -0.991  -3.712  0.00  0.00     0.002 A 
ATOM      8  C   UNL d   1      -0.294   3.873  -3.794  0.00  0.00     0.003 A 
ATOM      9  C   UNL d   1       0.256   3.944  -2.529  0.00  0.00     0.025 A 
ATOM     10  C   UNL d   1      -0.597   0.245  -4.305  0.00  0.00     0.012 A 
ATOM     11  C   UNL d   1      -0.558   2.628  -4.341  0.00  0.00     0.012 A 
ENDROOT
BRANCH   1  12
ATOM     12  S   UNL d   1       0.860  -0.136  -0.010  0.00  0.00     0.130 S 
ATOM     13  O   UNL d   1       2.224   0.317   0.149  0.00  0.00    -0.598 OA
ATOM     14  O   UNL d   1       0.486  -1.489   0.350  0.00  0.00    -0.598 OA
BRANCH  12  15
ATOM     15  O   UNL d   1      -0.091   0.837   0.856  0.00  0.00    -0.292 OA
ATOM     16  H   UNL d   1       0.419   1.649   1.066  0.00  0.00     0.232 HD
ENDBRANCH  12  15
ENDBRANCH   1  12
TORSDOF 2
