REMARK  5 active torsions:
REMARK  status: ('A' for Active; 'I' for Inactive)
REMARK    1  A    between atoms: C_11  and  C_2 
REMARK    2  A    between atoms: N_12  and  C_5 
REMARK    3  A    between atoms: C_14  and  C_8 
REMARK    4  A    between atoms: O_19  and  C_14 
REMARK    5  A    between atoms: C_22  and  O_19 
ROOT
ATOM      1  C   UNL d   1       0.184  -0.907   0.029  0.00  0.00     0.061 A 
ATOM      2  C   UNL d   1       1.577  -1.214  -0.016  0.00  0.00     0.046 A 
ATOM      3  N   UNL d   1       2.354  -0.137  -0.188  0.00  0.00    -0.300 N 
ATOM      4  HN  UNL d   1       3.361  -0.099  -0.347  1.00  0.00     0.187 HD
ATOM      5  C   UNL d   1      -1.058  -1.617   0.075  0.00  0.00     0.064 A 
ATOM      6  C   UNL d   1       0.175   0.485  -0.008  0.00  0.00     0.136 A 
ATOM      7  N   UNL d   1       1.480   0.883  -0.098  0.00  0.00    -0.280 N 
ATOM      8  C   UNL d   1      -2.195  -0.769   0.035  0.00  0.00     0.082 A 
ATOM      9  N   UNL d   1      -0.892   1.303   0.037  0.00  0.00    -0.349 N 
ATOM     10  HN  UNL d   1      -0.828   2.321   0.067  1.00  0.00     0.167 HD
ATOM     11  C   UNL d   1      -2.055   0.623   0.039  0.00  0.00     0.110 A 
ATOM     12  C   UNL d   1       1.971   2.238  -0.075  0.00  0.00     0.179 C 
ENDROOT
BRANCH   5  13
ATOM     13  N   UNL d   1      -1.074  -3.018   0.148  0.00  0.00    -0.379 N 
ATOM     14  C   UNL d   1      -2.146  -3.694   0.899  0.00  0.00     0.123 C 
ATOM     15  C   UNL d   1      -1.704  -5.116   1.253  0.00  0.00     0.020 C 
ATOM     16  C   UNL d   1      -1.305  -5.894  -0.001  0.00  0.00     0.003 C 
ATOM     17  C   UNL d   1      -0.252  -5.127  -0.794  0.00  0.00     0.020 C 
ATOM     18  C   UNL d   1      -0.726  -3.703  -1.111  0.00  0.00     0.123 C 
ENDBRANCH   5  13
BRANCH   8  19
ATOM     19  C   UNL d   1      -3.562  -1.251  -0.242  0.00  0.00     0.297 C 
ATOM     20  O   UNL d   1      -3.832  -2.069  -1.098  0.00  0.00    -0.259 OA
BRANCH  19  21
ATOM     21  O   UNL d   1      -4.456  -0.577   0.526  0.00  0.00    -0.318 OA
BRANCH  21  22
ATOM     22  C   UNL d   1      -5.835  -0.822   0.199  0.00  0.00     0.174 C 
ATOM     23  C   UNL d   1      -6.216  -0.086  -1.076  0.00  0.00     0.034 C 
ENDBRANCH  21  22
ENDBRANCH  19  21
ENDBRANCH   8  19
BRANCH   2  24
ATOM     24  C   UNL d   1       2.154  -2.616   0.105  0.00  0.00     0.038 A 
ATOM     25  C   UNL d   1       3.648  -2.836   0.092  0.00  0.00     0.011 A 
ATOM     26  C   UNL d   1       2.836  -3.230  -1.099  0.00  0.00     0.011 A 
ENDBRANCH   2  24
TORSDOF 5
