REMARK  6 active torsions:
REMARK  status: ('A' for Active; 'I' for Inactive)
REMARK    1  A    between atoms: C_2  and  S_1 
REMARK    2  A    between atoms: N_7  and  S_1 
REMARK    3  A    between atoms: C_13  and  N_7 
REMARK    4  A    between atoms: C_10  and  S_12 
REMARK    5  A    between atoms: S_12  and  C_16 
REMARK    6  A    between atoms: C_16  and  C_13 
ROOT
ATOM      1  C   UNL d   1       0.473   1.765  -0.177  0.00  0.00     0.074 A 
ATOM      2  N   UNL d   1      -0.818   6.956  -0.805  0.00  0.00    -0.191 NA
ATOM      3  C   UNL d   1      -0.542   5.837  -0.665  0.00  0.00     0.099 C 
ATOM      4  C   UNL d   1      -0.342   2.151  -1.245  0.00  0.00     0.026 A 
ATOM      5  C   UNL d   1       0.954   2.710   0.735  0.00  0.00     0.026 A 
ATOM      6  C   UNL d   1      -0.196   4.455  -0.499  0.00  0.00     0.044 A 
ATOM      7  C   UNL d   1       0.620   4.057   0.569  0.00  0.00     0.024 A 
ATOM      8  C   UNL d   1      -0.676   3.498  -1.403  0.00  0.00     0.024 A 
ENDROOT
BRANCH   1   9
ATOM      9  S   UNL d   1       0.872   0.050   0.059  0.00  0.00     0.241 S 
ATOM     10  O   UNL d   1       0.344  -0.703  -1.058  0.00  0.00    -0.206 OA
ATOM     11  O   UNL d   1       0.547  -0.274   1.428  0.00  0.00    -0.206 OA
BRANCH   9  12
ATOM     12  N   UNL d   1       2.548   0.052  -0.053  0.00  0.00    -0.215 NA
ATOM     13  H   UNL d   1       2.966  -0.530   0.679  0.00  0.00     0.140 HD
BRANCH  12  14
ATOM     14  C   UNL d   1       3.145  -0.109  -1.391  0.00  0.00     0.114 C 
BRANCH  14  15
ATOM     15  C   UNL d   1       4.676  -0.108  -1.298  0.00  0.00     0.090 C 
BRANCH  15  16
ATOM     16  S   UNL d   1       5.263  -1.469  -0.214  0.00  0.00    -0.159 SA
BRANCH  16  17
ATOM     17  C   UNL d   1       7.102  -1.329  -0.373  0.00  0.00    -0.003 C 
ATOM     18  C   UNL d   1       7.591   0.004   0.204  0.00  0.00     0.026 C 
ATOM     19  C   UNL d   1       7.703  -2.483   0.448  0.00  0.00     0.026 C 
ATOM     20  C   UNL d   1       7.537  -1.482  -1.834  0.00  0.00     0.026 C 
ENDBRANCH  16  17
ENDBRANCH  15  16
ENDBRANCH  14  15
ENDBRANCH  12  14
ENDBRANCH   9  12
ENDBRANCH   1   9
TORSDOF 6
