REMARK  4 active torsions:
REMARK  status: ('A' for Active; 'I' for Inactive)
REMARK    1  A    between atoms: C_8  and  C_1 
REMARK    2  A    between atoms: N_12  and  C_2 
REMARK    3  A    between atoms: S_3  and  N_6 
REMARK    4  A    between atoms: C_13  and  S_3 
REMARK       I    between atoms: N_6  and  C_9 
REMARK       I    between atoms: C_9  and  N_12 
ROOT
ATOM      1  N   UNL d   1       1.389  -4.032   0.374  0.00  0.00    -0.265 N 
ATOM      2  HN  UNL d   1       1.763  -4.582  -0.400  1.00  0.00     0.180 HD
ATOM      3  C   UNL d   1       1.353  -2.635   0.268  0.00  0.00     0.332 C 
ATOM      4  N   UNL d   1       0.210  -2.055   0.752  0.00  0.00    -0.304 N 
ATOM      5  O   UNL d   1       2.266  -2.005  -0.251  0.00  0.00    -0.246 OA
ATOM      6  H   UNL d   1      -0.539  -2.741   0.752  0.00  0.00     0.171 HD
ENDROOT
BRANCH   4   7
ATOM      7  C   UNL d   1      -0.202  -0.782   0.413  0.00  0.00     0.097 A 
ATOM      8  C   UNL d   1      -0.831  -0.277  -0.770  0.00  0.00     0.097 A 
ATOM      9  N   UNL d   1      -1.284   0.969  -0.530  0.00  0.00    -0.258 N 
ATOM     10  O   UNL d   1      -0.927   1.294   0.757  0.00  0.00    -0.240 OA
ATOM     11  HN  UNL d   1      -1.797   1.562  -1.182  1.00  0.00     0.195 HD
ATOM     12  C   UNL d   1      -0.302   0.233   1.333  0.00  0.00     0.101 A 
ATOM     13  C   UNL d   1       0.058   0.376   2.755  0.00  0.00     0.081 C 
BRANCH   8  14
ATOM     14  C   UNL d   1      -1.062  -0.902  -2.080  0.00  0.00     0.038 A 
ATOM     15  C   UNL d   1      -1.594  -2.201  -2.215  0.00  0.00     0.048 A 
ATOM     16 CL   UNL d   1      -2.125  -3.169  -0.878  0.00  0.00    -0.083 Cl
ATOM     17  C   UNL d   1      -1.804  -2.775  -3.480  0.00  0.00     0.025 A 
ATOM     18  C   UNL d   1      -1.544  -2.051  -4.638  0.00  0.00     0.003 A 
ATOM     19  C   UNL d   1      -1.054  -0.757  -4.534  0.00  0.00     0.025 A 
ATOM     20  C   UNL d   1      -0.794  -0.192  -3.276  0.00  0.00     0.048 A 
ATOM     21 CL   UNL d   1      -0.108   1.404  -3.314  0.00  0.00    -0.083 Cl
ENDBRANCH   8  14
ENDBRANCH   4   7
BRANCH   1  22
ATOM     22  S   UNL d   1       0.878  -4.755   1.631  0.00  0.00     0.056 S 
ATOM     23  O   UNL d   1      -0.449  -4.509   2.172  0.00  0.00    -0.245 OA
ATOM     24  C   UNL d   1       0.986  -6.504   1.398  0.00  0.00     0.142 C 
BRANCH  22  25
ATOM     25  C   UNL d   1       2.027  -4.380   2.938  0.00  0.00     0.038 A 
ATOM     26  C   UNL d   1       1.605  -3.573   4.000  0.00  0.00     0.023 A 
ATOM     27  C   UNL d   1       2.493  -3.276   5.035  0.00  0.00     0.025 A 
ATOM     28  C   UNL d   1       3.791  -3.789   5.002  0.00  0.00     0.034 A 
ATOM     29  C   UNL d   1       4.211  -4.588   3.939  0.00  0.00     0.025 A 
ATOM     30 CL   UNL d   1       4.880  -3.429   6.284  0.00  0.00    -0.084 Cl
ATOM     31  C   UNL d   1       3.330  -4.883   2.895  0.00  0.00     0.023 A 
ENDBRANCH  22  25
ENDBRANCH   1  22
TORSDOF 4
