REMARK  7 active torsions:
REMARK  status: ('A' for Active; 'I' for Inactive)
REMARK    1  A    between atoms: C_3  and  N_1 
REMARK    2  A    between atoms: C_17  and  N_4 
REMARK    3  A    between atoms: O_16  and  C_6 
REMARK    4  A    between atoms: C_14  and  C_9 
REMARK    5  A    between atoms: C_15  and  C_10 
REMARK    6  A    between atoms: C_27  and  C_17 
REMARK    7  A    between atoms: C_28  and  C_27 
ROOT
ATOM      1  N   UNL d   1      -0.761  -1.044   0.012  0.00  0.00    -0.248 N 
ATOM      2  C   UNL d   1       0.643  -1.072   0.143  0.00  0.00     0.329 C 
ATOM      3  N   UNL d   1       1.084   0.258   0.157  0.00  0.00    -0.321 N 
ATOM      4  C   UNL d   1      -1.236   0.311   0.146  0.00  0.00     0.259 C 
ATOM      5  C   UNL d   1       0.000   1.160  -0.222  0.00  0.00     0.171 C 
ATOM      6  O   UNL d   1       1.387  -2.036   0.211  0.00  0.00    -0.246 OA
ENDROOT
BRANCH   1   7
ATOM      7  C   UNL d   1      -1.521  -2.080  -0.486  0.00  0.00     0.173 A 
ATOM      8  S   UNL d   1      -0.847  -3.610  -0.826  0.00  0.00    -0.037 SA
ATOM      9  C   UNL d   1      -2.385  -4.103  -1.422  0.00  0.00     0.077 A 
ATOM     10  N   UNL d   1      -3.285  -3.140  -1.381  0.00  0.00    -0.295 N 
ATOM     11  N   UNL d   1      -2.788  -1.977  -0.827  0.00  0.00    -0.279 N 
ATOM     12  HN  UNL d   1      -4.241  -3.243  -1.720  1.00  0.00     0.187 HD
ATOM     13  HN  UNL d   1      -3.342  -1.130  -0.697  1.00  0.00     0.189 HD
BRANCH   9  14
ATOM     14  C   UNL d   1      -2.644  -5.528  -1.883  0.00  0.00    -0.001 C 
ATOM     15  C   UNL d   1      -2.395  -6.506  -0.719  0.00  0.00     0.021 C 
ATOM     16  C   UNL d   1      -4.114  -5.675  -2.329  0.00  0.00     0.021 C 
ATOM     17  C   UNL d   1      -1.745  -5.910  -3.074  0.00  0.00     0.021 C 
ENDBRANCH   9  14
ENDBRANCH   1   7
BRANCH   4  18
ATOM     18  O   UNL d   1      -1.583   0.514   1.515  0.00  0.00    -0.374 OA
ATOM     19  H   UNL d   1      -0.879   0.091   2.035  0.00  0.00     0.212 HD
ENDBRANCH   4  18
BRANCH   3  20
ATOM     20  C   UNL d   1       2.480   0.654   0.216  0.00  0.00     0.128 C 
BRANCH  20  21
ATOM     21  C   UNL d   1       2.796   1.533   1.426  0.00  0.00     0.020 C 
BRANCH  21  22
ATOM     22  C   UNL d   1       2.553   0.822   2.761  0.00  0.00    -0.003 C 
ATOM     23  C   UNL d   1       2.906   1.721   3.937  0.00  0.00     0.005 C 
ENDBRANCH  21  22
ENDBRANCH  20  21
ENDBRANCH   3  20
BRANCH   5  24
ATOM     24  C   UNL d   1       0.023   1.529  -1.699  0.00  0.00    -0.031 A 
ATOM     25  C   UNL d   1       0.054   2.877  -2.081  0.00  0.00     0.010 A 
ATOM     26  C   UNL d   1       0.022   3.238  -3.434  0.00  0.00     0.007 A 
ATOM     27  C   UNL d   1      -0.050   2.261  -4.433  0.00  0.00    -0.062 A 
ATOM     28  C   UNL d   1      -0.072   0.918  -4.062  0.00  0.00     0.007 A 
ATOM     29  C   UNL d   1      -0.091   2.651  -5.880  0.00  0.00     0.048 C 
ATOM     30  C   UNL d   1      -0.028   0.558  -2.714  0.00  0.00     0.010 A 
ENDBRANCH   5  24
TORSDOF 7
