REMARK  3 active torsions:
REMARK  status: ('A' for Active; 'I' for Inactive)
REMARK    1  A    between atoms: N_8  and  C_1 
REMARK    2  A    between atoms: C_4  and  C_7 
REMARK       I    between atoms: C_7  and  N_8 
REMARK    3  A    between atoms: O_20  and  C_16 
ROOT
ATOM      1  C   UNL d   1      -0.931   1.746  -0.279  0.00  0.00     0.138 A 
ATOM      2  N   UNL d   1      -1.958   0.920  -0.474  0.00  0.00    -0.282 N 
ATOM      3  HN  UNL d   1      -2.928   1.168  -0.669  1.00  0.00     0.189 HD
ATOM      4  C   UNL d   1       0.311   1.037  -0.097  0.00  0.00     0.071 A 
ATOM      5  N   UNL d   1      -1.436  -0.301  -0.359  0.00  0.00    -0.294 N 
ATOM      6  C   UNL d   1      -0.078  -0.311  -0.180  0.00  0.00     0.067 A 
ATOM      7  C   UNL d   1       1.700   1.296   0.101  0.00  0.00     0.084 A 
ATOM      8  C   UNL d   1      -2.312  -1.448  -0.384  0.00  0.00     0.178 C 
ATOM      9  C   UNL d   1       0.811  -1.392  -0.070  0.00  0.00     0.032 A 
ATOM     10  C   UNL d   1       2.158  -1.111   0.119  0.00  0.00     0.005 A 
ATOM     11  C   UNL d   1       2.590   0.205   0.207  0.00  0.00     0.038 A 
ENDROOT
BRANCH   1  12
ATOM     12  N   UNL d   1      -1.137   3.106  -0.196  0.00  0.00    -0.306 N 
ATOM     13  C   UNL d   1      -2.079   3.800  -0.932  0.00  0.00     0.267 C 
ATOM     14  O   UNL d   1      -2.742   3.312  -1.848  0.00  0.00    -0.267 OA
ATOM     15  H   UNL d   1      -0.505   3.615   0.391  0.00  0.00     0.170 HD
BRANCH  13  16
ATOM     16  C   UNL d   1      -2.152   5.218  -0.632  0.00  0.00     0.114 A 
ATOM     17  C   UNL d   1      -2.628   6.282  -1.390  0.00  0.00     0.046 A 
ATOM     18  N   UNL d   1      -2.526   7.525  -0.765  0.00  0.00    -0.298 N 
ATOM     19  C   UNL d   1      -3.194   6.272  -2.764  0.00  0.00     0.071 C 
ATOM     20  N   UNL d   1      -2.007   7.434   0.445  0.00  0.00    -0.269 N 
ATOM     21  HN  UNL d   1      -2.819   8.403  -1.195  1.00  0.00     0.187 HD
ATOM     22  S   UNL d   1      -1.638   5.868   0.872  0.00  0.00     0.009 SA
ATOM     23  HN  UNL d   1      -1.849   8.237   1.053  1.00  0.00     0.195 HD
ENDBRANCH  13  16
ENDBRANCH   1  12
BRANCH   7  24
ATOM     24  O   UNL d   1       2.379   2.497   0.277  0.00  0.00    -0.355 OA
ATOM     25  C   UNL d   1       1.870   3.685  -0.290  0.00  0.00     0.210 C 
ENDBRANCH   7  24
TORSDOF 3
