REMARK  6 active torsions:
REMARK  status: ('A' for Active; 'I' for Inactive)
REMARK    1  A    between atoms: S_4  and  C_1 
REMARK    2  A    between atoms: C_3  and  C_2 
REMARK       I    between atoms: N_5  and  C_3 
REMARK    3  A    between atoms: C_12  and  S_4 
REMARK    4  A    between atoms: C_11  and  N_5 
REMARK    5  A    between atoms: C_8  and  C_11 
REMARK    6  A    between atoms: O_13  and  C_8 
ROOT
ATOM      1  C   UNL d   1      -0.658   1.346  -0.618  0.00  0.00     0.090 A 
ATOM      2  C   UNL d   1       0.324   1.359   0.383  0.00  0.00     0.065 A 
ATOM      3  N   UNL d   1      -1.006   0.196  -1.243  0.00  0.00    -0.359 N 
ATOM      4  HN  UNL d   1      -1.733   0.189  -1.958  1.00  0.00     0.166 HD
ATOM      5  C   UNL d   1       1.016   0.177   0.676  0.00  0.00     0.021 A 
ATOM      6  C   UNL d   1      -0.365  -0.944  -0.894  0.00  0.00     0.089 A 
ATOM      7  C   UNL d   1       0.658  -1.000   0.035  0.00  0.00     0.018 A 
ENDROOT
BRANCH   2   8
ATOM      8  C   UNL d   1       0.649   2.535   1.224  0.00  0.00     0.254 C 
ATOM      9  N   UNL d   1      -0.431   3.194   1.776  0.00  0.00    -0.347 N 
ATOM     10  H   UNL d   1      -1.341   3.033   1.353  0.00  0.00     0.163 HD
ATOM     11  O   UNL d   1       1.815   2.816   1.469  0.00  0.00    -0.268 OA
BRANCH   9  12
ATOM     12  C   UNL d   1      -0.269   4.463   2.487  0.00  0.00     0.232 C 
BRANCH  12  13
ATOM     13  C   UNL d   1      -1.142   4.489   3.736  0.00  0.00     0.158 C 
ATOM     14  O   UNL d   1      -1.382   5.495   4.390  0.00  0.00    -0.649 OA
BRANCH  13  15
ATOM     15  O   UNL d   1      -1.598   3.261   4.093  0.00  0.00    -0.775 OA
ATOM     16  H   UNL d   1      -1.202   2.587   3.501  0.00  0.00     0.167 HD
ENDBRANCH  13  15
ENDBRANCH  12  13
ENDBRANCH   9  12
ENDBRANCH   2   8
BRANCH   1  17
ATOM     17  S   UNL d   1      -1.469   2.864  -1.108  0.00  0.00    -0.072 SA
BRANCH  17  18
ATOM     18  C   UNL d   1      -2.639   2.564  -2.411  0.00  0.00     0.007 A 
ATOM     19  C   UNL d   1      -3.429   1.421  -2.536  0.00  0.00     0.019 A 
ATOM     20  C   UNL d   1      -4.417   1.337  -3.526  0.00  0.00     0.008 A 
ATOM     21  C   UNL d   1      -4.658   2.411  -4.389  0.00  0.00    -0.062 A 
ATOM     22  C   UNL d   1      -3.869   3.556  -4.274  0.00  0.00     0.008 A 
ATOM     23  C   UNL d   1      -5.757   2.329  -5.405  0.00  0.00     0.048 C 
ATOM     24  C   UNL d   1      -2.872   3.629  -3.296  0.00  0.00     0.019 A 
ENDBRANCH  17  18
ENDBRANCH   1  17
TORSDOF 6
