REMARK  1 active torsions:
REMARK  status: ('A' for Active; 'I' for Inactive)
REMARK    1  A    between atoms: C_2  and  C_1 
ROOT
ATOM      1  C   UNL d   1      -2.343  -2.449   0.190  0.00  0.00     0.105 A 
ATOM      2  C   UNL d   1      -1.743  -3.124   1.418  0.00  0.00     0.024 A 
ATOM      3  C   UNL d   1      -2.509  -3.391  -1.007  0.00  0.00     0.057 A 
ATOM      4  C   UNL d   1      -1.483  -4.448   1.432  0.00  0.00     0.020 A 
ATOM      5  N   UNL d   1      -1.753  -5.218   0.319  0.00  0.00    -0.362 N 
ATOM      6  C   UNL d   1      -2.266  -4.719  -0.869  0.00  0.00     0.023 A 
ATOM      7  C   UNL d   1      -3.044  -2.868  -2.226  0.00  0.00     0.098 C 
ATOM      8  C   UNL d   1      -1.583  -2.333   2.675  0.00  0.00     0.158 C 
ATOM      9  N   UNL d   1      -3.492  -2.479  -3.222  0.00  0.00    -0.192 NA
ATOM     10  O   UNL d   1      -2.039  -1.195   2.771  0.00  0.00    -0.293 OA
ATOM     11  C   UNL d   1      -0.918  -5.162   2.635  0.00  0.00     0.058 C 
ATOM     12  C   UNL d   1      -2.595  -5.735  -1.936  0.00  0.00     0.069 C 
ATOM     13  C   UNL d   1      -0.968  -2.997   3.888  0.00  0.00     0.084 C 
ATOM     14  C   UNL d   1      -0.136  -4.215   3.533  0.00  0.00     0.014 C 
ATOM     15  H   UNL d   1      -1.639  -6.226   0.400  0.00  0.00     0.165 HD
ENDROOT
BRANCH   1  16
ATOM     16  C   UNL d   1      -1.683  -1.128  -0.153  0.00  0.00    -0.016 A 
ATOM     17  C   UNL d   1      -2.388   0.061  -0.291  0.00  0.00     0.097 A 
ATOM     18  N   UNL d   1      -1.496   1.089  -0.376  0.00  0.00    -0.365 N 
ATOM     19  C   UNL d   1      -0.211   0.607  -0.340  0.00  0.00     0.042 A 
ATOM     20  H   UNL d   1      -1.740   2.069  -0.408  0.00  0.00     0.165 HD
ATOM     21  C   UNL d   1      -0.290  -0.788  -0.265  0.00  0.00    -0.001 A 
ATOM     22  C   UNL d   1       1.000   1.308  -0.344  0.00  0.00     0.030 A 
ATOM     23  C   UNL d   1       0.919  -1.516  -0.243  0.00  0.00     0.014 A 
ATOM     24  C   UNL d   1       2.142  -0.828  -0.267  0.00  0.00     0.001 A 
ATOM     25  C   UNL d   1       2.179   0.563  -0.301  0.00  0.00     0.002 A 
ENDBRANCH   1  16
TORSDOF 1
