REMARK  4 active torsions:
REMARK  status: ('A' for Active; 'I' for Inactive)
REMARK    1  A    between atoms: C_2  and  C_1 
REMARK    2  A    between atoms: C_3  and  C_2 
REMARK    3  A    between atoms: C_10  and  C_4 
REMARK    4  A    between atoms: O_16  and  C_11 
ROOT
ATOM      1  C   UNL d   1       0.937  -0.079   0.123  0.00  0.00     0.091 C 
ATOM      2  C   UNL d   1       0.266  -0.392  -1.005  0.00  0.00     0.038 C 
ATOM      3  C   UNL d   1       0.259   0.266   1.335  0.00  0.00     0.103 C 
ATOM      4  N   UNL d   1      -0.288   0.543   2.320  0.00  0.00    -0.191 NA
ENDROOT
BRANCH   1   5
ATOM      5  C   UNL d   1       2.438  -0.103   0.057  0.00  0.00     0.174 C 
ATOM      6  O   UNL d   1       3.046  -0.436  -0.956  0.00  0.00    -0.291 OA
BRANCH   5   7
ATOM      7  C   UNL d   1       3.193   0.275   1.295  0.00  0.00     0.061 A 
ATOM      8  C   UNL d   1       4.678   0.570   1.250  0.00  0.00     0.013 A 
ATOM      9  C   UNL d   1       4.189  -0.698   1.886  0.00  0.00     0.013 A 
ENDBRANCH   5   7
ENDBRANCH   1   5
BRANCH   2  10
ATOM     10  C   UNL d   1      -1.199  -0.369  -1.103  0.00  0.00    -0.035 A 
ATOM     11  C   UNL d   1      -1.844   0.794  -1.534  0.00  0.00     0.014 A 
ATOM     12  C   UNL d   1      -3.238   0.847  -1.579  0.00  0.00     0.037 A 
ATOM     13  C   UNL d   1      -3.984  -0.262  -1.199  0.00  0.00     0.065 A 
ATOM     14  C   UNL d   1      -3.359  -1.423  -0.759  0.00  0.00     0.037 A 
ATOM     15  C   UNL d   1      -1.961  -1.476  -0.710  0.00  0.00     0.014 A 
BRANCH  13  16
ATOM     16  O   UNL d   1      -5.342  -0.167  -1.277  0.00  0.00    -0.361 OA
ATOM     17  H   UNL d   1      -5.730  -1.026  -1.043  0.00  0.00     0.217 HD
ENDBRANCH  13  16
ENDBRANCH   2  10
TORSDOF 4
