REMARK  4 active torsions:
REMARK  status: ('A' for Active; 'I' for Inactive)
REMARK    1  A    between atoms: C_6  and  C_1 
REMARK       I    between atoms: C_2  and  N_3 
REMARK    2  A    between atoms: C_5  and  C_2 
REMARK    3  A    between atoms: N_3  and  C_4 
REMARK       I    between atoms: N_13  and  C_6 
REMARK    4  A    between atoms: N_14  and  N_13 
ROOT
ATOM      1  C   UNL d   1       1.059  -0.405   0.661  0.00  0.00     0.060 C 
ATOM      2  C   UNL d   1       0.698  -1.379  -0.292  0.00  0.00     0.050 C 
ATOM      3  C   UNL d   1       0.266   0.742   0.825  0.00  0.00     0.019 C 
ATOM      4  C   UNL d   1      -0.550  -1.268  -0.924  0.00  0.00     0.030 C 
ATOM      5  C   UNL d   1      -0.933   0.875   0.130  0.00  0.00     0.001 C 
ATOM      6  C   UNL d   1      -1.359  -0.148  -0.712  0.00  0.00     0.002 C 
ENDROOT
BRANCH   2   7
ATOM      7  N   UNL d   1       1.511  -2.467  -0.696  0.00  0.00    -0.322 N 
ATOM      8  C   UNL d   1       2.900  -2.400  -0.818  0.00  0.00     0.263 C 
ATOM      9  O   UNL d   1       3.542  -1.384  -0.576  0.00  0.00    -0.267 OA
ATOM     10  H   UNL d   1       1.078  -3.209  -1.234  0.00  0.00     0.169 HD
BRANCH   8  11
ATOM     11  C   UNL d   1       3.554  -3.607  -1.308  0.00  0.00     0.072 A 
ATOM     12  S   UNL d   1       2.696  -5.000  -1.814  0.00  0.00    -0.097 SA
ATOM     13  C   UNL d   1       4.139  -5.836  -2.198  0.00  0.00     0.050 A 
ATOM     14  C   UNL d   1       5.259  -5.077  -1.945  0.00  0.00     0.009 A 
ATOM     15  C   UNL d   1       4.921  -3.792  -1.437  0.00  0.00     0.025 A 
ENDBRANCH   8  11
ENDBRANCH   2   7
BRANCH   1  16
ATOM     16  C   UNL d   1       2.117  -0.600   1.693  0.00  0.00     0.268 C 
ATOM     17  O   UNL d   1       2.761   0.346   2.140  0.00  0.00    -0.266 OA
ATOM     18  N   UNL d   1       2.198  -1.891   2.210  0.00  0.00    -0.290 N 
ATOM     19  H   UNL d   1       1.520  -2.596   1.930  0.00  0.00     0.183 HD
BRANCH  18  20
ATOM     20  N   UNL d   1       3.027  -2.145   3.322  0.00  0.00    -0.247 NA
ATOM     21  H   UNL d   1       3.221  -1.227   3.749  0.00  0.00     0.143 HD
ATOM     22  H   UNL d   1       3.941  -2.428   2.957  0.00  0.00     0.143 HD
ENDBRANCH  18  20
ENDBRANCH   1  16
TORSDOF 4
