REMARK  2 active torsions:
REMARK  status: ('A' for Active; 'I' for Inactive)
REMARK    1  A    between atoms: C_7  and  C_3 
REMARK    2  A    between atoms: O_8  and  C_7 
ROOT
ATOM      1  N   UNL d   1      -1.575   1.096  -0.026  0.00  0.00    -0.342 N 
ATOM      2  HN  UNL d   1      -1.917   2.057  -0.019  1.00  0.00     0.167 HD
ATOM      3  C   UNL d   1      -2.297  -0.009  -0.032  0.00  0.00     0.111 A 
ATOM      4  N   UNL d   1      -1.492  -1.121  -0.026  0.00  0.00    -0.342 N 
ATOM      5  C   UNL d   1      -0.264   0.680  -0.031  0.00  0.00     0.060 A 
ATOM      6  C   UNL d   1      -0.185  -0.708  -0.028  0.00  0.00     0.060 A 
ATOM      7  C   UNL d   1       0.919   1.433  -0.031  0.00  0.00     0.032 A 
ATOM      8  C   UNL d   1       1.023  -1.408  -0.019  0.00  0.00     0.032 A 
ATOM      9  C   UNL d   1       2.147   0.755  -0.023  0.00  0.00     0.002 A 
ATOM     10  C   UNL d   1       2.193  -0.641  -0.016  0.00  0.00     0.002 A 
ATOM     11  H   UNL d   1      -1.808  -2.079   0.001  0.00  0.00     0.167 HD
ENDROOT
BRANCH   3  12
ATOM     12  C   UNL d   1      -3.787  -0.101   0.019  0.00  0.00     0.181 C 
ATOM     13  C   UNL d   1      -4.451   0.574  -1.169  0.00  0.00     0.047 C 
BRANCH  12  14
ATOM     14  O   UNL d   1      -4.195   0.552   1.218  0.00  0.00    -0.388 OA
ATOM     15  H   UNL d   1      -3.663   1.370   1.263  0.00  0.00     0.210 HD
ENDBRANCH  12  14
ENDBRANCH   3  12
TORSDOF 2
