REMARK  7 active torsions:
REMARK  status: ('A' for Active; 'I' for Inactive)
REMARK    1  A    between atoms: C_12  and  C_1 
REMARK    2  A    between atoms: C_3  and  C_2 
REMARK    3  A    between atoms: C_15  and  C_10 
REMARK    4  A    between atoms: O_18  and  C_12 
REMARK    5  A    between atoms: O_16  and  C_15 
REMARK    6  A    between atoms: C_17  and  O_16 
REMARK    7  A    between atoms: C_25  and  O_18 
ROOT
ATOM      1  C   UNL d   1      -1.470   2.239  -0.024  0.00  0.00     0.075 A 
ATOM      2  N   UNL d   1      -2.368   2.517   0.989  0.00  0.00    -0.349 N 
ATOM      3  HN  UNL d   1      -2.577   1.898   1.773  1.00  0.00     0.166 HD
ATOM      4  C   UNL d   1      -2.916   3.700   0.793  0.00  0.00     0.075 A 
ATOM      5  C   UNL d   1      -1.335   3.225  -0.978  0.00  0.00     0.084 A 
ATOM      6  S   UNL d   1      -2.347   4.551  -0.593  0.00  0.00    -0.084 SA
ENDROOT
BRANCH   1   7
ATOM      7  C   UNL d   1      -0.722   0.955  -0.053  0.00  0.00     0.128 A 
ATOM      8  C   UNL d   1      -0.016   0.427  -1.107  0.00  0.00     0.079 A 
ATOM      9  C   UNL d   1       0.477  -0.818  -0.634  0.00  0.00     0.132 A 
ATOM     10  N   UNL d   1       0.118  -1.008   0.648  0.00  0.00    -0.255 N 
ATOM     11  O   UNL d   1      -0.653   0.083   0.994  0.00  0.00    -0.235 OA
ATOM     12  HN  UNL d   1       0.366  -1.798   1.244  1.00  0.00     0.195 HD
BRANCH   9  13
ATOM     13  C   UNL d   1       1.193  -1.821  -1.410  0.00  0.00     0.311 C 
ATOM     14  O   UNL d   1       1.382  -1.711  -2.620  0.00  0.00    -0.258 OA
BRANCH  13  15
ATOM     15  O   UNL d   1       1.538  -2.916  -0.671  0.00  0.00    -0.317 OA
BRANCH  15  16
ATOM     16  C   UNL d   1       1.781  -4.114  -1.413  0.00  0.00     0.175 C 
ATOM     17  C   UNL d   1       0.447  -4.801  -1.646  0.00  0.00     0.034 C 
ENDBRANCH  15  16
ENDBRANCH  13  15
ENDBRANCH   9  13
ENDBRANCH   1   7
BRANCH   4  18
ATOM     18  C   UNL d   1      -3.986   4.306   1.650  0.00  0.00     0.240 C 
BRANCH  18  19
ATOM     19  O   UNL d   1      -3.333   4.949   2.746  0.00  0.00    -0.345 OA
BRANCH  19  20
ATOM     20  C   UNL d   1      -4.160   5.512   3.677  0.00  0.00     0.069 A 
ATOM     21  C   UNL d   1      -3.636   5.590   4.971  0.00  0.00     0.038 A 
ATOM     22  C   UNL d   1      -4.379   6.171   6.001  0.00  0.00     0.026 A 
ATOM     23  C   UNL d   1      -5.643   6.688   5.732  0.00  0.00     0.034 A 
ATOM     24  C   UNL d   1      -6.167   6.629   4.442  0.00  0.00     0.026 A 
ATOM     25 CL   UNL d   1      -6.561   7.413   6.992  0.00  0.00    -0.084 Cl
ATOM     26  C   UNL d   1      -5.424   6.042   3.413  0.00  0.00     0.038 A 
ENDBRANCH  19  20
ENDBRANCH  18  19
ENDBRANCH   4  18
TORSDOF 7
