REMARK  4 active torsions:
REMARK  status: ('A' for Active; 'I' for Inactive)
REMARK    1  A    between atoms: C_6  and  C_1 
REMARK    2  A    between atoms: C_7  and  C_2 
REMARK    3  A    between atoms: C_10  and  N_3 
REMARK       I    between atoms: N_9  and  C_7 
REMARK    4  A    between atoms: C_15  and  N_9 
ROOT
ATOM      1  C   UNL d   1       1.003  -0.590  -0.515  0.00  0.00     0.157 A 
ATOM      2  C   UNL d   1      -0.228  -1.154  -0.156  0.00  0.00     0.082 A 
ATOM      3  N   UNL d   1       0.933   0.766  -0.191  0.00  0.00    -0.251 N 
ATOM      4  N   UNL d   1      -0.279   1.081   0.326  0.00  0.00    -0.303 N 
ATOM      5  HN  UNL d   1      -0.593   1.995   0.653  1.00  0.00     0.186 HD
ATOM      6  C   UNL d   1      -0.970  -0.049   0.318  0.00  0.00     0.127 A 
ENDROOT
BRANCH   2   7
ATOM      7  C   UNL d   1      -0.776  -2.518  -0.137  0.00  0.00     0.259 C 
ATOM      8  N   UNL d   1       0.082  -3.545  -0.476  0.00  0.00    -0.323 N 
ATOM      9  H   UNL d   1       1.017  -3.301  -0.762  0.00  0.00     0.169 HD
ATOM     10  O   UNL d   1      -1.939  -2.683   0.214  0.00  0.00    -0.267 OA
BRANCH   8  11
ATOM     11  C   UNL d   1      -0.125  -4.934  -0.333  0.00  0.00     0.035 A 
ATOM     12  C   UNL d   1      -1.319  -5.512   0.104  0.00  0.00     0.031 A 
ATOM     13  C   UNL d   1      -1.400  -6.894   0.313  0.00  0.00     0.026 A 
ATOM     14  C   UNL d   1      -0.292  -7.700   0.079  0.00  0.00     0.034 A 
ATOM     15  C   UNL d   1       0.892  -7.147  -0.395  0.00  0.00     0.026 A 
ATOM     16 CL   UNL d   1      -0.379  -9.391   0.395  0.00  0.00    -0.084 Cl
ATOM     17  C   UNL d   1       0.971  -5.767  -0.605  0.00  0.00     0.031 A 
ENDBRANCH   8  11
ENDBRANCH   2   7
BRANCH   1  18
ATOM     18  C   UNL d   1       2.247  -1.179  -1.036  0.00  0.00     0.435 C 
ATOM     19  F   UNL d   1       2.251  -2.537  -0.969  0.00  0.00    -0.165 F 
ATOM     20  F   UNL d   1       2.429  -0.888  -2.345  0.00  0.00    -0.165 F 
ATOM     21  F   UNL d   1       3.351  -0.797  -0.357  0.00  0.00    -0.165 F 
ENDBRANCH   1  18
BRANCH   3  22
ATOM     22  C   UNL d   1       1.938   1.788  -0.206  0.00  0.00     0.057 A 
ATOM     23  C   UNL d   1       3.019   1.783  -1.093  0.00  0.00     0.031 A 
ATOM     24  C   UNL d   1       4.079   2.677  -0.924  0.00  0.00     0.002 A 
ATOM     25  C   UNL d   1       4.047   3.617   0.101  0.00  0.00     0.000 A 
ATOM     26  C   UNL d   1       2.928   3.703   0.923  0.00  0.00     0.002 A 
ATOM     27  C   UNL d   1       1.869   2.805   0.763  0.00  0.00     0.031 A 
ENDBRANCH   3  22
TORSDOF 4
