REMARK  3 active torsions:
REMARK  status: ('A' for Active; 'I' for Inactive)
REMARK    1  A    between atoms: C_2  and  C_1 
REMARK       I    between atoms: N_5  and  C_2 
REMARK    2  A    between atoms: N_10  and  N_5 
REMARK    3  A    between atoms: C_13  and  N_10 
ROOT
ATOM      1  C   UNL d   1       1.171   2.167   0.821  0.00  0.00     0.274 C 
ATOM      2  N   UNL d   1       1.698   3.403   0.448  0.00  0.00    -0.282 N 
ATOM      3  O   UNL d   1       1.807   1.135   0.583  0.00  0.00    -0.266 OA
ATOM      4  H   UNL d   1       1.063   4.186   0.327  0.00  0.00     0.184 HD
ENDROOT
BRANCH   2   5
ATOM      5  N   UNL d   1       2.811   3.383  -0.413  0.00  0.00    -0.203 NA
ATOM      6  H   UNL d   1       3.214   2.438  -0.483  0.00  0.00     0.153 HD
BRANCH   5   7
ATOM      7  C   UNL d   1       3.808   4.359  -0.172  0.00  0.00     0.029 A 
ATOM      8  C   UNL d   1       4.990   4.287  -0.924  0.00  0.00     0.049 A 
ATOM      9  C   UNL d   1       5.966   5.290  -0.844  0.00  0.00     0.041 A 
ATOM     10 CL   UNL d   1       7.376   5.123  -1.829  0.00  0.00    -0.084 Cl
ATOM     11  C   UNL d   1       5.784   6.398  -0.009  0.00  0.00    -0.040 A 
ATOM     12  C   UNL d   1       4.608   6.472   0.748  0.00  0.00     0.010 A 
ATOM     13  C   UNL d   1       6.792   7.511   0.069  0.00  0.00     0.050 C 
ATOM     14  C   UNL d   1       3.629   5.472   0.657  0.00  0.00     0.026 A 
ENDBRANCH   5   7
ENDBRANCH   2   5
BRANCH   1  15
ATOM     15  C   UNL d   1      -0.132   2.190   1.476  0.00  0.00     0.091 A 
ATOM     16  C   UNL d   1      -0.926   1.131   1.873  0.00  0.00     0.034 A 
ATOM     17  C   UNL d   1      -2.118   1.524   2.540  0.00  0.00     0.028 A 
ATOM     18 BR   UNL d   1      -0.571  -0.714   1.630  0.00  0.00    -0.049 Br
ATOM     19  C   UNL d   1      -2.222   2.893   2.626  0.00  0.00     0.052 A 
ATOM     20  S   UNL d   1      -0.895   3.681   1.890  0.00  0.00    -0.095 SA
ENDBRANCH   1  15
TORSDOF 3
