REMARK  5 active torsions:
REMARK  status: ('A' for Active; 'I' for Inactive)
REMARK    1  A    between atoms: C_7  and  C_1 
REMARK       I    between atoms: C_4  and  N_10 
REMARK    2  A    between atoms: C_8  and  C_4 
REMARK    3  A    between atoms: C_9  and  C_6 
REMARK    4  A    between atoms: C_12  and  C_9 
REMARK    5  A    between atoms: N_10  and  N_15 
REMARK       I    between atoms: N_15  and  C_12 
ROOT
ATOM      1  C   UNL d   1       3.663   0.890   0.037  0.00  0.00     0.241 C 
ATOM      2  N   UNL d   1       3.709  -0.474   0.177  0.00  0.00    -0.267 N 
ATOM      3  O   UNL d   1       4.698   1.546  -0.138  0.00  0.00    -0.271 OA
ATOM      4  H   UNL d   1       2.858  -1.039   0.105  0.00  0.00     0.190 HD
ENDROOT
BRANCH   1   5
ATOM      5  C   UNL d   1       2.330   1.594   0.162  0.00  0.00     0.162 C 
BRANCH   5   6
ATOM      6  C   UNL d   1       1.066   0.794   0.112  0.00  0.00     0.025 A 
ATOM      7  N   UNL d   1       1.069  -0.570  -0.150  0.00  0.00    -0.352 N 
ATOM      8  C   UNL d   1      -0.169  -1.031  -0.225  0.00  0.00     0.091 A 
ATOM      9  HN  UNL d   1       1.908  -1.138  -0.269  1.00  0.00     0.166 HD
ATOM     10  S   UNL d   1      -1.395   0.132   0.096  0.00  0.00    -0.081 SA
ATOM     11  C   UNL d   1      -0.197   1.333   0.287  0.00  0.00     0.077 A 
BRANCH   8  12
ATOM     12  C   UNL d   1      -0.448  -2.410  -0.543  0.00  0.00     0.038 A 
ATOM     13  S   UNL d   1      -1.872  -2.908  -1.365  0.00  0.00    -0.099 SA
ATOM     14  C   UNL d   1      -1.379  -4.543  -1.387  0.00  0.00     0.050 A 
ATOM     15  C   UNL d   1      -0.164  -4.722  -0.769  0.00  0.00     0.008 A 
ATOM     16  C   UNL d   1       0.376  -3.492  -0.287  0.00  0.00     0.022 A 
ENDBRANCH   8  12
ENDBRANCH   5   6
ENDBRANCH   1   5
BRANCH   2  17
ATOM     17  N   UNL d   1       4.942  -1.093  -0.084  0.00  0.00    -0.263 N 
ATOM     18  C   UNL d   1       5.199  -2.371   0.374  0.00  0.00     0.277 C 
ATOM     19  O   UNL d   1       4.304  -3.099   0.805  0.00  0.00    -0.265 OA
ATOM     20  H   UNL d   1       5.715  -0.460  -0.284  0.00  0.00     0.190 HD
BRANCH  18  21
ATOM     21  C   UNL d   1       6.602  -2.779   0.315  0.00  0.00     0.074 A 
ATOM     22  S   UNL d   1       7.820  -1.770  -0.357  0.00  0.00    -0.097 SA
ATOM     23  C   UNL d   1       9.050  -2.912  -0.042  0.00  0.00     0.050 A 
ATOM     24  C   UNL d   1       8.556  -4.044   0.565  0.00  0.00     0.009 A 
ATOM     25  C   UNL d   1       7.146  -3.970   0.767  0.00  0.00     0.025 A 
ENDBRANCH  18  21
ENDBRANCH   2  17
TORSDOF 5
