REMARK  3 active torsions:
REMARK  status: ('A' for Active; 'I' for Inactive)
REMARK    1  A    between atoms: C_4  and  C_1 
REMARK    2  A    between atoms: N_3  and  C_2 
REMARK       I    between atoms: N_5  and  C_4 
REMARK       I    between atoms: C_7  and  N_5 
REMARK       I    between atoms: N_10  and  C_7 
REMARK    3  A    between atoms: N_11  and  N_10 
ROOT
ATOM      1  C   UNL d   1       1.059  -6.087  -0.723  0.00  0.00     0.260 C 
ATOM      2  N   UNL d   1      -0.017  -5.337  -0.248  0.00  0.00    -0.274 N 
ATOM      3  C   UNL d   1      -0.510  -4.085   0.059  0.00  0.00     0.337 C 
ATOM      4  N   UNL d   1       0.251  -2.982  -0.240  0.00  0.00    -0.271 N 
ATOM      5  O   UNL d   1      -1.616  -4.046   0.603  0.00  0.00    -0.246 OA
ATOM      6  O   UNL d   1       0.823  -7.287  -0.898  0.00  0.00    -0.267 OA
ATOM      7  H   UNL d   1      -0.763  -5.994  -0.048  0.00  0.00     0.173 HD
ATOM      8  H   UNL d   1       0.845  -3.040  -1.059  0.00  0.00     0.185 HD
ENDROOT
BRANCH   1   9
ATOM      9  C   UNL d   1       2.385  -5.555  -1.031  0.00  0.00     0.042 A 
ATOM     10  C   UNL d   1       3.079  -4.373  -0.599  0.00  0.00     0.061 A 
ATOM     11  C   UNL d   1       4.356  -4.290  -1.130  0.00  0.00     0.144 A 
ATOM     12  S   UNL d   1       4.763  -5.619  -2.093  0.00  0.00    -0.077 SA
ATOM     13  C   UNL d   1       3.239  -6.327  -1.817  0.00  0.00     0.069 A 
BRANCH  11  14
ATOM     14  N   UNL d   1       5.318  -3.230  -0.930  0.00  0.00    -0.108 N 
ATOM     15  O   UNL d   1       4.934  -2.276  -0.239  0.00  0.00    -0.531 OA
ATOM     16  O   UNL d   1       6.435  -3.330  -1.452  0.00  0.00    -0.531 OA
ENDBRANCH  11  14
ENDBRANCH   1   9
BRANCH   4  17
ATOM     17  N   UNL d   1      -0.228  -1.654   0.061  0.00  0.00    -0.227 NA
ATOM     18  C   UNL d   1      -1.513  -1.355  -0.587  0.00  0.00     0.113 C 
ATOM     19  C   UNL d   1      -1.587   0.107  -1.033  0.00  0.00     0.016 C 
ATOM     20  C   UNL d   1      -1.889   1.105   0.078  0.00  0.00     0.001 C 
ATOM     21  C   UNL d   1      -0.886   1.097   1.227  0.00  0.00     0.001 C 
ATOM     22  C   UNL d   1      -0.965  -0.178   2.059  0.00  0.00     0.016 C 
ATOM     23  C   UNL d   1      -0.185  -1.381   1.509  0.00  0.00     0.113 C 
ENDBRANCH   4  17
TORSDOF 3
