REMARK  7 active torsions:
REMARK  status: ('A' for Active; 'I' for Inactive)
REMARK    1  A    between atoms: C_2  and  S_1 
REMARK    2  A    between atoms: N_3  and  S_1 
REMARK    3  A    between atoms: C_4  and  C_6 
REMARK    4  A    between atoms: C_5  and  C_7 
REMARK       I    between atoms: C_10  and  N_14 
REMARK    5  A    between atoms: C_26  and  C_10 
REMARK    6  A    between atoms: N_14  and  C_27 
REMARK    7  A    between atoms: C_28  and  C_26 
ROOT
ATOM      1  N   UNL d   1       0.428  -0.319  -1.554  0.00  0.00    -0.206 NA
ATOM      2  C   UNL d   1       0.745   0.811  -2.484  0.00  0.00     0.109 C 
ATOM      3  C   UNL d   1       0.890  -1.640  -2.096  0.00  0.00     0.109 C 
ATOM      4  C   UNL d   1       0.189   0.542  -3.877  0.00  0.00     0.041 C 
ATOM      5  C   UNL d   1       0.405  -1.895  -3.518  0.00  0.00     0.041 C 
ATOM      6  C   UNL d   1       0.768  -0.751  -4.463  0.00  0.00     0.086 C 
ENDROOT
BRANCH   1   7
ATOM      7  S   UNL d   1       1.061  -0.101   0.043  0.00  0.00     0.243 S 
ATOM      8  O   UNL d   1       0.689  -1.260   0.821  0.00  0.00    -0.206 OA
ATOM      9  O   UNL d   1       2.454   0.278  -0.094  0.00  0.00    -0.206 OA
BRANCH   7  10
ATOM     10  C   UNL d   1       0.186   1.290   0.736  0.00  0.00     0.076 A 
ATOM     11  C   UNL d   1      -0.982   1.059   1.474  0.00  0.00     0.041 A 
ATOM     12  C   UNL d   1      -1.557   2.093   2.233  0.00  0.00     0.050 A 
ATOM     13  C   UNL d   1      -0.953   3.364   2.219  0.00  0.00     0.032 A 
ATOM     14  C   UNL d   1       0.225   3.604   1.489  0.00  0.00     0.050 A 
ATOM     15  C   UNL d   1       0.793   2.551   0.751  0.00  0.00     0.041 A 
BRANCH  12  16
ATOM     16  C   UNL d   1      -2.764   1.841   3.112  0.00  0.00     0.417 C 
ATOM     17  F   UNL d   1      -3.207   0.556   3.078  0.00  0.00    -0.166 F 
ATOM     18  F   UNL d   1      -2.508   2.115   4.422  0.00  0.00    -0.166 F 
ATOM     19  F   UNL d   1      -3.827   2.617   2.768  0.00  0.00    -0.166 F 
ENDBRANCH  12  16
BRANCH  14  20
ATOM     20  C   UNL d   1       0.887   4.963   1.551  0.00  0.00     0.417 C 
ATOM     21  F   UNL d   1       2.062   5.025   0.869  0.00  0.00    -0.166 F 
ATOM     22  F   UNL d   1       0.099   5.945   1.035  0.00  0.00    -0.166 F 
ATOM     23  F   UNL d   1       1.172   5.340   2.828  0.00  0.00    -0.166 F 
ENDBRANCH  14  20
ENDBRANCH   7  10
ENDBRANCH   1   7
BRANCH   6  24
ATOM     24  N   UNL d   1       2.214  -0.670  -4.691  0.00  0.00    -0.356 N 
ATOM     25  C   UNL d   1       2.753   0.216  -5.607  0.00  0.00     0.222 C 
ATOM     26  O   UNL d   1       2.076   1.011  -6.255  0.00  0.00    -0.273 OA
ATOM     27  H   UNL d   1       2.788  -1.471  -4.453  0.00  0.00     0.162 HD
BRANCH  25  28
ATOM     28  C   UNL d   1       4.264   0.142  -5.745  0.00  0.00     0.141 C 
BRANCH  28  29
ATOM     29  C   UNL d   1       4.700  -0.785  -6.851  0.00  0.00    -0.050 A 
ATOM     30  C   UNL d   1       4.293  -0.551  -8.172  0.00  0.00     0.007 A 
ATOM     31  C   UNL d   1       4.667  -1.422  -9.194  0.00  0.00     0.001 A 
ATOM     32  C   UNL d   1       5.463  -2.529  -8.909  0.00  0.00     0.000 A 
ATOM     33  C   UNL d   1       5.897  -2.756  -7.604  0.00  0.00     0.001 A 
ATOM     34  C   UNL d   1       5.521  -1.887  -6.579  0.00  0.00     0.007 A 
ENDBRANCH  28  29
ENDBRANCH  25  28
ENDBRANCH   6  24
TORSDOF 7
