REMARK  3 active torsions:
REMARK  status: ('A' for Active; 'I' for Inactive)
REMARK    1  A    between atoms: N_7  and  C_3 
REMARK    2  A    between atoms: C_8  and  C_4 
REMARK    3  A    between atoms: C_9  and  N_7 
ROOT
ATOM      1  N   UNL d   1       1.457  -0.574  -0.006  0.00  0.00    -0.335 N 
ATOM      2  HN  UNL d   1       2.362  -1.043   0.041  1.00  0.00     0.168 HD
ATOM      3  C   UNL d   1       0.302  -1.196  -0.082  0.00  0.00     0.149 A 
ATOM      4  C   UNL d   1       1.288   0.794   0.003  0.00  0.00     0.051 A 
ATOM      5  S   UNL d   1      -1.064  -0.148  -0.167  0.00  0.00    -0.064 SA
ATOM      6  C   UNL d   1      -0.027   1.213  -0.025  0.00  0.00     0.083 A 
ENDROOT
BRANCH   3   7
ATOM      7  N   UNL d   1       0.148  -2.538  -0.117  0.00  0.00    -0.334 N 
ATOM      8  H   UNL d   1      -0.703  -2.934  -0.501  0.00  0.00     0.168 HD
BRANCH   7   9
ATOM      9  C   UNL d   1       1.024  -3.476   0.463  0.00  0.00     0.073 A 
ATOM     10  C   UNL d   1       1.136  -4.762  -0.088  0.00  0.00     0.145 A 
ATOM     11  C   UNL d   1       2.018  -5.707   0.427  0.00  0.00     0.086 A 
ATOM     12  F   UNL d   1       0.381  -5.094  -1.147  0.00  0.00    -0.204 F 
ATOM     13  C   UNL d   1       2.801  -5.367   1.520  0.00  0.00     0.119 A 
ATOM     14  C   UNL d   1       2.728  -4.101   2.088  0.00  0.00     0.044 A 
ATOM     15  F   UNL d   1       3.642  -6.271   2.039  0.00  0.00    -0.206 F 
ATOM     16  C   UNL d   1       1.855  -3.155   1.548  0.00  0.00     0.036 A 
ENDBRANCH   7   9
ENDBRANCH   3   7
BRANCH   4  17
ATOM     17  C   UNL d   1       2.446   1.676   0.009  0.00  0.00    -0.006 A 
ATOM     18  C   UNL d   1       3.608   1.280  -0.667  0.00  0.00     0.059 A 
ATOM     19  C   UNL d   1       4.728   2.106  -0.674  0.00  0.00     0.155 A 
ATOM     20  F   UNL d   1       5.827   1.720  -1.337  0.00  0.00    -0.203 F 
ATOM     21  C   UNL d   1       4.707   3.322  -0.006  0.00  0.00     0.154 A 
ATOM     22  C   UNL d   1       3.566   3.727   0.679  0.00  0.00     0.046 A 
ATOM     23  F   UNL d   1       5.785   4.117  -0.013  0.00  0.00    -0.203 F 
ATOM     24  C   UNL d   1       2.434   2.907   0.688  0.00  0.00     0.017 A 
ENDBRANCH   4  17
TORSDOF 3
