REMARK  5 active torsions:
REMARK  status: ('A' for Active; 'I' for Inactive)
REMARK    1  A    between atoms: C_6  and  C_3 
REMARK    2  A    between atoms: O_15  and  C_9 
REMARK    3  A    between atoms: C_14  and  C_18 
REMARK       I    between atoms: N_19  and  C_14 
REMARK    4  A    between atoms: C_18  and  O_15 
REMARK    5  A    between atoms: N_21  and  N_19 
ROOT
ATOM      1  C   UNL d   1       1.319  -2.852  -0.155  0.00  0.00    -0.006 C 
ATOM      2  C   UNL d   1       1.326  -5.672  -0.233  0.00  0.00     0.081 C 
ATOM      3  C   UNL d   1       1.916  -4.985   0.853  0.00  0.00    -0.027 C 
ATOM      4  C   UNL d   1       0.887  -4.943  -1.355  0.00  0.00    -0.027 C 
ATOM      5  C   UNL d   1       1.880  -3.579   0.896  0.00  0.00     0.023 C 
ATOM      6  C   UNL d   1       0.904  -3.535  -1.299  0.00  0.00     0.023 C 
ATOM      7  C   UNL d   1       0.370  -5.548  -2.632  0.00  0.00     0.051 C 
ATOM      8  C   UNL d   1       2.596  -5.727   1.972  0.00  0.00     0.051 C 
ENDROOT
BRANCH   1   9
ATOM      9  C   UNL d   1       1.244  -1.359  -0.066  0.00  0.00     0.070 C 
ATOM     10  N   UNL d   1       2.263  -0.755   0.473  0.00  0.00    -0.294 N 
ATOM     11  N   UNL d   1       2.294   0.612   0.512  0.00  0.00    -0.261 N 
ATOM     12  HN  UNL d   1       3.033  -1.298   0.863  1.00  0.00     0.187 HD
ATOM     13  C   UNL d   1       1.344   1.443  -0.068  0.00  0.00     0.272 C 
ATOM     14  C   UNL d   1       3.450   1.218   1.147  0.00  0.00     0.181 C 
ATOM     15  C   UNL d   1       0.167   0.774  -0.647  0.00  0.00     0.046 A 
ATOM     16  O   UNL d   1       1.421   2.667  -0.091  0.00  0.00    -0.266 OA
ATOM     17  C   UNL d   1      -0.868   1.544  -1.203  0.00  0.00     0.018 A 
ATOM     18  C   UNL d   1       0.064  -0.612  -0.586  0.00  0.00     0.009 A 
ATOM     19  C   UNL d   1      -2.021   0.925  -1.680  0.00  0.00     0.001 A 
ATOM     20  C   UNL d   1      -2.160  -0.455  -1.562  0.00  0.00     0.001 A 
ATOM     21  C   UNL d   1      -1.134  -1.217  -0.995  0.00  0.00     0.015 A 
ENDBRANCH   1   9
BRANCH   2  22
ATOM     22  O   UNL d   1       1.292  -7.041  -0.104  0.00  0.00    -0.341 OA
BRANCH  22  23
ATOM     23  C   UNL d   1       0.116  -7.692  -0.576  0.00  0.00     0.279 C 
BRANCH  23  24
ATOM     24  C   UNL d   1      -0.483  -8.734   0.365  0.00  0.00     0.255 C 
ATOM     25  O   UNL d   1      -1.437  -9.441   0.036  0.00  0.00    -0.270 OA
ATOM     26  N   UNL d   1       0.080  -8.777   1.629  0.00  0.00    -0.292 N 
ATOM     27  H   UNL d   1       0.972  -8.310   1.788  0.00  0.00     0.183 HD
BRANCH  26  28
ATOM     28  N   UNL d   1      -0.422  -9.689   2.582  0.00  0.00    -0.247 NA
ATOM     29  H   UNL d   1      -1.002 -10.369   2.068  0.00  0.00     0.143 HD
ATOM     30  H   UNL d   1      -1.104  -9.188   3.160  0.00  0.00     0.143 HD
ENDBRANCH  26  28
ENDBRANCH  23  24
ENDBRANCH  22  23
ENDBRANCH   2  22
TORSDOF 5
