REMARK  6 active torsions:
REMARK  status: ('A' for Active; 'I' for Inactive)
REMARK    1  A    between atoms: C_2  and  S_1 
REMARK    2  A    between atoms: C_8  and  S_1 
REMARK    3  A    between atoms: S_3  and  N_5 
REMARK    4  A    between atoms: C_14  and  S_3 
REMARK    5  A    between atoms: C_4  and  C_9 
REMARK    6  A    between atoms: N_5  and  C_7 
ROOT
ATOM      1  C   UNL d   1       0.385   0.931  -1.296  0.00  0.00     0.161 C 
ATOM      2  C   UNL d   1      -0.431   0.442  -2.238  0.00  0.00     0.132 C 
ATOM      3  C   UNL d   1       0.830   0.205  -0.163  0.00  0.00     0.113 C 
ATOM      4  N   UNL d   1       1.214  -0.347   0.782  0.00  0.00    -0.191 NA
ENDROOT
BRANCH   1   5
ATOM      5  S   UNL d   1       0.822   2.591  -1.451  0.00  0.00     0.233 S 
ATOM      6  O   UNL d   1      -0.151   3.385  -0.713  0.00  0.00    -0.215 OA
ATOM      7  O   UNL d   1       1.072   2.919  -2.845  0.00  0.00    -0.215 OA
BRANCH   5   8
ATOM      8  C   UNL d   1       2.382   2.763  -0.593  0.00  0.00     0.134 A 
ATOM      9  N   UNL d   1       3.378   1.988  -1.094  0.00  0.00    -0.356 N 
ATOM     10  C   UNL d   1       4.585   2.108  -0.492  0.00  0.00     0.105 A 
ATOM     11  HN  UNL d   1       3.226   1.352  -1.877  1.00  0.00     0.166 HD
ATOM     12  C   UNL d   1       4.835   2.947   0.589  0.00  0.00     0.063 A 
ATOM     13  C   UNL d   1       3.770   3.717   1.079  0.00  0.00     0.020 A 
ATOM     14  C   UNL d   1       2.517   3.634   0.477  0.00  0.00     0.043 A 
BRANCH  12  15
ATOM     15  C   UNL d   1       6.200   3.023   1.207  0.00  0.00     0.418 C 
ATOM     16  F   UNL d   1       7.127   2.247   0.582  0.00  0.00    -0.166 F 
ATOM     17  F   UNL d   1       6.703   4.288   1.196  0.00  0.00    -0.166 F 
ATOM     18  F   UNL d   1       6.202   2.632   2.511  0.00  0.00    -0.166 F 
ENDBRANCH  12  15
ENDBRANCH   5   8
ENDBRANCH   1   5
BRANCH   2  19
ATOM     19  N   UNL d   1      -0.944  -0.897  -2.134  0.00  0.00    -0.321 N 
ATOM     20  HN  UNL d   1      -0.752  -1.441  -1.292  1.00  0.00     0.175 HD
BRANCH  19  21
ATOM     21  S   UNL d   1      -1.780  -1.532  -3.271  0.00  0.00     0.052 S 
ATOM     22  O   UNL d   1      -1.413  -1.475  -4.674  0.00  0.00    -0.245 OA
ATOM     23  C   UNL d   1      -2.017  -3.245  -2.868  0.00  0.00     0.142 C 
BRANCH  21  24
ATOM     24  C   UNL d   1      -3.415  -0.822  -3.146  0.00  0.00     0.038 A 
ATOM     25  C   UNL d   1      -3.944  -0.118  -4.233  0.00  0.00     0.023 A 
ATOM     26  C   UNL d   1      -5.214   0.455  -4.131  0.00  0.00     0.025 A 
ATOM     27  C   UNL d   1      -5.944   0.318  -2.950  0.00  0.00     0.034 A 
ATOM     28  C   UNL d   1      -5.415  -0.383  -1.866  0.00  0.00     0.025 A 
ATOM     29 CL   UNL d   1      -7.508   1.025  -2.827  0.00  0.00    -0.084 Cl
ATOM     30  C   UNL d   1      -4.142  -0.953  -1.958  0.00  0.00     0.023 A 
ENDBRANCH  21  24
ENDBRANCH  19  21
ENDBRANCH   2  19
TORSDOF 6
