REMARK  4 active torsions:
REMARK  status: ('A' for Active; 'I' for Inactive)
REMARK    1  A    between atoms: S_14  and  C_2 
REMARK    2  A    between atoms: C_7  and  C_4 
REMARK       I    between atoms: N_9  and  C_7 
REMARK       I    between atoms: C_8  and  N_12 
REMARK       I    between atoms: N_13  and  C_8 
REMARK    3  A    between atoms: N_12  and  N_9 
REMARK    4  A    between atoms: C_18  and  N_13 
ROOT
ATOM      1  C   UNL d   1       1.274  -2.743   0.083  0.00  0.00     0.277 C 
ATOM      2  N   UNL d   1       2.561  -3.241   0.182  0.00  0.00    -0.261 N 
ATOM      3  O   UNL d   1       0.309  -3.509   0.161  0.00  0.00    -0.265 OA
ATOM      4  H   UNL d   1       3.371  -2.626   0.251  0.00  0.00     0.190 HD
ENDROOT
BRANCH   1   5
ATOM      5  C   UNL d   1       1.151  -1.291  -0.049  0.00  0.00     0.082 C 
ATOM      6  C   UNL d   1      -0.007  -0.528  -0.002  0.00  0.00    -0.025 C 
ATOM      7  C   UNL d   1       0.263   0.895   0.166  0.00  0.00     0.002 C 
ATOM      8  C   UNL d   1      -1.405  -1.075   0.013  0.00  0.00     0.041 C 
ATOM      9  C   UNL d   1       1.608   1.151  -0.079  0.00  0.00     0.051 C 
ATOM     10  C   UNL d   1      -0.849   1.854   0.607  0.00  0.00     0.085 C 
ATOM     11  S   UNL d   1       2.514  -0.289  -0.273  0.00  0.00    -0.076 SA
ATOM     12  S   UNL d   1      -0.989   3.352  -0.439  0.00  0.00    -0.142 SA
ATOM     13  S   UNL d   1      -0.498   2.375   2.356  0.00  0.00    -0.142 SA
ATOM     14  C   UNL d   1      -2.261   1.187   0.641  0.00  0.00     0.037 C 
ATOM     15  C   UNL d   1      -1.301   4.511   0.920  0.00  0.00     0.086 C 
ATOM     16  C   UNL d   1      -0.375   4.152   2.062  0.00  0.00     0.086 C 
ATOM     17  C   UNL d   1      -2.410   0.020  -0.339  0.00  0.00     0.007 C 
BRANCH   9  18
ATOM     18  S   UNL d   1       2.463   2.695  -0.101  0.00  0.00    -0.126 SA
ATOM     19  C   UNL d   1       2.447   3.065  -1.874  0.00  0.00     0.096 C 
ENDBRANCH   9  18
ENDBRANCH   1   5
BRANCH   2  20
ATOM     20  N   UNL d   1       2.753  -4.566   0.612  0.00  0.00    -0.248 N 
ATOM     21  C   UNL d   1       4.055  -4.993   0.806  0.00  0.00     0.339 C 
ATOM     22  N   UNL d   1       4.132  -6.311   1.191  0.00  0.00    -0.308 N 
ATOM     23  O   UNL d   1       4.991  -4.208   0.665  0.00  0.00    -0.245 OA
ATOM     24  H   UNL d   1       3.256  -6.807   1.266  0.00  0.00     0.170 HD
ATOM     25  H   UNL d   1       1.953  -5.186   0.537  0.00  0.00     0.192 HD
BRANCH  22  26
ATOM     26  C   UNL d   1       5.299  -7.035   1.520  0.00  0.00     0.036 A 
ATOM     27  C   UNL d   1       6.583  -6.483   1.511  0.00  0.00     0.031 A 
ATOM     28  C   UNL d   1       7.697  -7.252   1.869  0.00  0.00     0.026 A 
ATOM     29  C   UNL d   1       7.532  -8.582   2.238  0.00  0.00     0.034 A 
ATOM     30  C   UNL d   1       6.262  -9.151   2.247  0.00  0.00     0.026 A 
ATOM     31 CL   UNL d   1       8.899  -9.521   2.688  0.00  0.00    -0.084 Cl
ATOM     32  C   UNL d   1       5.148  -8.382   1.889  0.00  0.00     0.031 A 
ENDBRANCH  22  26
ENDBRANCH   2  20
TORSDOF 4
