REMARK  5 active torsions:
REMARK  status: ('A' for Active; 'I' for Inactive)
REMARK    1  A    between atoms: N_2  and  C_1 
REMARK    2  A    between atoms: N_4  and  C_3 
REMARK    3  A    between atoms: C_5  and  C_7 
REMARK       I    between atoms: C_7  and  N_11 
REMARK    4  A    between atoms: N_12  and  C_8 
REMARK    5  A    between atoms: C_9  and  C_15 
ROOT
ATOM      1  C   UNL d   1       2.877  -6.276   0.751  0.00  0.00     0.277 C 
ATOM      2  N   UNL d   1       1.646  -5.604   0.730  0.00  0.00    -0.345 N 
ATOM      3  N   UNL d   1       1.011  -2.731   0.213  0.00  0.00    -0.377 N 
ATOM      4  O   UNL d   1       3.482  -6.493  -0.300  0.00  0.00    -0.265 OA
ATOM      5  C   UNL d   1       1.127  -5.139  -0.557  0.00  0.00     0.146 C 
ATOM      6  C   UNL d   1       1.435  -3.666  -0.870  0.00  0.00     0.143 C 
ATOM      7  C   UNL d   1       1.257  -3.803   2.441  0.00  0.00     0.040 C 
ATOM      8  C   UNL d   1       0.861  -5.173   1.887  0.00  0.00     0.128 C 
ATOM      9  C   UNL d   1       1.851  -2.825   1.426  0.00  0.00     0.124 C 
ENDROOT
BRANCH   3  10
ATOM     10  C   UNL d   1       0.620  -1.436  -0.184  0.00  0.00     0.063 A 
ATOM     11  C   UNL d   1      -0.291  -0.623   0.525  0.00  0.00     0.130 A 
ATOM     12  C   UNL d   1      -0.863   0.545  -0.021  0.00  0.00     0.054 A 
ATOM     13  C   UNL d   1      -0.520   0.957  -1.311  0.00  0.00     0.050 A 
ATOM     14  C   UNL d   1       0.474   0.245  -1.986  0.00  0.00     0.018 A 
ATOM     15  C   UNL d   1       1.037  -0.911  -1.425  0.00  0.00     0.032 A 
BRANCH  11  16
ATOM     16  N   UNL d   1      -0.763  -0.972   1.850  0.00  0.00    -0.113 N 
ATOM     17  O   UNL d   1       0.001  -0.749   2.799  0.00  0.00    -0.532 OA
ATOM     18  O   UNL d   1      -1.937  -1.354   1.947  0.00  0.00    -0.532 OA
ENDBRANCH  11  16
BRANCH  13  19
ATOM     19  C   UNL d   1      -1.226   2.102  -1.995  0.00  0.00     0.417 C 
ATOM     20  F   UNL d   1      -2.200   2.671  -1.233  0.00  0.00    -0.166 F 
ATOM     21  F   UNL d   1      -0.379   3.108  -2.342  0.00  0.00    -0.166 F 
ATOM     22  F   UNL d   1      -1.836   1.709  -3.147  0.00  0.00    -0.166 F 
ENDBRANCH  13  19
ENDBRANCH   3  10
BRANCH   1  23
ATOM     23  C   UNL d   1       3.410  -6.756   2.017  0.00  0.00     0.145 A 
ATOM     24  O   UNL d   1       3.095  -6.139   3.196  0.00  0.00    -0.283 OA
ATOM     25  C   UNL d   1       3.691  -6.842   4.189  0.00  0.00     0.215 A 
ATOM     26  C   UNL d   1       4.436  -7.882   3.691  0.00  0.00     0.066 A 
ATOM     27  C   UNL d   1       4.281  -7.806   2.280  0.00  0.00     0.047 A 
BRANCH  25  28
ATOM     28  N   UNL d   1       3.424  -6.399   5.518  0.00  0.00    -0.090 N 
ATOM     29  O   UNL d   1       3.942  -7.054   6.431  0.00  0.00    -0.530 OA
ATOM     30  O   UNL d   1       2.686  -5.412   5.661  0.00  0.00    -0.530 OA
ENDBRANCH  25  28
ENDBRANCH   1  23
TORSDOF 5
