REMARK  5 active torsions:
REMARK  status: ('A' for Active; 'I' for Inactive)
REMARK    1  A    between atoms: S_7  and  C_1 
REMARK    2  A    between atoms: C_10  and  S_7 
REMARK    3  A    between atoms: C_8  and  C_10 
REMARK    4  A    between atoms: O_12  and  C_8 
REMARK    5  A    between atoms: C_15  and  O_12 
ROOT
ATOM      1  C   UNL d   1      -1.462  -0.095   0.005  0.00  0.00     0.007 A 
ATOM      2  C   UNL d   1       1.347   0.092  -0.166  0.00  0.00     0.040 A 
ATOM      3  C   UNL d   1      -0.810   1.153   0.002  0.00  0.00     0.027 A 
ATOM      4  C   UNL d   1      -0.685  -1.266  -0.101  0.00  0.00    -0.044 A 
ATOM      5  C   UNL d   1       0.718  -1.154  -0.167  0.00  0.00     0.032 A 
ATOM      6  C   UNL d   1       0.588   1.264  -0.099  0.00  0.00    -0.039 A 
ATOM      7 CL   UNL d   1       3.072   0.130  -0.234  0.00  0.00    -0.084 Cl
ATOM      8  C   UNL d   1      -1.253  -2.662  -0.107  0.00  0.00     0.049 C 
ATOM      9  C   UNL d   1       1.227   2.624  -0.115  0.00  0.00     0.050 C 
ENDROOT
BRANCH   1  10
ATOM     10  S   UNL d   1      -3.241  -0.185   0.231  0.00  0.00    -0.120 SA
BRANCH  10  11
ATOM     11  C   UNL d   1      -3.828   1.231  -0.751  0.00  0.00     0.190 C 
BRANCH  11  12
ATOM     12  C   UNL d   1      -5.308   1.123  -1.048  0.00  0.00     0.268 C 
ATOM     13  O   UNL d   1      -5.933   0.096  -1.270  0.00  0.00    -0.264 OA
BRANCH  12  14
ATOM     14  O   UNL d   1      -5.831   2.386  -1.144  0.00  0.00    -0.321 OA
BRANCH  14  15
ATOM     15  C   UNL d   1      -7.188   2.469  -1.611  0.00  0.00     0.174 C 
ATOM     16  C   UNL d   1      -7.180   2.552  -3.126  0.00  0.00     0.034 C 
ENDBRANCH  14  15
ENDBRANCH  12  14
ENDBRANCH  11  12
ENDBRANCH  10  11
ENDBRANCH   1  10
TORSDOF 5
