REMARK  4 active torsions:
REMARK  status: ('A' for Active; 'I' for Inactive)
REMARK    1  A    between atoms: C_6  and  C_1 
REMARK    2  A    between atoms: N_5  and  C_2 
REMARK    3  A    between atoms: O_12  and  C_6 
REMARK    4  A    between atoms: C_10  and  O_12 
ROOT
ATOM      1  C   UNL d   1       3.837  -0.076   0.521  0.00  0.00     0.307 C 
ATOM      2  O   UNL d   1       4.597   0.769   0.983  0.00  0.00    -0.258 OA
ENDROOT
BRANCH   1   3
ATOM      3  C   UNL d   1       2.400   0.046   0.355  0.00  0.00     0.103 A 
ATOM      4  S   UNL d   1       1.680   1.557   0.729  0.00  0.00    -0.082 SA
ATOM      5  C   UNL d   1       0.092   0.990   0.409  0.00  0.00     0.018 A 
ATOM      6  C   UNL d   1      -1.106   1.723   0.526  0.00  0.00     0.020 A 
ATOM      7  C   UNL d   1       0.098  -0.343  -0.001  0.00  0.00     0.004 A 
ATOM      8  C   UNL d   1      -2.316   1.102   0.206  0.00  0.00     0.001 A 
ATOM      9  C   UNL d   1      -2.339  -0.216  -0.215  0.00  0.00     0.001 A 
ATOM     10  C   UNL d   1      -1.151  -0.943  -0.316  0.00  0.00     0.014 A 
ATOM     11  C   UNL d   1       1.435  -0.878  -0.008  0.00  0.00     0.068 A 
ATOM     12 CL   UNL d   1       1.697  -2.539  -0.403  0.00  0.00    -0.082 Cl
ENDBRANCH   1   3
BRANCH   1  13
ATOM     13  O   UNL d   1       4.249  -1.352   0.145  0.00  0.00    -0.270 OA
BRANCH  13  14
ATOM     14  C   UNL d   1       5.271  -2.069   0.806  0.00  0.00     0.129 A 
ATOM     15  C   UNL d   1       5.823  -3.213   0.218  0.00  0.00     0.208 A 
ATOM     16  N   UNL d   1       6.583  -4.095   0.945  0.00  0.00    -0.339 N 
ATOM     17  C   UNL d   1       6.802  -3.837   2.255  0.00  0.00     0.007 A 
ATOM     18  HN  UNL d   1       6.974  -4.928   0.507  1.00  0.00     0.167 HD
ATOM     19  C   UNL d   1       6.343  -2.684   2.874  0.00  0.00     0.027 A 
ATOM     20  C   UNL d   1       7.518  -4.895   3.039  0.00  0.00     0.068 C 
ATOM     21  C   UNL d   1       5.564  -1.794   2.144  0.00  0.00     0.043 A 
BRANCH  15  22
ATOM     22  N   UNL d   1       5.550  -3.491  -1.220  0.00  0.00    -0.095 N 
ATOM     23  O   UNL d   1       5.162  -2.564  -1.949  0.00  0.00    -0.530 OA
ATOM     24  O   UNL d   1       5.758  -4.647  -1.619  0.00  0.00    -0.530 OA
ENDBRANCH  15  22
ENDBRANCH  13  14
ENDBRANCH   1  13
TORSDOF 4
