REMARK  5 active torsions:
REMARK  status: ('A' for Active; 'I' for Inactive)
REMARK    1  A    between atoms: C_2  and  S_1 
REMARK    2  A    between atoms: C_3  and  S_1 
REMARK    3  A    between atoms: C_5  and  C_2 
REMARK    4  A    between atoms: N_14  and  C_4 
REMARK    5  A    between atoms: O_16  and  C_5 
ROOT
ATOM      1  S   UNL d   1       0.944   1.224   2.693  0.00  0.00     0.214 S 
ATOM      2  O   UNL d   1       2.362   1.432   2.947  0.00  0.00    -0.217 OA
ATOM      3  O   UNL d   1       0.324   0.031   3.264  0.00  0.00    -0.217 OA
ENDROOT
BRANCH   1   4
ATOM      4  C   UNL d   1       0.699   1.299   0.969  0.00  0.00     0.154 C 
ATOM      5  C   UNL d   1       0.120   0.233   0.377  0.00  0.00     0.115 C 
BRANCH   5   6
ATOM      6  N   UNL d   1      -0.093  -0.163  -0.947  0.00  0.00    -0.397 N 
ATOM      7  C   UNL d   1       0.921   0.024  -1.997  0.00  0.00     0.148 C 
ATOM      8  C   UNL d   1      -1.086  -1.189  -1.284  0.00  0.00     0.148 C 
ENDBRANCH   5   6
BRANCH   4   9
ATOM      9  C   UNL d   1       1.307   2.439   0.253  0.00  0.00     0.306 C 
ATOM     10  O   UNL d   1       1.861   2.382  -0.833  0.00  0.00    -0.258 OA
BRANCH   9  11
ATOM     11  O   UNL d   1       1.153   3.583   0.965  0.00  0.00    -0.322 OA
ATOM     12  C   UNL d   1       1.758   4.751   0.397  0.00  0.00     0.213 C 
ENDBRANCH   9  11
ENDBRANCH   4   9
ENDBRANCH   1   4
BRANCH   1  13
ATOM     13  C   UNL d   1       0.074   2.604   3.462  0.00  0.00     0.071 A 
ATOM     14  C   UNL d   1       0.873   3.555   4.135  0.00  0.00     0.032 A 
ATOM     15  C   UNL d   1       0.307   4.602   4.881  0.00  0.00    -0.039 A 
ATOM     16  C   UNL d   1       1.202   5.534   5.650  0.00  0.00     0.050 C 
ATOM     17  C   UNL d   1      -1.085   4.705   4.925  0.00  0.00     0.040 A 
ATOM     18  C   UNL d   1      -1.885   3.766   4.266  0.00  0.00     0.032 A 
ATOM     19 CL   UNL d   1      -1.872   5.960   5.816  0.00  0.00    -0.084 Cl
ATOM     20  C   UNL d   1      -1.327   2.684   3.549  0.00  0.00    -0.038 A 
ATOM     21  C   UNL d   1      -2.306   1.705   2.967  0.00  0.00     0.050 C 
ENDBRANCH   1  13
TORSDOF 5
