REMARK  3 active torsions:
REMARK  status: ('A' for Active; 'I' for Inactive)
REMARK       I    between atoms: N_2  and  C_1 
REMARK    1  A    between atoms: C_3  and  C_1 
REMARK       I    between atoms: C_4  and  N_2 
REMARK       I    between atoms: N_8  and  C_4 
REMARK    2  A    between atoms: C_5  and  C_12 
REMARK    3  A    between atoms: C_12  and  N_8 
ROOT
ATOM      1  C   UNL d   1       0.894  -0.043  -0.111  0.00  0.00     0.262 C 
ATOM      2  N   UNL d   1       0.338   1.120   0.396  0.00  0.00    -0.275 N 
ATOM      3  C   UNL d   1       0.925   2.188   1.022  0.00  0.00     0.323 C 
ATOM      4  N   UNL d   1       2.279   2.284   0.948  0.00  0.00    -0.342 N 
ATOM      5  O   UNL d   1       2.096  -0.200  -0.306  0.00  0.00    -0.267 OA
ATOM      6  O   UNL d   1       0.213   2.983   1.627  0.00  0.00    -0.247 OA
ATOM      7  H   UNL d   1      -0.663   1.143   0.546  0.00  0.00     0.173 HD
ATOM      8  H   UNL d   1       2.775   1.501   0.531  0.00  0.00     0.164 HD
ENDROOT
BRANCH   1   9
ATOM      9  C   UNL d   1      -0.073  -1.129  -0.476  0.00  0.00     0.070 A 
ATOM     10  C   UNL d   1      -1.387  -1.148   0.002  0.00  0.00     0.132 A 
ATOM     11  F   UNL d   1      -1.836  -0.179   0.814  0.00  0.00    -0.205 F 
ATOM     12  C   UNL d   1      -2.274  -2.166  -0.346  0.00  0.00     0.043 A 
ATOM     13  C   UNL d   1      -1.852  -3.190  -1.190  0.00  0.00     0.003 A 
ATOM     14  C   UNL d   1      -0.543  -3.192  -1.675  0.00  0.00     0.001 A 
ATOM     15  C   UNL d   1       0.346  -2.169  -1.317  0.00  0.00     0.020 A 
ENDBRANCH   1   9
BRANCH   4  16
ATOM     16  C   UNL d   1       3.013   3.238   1.744  0.00  0.00     0.129 C 
BRANCH  16  17
ATOM     17  C   UNL d   1       3.941   4.043   0.893  0.00  0.00     0.003 A 
ATOM     18  C   UNL d   1       5.141   3.442   0.206  0.00  0.00     0.007 A 
ATOM     19  C   UNL d   1       5.333   4.337   1.398  0.00  0.00     0.007 A 
ENDBRANCH  16  17
ENDBRANCH   4  16
TORSDOF 3
