REMARK  2 active torsions:
REMARK  status: ('A' for Active; 'I' for Inactive)
REMARK    1  A    between atoms: O_7  and  C_1 
REMARK    2  A    between atoms: C_10  and  O_7 
ROOT
ATOM      1  C   UNL d   1      -0.721   1.182  -0.036  0.00  0.00     0.166 C 
ATOM      2  N   UNL d   1      -0.579  -1.254  -0.069  0.00  0.00    -0.298 N 
ATOM      3  C   UNL d   1      -1.380  -0.154  -0.235  0.00  0.00     0.283 C 
ATOM      4  C   UNL d   1       0.778  -1.216   0.009  0.00  0.00     0.179 C 
ATOM      5  C   UNL d   1       0.627   1.197   0.019  0.00  0.00     0.047 C 
ATOM      6  N   UNL d   1       1.348   0.022   0.029  0.00  0.00    -0.334 N 
ATOM      7  S   UNL d   1       1.696  -2.599   0.067  0.00  0.00    -0.040 SA
ATOM      8  O   UNL d   1      -2.555  -0.292  -0.564  0.00  0.00    -0.265 OA
ATOM      9  C   UNL d   1       1.448   2.454   0.075  0.00  0.00     0.071 C 
ATOM     10  H   UNL d   1      -1.028  -2.152  -0.181  0.00  0.00     0.171 HD
ATOM     11  H   UNL d   1       2.362   0.056   0.073  0.00  0.00     0.168 HD
ENDROOT
BRANCH   1  12
ATOM     12  O   UNL d   1      -1.435   2.374  -0.051  0.00  0.00    -0.303 OA
BRANCH  12  13
ATOM     13  C   UNL d   1      -2.685   2.475   0.511  0.00  0.00     0.076 A 
ATOM     14  C   UNL d   1      -3.143   1.715   1.590  0.00  0.00     0.037 A 
ATOM     15  C   UNL d   1      -4.447   1.889   2.062  0.00  0.00     0.003 A 
ATOM     16  C   UNL d   1      -5.276   2.854   1.491  0.00  0.00     0.000 A 
ATOM     17  C   UNL d   1      -4.801   3.658   0.457  0.00  0.00     0.003 A 
ATOM     18  C   UNL d   1      -3.506   3.469  -0.029  0.00  0.00     0.037 A 
ENDBRANCH  12  13
ENDBRANCH   1  12
TORSDOF 2
