REMARK  3 active torsions:
REMARK  status: ('A' for Active; 'I' for Inactive)
REMARK    1  A    between atoms: N_2  and  S_1 
REMARK    2  A    between atoms: C_4  and  S_1 
REMARK    3  A    between atoms: C_3  and  C_8 
ROOT
ATOM      1  N   UNL d   1       0.313  -1.509   0.455  0.00  0.00    -0.188 N 
ATOM      2  N   UNL d   1      -0.971  -1.966   0.358  0.00  0.00    -0.284 N 
ATOM      3  HN  UNL d   1      -1.786  -1.478  -0.015  1.00  0.00     0.188 HD
ATOM      4  C   UNL d   1      -0.913  -3.204   0.865  0.00  0.00     0.063 A 
ATOM      5  C   UNL d   1       1.132  -2.396   1.113  0.00  0.00     0.131 A 
ATOM      6  C   UNL d   1       0.379  -3.523   1.337  0.00  0.00     0.052 A 
ENDROOT
BRANCH   1   7
ATOM      7  S   UNL d   1       0.877   0.056  -0.038  0.00  0.00     0.283 S 
ATOM      8  O   UNL d   1       0.131   0.355  -1.242  0.00  0.00    -0.198 OA
ATOM      9  O   UNL d   1       2.327  -0.051  -0.015  0.00  0.00    -0.198 OA
BRANCH   7  10
ATOM     10  C   UNL d   1       0.407   1.224   1.209  0.00  0.00     0.103 A 
ATOM     11  C   UNL d   1       0.787   2.561   1.045  0.00  0.00     0.059 A 
ATOM     12  C   UNL d   1       0.457   3.505   2.021  0.00  0.00     0.050 A 
ATOM     13 CL   UNL d   1       1.669   3.147  -0.321  0.00  0.00    -0.083 Cl
ATOM     14  C   UNL d   1      -0.250   3.128   3.164  0.00  0.00     0.041 A 
ATOM     15  C   UNL d   1      -0.643   1.794   3.347  0.00  0.00    -0.039 A 
ATOM     16 CL   UNL d   1      -0.602   4.365   4.315  0.00  0.00    -0.084 Cl
ATOM     17  C   UNL d   1      -0.310   0.845   2.355  0.00  0.00     0.035 A 
ATOM     18  C   UNL d   1      -1.409   1.317   4.552  0.00  0.00     0.050 C 
ENDBRANCH   7  10
ENDBRANCH   1   7
BRANCH   4  19
ATOM     19  C   UNL d   1      -2.079  -4.095   0.926  0.00  0.00     0.023 A 
ATOM     20  C   UNL d   1      -2.391  -5.004   1.914  0.00  0.00     0.088 A 
ATOM     21  S   UNL d   1      -3.843  -5.840   1.629  0.00  0.00    -0.065 SA
ATOM     22 CL   UNL d   1      -1.546  -5.351   3.375  0.00  0.00    -0.075 Cl
ATOM     23  C   UNL d   1      -4.089  -4.988   0.189  0.00  0.00     0.077 A 
ATOM     24  C   UNL d   1      -3.091  -4.088  -0.093  0.00  0.00     0.047 A 
ATOM     25 CL   UNL d   1      -5.494  -5.297  -0.748  0.00  0.00    -0.076 Cl
ENDBRANCH   4  19
TORSDOF 3
