REMARK  5 active torsions:
REMARK  status: ('A' for Active; 'I' for Inactive)
REMARK    1  A    between atoms: C_2  and  C_1 
REMARK       I    between atoms: N_5  and  C_1 
REMARK    2  A    between atoms: O_9  and  N_3 
REMARK    3  A    between atoms: C_7  and  N_5 
REMARK    4  A    between atoms: O_14  and  C_8 
REMARK    5  A    between atoms: C_15  and  O_14 
ROOT
ATOM      1  C   UNL d   1      -1.228   0.797   0.894  0.00  0.00     0.035 A 
ATOM      2  C   UNL d   1      -4.039   0.801   1.117  0.00  0.00     0.068 A 
ATOM      3  C   UNL d   1      -1.946  -0.399   0.891  0.00  0.00     0.032 A 
ATOM      4  C   UNL d   1      -1.931   2.000   1.024  0.00  0.00     0.032 A 
ATOM      5  C   UNL d   1      -3.326   1.999   1.147  0.00  0.00     0.039 A 
ATOM      6  C   UNL d   1      -3.343  -0.398   1.002  0.00  0.00     0.039 A 
ENDROOT
BRANCH   1   7
ATOM      7  N   UNL d   1       0.178   0.864   0.782  0.00  0.00    -0.322 N 
ATOM      8  C   UNL d   1       1.047  -0.208   0.716  0.00  0.00     0.263 C 
ATOM      9  O   UNL d   1       0.799  -1.404   0.737  0.00  0.00    -0.267 OA
ATOM     10  H   UNL d   1       0.584   1.791   0.756  0.00  0.00     0.169 HD
BRANCH   8  11
ATOM     11  C   UNL d   1       2.494   0.206   0.681  0.00  0.00     0.188 C 
ATOM     12  N   UNL d   1       3.240  -0.094  -0.330  0.00  0.00    -0.275 N 
ATOM     13  HN  UNL d   1       2.934  -0.587  -1.169  1.00  0.00     0.193 HD
BRANCH  12  14
ATOM     14  O   UNL d   1       4.539   0.369  -0.086  0.00  0.00    -0.290 OA
ATOM     15  H   UNL d   1       5.050  -0.054  -0.803  0.00  0.00     0.244 HD
ENDBRANCH  12  14
ENDBRANCH   8  11
ENDBRANCH   1   7
BRANCH   2  16
ATOM     16  O   UNL d   1      -5.397   0.914   1.244  0.00  0.00    -0.352 OA
BRANCH  16  17
ATOM     17  C   UNL d   1      -6.158  -0.144   0.657  0.00  0.00     0.171 C 
ATOM     18  C   UNL d   1      -7.631   0.205   0.774  0.00  0.00     0.034 C 
ENDBRANCH  16  17
ENDBRANCH   2  16
TORSDOF 5
