REMARK  3 active torsions:
REMARK  status: ('A' for Active; 'I' for Inactive)
REMARK    1  A    between atoms: C_2  and  C_1 
REMARK    2  A    between atoms: O_3  and  C_1 
REMARK    3  A    between atoms: C_5  and  O_3 
ROOT
ATOM      1  O   UNL d   1       0.192  -0.282  -0.837  0.00  0.00    -0.274 OA
ENDROOT
BRANCH   1   2
ATOM      2  C   UNL d   1       0.965   0.721  -0.285  0.00  0.00     0.304 C 
ATOM      3  O   UNL d   1       0.906   1.911  -0.540  0.00  0.00    -0.259 OA
BRANCH   2   4
ATOM      4  C   UNL d   1       1.776   0.125   0.798  0.00  0.00     0.116 A 
ATOM      5  C   UNL d   1       2.018   0.876   1.946  0.00  0.00     0.135 A 
ATOM      6  F   UNL d   1       1.579   2.137   2.059  0.00  0.00    -0.205 F 
ATOM      7  C   UNL d   1       2.688   0.320   3.038  0.00  0.00     0.043 A 
ATOM      8  C   UNL d   1       3.120  -1.004   2.990  0.00  0.00     0.006 A 
ATOM      9  C   UNL d   1       2.895  -1.759   1.840  0.00  0.00     0.043 A 
ATOM     10  C   UNL d   1       2.232  -1.191   0.751  0.00  0.00     0.135 A 
ATOM     11  F   UNL d   1       2.052  -1.953  -0.338  0.00  0.00    -0.205 F 
ENDBRANCH   2   4
ENDBRANCH   1   2
BRANCH   1  12
ATOM     12  C   UNL d   1      -1.181  -0.078  -1.113  0.00  0.00     0.092 A 
ATOM     13  C   UNL d   1      -1.836  -0.994  -1.964  0.00  0.00     0.026 A 
ATOM     14  C   UNL d   1      -3.230  -0.957  -2.039  0.00  0.00     0.045 A 
ATOM     15  C   UNL d   1      -1.403  -2.051  -2.815  0.00  0.00     0.033 A 
ATOM     16  N   UNL d   1      -3.619  -1.967  -2.890  0.00  0.00    -0.365 N 
ATOM     17  C   UNL d   1      -4.002  -0.035  -1.321  0.00  0.00     0.030 A 
ATOM     18  C   UNL d   1      -2.521  -2.626  -3.377  0.00  0.00     0.089 A 
ATOM     19  H   UNL d   1      -4.579  -2.188  -3.116  0.00  0.00     0.165 HD
ATOM     20  C   UNL d   1      -3.327   0.887  -0.516  0.00  0.00     0.005 A 
ATOM     21  C   UNL d   1      -1.938   0.866  -0.404  0.00  0.00     0.038 A 
ENDBRANCH   1  12
TORSDOF 3
