REMARK  3 active torsions:
REMARK  status: ('A' for Active; 'I' for Inactive)
REMARK    1  A    between atoms: C_3  and  C_1 
REMARK    2  A    between atoms: C_4  and  C_2 
REMARK    3  A    between atoms: O_19  and  C_14 
ROOT
ATOM      1  C   UNL d   1       0.732   1.295  -0.011  0.00  0.00     0.040 A 
ATOM      2  C   UNL d   1       1.474   0.105   0.026  0.00  0.00     0.067 A 
ATOM      3  C   UNL d   1      -0.662   1.171  -0.036  0.00  0.00     0.106 A 
ATOM      4  N   UNL d   1      -1.345   0.006  -0.004  0.00  0.00    -0.346 N 
ATOM      5  HN  UNL d   1      -2.365  -0.019   0.001  1.00  0.00     0.167 HD
ATOM      6  C   UNL d   1      -0.610  -1.120   0.021  0.00  0.00     0.142 A 
ATOM      7  C   UNL d   1       0.772  -1.120   0.026  0.00  0.00     0.073 A 
ENDROOT
BRANCH   1   8
ATOM      8  C   UNL d   1       1.321   2.625  -0.039  0.00  0.00     0.133 A 
ATOM      9  N   UNL d   1       2.369   3.026  -0.734  0.00  0.00    -0.336 N 
ATOM     10  C   UNL d   1       2.518   4.334  -0.370  0.00  0.00     0.199 A 
ATOM     11  HN  UNL d   1       2.934   2.486  -1.389  1.00  0.00     0.168 HD
ATOM     12  N   UNL d   1       1.600   4.796   0.479  0.00  0.00    -0.295 N 
ATOM     13  N   UNL d   1       0.851   3.700   0.677  0.00  0.00    -0.284 N 
ATOM     14  HN  UNL d   1       1.495   5.731   0.872  1.00  0.00     0.187 HD
ATOM     15  H   UNL d   1       0.060   3.749   1.305  0.00  0.00     0.188 HD
ENDBRANCH   1   8
BRANCH   2  16
ATOM     16  C   UNL d   1       2.980   0.011   0.075  0.00  0.00     0.418 C 
ATOM     17  F   UNL d   1       3.657   1.143   0.383  0.00  0.00    -0.166 F 
ATOM     18  F   UNL d   1       3.377  -0.890   1.026  0.00  0.00    -0.166 F 
ATOM     19  F   UNL d   1       3.503  -0.454  -1.094  0.00  0.00    -0.166 F 
ENDBRANCH   2  16
BRANCH   6  20
ATOM     20  O   UNL d   1      -1.228  -2.353   0.048  0.00  0.00    -0.341 OA
ATOM     21  C   UNL d   1      -2.649  -2.264   0.086  0.00  0.00     0.211 C 
ENDBRANCH   6  20
TORSDOF 3
