REMARK  1 active torsions:
REMARK  status: ('A' for Active; 'I' for Inactive)
REMARK    1  A    between atoms: C_2  and  C_1 
ROOT
ATOM      1  C   UNL d   1       2.627   1.534   0.030  0.00  0.00     0.060 A 
ATOM      2  N   UNL d   1       4.692   2.277  -0.553  0.00  0.00    -0.311 N 
ATOM      3  HN  UNL d   1       5.591   2.368  -1.028  1.00  0.00     0.186 HD
ATOM      4  N   UNL d   1       3.709   1.391  -0.793  0.00  0.00    -0.300 N 
ATOM      5  C   UNL d   1       2.926   2.596   0.853  0.00  0.00     0.050 A 
ATOM      6  C   UNL d   1       4.212   3.008   0.455  0.00  0.00     0.109 A 
ATOM      7  H   UNL d   1       3.843   0.717  -1.538  0.00  0.00     0.187 HD
ENDROOT
BRANCH   1   8
ATOM      8  C   UNL d   1       1.401   0.688   0.014  0.00  0.00    -0.001 A 
ATOM      9  C   UNL d   1       0.323   0.909   0.845  0.00  0.00     0.063 A 
ATOM     10  S   UNL d   1      -0.928  -0.236   0.606  0.00  0.00    -0.113 SA
ATOM     11  C   UNL d   1      -0.034  -1.037  -0.611  0.00  0.00     0.050 A 
ATOM     12  C   UNL d   1       1.188  -0.439  -0.836  0.00  0.00     0.021 A 
ENDBRANCH   1   8
TORSDOF 1
