REMARK  5 active torsions:
REMARK  status: ('A' for Active; 'I' for Inactive)
REMARK    1  A    between atoms: C_7  and  C_1 
REMARK    2  A    between atoms: C_4  and  C_7 
REMARK    3  A    between atoms: C_12  and  C_6 
REMARK    4  A    between atoms: C_14  and  C_9 
REMARK    5  A    between atoms: O_20  and  C_15 
ROOT
ATOM      1  C   UNL d   1       0.888  -3.423   0.141  0.00  0.00     0.097 C 
ATOM      2  C   UNL d   1       0.780  -4.705   0.553  0.00  0.00     0.038 C 
ATOM      3  C   UNL d   1      -0.244  -2.676  -0.295  0.00  0.00     0.103 C 
ATOM      4  N   UNL d   1      -1.191  -2.113  -0.655  0.00  0.00    -0.191 NA
ENDROOT
BRANCH   1   5
ATOM      5  C   UNL d   1       2.284  -2.881   0.080  0.00  0.00     0.221 C 
ATOM      6  O   UNL d   1       3.249  -3.648   0.079  0.00  0.00    -0.284 OA
BRANCH   5   7
ATOM      7  C   UNL d   1       2.495  -1.434   0.033  0.00  0.00     0.108 A 
ATOM      8  N   UNL d   1       1.528  -0.509   0.091  0.00  0.00    -0.257 N 
ATOM      9  O   UNL d   1       2.156   0.721   0.040  0.00  0.00    -0.241 OA
ATOM     10  HN  UNL d   1       0.525  -0.679   0.159  1.00  0.00     0.195 HD
ATOM     11  C   UNL d   1       3.506   0.548  -0.023  0.00  0.00     0.086 A 
ATOM     12  C   UNL d   1       3.767  -0.800  -0.038  0.00  0.00     0.071 A 
BRANCH  11  13
ATOM     13  C   UNL d   1       4.357   1.789  -0.035  0.00  0.00     0.000 C 
ATOM     14  C   UNL d   1       5.852   1.415  -0.077  0.00  0.00     0.021 C 
ATOM     15  C   UNL d   1       4.028   2.647  -1.268  0.00  0.00     0.021 C 
ATOM     16  C   UNL d   1       4.096   2.612   1.239  0.00  0.00     0.021 C 
ENDBRANCH  11  13
ENDBRANCH   5   7
ENDBRANCH   1   5
BRANCH   2  17
ATOM     17  C   UNL d   1      -0.462  -5.485   0.562  0.00  0.00    -0.035 A 
ATOM     18  C   UNL d   1      -0.814  -6.223  -0.572  0.00  0.00     0.014 A 
ATOM     19  C   UNL d   1      -2.011  -6.943  -0.606  0.00  0.00     0.037 A 
ATOM     20  C   UNL d   1      -2.865  -6.941   0.497  0.00  0.00     0.068 A 
ATOM     21  C   UNL d   1      -2.495  -6.229   1.642  0.00  0.00     0.037 A 
ATOM     22  C   UNL d   1      -1.302  -5.499   1.677  0.00  0.00     0.014 A 
BRANCH  20  23
ATOM     23  O   UNL d   1      -4.070  -7.584   0.572  0.00  0.00    -0.356 OA
ATOM     24  C   UNL d   1      -4.484  -8.291  -0.592  0.00  0.00     0.210 C 
ENDBRANCH  20  23
ENDBRANCH   2  17
TORSDOF 5
