REMARK  3 active torsions:
REMARK  status: ('A' for Active; 'I' for Inactive)
REMARK    1  A    between atoms: C_13  and  N_4 
REMARK    2  A    between atoms: C_16  and  C_13 
REMARK    3  A    between atoms: O_17  and  C_14 
ROOT
ATOM      1  C   UNL d   1      -0.963   0.475   0.096  0.00  0.00     0.042 C 
ATOM      2  N   UNL d   1      -1.708   1.491  -0.218  0.00  0.00    -0.305 N 
ATOM      3  HN  UNL d   1      -1.417   2.402  -0.573  1.00  0.00     0.186 HD
ATOM      4  N   UNL d   1      -2.964   1.055   0.036  0.00  0.00    -0.323 N 
ATOM      5  C   UNL d   1       0.490   0.395  -0.005  0.00  0.00    -0.005 A 
ATOM      6  C   UNL d   1      -1.711  -0.706   0.661  0.00  0.00     0.058 C 
ATOM      7  C   UNL d   1       1.040  -0.874  -0.231  0.00  0.00    -0.043 A 
ATOM      8  C   UNL d   1      -3.084  -0.397   0.084  0.00  0.00     0.153 C 
ATOM      9  C   UNL d   1       1.292   1.519   0.161  0.00  0.00     0.017 A 
ATOM     10  C   UNL d   1      -1.111  -2.070   0.354  0.00  0.00     0.017 C 
ATOM     11  C   UNL d   1       2.434  -1.012  -0.255  0.00  0.00     0.044 A 
ATOM     12  C   UNL d   1       0.124  -2.029  -0.549  0.00  0.00     0.040 C 
ATOM     13  C   UNL d   1       3.256   0.102  -0.044  0.00  0.00     0.068 A 
ATOM     14  C   UNL d   1       2.678   1.363   0.148  0.00  0.00     0.037 A 
ENDROOT
BRANCH   4  15
ATOM     15  C   UNL d   1      -4.159   1.826  -0.259  0.00  0.00     0.180 C 
BRANCH  15  16
ATOM     16  C   UNL d   1      -5.011   1.983   0.985  0.00  0.00    -0.039 A 
ATOM     17  C   UNL d   1      -4.479   2.628   2.114  0.00  0.00     0.009 A 
ATOM     18  C   UNL d   1      -5.216   2.725   3.294  0.00  0.00     0.001 A 
ATOM     19  C   UNL d   1      -6.498   2.186   3.357  0.00  0.00     0.000 A 
ATOM     20  C   UNL d   1      -7.047   1.561   2.238  0.00  0.00     0.001 A 
ATOM     21  C   UNL d   1      -6.309   1.460   1.054  0.00  0.00     0.009 A 
ENDBRANCH  15  16
ENDBRANCH   4  15
BRANCH  13  22
ATOM     22  O   UNL d   1       4.624   0.092  -0.011  0.00  0.00    -0.356 OA
ATOM     23  C   UNL d   1       5.261  -1.174  -0.122  0.00  0.00     0.210 C 
ENDBRANCH  13  22
TORSDOF 3
