REMARK  6 active torsions:
REMARK  status: ('A' for Active; 'I' for Inactive)
REMARK    1  A    between atoms: C_2  and  C_1 
REMARK    2  A    between atoms: C_3  and  C_1 
REMARK    3  A    between atoms: N_4  and  C_1 
REMARK    4  A    between atoms: N_6  and  C_1 
REMARK       I    between atoms: C_8  and  N_4 
REMARK    5  A    between atoms: C_5  and  C_7 
REMARK    6  A    between atoms: C_9  and  N_6 
ROOT
ATOM      1  C   UNL d   1       0.705   0.204  -0.037  0.00  0.00     0.290 C 
ENDROOT
BRANCH   1   2
ATOM      2  C   UNL d   1      -0.015   1.548   0.324  0.00  0.00     0.435 C 
ATOM      3  F   UNL d   1      -1.244   1.694  -0.212  0.00  0.00    -0.167 F 
ATOM      4  F   UNL d   1      -0.191   1.696   1.663  0.00  0.00    -0.167 F 
ATOM      5  F   UNL d   1       0.720   2.615  -0.088  0.00  0.00    -0.167 F 
ENDBRANCH   1   2
BRANCH   1   6
ATOM      6  C   UNL d   1       0.543   0.117  -1.604  0.00  0.00     0.435 C 
ATOM      7  F   UNL d   1      -0.358   0.939  -2.165  0.00  0.00    -0.167 F 
ATOM      8  F   UNL d   1       1.744   0.426  -2.188  0.00  0.00    -0.167 F 
ATOM      9  F   UNL d   1       0.264  -1.146  -2.017  0.00  0.00    -0.167 F 
ENDBRANCH   1   6
BRANCH   1  10
ATOM     10  N   UNL d   1       0.273  -0.995   0.688  0.00  0.00    -0.324 N 
ATOM     11  C   UNL d   1      -1.008  -1.453   0.646  0.00  0.00     0.215 C 
ATOM     12  O   UNL d   1      -1.892  -0.843   0.056  0.00  0.00    -0.274 OA
ATOM     13  C   UNL d   1      -1.248  -2.735   1.396  0.00  0.00     0.117 C 
ATOM     14  H   UNL d   1       1.025  -1.571   1.043  0.00  0.00     0.165 HD
ENDBRANCH   1  10
BRANCH   1  15
ATOM     15  N   UNL d   1       2.202   0.144   0.290  0.00  0.00    -0.251 NA
ATOM     16  H   UNL d   1       2.729   0.391  -0.556  0.00  0.00     0.130 HD
BRANCH  15  17
ATOM     17  C   UNL d   1       2.768   0.772   1.400  0.00  0.00     0.011 C 
ATOM     18  C   UNL d   1       2.144   0.845   2.650  0.00  0.00     0.039 C 
ATOM     19  C   UNL d   1       2.722   1.546   3.721  0.00  0.00     0.049 C 
ATOM     20  C   UNL d   1       4.006   2.081   3.574  0.00  0.00     0.016 C 
ATOM     21  C   UNL d   1       4.692   1.919   2.375  0.00  0.00     0.003 C 
ATOM     22  C   UNL d   1       4.077   1.263   1.304  0.00  0.00     0.023 C 
BRANCH  19  23
ATOM     23  C   UNL d   1       1.953   1.758   5.004  0.00  0.00     0.417 C 
ATOM     24  F   UNL d   1       0.731   1.158   5.015  0.00  0.00    -0.166 F 
ATOM     25  F   UNL d   1       2.613   1.277   6.094  0.00  0.00    -0.166 F 
ATOM     26  F   UNL d   1       1.725   3.077   5.258  0.00  0.00    -0.166 F 
ENDBRANCH  19  23
ENDBRANCH  15  17
ENDBRANCH   1  15
TORSDOF 6
