REMARK  6 active torsions:
REMARK  status: ('A' for Active; 'I' for Inactive)
REMARK    1  A    between atoms: C_6  and  C_1 
REMARK    2  A    between atoms: C_15  and  N_2 
REMARK    3  A    between atoms: C_20  and  C_3 
REMARK       I    between atoms: N_11  and  C_6 
REMARK    4  A    between atoms: N_9  and  C_8 
REMARK    5  A    between atoms: C_14  and  N_11 
REMARK    6  A    between atoms: C_27  and  C_20 
ROOT
ATOM      1  C   UNL d   1      -0.654   2.613   0.037  0.00  0.00     0.259 C 
ATOM      2  N   UNL d   1       0.393   3.517   0.133  0.00  0.00    -0.323 N 
ATOM      3  O   UNL d   1      -1.832   2.920  -0.100  0.00  0.00    -0.267 OA
ATOM      4  H   UNL d   1       1.313   3.144   0.304  0.00  0.00     0.169 HD
ENDROOT
BRANCH   1   5
ATOM      5  C   UNL d   1      -0.241   1.206   0.106  0.00  0.00     0.073 C 
ATOM      6  C   UNL d   1      -1.068   0.085   0.221  0.00  0.00     0.051 C 
ATOM      7  N   UNL d   1      -0.226  -1.027   0.264  0.00  0.00    -0.260 N 
ATOM      8  N   UNL d   1       1.057  -0.671  -0.016  0.00  0.00    -0.304 N 
ATOM      9  C   UNL d   1       1.048   0.654  -0.032  0.00  0.00     0.126 C 
ATOM     10  HN  UNL d   1       1.852  -1.289  -0.179  1.00  0.00     0.186 HD
BRANCH   6  11
ATOM     11  C   UNL d   1      -2.568   0.014   0.141  0.00  0.00     0.060 C 
BRANCH  11  12
ATOM     12  C   UNL d   1      -3.272   0.472   1.419  0.00  0.00     0.002 C 
ATOM     13  C   UNL d   1      -4.784   0.387   1.268  0.00  0.00     0.005 C 
ENDBRANCH  11  12
ENDBRANCH   6  11
BRANCH   7  14
ATOM     14  C   UNL d   1      -0.486  -2.392   0.586  0.00  0.00     0.056 A 
ATOM     15  C   UNL d   1       0.381  -3.383   0.095  0.00  0.00     0.031 A 
ATOM     16  C   UNL d   1       0.211  -4.720   0.462  0.00  0.00     0.002 A 
ATOM     17  C   UNL d   1      -0.807  -5.076   1.342  0.00  0.00     0.000 A 
ATOM     18  C   UNL d   1      -1.668  -4.100   1.839  0.00  0.00     0.002 A 
ATOM     19  C   UNL d   1      -1.516  -2.763   1.455  0.00  0.00     0.031 A 
ENDBRANCH   7  14
ENDBRANCH   1   5
BRANCH   2  20
ATOM     20  C   UNL d   1       0.334   4.923  -0.018  0.00  0.00     0.036 A 
ATOM     21  C   UNL d   1      -0.830   5.652  -0.245  0.00  0.00     0.055 A 
ATOM     22  C   UNL d   1      -0.792   7.048  -0.467  0.00  0.00     0.062 A 
ATOM     23 CL   UNL d   1      -2.339   7.757  -0.807  0.00  0.00    -0.082 Cl
ATOM     24  C   UNL d   1       0.426   7.765  -0.464  0.00  0.00     0.052 A 
ATOM     25  C   UNL d   1       1.577   6.995  -0.171  0.00  0.00     0.033 A 
ATOM     26  C   UNL d   1       1.542   5.611   0.036  0.00  0.00     0.032 A 
BRANCH  24  27
ATOM     27  N   UNL d   1       0.626   9.132  -0.672  0.00  0.00    -0.375 N 
ATOM     28  C   UNL d   1      -0.453  10.134  -0.578  0.00  0.00     0.149 C 
ATOM     29  C   UNL d   1       0.151  11.540  -0.379  0.00  0.00     0.187 C 
ATOM     30  O   UNL d   1       1.114  11.872  -1.393  0.00  0.00    -0.388 OA
ATOM     31  C   UNL d   1       2.167  10.894  -1.415  0.00  0.00     0.187 C 
ATOM     32  C   UNL d   1       1.606   9.500  -1.726  0.00  0.00     0.149 C 
ENDBRANCH  24  27
ENDBRANCH   2  20
TORSDOF 6
