REMARK  6 active torsions:
REMARK  status: ('A' for Active; 'I' for Inactive)
REMARK    1  A    between atoms: C_2  and  N_1 
REMARK    2  A    between atoms: O_9  and  C_3 
REMARK    3  A    between atoms: C_4  and  C_12 
REMARK    4  A    between atoms: C_5  and  C_15 
REMARK    5  A    between atoms: C_19  and  C_6 
REMARK    6  A    between atoms: C_24  and  O_9 
ROOT
ATOM      1  C   UNL d   1       1.643   2.150   4.380  0.00  0.00     0.055 C 
ATOM      2  C   UNL d   1       1.064   1.488   5.405  0.00  0.00     0.034 C 
ATOM      3  C   UNL d   1       0.859   2.584   3.261  0.00  0.00     0.100 C 
ATOM      4  N   UNL d   1       0.234   2.932   2.342  0.00  0.00    -0.191 NA
ENDROOT
BRANCH   1   5
ATOM      5  C   UNL d   1       3.110   2.425   4.386  0.00  0.00    -0.015 A 
ATOM      6  C   UNL d   1       3.843   2.483   3.186  0.00  0.00     0.016 A 
ATOM      7  C   UNL d   1       5.215   2.776   3.184  0.00  0.00     0.038 A 
ATOM      8  C   UNL d   1       5.886   3.007   4.383  0.00  0.00     0.077 A 
ATOM      9  C   UNL d   1       5.167   2.986   5.579  0.00  0.00     0.038 A 
ATOM     10  C   UNL d   1       3.800   2.687   5.581  0.00  0.00     0.016 A 
BRANCH   8  11
ATOM     11  O   UNL d   1       7.228   3.318   4.305  0.00  0.00    -0.291 OA
BRANCH  11  12
ATOM     12  C   UNL d   1       8.042   2.889   5.340  0.00  0.00     0.181 A 
ATOM     13  C   UNL d   1       9.099   3.670   5.772  0.00  0.00     0.154 A 
ATOM     14  C   UNL d   1       9.902   3.235   6.832  0.00  0.00     0.042 A 
ATOM     15  C   UNL d   1       9.614   2.009   7.423  0.00  0.00     0.020 A 
ATOM     16  C   UNL d   1       8.563   1.263   6.912  0.00  0.00     0.090 A 
ATOM     17  N   UNL d   1       7.788   1.668   5.882  0.00  0.00    -0.345 N 
ATOM     18  HN  UNL d   1       7.037   1.078   5.523  1.00  0.00     0.167 HD
BRANCH  13  19
ATOM     19  N   UNL d   1       9.369   4.947   5.168  0.00  0.00    -0.111 N 
ATOM     20  O   UNL d   1       8.461   5.788   5.177  0.00  0.00    -0.532 OA
ATOM     21  O   UNL d   1      10.517   5.132   4.743  0.00  0.00    -0.532 OA
ENDBRANCH  13  19
ENDBRANCH  11  12
ENDBRANCH   8  11
ENDBRANCH   1   5
BRANCH   2  22
ATOM     22  C   UNL d   1      -0.365   1.165   5.498  0.00  0.00    -0.035 A 
ATOM     23  C   UNL d   1      -0.822  -0.079   5.051  0.00  0.00     0.012 A 
ATOM     24  C   UNL d   1      -2.181  -0.397   5.124  0.00  0.00     0.017 A 
ATOM     25  C   UNL d   1      -3.103   0.521   5.647  0.00  0.00     0.048 A 
ATOM     26  C   UNL d   1      -2.636   1.766   6.097  0.00  0.00     0.017 A 
ATOM     27  C   UNL d   1      -1.276   2.086   6.023  0.00  0.00     0.012 A 
BRANCH  25  28
ATOM     28  C   UNL d   1      -4.573   0.187   5.733  0.00  0.00     0.417 C 
ATOM     29  F   UNL d   1      -4.883  -1.045   5.241  0.00  0.00    -0.166 F 
ATOM     30  F   UNL d   1      -5.033   0.200   7.016  0.00  0.00    -0.166 F 
ATOM     31  F   UNL d   1      -5.353   1.069   5.049  0.00  0.00    -0.166 F 
ENDBRANCH  25  28
ENDBRANCH   2  22
TORSDOF 6
