REMARK  2 active torsions:
REMARK  status: ('A' for Active; 'I' for Inactive)
REMARK       I    between atoms: C_4  and  N_1 
REMARK    1  A    between atoms: C_13  and  C_4 
REMARK    2  A    between atoms: C_10  and  C_5 
ROOT
ATOM      1  N   UNL d   1       0.217  -0.826  -0.699  0.00  0.00    -0.231 N 
ATOM      2  N   UNL d   1      -0.214   0.400  -1.101  0.00  0.00    -0.291 N 
ATOM      3  HN  UNL d   1      -0.395   0.712  -2.056  1.00  0.00     0.187 HD
ATOM      4  C   UNL d   1       0.459  -1.854  -1.631  0.00  0.00     0.276 C 
ATOM      5  C   UNL d   1      -0.350   1.112   0.029  0.00  0.00     0.060 A 
ATOM      6  C   UNL d   1      -0.039   0.321   1.164  0.00  0.00     0.051 A 
ATOM      7  C   UNL d   1       0.363  -0.892   0.666  0.00  0.00     0.122 A 
ATOM      8  O   UNL d   1       1.168  -2.792  -1.266  0.00  0.00    -0.265 OA
ENDROOT
BRANCH   5   9
ATOM      9  C   UNL d   1      -0.765   2.517   0.016  0.00  0.00    -0.007 A 
ATOM     10  C   UNL d   1      -0.358   3.378  -1.016  0.00  0.00     0.023 A 
ATOM     11  C   UNL d   1      -0.701   4.742  -0.998  0.00  0.00    -0.024 A 
ATOM     12  C   UNL d   1      -0.232   5.652  -2.095  0.00  0.00     0.044 C 
ATOM     13  C   UNL d   1      -1.496   5.229   0.042  0.00  0.00     0.076 A 
ATOM     14  C   UNL d   1      -0.335   7.107  -1.653  0.00  0.00     0.042 C 
ATOM     15  C   UNL d   1      -1.686   7.389  -0.978  0.00  0.00     0.061 C 
ATOM     16  O   UNL d   1      -1.903   6.530   0.156  0.00  0.00    -0.340 OA
ATOM     17  C   UNL d   1      -1.679   8.819  -0.419  0.00  0.00     0.046 C 
ATOM     18  C   UNL d   1      -2.873   7.249  -1.943  0.00  0.00     0.046 C 
ATOM     19  C   UNL d   1      -1.908   4.381   1.067  0.00  0.00     0.038 A 
ATOM     20  C   UNL d   1      -1.543   3.033   1.059  0.00  0.00     0.016 A 
ENDBRANCH   5   9
BRANCH   4  21
ATOM     21  C   UNL d   1      -0.140  -1.903  -2.991  0.00  0.00     0.034 A 
ATOM     22  C   UNL d   1       0.553  -2.541  -4.030  0.00  0.00     0.019 A 
ATOM     23  C   UNL d   1      -0.052  -2.694  -5.280  0.00  0.00     0.025 A 
ATOM     24  C   UNL d   1      -1.353  -2.225  -5.486  0.00  0.00     0.034 A 
ATOM     25  C   UNL d   1      -2.048  -1.600  -4.453  0.00  0.00     0.025 A 
ATOM     26 CL   UNL d   1      -2.111  -2.446  -7.013  0.00  0.00    -0.084 Cl
ATOM     27  C   UNL d   1      -1.445  -1.439  -3.207  0.00  0.00     0.019 A 
ENDBRANCH   4  21
TORSDOF 2
