REMARK  4 active torsions:
REMARK  status: ('A' for Active; 'I' for Inactive)
REMARK    1  A    between atoms: C_5  and  C_1 
REMARK    2  A    between atoms: C_7  and  C_2 
REMARK       I    between atoms: N_8  and  C_5 
REMARK    3  A    between atoms: C_10  and  C_6 
REMARK    4  A    between atoms: C_14  and  N_8 
ROOT
ATOM      1  C   UNL d   1       1.121   0.682   0.074  0.00  0.00     0.073 A 
ATOM      2  C   UNL d   1      -0.178   1.153  -0.067  0.00  0.00     0.175 A 
ATOM      3  O   UNL d   1      -1.062   0.104  -0.009  0.00  0.00    -0.304 OA
ATOM      4  C   UNL d   1       0.982  -0.727   0.287  0.00  0.00     0.058 A 
ATOM      5  C   UNL d   1      -0.352  -1.043   0.189  0.00  0.00     0.087 A 
ENDROOT
BRANCH   1   6
ATOM      6  C   UNL d   1       2.418   1.359   0.062  0.00  0.00     0.259 C 
ATOM      7  N   UNL d   1       2.474   2.587  -0.568  0.00  0.00    -0.323 N 
ATOM      8  H   UNL d   1       1.607   3.013  -0.867  0.00  0.00     0.169 HD
ATOM      9  O   UNL d   1       3.378   0.795   0.576  0.00  0.00    -0.267 OA
BRANCH   7  10
ATOM     10  C   UNL d   1       3.621   3.393  -0.740  0.00  0.00     0.035 A 
ATOM     11  C   UNL d   1       4.926   2.959  -0.482  0.00  0.00     0.032 A 
ATOM     12  C   UNL d   1       6.005   3.837  -0.620  0.00  0.00     0.044 A 
ATOM     13  C   UNL d   1       5.781   5.144  -1.024  0.00  0.00     0.116 A 
ATOM     14  C   UNL d   1       4.499   5.585  -1.320  0.00  0.00     0.044 A 
ATOM     15  F   UNL d   1       6.813   5.990  -1.127  0.00  0.00    -0.206 F 
ATOM     16  C   UNL d   1       3.420   4.707  -1.189  0.00  0.00     0.032 A 
ENDBRANCH   7  10
ENDBRANCH   1   6
BRANCH   2  17
ATOM     17  C   UNL d   1      -0.805   2.485  -0.246  0.00  0.00     0.440 C 
ATOM     18  F   UNL d   1       0.106   3.492  -0.168  0.00  0.00    -0.164 F 
ATOM     19  F   UNL d   1      -1.389   2.610  -1.465  0.00  0.00    -0.164 F 
ATOM     20  F   UNL d   1      -1.755   2.748   0.684  0.00  0.00    -0.164 F 
ENDBRANCH   2  17
BRANCH   5  21
ATOM     21  C   UNL d   1      -1.099  -2.292   0.240  0.00  0.00    -0.002 A 
ATOM     22  C   UNL d   1      -2.490  -2.315   0.408  0.00  0.00     0.014 A 
ATOM     23  C   UNL d   1      -3.185  -3.527   0.452  0.00  0.00     0.001 A 
ATOM     24  C   UNL d   1      -2.498  -4.733   0.324  0.00  0.00     0.000 A 
ATOM     25  C   UNL d   1      -1.117  -4.728   0.153  0.00  0.00     0.001 A 
ATOM     26  C   UNL d   1      -0.422  -3.519   0.113  0.00  0.00     0.014 A 
ENDBRANCH   5  21
TORSDOF 4
