REMARK  8 active torsions:
REMARK  status: ('A' for Active; 'I' for Inactive)
REMARK    1  A    between atoms: S_8  and  C_2 
REMARK    2  A    between atoms: S_9  and  C_3 
REMARK    3  A    between atoms: C_17  and  S_8 
REMARK    4  A    between atoms: C_16  and  S_9 
REMARK    5  A    between atoms: C_10  and  C_17 
REMARK       I    between atoms: N_12  and  C_10 
REMARK    6  A    between atoms: C_11  and  C_16 
REMARK       I    between atoms: N_13  and  C_11 
REMARK    7  A    between atoms: C_19  and  N_12 
REMARK    8  A    between atoms: C_20  and  N_13 
ROOT
ATOM      1  N   UNL d   1       1.191  -0.044   0.107  0.00  0.00    -0.310 N 
ATOM      2  C   UNL d   1       0.348   0.906  -0.412  0.00  0.00     0.163 A 
ATOM      3  C   UNL d   1       0.363  -0.990   0.660  0.00  0.00     0.163 A 
ATOM      4  N   UNL d   1      -0.897   0.614  -0.100  0.00  0.00    -0.278 N 
ATOM      5  HN  UNL d   1      -1.719   1.182  -0.305  1.00  0.00     0.189 HD
ATOM      6  N   UNL d   1      -0.888  -0.593   0.553  0.00  0.00    -0.278 N 
ATOM      7  HN  UNL d   1      -1.707  -1.095   0.896  1.00  0.00     0.189 HD
ATOM      8  C   UNL d   1       2.634  -0.041   0.086  0.00  0.00     0.160 C 
ENDROOT
BRANCH   2   9
ATOM      9  S   UNL d   1       0.862   2.223  -1.402  0.00  0.00    -0.083 SA
BRANCH   9  10
ATOM     10  C   UNL d   1      -0.685   3.144  -1.657  0.00  0.00     0.185 C 
BRANCH  10  11
ATOM     11  C   UNL d   1      -1.540   2.557  -2.772  0.00  0.00     0.231 C 
ATOM     12  N   UNL d   1      -2.082   1.318  -2.483  0.00  0.00    -0.327 N 
ATOM     13  H   UNL d   1      -1.979   0.984  -1.525  0.00  0.00     0.169 HD
ATOM     14  O   UNL d   1      -1.764   3.208  -3.791  0.00  0.00    -0.272 OA
BRANCH  12  15
ATOM     15  C   UNL d   1      -2.835   0.500  -3.343  0.00  0.00     0.034 A 
ATOM     16  C   UNL d   1      -2.864   0.661  -4.730  0.00  0.00     0.031 A 
ATOM     17  C   UNL d   1      -3.634  -0.195  -5.524  0.00  0.00     0.026 A 
ATOM     18  C   UNL d   1      -4.388  -1.203  -4.929  0.00  0.00     0.034 A 
ATOM     19  C   UNL d   1      -4.359  -1.379  -3.548  0.00  0.00     0.026 A 
ATOM     20 CL   UNL d   1      -5.356  -2.237  -5.904  0.00  0.00    -0.084 Cl
ATOM     21  C   UNL d   1      -3.567  -0.540  -2.759  0.00  0.00     0.031 A 
ENDBRANCH  12  15
ENDBRANCH  10  11
ENDBRANCH   9  10
ENDBRANCH   2   9
BRANCH   3  22
ATOM     22  S   UNL d   1       0.897  -2.500   1.316  0.00  0.00    -0.083 SA
BRANCH  22  23
ATOM     23  C   UNL d   1      -0.703  -3.355   1.456  0.00  0.00     0.185 C 
BRANCH  23  24
ATOM     24  C   UNL d   1      -0.628  -4.808   1.901  0.00  0.00     0.231 C 
ATOM     25  N   UNL d   1       0.495  -5.192   2.609  0.00  0.00    -0.327 N 
ATOM     26  H   UNL d   1       1.100  -4.452   2.944  0.00  0.00     0.169 HD
ATOM     27  O   UNL d   1      -1.596  -5.541   1.692  0.00  0.00    -0.272 OA
BRANCH  25  28
ATOM     28  C   UNL d   1       0.785  -6.509   3.036  0.00  0.00     0.034 A 
ATOM     29  C   UNL d   1       0.223  -7.641   2.435  0.00  0.00     0.031 A 
ATOM     30  C   UNL d   1       0.542  -8.925   2.891  0.00  0.00     0.026 A 
ATOM     31  C   UNL d   1       1.415  -9.081   3.961  0.00  0.00     0.034 A 
ATOM     32  C   UNL d   1       1.989  -7.964   4.566  0.00  0.00     0.026 A 
ATOM     33 CL   UNL d   1       1.790 -10.657   4.539  0.00  0.00    -0.084 Cl
ATOM     34  C   UNL d   1       1.689  -6.679   4.091  0.00  0.00     0.031 A 
ENDBRANCH  25  28
ENDBRANCH  23  24
ENDBRANCH  22  23
ENDBRANCH   3  22
TORSDOF 8
