REMARK  6 active torsions:
REMARK  status: ('A' for Active; 'I' for Inactive)
REMARK    1  A    between atoms: C_3  and  C_1 
REMARK       I    between atoms: N_9  and  C_3 
REMARK    2  A    between atoms: C_7  and  S_12 
REMARK    3  A    between atoms: C_17  and  N_9 
REMARK    4  A    between atoms: S_12  and  C_18 
REMARK    5  A    between atoms: C_16  and  C_17 
REMARK    6  A    between atoms: C_18  and  C_16 
ROOT
ATOM      1  C   UNL d   1      -3.103  -1.209  -1.148  0.00  0.00     0.253 C 
ATOM      2  O   UNL d   1      -3.541  -1.466  -2.266  0.00  0.00    -0.268 OA
ATOM      3  N   UNL d   1      -3.752  -1.581   0.009  0.00  0.00    -0.357 N 
ATOM      4  H   UNL d   1      -3.381  -1.280   0.903  0.00  0.00     0.162 HD
ENDROOT
BRANCH   3   5
ATOM      5  C   UNL d   1      -5.047  -2.237  -0.005  0.00  0.00     0.123 C 
BRANCH   5   6
ATOM      6  C   UNL d   1      -6.196  -1.228  -0.027  0.00  0.00     0.030 C 
BRANCH   6   7
ATOM      7  C   UNL d   1      -7.553  -1.936  -0.013  0.00  0.00     0.081 C 
BRANCH   7   8
ATOM      8  S   UNL d   1      -8.895  -0.695  -0.086  0.00  0.00    -0.127 SA
BRANCH   8   9
ATOM      9  C   UNL d   1     -10.338  -1.746   0.026  0.00  0.00     0.039 A 
ATOM     10  C   UNL d   1     -10.573  -2.600   1.108  0.00  0.00     0.133 A 
ATOM     11  F   UNL d   1      -9.691  -2.689   2.116  0.00  0.00    -0.205 F 
ATOM     12  C   UNL d   1     -11.736  -3.368   1.185  0.00  0.00     0.044 A 
ATOM     13  C   UNL d   1     -12.690  -3.284   0.174  0.00  0.00     0.003 A 
ATOM     14  C   UNL d   1     -12.480  -2.428  -0.907  0.00  0.00     0.002 A 
ATOM     15  C   UNL d   1     -11.313  -1.658  -0.978  0.00  0.00     0.021 A 
ENDBRANCH   8   9
ENDBRANCH   7   8
ENDBRANCH   6   7
ENDBRANCH   5   6
ENDBRANCH   3   5
BRANCH   1  16
ATOM     16  C   UNL d   1      -1.784  -0.519  -1.020  0.00  0.00     0.053 A 
ATOM     17  C   UNL d   1      -1.406   0.331   0.030  0.00  0.00     0.051 A 
ATOM     18  C   UNL d   1      -0.136   0.926   0.034  0.00  0.00     0.048 A 
ATOM     19 CL   UNL d   1      -2.446   0.745   1.349  0.00  0.00    -0.083 Cl
ATOM     20  C   UNL d   1       0.757   0.682  -1.007  0.00  0.00     0.035 A 
ATOM     21  C   UNL d   1       0.397  -0.150  -2.060  0.00  0.00     0.025 A 
ATOM     22 CL   UNL d   1       2.311   1.420  -0.993  0.00  0.00    -0.084 Cl
ATOM     23  C   UNL d   1      -0.869  -0.743  -2.067  0.00  0.00     0.020 A 
ENDBRANCH   1  16
TORSDOF 6
