REMARK  5 active torsions:
REMARK  status: ('A' for Active; 'I' for Inactive)
REMARK    1  A    between atoms: C_6  and  C_1 
REMARK    2  A    between atoms: O_14  and  C_2 
REMARK    3  A    between atoms: C_10  and  N_3 
REMARK    4  A    between atoms: C_8  and  C_6 
REMARK    5  A    between atoms: S_15  and  C_9 
ROOT
ATOM      1  C   UNL d   1      -0.141  -1.362  -0.192  0.00  0.00     0.091 C 
ATOM      2  C   UNL d   1       1.137  -0.848  -0.369  0.00  0.00     0.178 C 
ATOM      3  N   UNL d   1       1.044   0.528  -0.137  0.00  0.00    -0.233 N 
ATOM      4  N   UNL d   1      -0.231   0.894   0.155  0.00  0.00    -0.295 N 
ATOM      5  HN  UNL d   1      -0.563   1.821   0.422  1.00  0.00     0.187 HD
ATOM      6  C   UNL d   1      -0.955  -0.218   0.018  0.00  0.00     0.041 C 
ATOM      7  C   UNL d   1      -2.434  -0.163   0.163  0.00  0.00     0.071 C 
ENDROOT
BRANCH   1   8
ATOM      8  C   UNL d   1      -0.577  -2.754  -0.177  0.00  0.00     0.201 C 
ATOM      9  O   UNL d   1      -1.727  -3.083  -0.443  0.00  0.00    -0.286 OA
BRANCH   8  10
ATOM     10  C   UNL d   1       0.373  -3.771   0.329  0.00  0.00     0.049 A 
ATOM     11  C   UNL d   1       0.672  -4.946  -0.362  0.00  0.00     0.083 A 
ATOM     12  N   UNL d   1       1.593  -5.830   0.110  0.00  0.00    -0.360 N 
ATOM     13  C   UNL d   1       2.197  -5.568   1.290  0.00  0.00     0.089 A 
ATOM     14  HN  UNL d   1       1.822  -6.673  -0.416  1.00  0.00     0.166 HD
ATOM     15  C   UNL d   1       1.939  -4.442   2.045  0.00  0.00     0.018 A 
ATOM     16  C   UNL d   1       1.011  -3.534   1.558  0.00  0.00     0.020 A 
BRANCH  11  17
ATOM     17  S   UNL d   1      -0.013  -5.337  -1.966  0.00  0.00    -0.116 SA
ATOM     18  C   UNL d   1       0.530  -7.060  -2.155  0.00  0.00     0.097 C 
ENDBRANCH  11  17
ENDBRANCH   8  10
ENDBRANCH   1   8
BRANCH   2  19
ATOM     19  O   UNL d   1       2.303  -1.444  -0.632  0.00  0.00    -0.344 OA
ATOM     20  H   UNL d   1       2.151  -2.356  -0.933  0.00  0.00     0.219 HD
ENDBRANCH   2  19
BRANCH   3  21
ATOM     21  C   UNL d   1       2.082   1.504  -0.149  0.00  0.00     0.059 A 
ATOM     22  C   UNL d   1       3.257   1.306  -0.886  0.00  0.00     0.031 A 
ATOM     23  C   UNL d   1       4.267   2.272  -0.869  0.00  0.00     0.002 A 
ATOM     24  C   UNL d   1       4.120   3.426  -0.103  0.00  0.00     0.000 A 
ATOM     25  C   UNL d   1       2.952   3.631   0.630  0.00  0.00     0.002 A 
ATOM     26  C   UNL d   1       1.926   2.684   0.594  0.00  0.00     0.031 A 
ENDBRANCH   3  21
TORSDOF 5
