REMARK  2 active torsions:
REMARK  status: ('A' for Active; 'I' for Inactive)
REMARK    1  A    between atoms: C_9  and  C_1 
REMARK    2  A    between atoms: C_7  and  N_3 
ROOT
ATOM      1  C   UNL d   1      -0.267  -1.062  -0.038  0.00  0.00     0.115 C 
ATOM      2  N   UNL d   1       0.876   0.752  -0.420  0.00  0.00    -0.014 NA
ATOM      3  N   UNL d   1      -0.399   1.121  -0.138  0.00  0.00    -0.242 N 
ATOM      4  N   UNL d   1       0.977  -0.562  -0.296  0.00  0.00    -0.278 N 
ATOM      5  HN  UNL d   1       1.836  -1.106  -0.378  1.00  0.00     0.184 HD
ATOM      6  C   UNL d   1      -1.181  -0.016   0.007  0.00  0.00     0.060 C 
ATOM      7  C   UNL d   1      -2.662  -0.077   0.076  0.00  0.00     0.072 C 
ENDROOT
BRANCH   3   8
ATOM      8  C   UNL d   1      -0.719   2.502  -0.036  0.00  0.00     0.056 A 
ATOM      9  C   UNL d   1      -1.800   2.955   0.732  0.00  0.00     0.058 A 
ATOM     10  C   UNL d   1      -2.075   4.325   0.802  0.00  0.00     0.074 A 
ATOM     11 CL   UNL d   1      -3.400   4.869   1.759  0.00  0.00    -0.081 Cl
ATOM     12  C   UNL d   1      -1.276   5.239   0.117  0.00  0.00     0.138 A 
ATOM     13  C   UNL d   1      -0.187   4.802  -0.627  0.00  0.00     0.046 A 
ATOM     14  F   UNL d   1      -1.536   6.553   0.170  0.00  0.00    -0.204 F 
ATOM     15  C   UNL d   1       0.102   3.438  -0.692  0.00  0.00     0.034 A 
ENDBRANCH   3   8
BRANCH   1  16
ATOM     16  C   UNL d   1      -0.530  -2.491   0.105  0.00  0.00     0.175 C 
ATOM     17  O   UNL d   1      -1.665  -2.923   0.310  0.00  0.00    -0.291 OA
ATOM     18  C   UNL d   1       0.626  -3.454  -0.024  0.00  0.00     0.098 C 
ENDBRANCH   1  16
TORSDOF 2
