REMARK  9 active torsions:
REMARK  status: ('A' for Active; 'I' for Inactive)
REMARK    1  A    between atoms: S_4  and  C_1 
REMARK    2  A    between atoms: N_9  and  C_2 
REMARK    3  A    between atoms: C_12  and  C_3 
REMARK    4  A    between atoms: C_19  and  S_4 
REMARK    5  A    between atoms: S_20  and  C_5 
REMARK    6  A    between atoms: S_7  and  C_8 
REMARK    7  A    between atoms: C_21  and  S_7 
REMARK    8  A    between atoms: N_10  and  N_9 
REMARK    9  A    between atoms: O_23  and  C_12 
ROOT
ATOM      1  C   UNL d   1       3.605   3.225   0.401  0.00  0.00     0.224 C 
ATOM      2  N   UNL d   1       2.410   2.867   0.803  0.00  0.00    -0.281 N 
ATOM      3  HN  UNL d   1       2.292   2.237   1.596  1.00  0.00     0.188 HD
ATOM      4  C   UNL d   1       3.744   4.061  -0.760  0.00  0.00     0.131 C 
ATOM      5  N   UNL d   1       3.818   4.746  -1.700  0.00  0.00    -0.189 NA
ENDROOT
BRANCH   1   6
ATOM      6  S   UNL d   1       5.090   2.776   1.235  0.00  0.00     0.205 S 
ATOM      7  O   UNL d   1       6.193   3.329   0.469  0.00  0.00    -0.220 OA
ATOM      8  O   UNL d   1       4.903   3.169   2.621  0.00  0.00    -0.220 OA
BRANCH   6   9
ATOM      9  C   UNL d   1       5.218   0.991   1.169  0.00  0.00     0.108 C 
ATOM     10  C   UNL d   1       5.293   0.477  -0.262  0.00  0.00     0.026 C 
ATOM     11  C   UNL d   1       6.461   0.526   1.939  0.00  0.00     0.026 C 
ENDBRANCH   6   9
ENDBRANCH   1   6
BRANCH   2  12
ATOM     12  N   UNL d   1       1.314   3.365   0.124  0.00  0.00    -0.296 N 
ATOM     13  H   UNL d   1       1.327   4.379  -0.106  0.00  0.00     0.187 HD
BRANCH  12  14
ATOM     14  C   UNL d   1       0.081   2.762   0.098  0.00  0.00     0.094 A 
ATOM     15  C   UNL d   1      -1.163   3.512  -0.011  0.00  0.00     0.112 A 
ATOM     16  C   UNL d   1      -2.278   2.685   0.024  0.00  0.00     0.065 A 
ATOM     17  S   UNL d   1      -1.825   1.046   0.046  0.00  0.00    -0.073 SA
ATOM     18  C   UNL d   1      -0.140   1.391   0.139  0.00  0.00     0.111 A 
BRANCH  15  19
ATOM     19  S   UNL d   1      -1.241   5.248  -0.141  0.00  0.00     0.183 S 
ATOM     20  O   UNL d   1       0.118   5.636  -0.492  0.00  0.00    -0.222 OA
ATOM     21  O   UNL d   1      -2.338   5.509  -1.046  0.00  0.00    -0.222 OA
BRANCH  19  22
ATOM     22  C   UNL d   1      -1.619   5.880   1.500  0.00  0.00     0.105 C 
ATOM     23  C   UNL d   1      -0.459   5.654   2.465  0.00  0.00     0.026 C 
ATOM     24  C   UNL d   1      -1.927   7.376   1.406  0.00  0.00     0.026 C 
ENDBRANCH  19  22
ENDBRANCH  15  19
BRANCH  16  25
ATOM     25  S   UNL d   1      -3.990   3.098   0.131  0.00  0.00    -0.126 SA
ATOM     26  C   UNL d   1      -4.528   2.888  -1.587  0.00  0.00     0.096 C 
ENDBRANCH  16  25
BRANCH  18  27
ATOM     27  C   UNL d   1       0.805   0.280   0.178  0.00  0.00     0.302 C 
ATOM     28  O   UNL d   1       1.995   0.313  -0.125  0.00  0.00    -0.259 OA
BRANCH  27  29
ATOM     29  O   UNL d   1       0.175  -0.856   0.607  0.00  0.00    -0.322 OA
ATOM     30  C   UNL d   1       0.943  -2.059   0.670  0.00  0.00     0.213 C 
ENDBRANCH  27  29
ENDBRANCH  18  27
ENDBRANCH  12  14
ENDBRANCH   2  12
TORSDOF 9
