REMARK  5 active torsions:
REMARK  status: ('A' for Active; 'I' for Inactive)
REMARK    1  A    between atoms: C_9  and  C_3 
REMARK    2  A    between atoms: C_7  and  C_5 
REMARK    3  A    between atoms: N_6  and  C_10 
REMARK    4  A    between atoms: C_11  and  C_7 
REMARK       I    between atoms: N_18  and  C_11 
REMARK    5  A    between atoms: N_19  and  N_18 
ROOT
ATOM      1  N   UNL d   1       0.926  -0.551   0.925  0.00  0.00    -0.352 N 
ATOM      2  HN  UNL d   1       1.381  -1.038   1.698  1.00  0.00     0.166 HD
ATOM      3  C   UNL d   1       0.181  -1.139   0.004  0.00  0.00     0.084 A 
ATOM      4  S   UNL d   1      -0.446  -0.055  -1.185  0.00  0.00    -0.081 SA
ATOM      5  C   UNL d   1       1.007   0.817   0.702  0.00  0.00     0.025 A 
ATOM      6  C   UNL d   1       0.324   1.258  -0.414  0.00  0.00     0.077 A 
ENDROOT
BRANCH   3   7
ATOM      7  C   UNL d   1      -0.100  -2.593  -0.036  0.00  0.00    -0.000 A 
ATOM      8  C   UNL d   1       0.342  -3.411   1.028  0.00  0.00     0.044 A 
ATOM      9  C   UNL d   1       0.121  -4.801   1.034  0.00  0.00     0.039 A 
ATOM     10  C   UNL d   1      -0.549  -5.380  -0.052  0.00  0.00     0.030 A 
ATOM     11  C   UNL d   1      -1.001  -4.587  -1.106  0.00  0.00     0.003 A 
ATOM     12  C   UNL d   1      -0.782  -3.210  -1.096  0.00  0.00     0.014 A 
BRANCH   9  13
ATOM     13  N   UNL d   1       0.557  -5.613   2.130  0.00  0.00    -0.333 N 
ATOM     14  C   UNL d   1       1.181  -5.181   3.287  0.00  0.00     0.096 A 
ATOM     15  C   UNL d   1       1.399  -6.256   4.122  0.00  0.00     0.019 A 
ATOM     16  C   UNL d   1       0.919  -7.401   3.461  0.00  0.00     0.019 A 
ATOM     17  C   UNL d   1       0.422  -6.987   2.244  0.00  0.00     0.096 A 
ENDBRANCH   9  13
ENDBRANCH   3   7
BRANCH   5  18
ATOM     18  C   UNL d   1       1.801   1.657   1.646  0.00  0.00     0.161 C 
BRANCH  18  19
ATOM     19  C   UNL d   1       2.970   2.316   0.945  0.00  0.00     0.237 C 
ATOM     20  O   UNL d   1       3.055   3.534   0.794  0.00  0.00    -0.272 OA
ATOM     21  N   UNL d   1       3.942   1.429   0.496  0.00  0.00    -0.294 N 
ATOM     22  H   UNL d   1       3.857   0.428   0.678  0.00  0.00     0.183 HD
BRANCH  21  23
ATOM     23  N   UNL d   1       5.100   1.926  -0.138  0.00  0.00    -0.247 NA
ATOM     24  H   UNL d   1       5.166   2.925   0.103  0.00  0.00     0.143 HD
ATOM     25  H   UNL d   1       4.928   1.931  -1.147  0.00  0.00     0.143 HD
ENDBRANCH  21  23
ENDBRANCH  18  19
ENDBRANCH   5  18
TORSDOF 5
