REMARK  11 active torsions:
REMARK  status: ('A' for Active; 'I' for Inactive)
REMARK    1  A    between atoms: C_6  and  C_1 
REMARK    2  A    between atoms: N_18  and  C_4 
REMARK    3  A    between atoms: C_5  and  O_9 
REMARK    4  A    between atoms: O_9  and  C_20 
REMARK    5  A    between atoms: C_29  and  N_18 
REMARK    6  A    between atoms: C_20  and  C_23 
REMARK    7  A    between atoms: C_23  and  C_28 
REMARK    8  A    between atoms: O_26  and  C_23 
REMARK    9  A    between atoms: N_25  and  C_30 
REMARK   10  A    between atoms: C_28  and  N_25 
REMARK   11  A    between atoms: C_30  and  C_29 
ROOT
ATOM      1  N   UNL d   1      -4.763  -5.726   2.157  0.00  0.00     0.087 N 
ATOM      2  H   UNL d   1      -4.000  -6.119   2.706  0.00  0.00     0.316 HD
ENDROOT
BRANCH   1   3
ATOM      3  C   UNL d   1      -4.458  -4.309   1.889  0.00  0.00     0.284 C 
BRANCH   3   4
ATOM      4  C   UNL d   1      -4.155  -3.457   3.142  0.00  0.00     0.125 C 
BRANCH   4   5
ATOM      5  N   UNL d   1      -3.684  -2.137   2.755  0.00  0.00    -0.262 NA
ATOM      6  H   UNL d   1      -4.277  -1.625   2.110  0.00  0.00     0.130 HD
BRANCH   5   7
ATOM      7  C   UNL d   1      -3.436  -1.280   3.817  0.00  0.00     0.157 A 
ATOM      8  N   UNL d   1      -3.671   0.015   3.583  0.00  0.00    -0.329 N 
ATOM      9  C   UNL d   1      -3.429   0.899   4.585  0.00  0.00     0.120 A 
ATOM     10  HN  UNL d   1      -4.023   0.330   2.679  1.00  0.00     0.168 HD
ATOM     11  C   UNL d   1      -2.966   0.490   5.819  0.00  0.00     0.051 A 
ATOM     12  C   UNL d   1      -2.767  -0.862   5.964  0.00  0.00     0.093 A 
ATOM     13  N   UNL d   1      -3.002  -1.753   4.992  0.00  0.00    -0.343 N 
ATOM     14  HN  UNL d   1      -2.856  -2.752   5.140  1.00  0.00     0.167 HD
BRANCH   9  15
ATOM     15  C   UNL d   1      -3.669   2.381   4.351  0.00  0.00     0.432 C 
ATOM     16  F   UNL d   1      -4.174   2.686   3.123  0.00  0.00    -0.165 F 
ATOM     17  F   UNL d   1      -2.527   3.118   4.480  0.00  0.00    -0.165 F 
ATOM     18  F   UNL d   1      -4.546   2.910   5.254  0.00  0.00    -0.165 F 
ENDBRANCH   9  15
ENDBRANCH   5   7
ENDBRANCH   4   5
ENDBRANCH   3   4
ENDBRANCH   1   3
BRANCH   1  19
ATOM     19  C   UNL d   1      -6.052  -5.908   2.832  0.00  0.00     0.303 C 
BRANCH  19  20
ATOM     20  C   UNL d   1      -6.400  -7.378   3.180  0.00  0.00     0.170 C 
BRANCH  20  21
ATOM     21  C   UNL d   1      -5.373  -7.972   4.166  0.00  0.00     0.209 C 
BRANCH  21  22
ATOM     22  O   UNL d   1      -5.780  -9.260   4.632  0.00  0.00    -0.347 OA
BRANCH  22  23
ATOM     23  C   UNL d   1      -4.850 -10.034   5.285  0.00  0.00     0.092 A 
ATOM     24  C   UNL d   1      -3.899  -9.609   6.237  0.00  0.00     0.046 A 
ATOM     25  C   UNL d   1      -3.069 -10.542   6.880  0.00  0.00     0.046 A 
ATOM     26 BR   UNL d   1      -3.653  -7.830   6.872  0.00  0.00    -0.048 Br
ATOM     27  C   UNL d   1      -3.190 -11.897   6.611  0.00  0.00     0.036 A 
ATOM     28  C   UNL d   1      -4.128 -12.340   5.689  0.00  0.00     0.033 A 
ATOM     29 CL   UNL d   1      -2.197 -13.026   7.445  0.00  0.00    -0.084 Cl
ATOM     30  C   UNL d   1      -4.957 -11.422   5.016  0.00  0.00    -0.026 A 
ATOM     31  C   UNL d   1      -5.961 -11.998   4.049  0.00  0.00     0.051 C 
ENDBRANCH  22  23
ENDBRANCH  21  22
ENDBRANCH  20  21
BRANCH  20  32
ATOM     32  O   UNL d   1      -7.716  -7.378   3.764  0.00  0.00    -0.392 OA
ATOM     33  H   UNL d   1      -7.625  -7.217   4.719  0.00  0.00     0.210 HD
ENDBRANCH  20  32
ENDBRANCH  19  20
ENDBRANCH   1  19
TORSDOF 11
