REMARK  6 active torsions:
REMARK  status: ('A' for Active; 'I' for Inactive)
REMARK    1  A    between atoms: N_2  and  S_1 
REMARK    2  A    between atoms: C_10  and  S_1 
REMARK    3  A    between atoms: N_7  and  C_4 
REMARK    4  A    between atoms: S_13  and  C_4 
REMARK       I    between atoms: C_5  and  N_6 
REMARK    5  A    between atoms: C_11  and  C_5 
REMARK    6  A    between atoms: N_6  and  N_7 
ROOT
ATOM      1  N   UNL d   1       0.610  -0.773  -1.344  0.00  0.00    -0.259 N 
ATOM      2  HN  UNL d   1       0.076  -1.642  -1.378  1.00  0.00     0.181 HD
ATOM      3  C   UNL d   1       0.953  -0.216  -2.451  0.00  0.00     0.168 C 
ENDROOT
BRANCH   3   4
ATOM      4  N   UNL d   1       1.697   0.927  -2.693  0.00  0.00    -0.277 N 
ATOM      5  H   UNL d   1       2.229   1.297  -1.889  0.00  0.00     0.189 HD
BRANCH   4   6
ATOM      6  N   UNL d   1       2.411   1.013  -3.911  0.00  0.00    -0.264 N 
ATOM      7  C   UNL d   1       3.603   1.709  -3.919  0.00  0.00     0.270 C 
ATOM      8  O   UNL d   1       4.100   2.203  -2.912  0.00  0.00    -0.266 OA
ATOM      9  H   UNL d   1       1.878   0.803  -4.751  0.00  0.00     0.190 HD
BRANCH   7  10
ATOM     10  C   UNL d   1       4.273   1.856  -5.243  0.00  0.00     0.033 A 
ATOM     11  C   UNL d   1       5.051   2.999  -5.478  0.00  0.00     0.019 A 
ATOM     12  C   UNL d   1       5.730   3.156  -6.691  0.00  0.00     0.025 A 
ATOM     13  C   UNL d   1       5.646   2.162  -7.665  0.00  0.00     0.034 A 
ATOM     14  C   UNL d   1       4.882   1.017  -7.438  0.00  0.00     0.025 A 
ATOM     15 CL   UNL d   1       6.500   2.341  -9.147  0.00  0.00    -0.084 Cl
ATOM     16  C   UNL d   1       4.193   0.861  -6.228  0.00  0.00     0.019 A 
ENDBRANCH   7  10
ENDBRANCH   4   6
ENDBRANCH   3   4
BRANCH   3  17
ATOM     17  S   UNL d   1       0.340  -1.035  -3.927  0.00  0.00    -0.096 SA
ATOM     18  C   UNL d   1      -0.638  -2.378  -3.219  0.00  0.00     0.099 C 
ENDBRANCH   3  17
BRANCH   1  19
ATOM     19  S   UNL d   1       0.987  -0.155   0.092  0.00  0.00     0.264 S 
ATOM     20  O   UNL d   1      -0.234   0.142   0.817  0.00  0.00    -0.200 OA
ATOM     21  O   UNL d   1       2.013   0.861  -0.057  0.00  0.00    -0.200 OA
BRANCH  19  22
ATOM     22  C   UNL d   1       1.742  -1.533   0.944  0.00  0.00     0.079 A 
ATOM     23  C   UNL d   1       3.058  -1.435   1.406  0.00  0.00     0.025 A 
ATOM     24  C   UNL d   1       3.650  -2.537   2.025  0.00  0.00     0.002 A 
ATOM     25  C   UNL d   1       2.929  -3.722   2.185  0.00  0.00     0.000 A 
ATOM     26  C   UNL d   1       1.607  -3.807   1.740  0.00  0.00     0.002 A 
ATOM     27  C   UNL d   1       1.008  -2.711   1.118  0.00  0.00     0.025 A 
ENDBRANCH  19  22
ENDBRANCH   1  19
TORSDOF 6
