REMARK  5 active torsions:
REMARK  status: ('A' for Active; 'I' for Inactive)
REMARK    1  A    between atoms: C_7  and  S_1 
REMARK    2  A    between atoms: N_8  and  S_1 
REMARK    3  A    between atoms: C_4  and  C_11 
REMARK    4  A    between atoms: C_12  and  N_8 
REMARK    5  A    between atoms: C_11  and  C_12 
ROOT
ATOM      1  S   UNL d   1       0.896  -0.118   0.052  0.00  0.00     0.258 S 
ATOM      2  O   UNL d   1       0.621   0.887   1.055  0.00  0.00    -0.201 OA
ATOM      3  O   UNL d   1       0.384  -0.010  -1.292  0.00  0.00    -0.201 OA
ENDROOT
BRANCH   1   4
ATOM      4  C   UNL d   1       0.421  -1.689   0.722  0.00  0.00     0.079 A 
ATOM      5  C   UNL d   1       0.805  -2.006   2.030  0.00  0.00     0.025 A 
ATOM      6  C   UNL d   1       0.497  -3.262   2.548  0.00  0.00     0.002 A 
ATOM      7  C   UNL d   1      -0.200  -4.186   1.767  0.00  0.00     0.000 A 
ATOM      8  C   UNL d   1      -0.597  -3.857   0.469  0.00  0.00     0.002 A 
ATOM      9  C   UNL d   1      -0.288  -2.603  -0.060  0.00  0.00     0.025 A 
ENDBRANCH   1   4
BRANCH   1  10
ATOM     10  N   UNL d   1       2.572  -0.250  -0.024  0.00  0.00    -0.315 N 
ATOM     11  H   UNL d   1       3.024   0.158   0.795  0.00  0.00     0.172 HD
BRANCH  10  12
ATOM     12  C   UNL d   1       3.237  -1.396  -0.662  0.00  0.00     0.133 C 
BRANCH  12  13
ATOM     13  C   UNL d   1       2.897  -1.564  -2.142  0.00  0.00     0.028 C 
BRANCH  13  14
ATOM     14  C   UNL d   1       3.316  -0.377  -2.965  0.00  0.00     0.029 A 
ATOM     15  C   UNL d   1       3.025  -0.291  -4.444  0.00  0.00     0.117 A 
ATOM     16 CL   UNL d   1       2.644   1.291  -5.116  0.00  0.00    -0.101 Cl
ATOM     17 CL   UNL d   1       2.228  -1.618  -5.272  0.00  0.00    -0.101 Cl
ATOM     18  C   UNL d   1       4.435  -0.513  -3.963  0.00  0.00     0.050 A 
ENDBRANCH  13  14
ENDBRANCH  12  13
ENDBRANCH  10  12
ENDBRANCH   1  10
TORSDOF 5
