REMARK  4 active torsions:
REMARK  status: ('A' for Active; 'I' for Inactive)
REMARK    1  A    between atoms: C_6  and  N_1 
REMARK    2  A    between atoms: C_8  and  C_6 
REMARK    3  A    between atoms: C_7  and  C_9 
REMARK    4  A    between atoms: C_10  and  C_8 
ROOT
ATOM      1  C   UNL d   1       3.309  -0.046  -0.192  0.00  0.00     0.219 C 
ENDROOT
BRANCH   1   2
ATOM      2  N   UNL d   1       1.858  -0.088  -0.100  0.00  0.00    -0.273 N 
ATOM      3  C   UNL d   1       1.159  -0.249   1.075  0.00  0.00     0.262 C 
ATOM      4  C   UNL d   1      -0.261  -0.351   0.698  0.00  0.00     0.048 A 
ATOM      5  O   UNL d   1       1.570  -0.356   2.215  0.00  0.00    -0.267 OA
ATOM      6  C   UNL d   1      -1.398  -0.493   1.469  0.00  0.00     0.018 A 
ATOM      7  C   UNL d   1      -0.331  -0.303  -0.679  0.00  0.00     0.048 A 
ATOM      8  C   UNL d   1      -2.630  -0.531   0.800  0.00  0.00     0.001 A 
ATOM      9  C   UNL d   1      -2.697  -0.435  -0.606  0.00  0.00     0.001 A 
ATOM     10  C   UNL d   1      -1.529  -0.333  -1.366  0.00  0.00     0.018 A 
ATOM     11  C   UNL d   1       1.039  -0.245  -1.182  0.00  0.00     0.262 C 
ATOM     12  O   UNL d   1       1.325  -0.409  -2.348  0.00  0.00    -0.267 OA
ENDBRANCH   1   2
BRANCH   1  13
ATOM     13  C   UNL d   1       3.899   1.357  -0.019  0.00  0.00     0.177 C 
ATOM     14  O   UNL d   1       4.270   1.758   1.087  0.00  0.00    -0.291 OA
BRANCH  13  15
ATOM     15  C   UNL d   1       4.010   2.303  -1.181  0.00  0.00     0.012 A 
ATOM     16  C   UNL d   1       4.603   3.563  -0.974  0.00  0.00     0.031 A 
ATOM     17  C   UNL d   1       4.596   4.546  -1.982  0.00  0.00     0.048 A 
ATOM     18  C   UNL d   1       4.023   4.237  -3.223  0.00  0.00     0.016 A 
ATOM     19  C   UNL d   1       3.483   2.976  -3.454  0.00  0.00     0.002 A 
ATOM     20  C   UNL d   1       3.485   2.013  -2.442  0.00  0.00     0.015 A 
BRANCH  17  21
ATOM     21  C   UNL d   1       5.126   5.939  -1.737  0.00  0.00     0.417 C 
ATOM     22  F   UNL d   1       5.664   6.117  -0.500  0.00  0.00    -0.166 F 
ATOM     23  F   UNL d   1       6.096   6.295  -2.624  0.00  0.00    -0.166 F 
ATOM     24  F   UNL d   1       4.150   6.882  -1.859  0.00  0.00    -0.166 F 
ENDBRANCH  17  21
ENDBRANCH  13  15
ENDBRANCH   1  13
TORSDOF 4
