REMARK  4 active torsions:
REMARK  status: ('A' for Active; 'I' for Inactive)
REMARK       I    between atoms: N_2  and  C_1 
REMARK    1  A    between atoms: C_3  and  C_1 
REMARK       I    between atoms: C_4  and  N_2 
REMARK       I    between atoms: N_9  and  C_4 
REMARK    2  A    between atoms: O_6  and  C_5 
REMARK    3  A    between atoms: C_7  and  O_6 
REMARK    4  A    between atoms: C_8  and  N_9 
ROOT
ATOM      1  C   UNL d   1       0.968  -0.459  -0.452  0.00  0.00     0.262 C 
ATOM      2  N   UNL d   1       0.504   0.473  -1.370  0.00  0.00    -0.275 N 
ATOM      3  C   UNL d   1      -0.660   1.177  -1.478  0.00  0.00     0.327 C 
ATOM      4  N   UNL d   1      -0.761   2.164  -2.418  0.00  0.00    -0.309 N 
ATOM      5  O   UNL d   1       2.174  -0.715  -0.477  0.00  0.00    -0.267 OA
ATOM      6  O   UNL d   1      -1.655   0.990  -0.773  0.00  0.00    -0.247 OA
ATOM      7  H   UNL d   1       1.300   0.851  -1.844  0.00  0.00     0.173 HD
ATOM      8  H   UNL d   1      -1.671   2.606  -2.317  0.00  0.00     0.170 HD
ENDROOT
BRANCH   1   9
ATOM      9  C   UNL d   1       0.095  -1.125   0.540  0.00  0.00     0.066 A 
ATOM     10  C   UNL d   1       0.542  -1.389   1.848  0.00  0.00     0.091 A 
ATOM     11  C   UNL d   1      -0.230  -2.192   2.700  0.00  0.00     0.038 A 
ATOM     12  C   UNL d   1      -1.466  -2.685   2.286  0.00  0.00     0.003 A 
ATOM     13  C   UNL d   1      -1.933  -2.390   1.010  0.00  0.00     0.001 A 
ATOM     14  C   UNL d   1      -1.149  -1.637   0.134  0.00  0.00     0.020 A 
BRANCH  10  15
ATOM     15  O   UNL d   1       1.762  -1.026   2.374  0.00  0.00    -0.308 OA
BRANCH  15  16
ATOM     16  C   UNL d   1       2.189   0.284   2.348  0.00  0.00     0.098 A 
ATOM     17  C   UNL d   1       3.572   0.501   2.497  0.00  0.00     0.069 A 
ATOM     18  C   UNL d   1       4.099   1.794   2.461  0.00  0.00     0.050 A 
ATOM     19 CL   UNL d   1       4.670  -0.813   2.736  0.00  0.00    -0.081 Cl
ATOM     20  C   UNL d   1       3.244   2.875   2.272  0.00  0.00     0.035 A 
ATOM     21  C   UNL d   1       1.869   2.678   2.151  0.00  0.00     0.026 A 
ATOM     22 CL   UNL d   1       3.886   4.469   2.199  0.00  0.00    -0.084 Cl
ATOM     23  C   UNL d   1       1.337   1.386   2.213  0.00  0.00     0.041 A 
ENDBRANCH  15  16
ENDBRANCH  10  15
ENDBRANCH   1   9
BRANCH   4  24
ATOM     24  C   UNL d   1       0.171   2.873  -3.205  0.00  0.00     0.039 C 
ATOM     25  C   UNL d   1       1.423   2.413  -3.610  0.00  0.00     0.053 C 
ATOM     26  C   UNL d   1       2.353   3.303  -4.160  0.00  0.00     0.037 C 
ATOM     27 CL   UNL d   1       3.939   2.747  -4.528  0.00  0.00    -0.084 Cl
ATOM     28  C   UNL d   1       2.024   4.634  -4.388  0.00  0.00     0.048 C 
ATOM     29  C   UNL d   1       0.730   5.058  -4.117  0.00  0.00     0.037 C 
ATOM     30  C   UNL d   1      -0.197   4.184  -3.545  0.00  0.00     0.053 C 
ATOM     31 CL   UNL d   1       0.278   6.685  -4.440  0.00  0.00    -0.084 Cl
ENDBRANCH   4  24
TORSDOF 4
