REMARK  2 active torsions:
REMARK  status: ('A' for Active; 'I' for Inactive)
REMARK    1  A    between atoms: N_8  and  C_3 
REMARK    2  A    between atoms: C_7  and  C_4 
ROOT
ATOM      1  N   UNL d   1       0.149  -1.293   0.510  0.00  0.00    -0.336 N 
ATOM      2  HN  UNL d   1       0.594  -2.118   0.912  1.00  0.00     0.168 HD
ATOM      3  C   UNL d   1       0.703  -0.109   0.425  0.00  0.00     0.142 A 
ATOM      4  C   UNL d   1      -1.131  -1.262  -0.026  0.00  0.00     0.051 A 
ATOM      5  S   UNL d   1      -0.260   1.108  -0.309  0.00  0.00    -0.064 SA
ATOM      6  C   UNL d   1      -1.523  -0.029  -0.510  0.00  0.00     0.083 A 
ENDROOT
BRANCH   4   7
ATOM      7  C   UNL d   1      -1.998  -2.435  -0.021  0.00  0.00    -0.009 A 
ATOM      8  C   UNL d   1      -1.877  -3.385   1.002  0.00  0.00     0.014 A 
ATOM      9  C   UNL d   1      -2.749  -4.476   1.066  0.00  0.00     0.001 A 
ATOM     10  C   UNL d   1      -3.742  -4.634   0.100  0.00  0.00     0.000 A 
ATOM     11  C   UNL d   1      -3.852  -3.715  -0.940  0.00  0.00     0.001 A 
ATOM     12  C   UNL d   1      -2.982  -2.623  -1.003  0.00  0.00     0.014 A 
ENDBRANCH   4   7
BRANCH   3  13
ATOM     13  N   UNL d   1       1.941   0.164   0.861  0.00  0.00    -0.380 N 
ATOM     14  H   UNL d   1       2.544  -0.640   1.005  0.00  0.00     0.158 HD
ATOM     15  H   UNL d   1       2.409   0.980   0.488  0.00  0.00     0.158 HD
ENDBRANCH   3  13
TORSDOF 2
