REMARK  6 active torsions:
REMARK  status: ('A' for Active; 'I' for Inactive)
REMARK    1  A    between atoms: C_11  and  C_3 
REMARK    2  A    between atoms: C_12  and  N_5 
REMARK    3  A    between atoms: N_15  and  C_8 
REMARK    4  A    between atoms: O_18  and  C_11 
REMARK    5  A    between atoms: C_23  and  O_18 
REMARK    6  A    between atoms: O_22  and  C_19 
ROOT
ATOM      1  C   UNL d   1      -0.375  -0.738   0.027  0.00  0.00     0.080 A 
ATOM      2  C   UNL d   1      -0.344   0.681   0.061  0.00  0.00     0.023 A 
ATOM      3  C   UNL d   1       0.926   1.372   0.064  0.00  0.00     0.136 A 
ATOM      4  C   UNL d   1       0.855  -1.515   0.033  0.00  0.00     0.281 A 
ATOM      5  N   UNL d   1       2.032  -0.722   0.026  0.00  0.00    -0.219 N 
ATOM      6  N   UNL d   1       2.037   0.685   0.063  0.00  0.00    -0.284 N 
ATOM      7  HN  UNL d   1       2.929   1.180   0.089  1.00  0.00     0.188 HD
ATOM      8  C   UNL d   1      -1.660  -1.237  -0.028  0.00  0.00     0.084 A 
ATOM      9  C   UNL d   1      -1.609   1.226   0.071  0.00  0.00     0.067 A 
ATOM     10  S   UNL d   1      -2.820   0.019   0.015  0.00  0.00    -0.083 SA
ATOM     11  O   UNL d   1       0.814  -2.745   0.079  0.00  0.00    -0.265 OA
ENDROOT
BRANCH   5  12
ATOM     12  C   UNL d   1       3.349  -1.293  -0.079  0.00  0.00     0.060 A 
ATOM     13  C   UNL d   1       3.563  -2.579  -0.600  0.00  0.00     0.034 A 
ATOM     14  C   UNL d   1       4.851  -3.127  -0.707  0.00  0.00     0.039 A 
ATOM     15  C   UNL d   1       5.958  -2.400  -0.288  0.00  0.00     0.068 A 
ATOM     16  C   UNL d   1       5.770  -1.111   0.209  0.00  0.00     0.039 A 
ATOM     17  C   UNL d   1       4.483  -0.563   0.309  0.00  0.00     0.034 A 
BRANCH  15  18
ATOM     18  O   UNL d   1       7.256  -2.823  -0.357  0.00  0.00    -0.356 OA
ATOM     19  C   UNL d   1       7.454  -4.233  -0.374  0.00  0.00     0.210 C 
ENDBRANCH  15  18
ENDBRANCH   5  12
BRANCH   3  20
ATOM     20  C   UNL d   1       1.017   2.897  -0.028  0.00  0.00     0.312 C 
ATOM     21  O   UNL d   1       0.201   3.552  -0.654  0.00  0.00    -0.258 OA
BRANCH  20  22
ATOM     22  O   UNL d   1       2.137   3.352   0.569  0.00  0.00    -0.317 OA
BRANCH  22  23
ATOM     23  C   UNL d   1       2.518   4.681   0.185  0.00  0.00     0.175 C 
ATOM     24  C   UNL d   1       3.363   4.595  -1.074  0.00  0.00     0.034 C 
ENDBRANCH  22  23
ENDBRANCH  20  22
ENDBRANCH   3  20
BRANCH   8  25
ATOM     25  N   UNL d   1      -2.040  -2.527  -0.112  0.00  0.00    -0.393 N 
ATOM     26  H   UNL d   1      -1.349  -3.268   0.018  0.00  0.00     0.156 HD
ATOM     27  H   UNL d   1      -3.004  -2.800   0.047  0.00  0.00     0.156 HD
ENDBRANCH   8  25
TORSDOF 6
