REMARK  2 active torsions:
REMARK  status: ('A' for Active; 'I' for Inactive)
REMARK    1  A    between atoms: C_4  and  C_1 
REMARK       I    between atoms: N_10  and  C_4 
REMARK    2  A    between atoms: C_5  and  N_10 
ROOT
ATOM      1  C   UNL d   1       1.400  -2.803   0.049  0.00  0.00     0.259 C 
ATOM      2  N   UNL d   1       0.729  -3.991   0.231  0.00  0.00    -0.307 N 
ATOM      3  O   UNL d   1       0.906  -1.760  -0.365  0.00  0.00    -0.267 OA
ATOM      4  H   UNL d   1       1.214  -4.776   0.638  0.00  0.00     0.170 HD
ENDROOT
BRANCH   1   5
ATOM      5  C   UNL d   1       2.843  -2.845   0.334  0.00  0.00     0.063 A 
ATOM      6  C   UNL d   1       3.558  -3.786   1.050  0.00  0.00     0.091 A 
ATOM      7  S   UNL d   1       5.236  -3.503   1.087  0.00  0.00    -0.065 SA
ATOM      8 CL   UNL d   1       2.985  -5.178   1.893  0.00  0.00    -0.075 Cl
ATOM      9  C   UNL d   1       5.056  -2.098   0.171  0.00  0.00     0.077 A 
ATOM     10  C   UNL d   1       3.754  -1.830  -0.153  0.00  0.00     0.050 A 
ATOM     11 CL   UNL d   1       6.435  -1.175  -0.266  0.00  0.00    -0.076 Cl
ENDBRANCH   1   5
BRANCH   2  12
ATOM     12  C   UNL d   1      -0.552  -4.243  -0.223  0.00  0.00     0.130 A 
ATOM     13  N   UNL d   1      -1.331  -3.391  -0.892  0.00  0.00    -0.245 N 
ATOM     14  O   UNL d   1      -2.474  -4.088  -1.227  0.00  0.00    -0.241 OA
ATOM     15  HN  UNL d   1      -1.123  -2.417  -1.113  1.00  0.00     0.196 HD
ATOM     16  C   UNL d   1      -2.385  -5.356  -0.753  0.00  0.00     0.076 A 
ATOM     17  C   UNL d   1      -1.195  -5.497  -0.081  0.00  0.00     0.084 A 
ATOM     18  C   UNL d   1      -3.507  -6.253  -1.069  0.00  0.00     0.079 C 
ENDBRANCH   2  12
TORSDOF 2
