REMARK  6 active torsions:
REMARK  status: ('A' for Active; 'I' for Inactive)
REMARK    1  A    between atoms: C_6  and  C_1 
REMARK    2  A    between atoms: S_12  and  C_1 
REMARK    3  A    between atoms: C_2  and  S_12 
REMARK       I    between atoms: N_13  and  C_6 
REMARK    4  A    between atoms: N_21  and  C_7 
REMARK    5  A    between atoms: C_14  and  N_13 
REMARK    6  A    between atoms: N_19  and  C_15 
ROOT
ATOM      1  C   UNL d   1       0.791   0.195  -0.153  0.00  0.00     0.090 C 
ATOM      2  C   UNL d   1       2.099  -0.017  -0.407  0.00  0.00     0.109 C 
ENDROOT
BRANCH   1   3
ATOM      3  C   UNL d   1       0.088  -0.481   1.010  0.00  0.00     0.264 C 
ATOM      4  N   UNL d   1       0.852  -0.636   2.161  0.00  0.00    -0.320 N 
ATOM      5  H   UNL d   1       1.710  -0.102   2.210  0.00  0.00     0.169 HD
ATOM      6  O   UNL d   1      -1.112  -0.728   0.935  0.00  0.00    -0.267 OA
BRANCH   4   7
ATOM      7  C   UNL d   1       0.357  -1.172   3.383  0.00  0.00     0.077 A 
ATOM      8  C   UNL d   1      -0.713  -2.080   3.473  0.00  0.00     0.184 A 
ATOM      9  C   UNL d   1      -1.216  -2.463   4.713  0.00  0.00     0.195 A 
ATOM     10  F   UNL d   1      -1.222  -2.675   2.384  0.00  0.00    -0.200 F 
ATOM     11  F   UNL d   1      -2.255  -3.308   4.785  0.00  0.00    -0.199 F 
ATOM     12  C   UNL d   1      -0.632  -1.988   5.874  0.00  0.00     0.158 A 
ATOM     13  C   UNL d   1       0.479  -1.153   5.811  0.00  0.00     0.048 A 
ATOM     14  F   UNL d   1      -1.121  -2.337   7.072  0.00  0.00    -0.203 F 
ATOM     15  C   UNL d   1       0.983  -0.754   4.565  0.00  0.00     0.036 A 
ENDBRANCH   4   7
ENDBRANCH   1   3
BRANCH   1  16
ATOM     16  S   UNL d   1      -0.203   1.339  -1.001  0.00  0.00    -0.057 SA
BRANCH  16  17
ATOM     17  C   UNL d   1      -0.918   0.330  -2.252  0.00  0.00     0.135 A 
ATOM     18  S   UNL d   1      -1.075  -1.380  -2.276  0.00  0.00    -0.026 SA
ATOM     19  C   UNL d   1      -1.821  -1.232  -3.813  0.00  0.00     0.159 A 
ATOM     20  N   UNL d   1      -1.911   0.006  -4.238  0.00  0.00    -0.279 N 
ATOM     21  N   UNL d   1      -1.392   0.911  -3.334  0.00  0.00    -0.286 N 
ATOM     22  HN  UNL d   1      -2.318   0.270  -5.136  1.00  0.00     0.189 HD
ATOM     23  HN  UNL d   1      -1.378   1.920  -3.486  1.00  0.00     0.188 HD
BRANCH  19  24
ATOM     24  N   UNL d   1      -2.269  -2.304  -4.496  0.00  0.00    -0.379 N 
ATOM     25  H   UNL d   1      -2.489  -3.138  -3.965  0.00  0.00     0.158 HD
ATOM     26  H   UNL d   1      -2.930  -2.105  -5.241  0.00  0.00     0.158 HD
ENDBRANCH  19  24
ENDBRANCH  16  17
ENDBRANCH   1  16
BRANCH   2  27
ATOM     27  N   UNL d   1       2.990   0.475  -1.364  0.00  0.00    -0.397 N 
ATOM     28  C   UNL d   1       2.621   0.887  -2.722  0.00  0.00     0.148 C 
ATOM     29  C   UNL d   1       4.437   0.492  -1.133  0.00  0.00     0.148 C 
ENDBRANCH   2  27
TORSDOF 6
