REMARK  7 active torsions:
REMARK  status: ('A' for Active; 'I' for Inactive)
REMARK    1  A    between atoms: N_2  and  C_1 
REMARK    2  A    between atoms: C_5  and  N_2 
REMARK    3  A    between atoms: O_16  and  N_6 
REMARK    4  A    between atoms: C_8  and  C_9 
REMARK    5  A    between atoms: O_11  and  C_10 
REMARK    6  A    between atoms: C_14  and  O_11 
REMARK    7  A    between atoms: C_15  and  C_14 
ROOT
ATOM      1  C   UNL d   1       1.048   0.686  -2.545  0.00  0.00     0.140 A 
ATOM      2  N   UNL d   1       0.457  -0.507  -2.807  0.00  0.00    -0.350 N 
ATOM      3  HN  UNL d   1      -0.052  -0.659  -3.678  1.00  0.00     0.166 HD
ATOM      4  C   UNL d   1       1.710   0.932  -1.325  0.00  0.00     0.113 A 
ATOM      5  C   UNL d   1       0.560  -1.488  -1.886  0.00  0.00     0.090 A 
ATOM      6  C   UNL d   1       1.793  -0.108  -0.395  0.00  0.00     0.042 A 
ATOM      7  C   UNL d   1       1.216  -1.341  -0.681  0.00  0.00     0.020 A 
ENDROOT
BRANCH   4   8
ATOM      8  O   UNL d   1       2.186   2.194  -1.105  0.00  0.00    -0.343 OA
BRANCH   8   9
ATOM      9  C   UNL d   1       2.806   2.491   0.141  0.00  0.00     0.214 C 
BRANCH   9  10
ATOM     10  C   UNL d   1       3.227   3.938   0.099  0.00  0.00    -0.034 A 
ATOM     11  C   UNL d   1       2.355   4.952   0.505  0.00  0.00     0.010 A 
ATOM     12  C   UNL d   1       2.741   6.295   0.430  0.00  0.00     0.008 A 
ATOM     13  C   UNL d   1       4.005   6.674  -0.060  0.00  0.00    -0.051 A 
ATOM     14  C   UNL d   1       4.861   5.643  -0.482  0.00  0.00     0.008 A 
ATOM     15  C   UNL d   1       4.478   4.298  -0.408  0.00  0.00     0.010 A 
BRANCH  13  16
ATOM     16  C   UNL d   1       4.399   8.160  -0.131  0.00  0.00    -0.024 C 
ATOM     17  C   UNL d   1       5.837   8.393  -0.647  0.00  0.00     0.019 C 
ATOM     18  C   UNL d   1       3.441   8.910  -1.082  0.00  0.00     0.019 C 
ATOM     19  C   UNL d   1       4.312   8.796   1.273  0.00  0.00     0.019 C 
ENDBRANCH  13  16
ENDBRANCH   9  10
ENDBRANCH   8   9
ENDBRANCH   4   8
BRANCH   1  20
ATOM     20  N   UNL d   1       0.913   1.619  -3.570  0.00  0.00    -0.335 N 
ATOM     21  H   UNL d   1       0.289   1.294  -4.295  0.00  0.00     0.168 HD
BRANCH  20  22
ATOM     22  C   UNL d   1       1.753   2.626  -3.917  0.00  0.00     0.205 C 
ATOM     23  N   UNL d   1       1.599   3.371  -4.964  0.00  0.00    -0.265 N 
ATOM     24  HN  UNL d   1       0.834   3.302  -5.635  1.00  0.00     0.194 HD
BRANCH  23  25
ATOM     25  O   UNL d   1       2.657   4.290  -5.023  0.00  0.00    -0.289 OA
ATOM     26  H   UNL d   1       2.400   4.857  -5.772  0.00  0.00     0.244 HD
ENDBRANCH  23  25
ENDBRANCH  20  22
ENDBRANCH   1  20
TORSDOF 7
