REMARK  3 active torsions:
REMARK  status: ('A' for Active; 'I' for Inactive)
REMARK    1  A    between atoms: C_8  and  C_7 
REMARK    2  A    between atoms: O_13  and  C_12 
REMARK    3  A    between atoms: C_16  and  O_13 
ROOT
ATOM      1  C   UNL d   1       2.793  -1.121  -0.025  0.00  0.00     0.101 C 
ATOM      2  N   UNL d   1       2.508  -3.430  -0.636  0.00  0.00    -0.275 N 
ATOM      3  N   UNL d   1       4.377  -2.820   0.583  0.00  0.00    -0.275 N 
ATOM      4  C   UNL d   1       1.955  -2.181  -0.639  0.00  0.00     0.265 C 
ATOM      5  C   UNL d   1       4.005  -1.512   0.736  0.00  0.00     0.265 C 
ATOM      6  C   UNL d   1       3.705  -3.784  -0.099  0.00  0.00     0.329 C 
ATOM      7  C   UNL d   1       2.441   0.152  -0.291  0.00  0.00     0.037 C 
ATOM      8  O   UNL d   1       4.640  -0.766   1.469  0.00  0.00    -0.267 OA
ATOM      9  O   UNL d   1       0.865  -1.969  -1.159  0.00  0.00    -0.267 OA
ATOM     10  O   UNL d   1       4.155  -4.920  -0.221  0.00  0.00    -0.246 OA
ATOM     11  H   UNL d   1       1.996  -4.156  -1.118  0.00  0.00     0.173 HD
ATOM     12  H   UNL d   1       5.227  -3.101   1.052  0.00  0.00     0.173 HD
ENDROOT
BRANCH   7  13
ATOM     13  C   UNL d   1       3.240   1.353  -0.016  0.00  0.00    -0.002 A 
ATOM     14  C   UNL d   1       3.116   2.197   1.097  0.00  0.00     0.079 A 
ATOM     15  C   UNL d   1       3.991   3.287   1.225  0.00  0.00     0.037 A 
ATOM     16  C   UNL d   1       4.956   3.565   0.256  0.00  0.00     0.003 A 
ATOM     17  C   UNL d   1       5.070   2.741  -0.855  0.00  0.00     0.001 A 
ATOM     18  C   UNL d   1       4.220   1.644  -0.988  0.00  0.00     0.014 A 
BRANCH  14  19
ATOM     19  O   UNL d   1       2.258   2.087   2.158  0.00  0.00    -0.351 OA
BRANCH  19  20
ATOM     20  C   UNL d   1       0.977   1.511   1.933  0.00  0.00     0.171 C 
ATOM     21  C   UNL d   1       0.033   2.053   2.994  0.00  0.00     0.034 C 
ENDBRANCH  19  20
ENDBRANCH  14  19
ENDBRANCH   7  13
TORSDOF 3
