REMARK  4 active torsions:
REMARK  status: ('A' for Active; 'I' for Inactive)
REMARK    1  A    between atoms: C_11  and  C_7 
REMARK    2  A    between atoms: N_13  and  N_8 
REMARK    3  A    between atoms: C_10  and  N_13 
REMARK    4  A    between atoms: O_24  and  C_11 
ROOT
ATOM      1  S   UNL d   1       0.843  -1.625  -0.109  0.00  0.00     0.286 S 
ATOM      2  C   UNL d   1       2.143  -0.516  -0.548  0.00  0.00     0.216 C 
ATOM      3  N   UNL d   1       1.216  -1.944   1.527  0.00  0.00    -0.273 N 
ATOM      4  C   UNL d   1       2.261   0.655   0.380  0.00  0.00     0.232 C 
ATOM      5  C   UNL d   1       2.092   0.338   1.783  0.00  0.00     0.085 A 
ATOM      6  C   UNL d   1       1.650  -0.860   2.317  0.00  0.00     0.066 A 
ATOM      7  N   UNL d   1       2.981  -0.833  -1.492  0.00  0.00    -0.285 N 
ATOM      8  HN  UNL d   1       2.830  -1.665  -2.063  1.00  0.00     0.188 HD
ATOM      9  S   UNL d   1       2.477   1.482   2.987  0.00  0.00    -0.096 SA
ATOM     10  O   UNL d   1      -0.384  -0.853  -0.148  0.00  0.00    -0.198 OA
ATOM     11  O   UNL d   1       1.007  -2.844  -0.873  0.00  0.00    -0.198 OA
ATOM     12  C   UNL d   1       1.701  -0.845   3.742  0.00  0.00     0.039 A 
ATOM     13  C   UNL d   1       2.121   0.371   4.237  0.00  0.00     0.053 A 
ATOM     14  O   UNL d   1       2.565   1.746  -0.095  0.00  0.00    -0.284 OA
ATOM     15  C   UNL d   1       1.006  -3.301   2.043  0.00  0.00     0.170 C 
ENDROOT
BRANCH   7  16
ATOM     16  N   UNL d   1       4.063  -0.031  -1.704  0.00  0.00    -0.298 N 
ATOM     17  H   UNL d   1       4.016   0.968  -1.448  0.00  0.00     0.187 HD
BRANCH  16  18
ATOM     18  C   UNL d   1       5.199  -0.521  -2.275  0.00  0.00     0.071 A 
ATOM     19  C   UNL d   1       6.362   0.202  -2.489  0.00  0.00     0.108 A 
ATOM     20  S   UNL d   1       7.575  -0.789  -3.210  0.00  0.00    -0.094 SA
ATOM     21  C   UNL d   1       6.563  -2.160  -3.221  0.00  0.00     0.053 A 
ATOM     22  C   UNL d   1       5.323  -1.881  -2.699  0.00  0.00     0.039 A 
BRANCH  19  23
ATOM     23  C   UNL d   1       6.700   1.583  -2.201  0.00  0.00     0.302 C 
ATOM     24  O   UNL d   1       7.765   2.137  -2.449  0.00  0.00    -0.259 OA
BRANCH  23  25
ATOM     25  O   UNL d   1       5.654   2.209  -1.577  0.00  0.00    -0.322 OA
ATOM     26  C   UNL d   1       5.920   3.570  -1.235  0.00  0.00     0.213 C 
ENDBRANCH  23  25
ENDBRANCH  19  23
ENDBRANCH  16  18
ENDBRANCH   7  16
TORSDOF 4
