REMARK  4 active torsions:
REMARK  status: ('A' for Active; 'I' for Inactive)
REMARK    1  A    between atoms: S_12  and  C_1 
REMARK    2  A    between atoms: N_7  and  C_2 
REMARK    3  A    between atoms: C_3  and  S_12 
REMARK       I    between atoms: C_14  and  N_7 
REMARK    4  A    between atoms: C_17  and  C_14 
ROOT
ATOM      1  C   UNL d   1       2.964  -6.014  -0.412  0.00  0.00     0.168 C 
ATOM      2  C   UNL d   1       3.710  -3.843   0.115  0.00  0.00     0.136 C 
ATOM      3  S   UNL d   1       2.377  -4.461  -0.774  0.00  0.00    -0.026 SA
ATOM      4  N   UNL d   1       3.934  -6.038   0.474  0.00  0.00    -0.278 N 
ATOM      5  HN  UNL d   1       4.311  -6.890   0.888  1.00  0.00     0.189 HD
ATOM      6  N   UNL d   1       4.382  -4.765   0.775  0.00  0.00    -0.286 N 
ATOM      7  HN  UNL d   1       5.139  -4.564   1.428  1.00  0.00     0.188 HD
ENDROOT
BRANCH   1   8
ATOM      8  N   UNL d   1       2.461  -7.165  -0.969  0.00  0.00    -0.302 N 
ATOM      9  C   UNL d   1       1.675  -7.240  -2.097  0.00  0.00     0.257 C 
ATOM     10  O   UNL d   1       1.231  -6.313  -2.760  0.00  0.00    -0.267 OA
ATOM     11  H   UNL d   1       2.921  -7.994  -0.617  0.00  0.00     0.171 HD
BRANCH   9  12
ATOM     12  C   UNL d   1       1.434  -8.627  -2.585  0.00  0.00     0.034 A 
ATOM     13  C   UNL d   1       1.285  -9.702  -1.701  0.00  0.00     0.042 A 
ATOM     14  C   UNL d   1       1.143 -11.002  -2.200  0.00  0.00     0.056 A 
ATOM     15 CL   UNL d   1       1.005 -12.285  -1.050  0.00  0.00    -0.083 Cl
ATOM     16  C   UNL d   1       1.134 -11.228  -3.582  0.00  0.00     0.055 A 
ATOM     17  C   UNL d   1       1.237 -10.148  -4.463  0.00  0.00     0.026 A 
ATOM     18 CL   UNL d   1       1.010 -12.811  -4.260  0.00  0.00    -0.083 Cl
ATOM     19  C   UNL d   1       1.382  -8.850  -3.967  0.00  0.00     0.019 A 
ENDBRANCH   9  12
ENDBRANCH   1   8
BRANCH   2  20
ATOM     20  S   UNL d   1       4.128  -2.151   0.235  0.00  0.00    -0.038 SA
BRANCH  20  21
ATOM     21  C   UNL d   1       4.587  -1.875  -1.439  0.00  0.00     0.120 A 
ATOM     22  N   UNL d   1       4.517  -2.802  -2.367  0.00  0.00    -0.344 N 
ATOM     23  C   UNL d   1       4.844  -2.277  -3.601  0.00  0.00     0.052 A 
ATOM     24  HN  UNL d   1       4.257  -3.774  -2.199  1.00  0.00     0.167 HD
ATOM     25  C   UNL d   1       4.813  -2.976  -4.824  0.00  0.00     0.054 A 
ATOM     26  C   UNL d   1       5.223  -0.933  -3.591  0.00  0.00     0.034 A 
ATOM     27  C   UNL d   1       5.166  -2.311  -5.997  0.00  0.00     0.036 A 
ATOM     28 CL   UNL d   1       5.118  -3.155  -7.497  0.00  0.00    -0.084 Cl
ATOM     29  C   UNL d   1       5.553  -0.974  -5.973  0.00  0.00     0.025 A 
ATOM     30  C   UNL d   1       5.589  -0.262  -4.770  0.00  0.00     0.023 A 
ATOM     31  S   UNL d   1       5.137  -0.340  -1.976  0.00  0.00    -0.063 SA
ENDBRANCH  20  21
ENDBRANCH   2  20
TORSDOF 4
