REMARK  1 active torsions:
REMARK  status: ('A' for Active; 'I' for Inactive)
REMARK    1  A    between atoms: N_11  and  C_10 
ROOT
ATOM      1  C   UNL d   1       0.012  -1.519  -0.018  0.00  0.00     0.198 A 
ATOM      2  C   UNL d   1      -1.243  -0.757  -0.017  0.00  0.00     0.051 A 
ATOM      3  C   UNL d   1       1.256  -0.740  -0.013  0.00  0.00     0.049 A 
ATOM      4  O   UNL d   1      -0.009   1.349  -0.036  0.00  0.00    -0.309 OA
ATOM      5  C   UNL d   1      -1.182   0.632  -0.030  0.00  0.00     0.090 A 
ATOM      6  C   UNL d   1       1.176   0.651  -0.018  0.00  0.00     0.090 A 
ATOM      7  C   UNL d   1      -2.473  -1.423   0.014  0.00  0.00     0.041 A 
ATOM      8  O   UNL d   1       0.021  -2.744  -0.026  0.00  0.00    -0.286 OA
ATOM      9  C   UNL d   1      -2.368   1.364  -0.014  0.00  0.00     0.040 A 
ATOM     10  C   UNL d   1      -3.665  -0.699  -0.010  0.00  0.00     0.006 A 
ATOM     11  C   UNL d   1      -3.600   0.699   0.015  0.00  0.00     0.026 A 
ATOM     12  C   UNL d   1       2.496  -1.386  -0.004  0.00  0.00     0.018 A 
ATOM     13  C   UNL d   1       2.350   1.405  -0.008  0.00  0.00     0.038 A 
ATOM     14  C   UNL d   1       3.666  -0.629   0.003  0.00  0.00     0.001 A 
ATOM     15  C   UNL d   1       3.594   0.765   0.002  0.00  0.00     0.003 A 
ENDROOT
BRANCH  10  16
ATOM     16  N   UNL d   1      -4.885  -1.354   0.183  0.00  0.00    -0.303 NA
ATOM     17  H   UNL d   1      -4.889  -2.324  -0.120  0.00  0.00     0.124 HD
ATOM     18  H   UNL d   1      -5.697  -0.842  -0.146  0.00  0.00     0.124 HD
ENDBRANCH  10  16
TORSDOF 1
