REMARK  5 active torsions:
REMARK  status: ('A' for Active; 'I' for Inactive)
REMARK    1  A    between atoms: C_2  and  C_1 
REMARK    2  A    between atoms: O_7  and  C_1 
REMARK    3  A    between atoms: O_6  and  C_9 
REMARK    4  A    between atoms: C_12  and  O_6 
REMARK    5  A    between atoms: C_9  and  C_8 
ROOT
ATOM      1  C   UNL d   1       0.387  -0.683   1.160  0.00  0.00     0.037 A 
ATOM      2  C   UNL d   1      -0.671   0.073   1.676  0.00  0.00     0.019 A 
ATOM      3  C   UNL d   1       0.682  -1.935   1.714  0.00  0.00     0.019 A 
ATOM      4  C   UNL d   1      -1.205  -1.712   3.235  0.00  0.00    -0.034 A 
ATOM      5  C   UNL d   1      -0.115  -2.445   2.743  0.00  0.00     0.010 A 
ATOM      6  C   UNL d   1      -1.461  -0.437   2.710  0.00  0.00     0.010 A 
ENDROOT
BRANCH   4   7
ATOM      7  C   UNL d   1      -2.065  -2.278   4.341  0.00  0.00     0.214 C 
BRANCH   7   8
ATOM      8  O   UNL d   1      -1.487  -1.927   5.595  0.00  0.00    -0.347 OA
BRANCH   8   9
ATOM      9  C   UNL d   1      -2.093  -2.429   6.716  0.00  0.00     0.069 A 
ATOM     10  C   UNL d   1      -3.242  -3.223   6.746  0.00  0.00     0.037 A 
ATOM     11  C   UNL d   1      -3.751  -3.677   7.967  0.00  0.00     0.003 A 
ATOM     12  C   UNL d   1      -3.119  -3.339   9.162  0.00  0.00     0.000 A 
ATOM     13  C   UNL d   1      -1.976  -2.544   9.138  0.00  0.00     0.003 A 
ATOM     14  C   UNL d   1      -1.467  -2.092   7.919  0.00  0.00     0.037 A 
ENDBRANCH   8   9
ENDBRANCH   7   8
ENDBRANCH   4   7
BRANCH   1  15
ATOM     15  C   UNL d   1       1.192  -0.106   0.055  0.00  0.00     0.176 C 
ATOM     16  O   UNL d   1       1.375   1.091  -0.079  0.00  0.00    -0.646 OA
BRANCH  15  17
ATOM     17  O   UNL d   1       1.657  -1.027  -0.817  0.00  0.00    -0.773 OA
ATOM     18  H   UNL d   1       1.287  -1.921  -0.705  0.00  0.00     0.167 HD
ENDBRANCH  15  17
ENDBRANCH   1  15
TORSDOF 5
