REMARK  7 active torsions:
REMARK  status: ('A' for Active; 'I' for Inactive)
REMARK    1  A    between atoms: N_2  and  C_1 
REMARK    2  A    between atoms: O_9  and  C_4 
REMARK    3  A    between atoms: C_5  and  C_6 
REMARK    4  A    between atoms: N_20  and  C_5 
REMARK    5  A    between atoms: C_7  and  C_15 
REMARK    6  A    between atoms: C_21  and  O_9 
REMARK    7  A    between atoms: O_22  and  N_13 
ROOT
ATOM      1  C   UNL d   1      -1.609  -6.380   1.094  0.00  0.00     0.137 A 
ATOM      2  C   UNL d   1      -2.472  -6.041   2.146  0.00  0.00     0.053 A 
ATOM      3  C   UNL d   1      -0.550  -7.278   1.270  0.00  0.00     0.109 A 
ATOM      4  C   UNL d   1      -2.279  -6.637   3.396  0.00  0.00     0.006 A 
ATOM      5  C   UNL d   1      -0.434  -7.936   2.502  0.00  0.00     0.041 A 
ATOM      6  C   UNL d   1      -1.278  -7.602   3.562  0.00  0.00     0.018 A 
ENDROOT
BRANCH   3   7
ATOM      7  O   UNL d   1       0.323  -7.514   0.233  0.00  0.00    -0.308 OA
BRANCH   7   8
ATOM      8  C   UNL d   1       1.658  -7.714   0.514  0.00  0.00     0.076 A 
ATOM      9  C   UNL d   1       2.334  -8.610  -0.312  0.00  0.00     0.038 A 
ATOM     10  C   UNL d   1       3.694  -8.867  -0.109  0.00  0.00     0.012 A 
ATOM     11  C   UNL d   1       4.404  -8.227   0.922  0.00  0.00    -0.035 A 
ATOM     12  C   UNL d   1       3.711  -7.315   1.737  0.00  0.00     0.012 A 
ATOM     13  C   UNL d   1       2.357  -7.041   1.519  0.00  0.00     0.038 A 
BRANCH  11  14
ATOM     14  C   UNL d   1       5.889  -8.488   1.090  0.00  0.00     0.141 C 
ATOM     15  S   UNL d   1       6.314  -9.138   2.741  0.00  0.00    -0.148 SA
ATOM     16  C   UNL d   1       7.821  -8.157   2.966  0.00  0.00     0.085 C 
ATOM     17  C   UNL d   1       7.546  -6.777   2.406  0.00  0.00     0.085 C 
ATOM     18  S   UNL d   1       6.880  -6.992   0.737  0.00  0.00    -0.148 SA
ENDBRANCH  11  14
ENDBRANCH   7   8
ENDBRANCH   3   7
BRANCH   1  19
ATOM     19  N   UNL d   1      -1.842  -5.772  -0.203  0.00  0.00    -0.113 N 
ATOM     20  O   UNL d   1      -1.941  -4.538  -0.234  0.00  0.00    -0.532 OA
ATOM     21  O   UNL d   1      -1.977  -6.529  -1.174  0.00  0.00    -0.532 OA
ENDBRANCH   1  19
BRANCH   4  22
ATOM     22  C   UNL d   1      -3.139  -6.263   4.553  0.00  0.00     0.108 C 
ATOM     23  N   UNL d   1      -4.342  -5.825   4.324  0.00  0.00    -0.258 N 
ATOM     24  HN  UNL d   1      -4.756  -5.723   3.397  1.00  0.00     0.195 HD
BRANCH  23  25
ATOM     25  O   UNL d   1      -4.994  -5.512   5.529  0.00  0.00    -0.289 OA
ATOM     26  H   UNL d   1      -5.903  -5.328   5.227  0.00  0.00     0.244 HD
ENDBRANCH  23  25
BRANCH  22  27
ATOM     27  N   UNL d   1      -2.627  -6.382   5.826  0.00  0.00    -0.287 NA
ATOM     28  H   UNL d   1      -1.671  -6.066   5.938  0.00  0.00     0.125 HD
ATOM     29  H   UNL d   1      -3.256  -5.922   6.484  0.00  0.00     0.125 HD
ENDBRANCH  22  27
ENDBRANCH   4  22
TORSDOF 7
