REMARK  4 active torsions:
REMARK  status: ('A' for Active; 'I' for Inactive)
REMARK    1  A    between atoms: C_14  and  C_1 
REMARK    2  A    between atoms: S_3  and  N_8 
REMARK    3  A    between atoms: C_17  and  S_3 
REMARK       I    between atoms: N_8  and  C_11 
REMARK    4  A    between atoms: C_11  and  C_13 
ROOT
ATOM      1  C   UNL d   1       0.050   1.064   0.499  0.00  0.00     0.134 A 
ATOM      2  C   UNL d   1      -0.321  -1.081  -0.037  0.00  0.00     0.069 A 
ATOM      3  N   UNL d   1       0.676   0.867  -0.676  0.00  0.00    -0.294 N 
ATOM      4  HN  UNL d   1       1.194   1.550  -1.229  1.00  0.00     0.187 HD
ATOM      5  C   UNL d   1      -0.578  -0.133   0.935  0.00  0.00     0.068 A 
ATOM      6  N   UNL d   1       0.465  -0.434  -0.961  0.00  0.00    -0.295 N 
ATOM      7  C   UNL d   1      -0.688  -2.469  -0.084  0.00  0.00     0.034 C 
ATOM      8  S   UNL d   1      -0.762  -3.409   1.344  0.00  0.00    -0.083 SA
ATOM      9  C   UNL d   1      -0.877  -4.876   0.477  0.00  0.00     0.074 C 
ATOM     10  C   UNL d   1      -1.037  -3.234  -1.179  0.00  0.00     0.023 C 
ATOM     11  C   UNL d   1      -1.143  -4.619  -0.858  0.00  0.00     0.026 C 
ATOM     12  C   UNL d   1       1.142  -1.000  -2.106  0.00  0.00     0.178 C 
ENDROOT
BRANCH   9  13
ATOM     13  C   UNL d   1      -0.799  -6.196   1.110  0.00  0.00     0.269 C 
ATOM     14  N   UNL d   1      -0.165  -6.455   2.334  0.00  0.00    -0.279 N 
ATOM     15  HN  UNL d   1      -0.645  -7.098   2.965  1.00  0.00     0.179 HD
ATOM     16  O   UNL d   1      -1.276  -7.159   0.508  0.00  0.00    -0.266 OA
BRANCH  14  17
ATOM     17  S   UNL d   1       1.166  -5.883   2.832  0.00  0.00     0.055 S 
ATOM     18  O   UNL d   1       1.398  -4.500   3.199  0.00  0.00    -0.245 OA
ATOM     19  C   UNL d   1       1.623  -6.833   4.263  0.00  0.00     0.142 C 
BRANCH  17  20
ATOM     20  C   UNL d   1       2.461  -6.329   1.683  0.00  0.00     0.038 A 
ATOM     21  C   UNL d   1       3.547  -5.463   1.521  0.00  0.00     0.022 A 
ATOM     22  C   UNL d   1       4.640  -5.862   0.751  0.00  0.00     0.008 A 
ATOM     23  C   UNL d   1       4.653  -7.122   0.138  0.00  0.00    -0.062 A 
ATOM     24  C   UNL d   1       3.531  -7.954   0.258  0.00  0.00     0.008 A 
ATOM     25  C   UNL d   1       5.864  -7.563  -0.633  0.00  0.00     0.048 C 
ATOM     26  C   UNL d   1       2.434  -7.564   1.034  0.00  0.00     0.022 A 
ENDBRANCH  17  20
ENDBRANCH  14  17
ENDBRANCH   9  13
BRANCH   1  27
ATOM     27  C   UNL d   1       0.045   2.385   1.221  0.00  0.00     0.434 C 
ATOM     28  F   UNL d   1       0.706   3.373   0.561  0.00  0.00    -0.165 F 
ATOM     29  F   UNL d   1      -1.223   2.836   1.427  0.00  0.00    -0.165 F 
ATOM     30  F   UNL d   1       0.620   2.288   2.452  0.00  0.00    -0.165 F 
ENDBRANCH   1  27
TORSDOF 4
