REMARK  5 active torsions:
REMARK  status: ('A' for Active; 'I' for Inactive)
REMARK    1  A    between atoms: O_8  and  S_1 
REMARK    2  A    between atoms: C_9  and  S_1 
REMARK    3  A    between atoms: C_4  and  C_7 
REMARK    4  A    between atoms: C_7  and  C_14 
REMARK    5  A    between atoms: C_17  and  O_8 
ROOT
ATOM      1  C   UNL d   1       1.479  -6.400   3.870  0.00  0.00    -0.034 A 
ATOM      2  C   UNL d   1       0.360  -8.905   3.301  0.00  0.00     0.089 A 
ATOM      3  C   UNL d   1       1.417  -6.861   2.552  0.00  0.00     0.014 A 
ATOM      4  C   UNL d   1       0.946  -7.182   4.899  0.00  0.00     0.014 A 
ATOM      5  C   UNL d   1       0.847  -8.105   2.266  0.00  0.00     0.039 A 
ATOM      6  C   UNL d   1       0.384  -8.427   4.613  0.00  0.00     0.039 A 
ENDROOT
BRANCH   2   7
ATOM      7  O   UNL d   1      -0.162 -10.162   3.139  0.00  0.00    -0.229 OA
BRANCH   7   8
ATOM      8  S   UNL d   1       0.225 -11.097   1.857  0.00  0.00     0.303 S 
ATOM      9  O   UNL d   1       1.651 -10.995   1.606  0.00  0.00    -0.193 OA
ATOM     10  O   UNL d   1      -0.742 -10.868   0.802  0.00  0.00    -0.193 OA
BRANCH   8  11
ATOM     11  C   UNL d   1      -0.061 -12.754   2.447  0.00  0.00     0.086 A 
ATOM     12  C   UNL d   1      -1.170 -13.023   3.256  0.00  0.00     0.027 A 
ATOM     13  C   UNL d   1      -1.353 -14.315   3.755  0.00  0.00     0.025 A 
ATOM     14  C   UNL d   1      -0.434 -15.319   3.447  0.00  0.00     0.034 A 
ATOM     15  C   UNL d   1       0.670 -15.048   2.637  0.00  0.00     0.025 A 
ATOM     16 CL   UNL d   1      -0.658 -16.905   4.076  0.00  0.00    -0.084 Cl
ATOM     17  C   UNL d   1       0.861 -13.760   2.135  0.00  0.00     0.027 A 
ENDBRANCH   8  11
ENDBRANCH   7   8
ENDBRANCH   2   7
BRANCH   1  18
ATOM     18  C   UNL d   1       2.125  -5.127   4.184  0.00  0.00     0.046 C 
BRANCH  18  19
ATOM     19  C   UNL d   1       3.426  -5.014   4.459  0.00  0.00     0.105 A 
ATOM     20  C   UNL d   1       4.123  -3.745   4.833  0.00  0.00     0.276 A 
ATOM     21  N   UNL d   1       5.422  -4.116   5.038  0.00  0.00    -0.274 N 
ATOM     22  O   UNL d   1       3.631  -2.639   4.939  0.00  0.00    -0.266 OA
ATOM     23  C   UNL d   1       5.599  -5.460   4.833  0.00  0.00     0.327 A 
ATOM     24  H   UNL d   1       6.156  -3.489   5.316  0.00  0.00     0.173 HD
ATOM     25  N   UNL d   1       4.373  -5.997   4.477  0.00  0.00    -0.304 N 
ATOM     26  O   UNL d   1       6.644  -6.074   4.947  0.00  0.00    -0.247 OA
ATOM     27  H   UNL d   1       4.227  -6.973   4.266  0.00  0.00     0.171 HD
ENDBRANCH  18  19
ENDBRANCH   1  18
TORSDOF 5
