REMARK  12 active torsions:
REMARK  status: ('A' for Active; 'I' for Inactive)
REMARK    1  A    between atoms: N_2  and  C_1 
REMARK    2  A    between atoms: C_3  and  C_1 
REMARK    3  A    between atoms: C_5  and  C_1 
REMARK    4  A    between atoms: N_7  and  C_1 
REMARK       I    between atoms: C_4  and  N_2 
REMARK    5  A    between atoms: C_6  and  C_4 
REMARK    6  A    between atoms: O_21  and  C_5 
REMARK    7  A    between atoms: C_25  and  N_7 
REMARK    8  A    between atoms: O_24  and  C_8 
REMARK    9  A    between atoms: O_26  and  C_12 
REMARK   10  A    between atoms: C_28  and  O_21 
REMARK   11  A    between atoms: C_22  and  C_27 
REMARK   12  A    between atoms: C_27  and  C_25 
ROOT
ATOM      1  C   UNL d   1       0.900   0.054  -0.098  0.00  0.00     0.416 C 
ENDROOT
BRANCH   1   2
ATOM      2  N   UNL d   1       0.577  -0.682   1.116  0.00  0.00    -0.304 N 
ATOM      3  C   UNL d   1      -0.709  -0.969   1.494  0.00  0.00     0.278 C 
ATOM      4  O   UNL d   1      -1.673  -0.625   0.812  0.00  0.00    -0.265 OA
ATOM      5  H   UNL d   1       1.331  -1.082   1.655  0.00  0.00     0.166 HD
BRANCH   3   6
ATOM      6  C   UNL d   1      -0.808  -1.687   2.744  0.00  0.00     0.142 A 
ATOM      7  O   UNL d   1       0.324  -1.876   3.498  0.00  0.00    -0.317 OA
ATOM      8  C   UNL d   1      -0.052  -2.520   4.634  0.00  0.00     0.143 A 
ATOM      9  C   UNL d   1      -1.405  -2.767   4.622  0.00  0.00     0.027 A 
ATOM     10  C   UNL d   1      -1.890  -2.238   3.403  0.00  0.00     0.045 A 
ENDBRANCH   3   6
ENDBRANCH   1   2
BRANCH   1  11
ATOM     11  C   UNL d   1       0.124   1.409  -0.324  0.00  0.00     0.452 C 
ATOM     12  F   UNL d   1      -0.482   1.851   0.805  0.00  0.00    -0.166 F 
ATOM     13  F   UNL d   1       0.995   2.397  -0.683  0.00  0.00    -0.166 F 
ATOM     14  F   UNL d   1      -0.810   1.365  -1.300  0.00  0.00    -0.166 F 
ENDBRANCH   1  11
BRANCH   1  15
ATOM     15  C   UNL d   1       0.547  -0.828  -1.333  0.00  0.00     0.329 C 
ATOM     16  O   UNL d   1       0.002  -1.932  -1.294  0.00  0.00    -0.260 OA
BRANCH  15  17
ATOM     17  O   UNL d   1       0.995  -0.248  -2.494  0.00  0.00    -0.318 OA
BRANCH  17  18
ATOM     18  C   UNL d   1       0.646  -0.947  -3.699  0.00  0.00     0.174 C 
ATOM     19  C   UNL d   1       1.626  -2.075  -3.966  0.00  0.00     0.034 C 
ENDBRANCH  17  18
ENDBRANCH  15  17
ENDBRANCH   1  15
BRANCH   1  20
ATOM     20  N   UNL d   1       2.409   0.118  -0.052  0.00  0.00     0.133 N 
ATOM     21  H   UNL d   1       2.704   0.524  -0.946  0.00  0.00     0.320 HD
BRANCH  20  22
ATOM     22  C   UNL d   1       2.948   0.955   1.031  0.00  0.00     0.278 C 
BRANCH  22  23
ATOM     23  C   UNL d   1       4.481   0.999   0.941  0.00  0.00     0.068 C 
BRANCH  23  24
ATOM     24  C   UNL d   1       5.079   1.769   2.093  0.00  0.00    -0.054 A 
ATOM     25  C   UNL d   1       5.207   3.166   2.025  0.00  0.00     0.046 A 
ATOM     26  C   UNL d   1       5.773   3.902   3.079  0.00  0.00     0.102 A 
ATOM     27  C   UNL d   1       6.192   3.218   4.233  0.00  0.00     0.101 A 
ATOM     28  C   UNL d   1       6.053   1.825   4.301  0.00  0.00     0.040 A 
ATOM     29  C   UNL d   1       5.497   1.104   3.247  0.00  0.00     0.010 A 
BRANCH  26  30
ATOM     30  O   UNL d   1       5.970   5.257   3.025  0.00  0.00    -0.353 OA
ATOM     31  C   UNL d   1       5.564   5.949   1.852  0.00  0.00     0.210 C 
ENDBRANCH  26  30
BRANCH  27  32
ATOM     32  O   UNL d   1       6.800   3.742   5.345  0.00  0.00    -0.353 OA
ATOM     33  C   UNL d   1       6.484   5.084   5.690  0.00  0.00     0.210 C 
ENDBRANCH  27  32
ENDBRANCH  23  24
ENDBRANCH  22  23
ENDBRANCH  20  22
ENDBRANCH   1  20
TORSDOF 12
