REMARK  6 active torsions:
REMARK  status: ('A' for Active; 'I' for Inactive)
REMARK    1  A    between atoms: C_7  and  N_1 
REMARK    2  A    between atoms: S_10  and  C_2 
REMARK    3  A    between atoms: C_18  and  S_10 
REMARK    4  A    between atoms: C_11  and  C_18 
REMARK       I    between atoms: N_14  and  C_11 
REMARK    5  A    between atoms: C_21  and  N_14 
REMARK    6  A    between atoms: C_22  and  C_15 
ROOT
ATOM      1  N   UNL d   1      -0.002  -0.411  -1.723  0.00  0.00    -0.218 N 
ATOM      2  C   UNL d   1       0.659  -1.546  -1.260  0.00  0.00     0.177 A 
ATOM      3  N   UNL d   1      -0.081  -2.129  -0.341  0.00  0.00    -0.264 N 
ATOM      4  HN  UNL d   1       0.149  -2.973   0.183  1.00  0.00     0.186 HD
ATOM      5  N   UNL d   1      -1.190  -0.354  -1.056  0.00  0.00     0.001 NA
ATOM      6  N   UNL d   1      -1.214  -1.383  -0.228  0.00  0.00    -0.006 NA
ENDROOT
BRANCH   2   7
ATOM      7  S   UNL d   1       2.153  -2.228  -1.844  0.00  0.00    -0.082 SA
BRANCH   7   8
ATOM      8  C   UNL d   1       2.490  -3.384  -0.475  0.00  0.00     0.185 C 
BRANCH   8   9
ATOM      9  C   UNL d   1       3.855  -4.042  -0.528  0.00  0.00     0.231 C 
ATOM     10  N   UNL d   1       4.937  -3.210  -0.771  0.00  0.00    -0.327 N 
ATOM     11  H   UNL d   1       4.777  -2.212  -0.730  0.00  0.00     0.169 HD
ATOM     12  O   UNL d   1       3.952  -5.238  -0.232  0.00  0.00    -0.272 OA
BRANCH  10  13
ATOM     13  C   UNL d   1       6.275  -3.643  -0.918  0.00  0.00     0.034 A 
ATOM     14  C   UNL d   1       6.604  -4.944  -1.298  0.00  0.00     0.030 A 
ATOM     15  C   UNL d   1       7.936  -5.329  -1.476  0.00  0.00     0.010 A 
ATOM     16  C   UNL d   1       8.981  -4.421  -1.254  0.00  0.00    -0.055 A 
ATOM     17  C   UNL d   1       8.649  -3.122  -0.854  0.00  0.00     0.010 A 
ATOM     18  C   UNL d   1       7.312  -2.724  -0.705  0.00  0.00     0.030 A 
BRANCH  16  19
ATOM     19  C   UNL d   1      10.432  -4.812  -1.496  0.00  0.00     0.010 C 
ATOM     20  C   UNL d   1      10.867  -6.026  -0.671  0.00  0.00     0.015 C 
ATOM     21  C   UNL d   1      10.688  -5.053  -2.984  0.00  0.00     0.015 C 
ENDBRANCH  16  19
ENDBRANCH  10  13
ENDBRANCH   8   9
ENDBRANCH   7   8
ENDBRANCH   2   7
BRANCH   1  22
ATOM     22  C   UNL d   1       0.354   0.655  -2.600  0.00  0.00     0.068 A 
ATOM     23  C   UNL d   1      -0.634   1.191  -3.477  0.00  0.00    -0.033 A 
ATOM     24  C   UNL d   1      -0.328   2.325  -4.257  0.00  0.00     0.015 A 
ATOM     25  C   UNL d   1      -2.031   0.648  -3.668  0.00  0.00     0.050 C 
ATOM     26  C   UNL d   1       0.928   2.924  -4.213  0.00  0.00    -0.061 A 
ATOM     27  C   UNL d   1       1.898   2.377  -3.376  0.00  0.00     0.015 A 
ATOM     28  C   UNL d   1       1.209   4.152  -5.028  0.00  0.00     0.048 C 
ATOM     29  C   UNL d   1       1.626   1.277  -2.533  0.00  0.00    -0.033 A 
ATOM     30  C   UNL d   1       2.727   0.949  -1.560  0.00  0.00     0.050 C 
ENDBRANCH   1  22
TORSDOF 6
