REMARK  4 active torsions:
REMARK  status: ('A' for Active; 'I' for Inactive)
REMARK    1  A    between atoms: C_2  and  C_1 
REMARK       I    between atoms: N_12  and  C_2 
REMARK    2  A    between atoms: C_7  and  C_3 
REMARK    3  A    between atoms: O_14  and  C_6 
REMARK    4  A    between atoms: O_15  and  C_8 
ROOT
ATOM      1  C   UNL d   1       0.860   0.098   0.712  0.00  0.00     0.112 C 
ATOM      2  C   UNL d   1       0.199  -1.048   0.453  0.00  0.00     0.040 C 
ATOM      3  C   UNL d   1       0.195   1.322   1.008  0.00  0.00     0.105 C 
ATOM      4  N   UNL d   1      -0.297   2.343   1.249  0.00  0.00    -0.191 NA
ENDROOT
BRANCH   1   5
ATOM      5  C   UNL d   1       2.353   0.046   0.681  0.00  0.00     0.260 C 
ATOM      6  O   UNL d   1       2.981  -0.978   0.433  0.00  0.00    -0.267 OA
ATOM      7  N   UNL d   1       3.023   1.204   0.946  0.00  0.00    -0.365 N 
ATOM      8  H   UNL d   1       2.594   2.095   1.165  0.00  0.00     0.159 HD
ATOM      9  H   UNL d   1       4.035   1.168   0.925  0.00  0.00     0.159 HD
ENDBRANCH   1   5
BRANCH   2  10
ATOM     10  C   UNL d   1      -1.265  -1.155   0.456  0.00  0.00    -0.032 A 
ATOM     11  C   UNL d   1      -1.994  -0.891  -0.711  0.00  0.00     0.051 A 
ATOM     12  C   UNL d   1      -3.389  -0.907  -0.671  0.00  0.00     0.099 A 
ATOM     13  C   UNL d   1      -4.057  -1.204   0.517  0.00  0.00     0.098 A 
ATOM     14  C   UNL d   1      -3.337  -1.488   1.676  0.00  0.00     0.040 A 
ATOM     15  C   UNL d   1      -1.940  -1.461   1.645  0.00  0.00     0.014 A 
BRANCH  12  16
ATOM     16  O   UNL d   1      -4.115  -0.616  -1.791  0.00  0.00    -0.358 OA
ATOM     17  H   UNL d   1      -3.529  -0.223  -2.456  0.00  0.00     0.217 HD
ENDBRANCH  12  16
BRANCH  13  18
ATOM     18  O   UNL d   1      -5.423  -1.200   0.536  0.00  0.00    -0.358 OA
ATOM     19  H   UNL d   1      -5.730  -1.410   1.431  0.00  0.00     0.217 HD
ENDBRANCH  13  18
ENDBRANCH   2  10
TORSDOF 4
