REMARK  8 active torsions:
REMARK  status: ('A' for Active; 'I' for Inactive)
REMARK    1  A    between atoms: N_3  and  S_1 
REMARK    2  A    between atoms: C_6  and  S_1 
REMARK    3  A    between atoms: C_2  and  N_3 
REMARK    4  A    between atoms: C_20  and  N_3 
REMARK    5  A    between atoms: C_5  and  C_4 
REMARK    6  A    between atoms: O_18  and  C_5 
REMARK    7  A    between atoms: C_27  and  C_20 
REMARK    8  A    between atoms: C_25  and  C_27 
ROOT
ATOM      1  N   UNL d   1       1.210  -3.316   4.525  0.00  0.00    -0.197 NA
ATOM      2  C   UNL d   1       1.662  -2.250   4.557  0.00  0.00     0.059 C 
ATOM      3  C   UNL d   1       2.213  -0.885   4.563  0.00  0.00     0.125 C 
ENDROOT
BRANCH   3   4
ATOM      4  C   UNL d   1       2.015  -0.175   3.219  0.00  0.00     0.035 C 
BRANCH   4   5
ATOM      5  C   UNL d   1       0.542  -0.012   2.831  0.00  0.00     0.143 C 
BRANCH   5   6
ATOM      6  N   UNL d   1       0.303   0.557   1.482  0.00  0.00    -0.271 N 
BRANCH   6   7
ATOM      7  C   UNL d   1      -0.237   1.891   1.385  0.00  0.00     0.063 A 
ATOM      8  C   UNL d   1      -1.577   2.142   1.022  0.00  0.00     0.067 A 
ATOM      9  C   UNL d   1      -2.009   3.473   0.860  0.00  0.00     0.022 A 
ATOM     10  C   UNL d   1      -1.134   4.539   1.067  0.00  0.00     0.025 A 
ATOM     11  C   UNL d   1       0.182   4.283   1.437  0.00  0.00     0.036 A 
ATOM     12  C   UNL d   1       0.634   2.972   1.593  0.00  0.00     0.055 A 
ATOM     13 CL   UNL d   1       1.262   5.598   1.693  0.00  0.00    -0.084 Cl
BRANCH   8  14
ATOM     14  C   UNL d   1      -2.610   1.101   0.769  0.00  0.00     0.295 C 
ATOM     15  O   UNL d   1      -3.620   1.319   0.113  0.00  0.00    -0.259 OA
BRANCH  14  16
ATOM     16  O   UNL d   1      -2.342  -0.052   1.427  0.00  0.00    -0.322 OA
ATOM     17  C   UNL d   1      -3.328  -1.072   1.248  0.00  0.00     0.213 C 
ENDBRANCH  14  16
ENDBRANCH   8  14
ENDBRANCH   6   7
BRANCH   6  18
ATOM     18  S   UNL d   1       1.068  -0.032   0.080  0.00  0.00     0.265 S 
ATOM     19  O   UNL d   1       2.499   0.098   0.248  0.00  0.00    -0.200 OA
ATOM     20  O   UNL d   1       0.413   0.548  -1.078  0.00  0.00    -0.200 OA
BRANCH  18  21
ATOM     21  C   UNL d   1       0.666  -1.770   0.085  0.00  0.00     0.080 A 
ATOM     22  C   UNL d   1      -0.492  -2.206  -0.567  0.00  0.00     0.027 A 
ATOM     23  C   UNL d   1      -0.800  -3.569  -0.597  0.00  0.00     0.025 A 
ATOM     24  C   UNL d   1       0.049  -4.487   0.022  0.00  0.00     0.034 A 
ATOM     25  C   UNL d   1       1.216  -4.058   0.650  0.00  0.00     0.025 A 
ATOM     26 CL   UNL d   1      -0.336  -6.163  -0.012  0.00  0.00    -0.084 Cl
ATOM     27  C   UNL d   1       1.541  -2.699   0.660  0.00  0.00     0.027 A 
ENDBRANCH  18  21
ENDBRANCH   6  18
ENDBRANCH   5   6
ENDBRANCH   4   5
ENDBRANCH   3   4
TORSDOF 8
