REMARK  6 active torsions:
REMARK  status: ('A' for Active; 'I' for Inactive)
REMARK    1  A    between atoms: N_2  and  S_1 
REMARK    2  A    between atoms: C_3  and  S_1 
REMARK    3  A    between atoms: C_10  and  N_2 
REMARK    4  A    between atoms: N_7  and  C_6 
REMARK    5  A    between atoms: C_19  and  N_7 
REMARK    6  A    between atoms: C_20  and  N_7 
ROOT
ATOM      1  N   UNL d   1       0.731  -1.374  -0.526  0.00  0.00    -0.281 N 
ATOM      2  H   UNL d   1       1.030  -0.437  -0.269  0.00  0.00     0.179 HD
ENDROOT
BRANCH   1   3
ATOM      3  S   UNL d   1       1.008  -2.485   0.711  0.00  0.00     0.263 S 
ATOM      4  O   UNL d   1       0.324  -3.729   0.422  0.00  0.00    -0.200 OA
ATOM      5  O   UNL d   1       0.786  -1.775   1.954  0.00  0.00    -0.200 OA
BRANCH   3   6
ATOM      6  C   UNL d   1       2.762  -2.787   0.599  0.00  0.00     0.080 A 
ATOM      7  C   UNL d   1       3.646  -1.980   1.328  0.00  0.00     0.028 A 
ATOM      8  C   UNL d   1       5.021  -2.196   1.218  0.00  0.00     0.044 A 
ATOM      9  C   UNL d   1       5.493  -3.212   0.391  0.00  0.00     0.116 A 
ATOM     10  C   UNL d   1       4.618  -4.029  -0.318  0.00  0.00     0.044 A 
ATOM     11  F   UNL d   1       6.814  -3.405   0.277  0.00  0.00    -0.206 F 
ATOM     12  C   UNL d   1       3.242  -3.828  -0.207  0.00  0.00     0.028 A 
ENDBRANCH   3   6
ENDBRANCH   1   3
BRANCH   1  13
ATOM     13  C   UNL d   1       0.984  -1.783  -1.865  0.00  0.00     0.042 A 
ATOM     14  C   UNL d   1       0.022  -2.499  -2.565  0.00  0.00     0.032 A 
ATOM     15  C   UNL d   1       0.294  -2.953  -3.863  0.00  0.00     0.031 A 
ATOM     16  C   UNL d   1       1.530  -2.721  -4.488  0.00  0.00     0.030 A 
ATOM     17  C   UNL d   1       2.485  -2.011  -3.741  0.00  0.00     0.031 A 
ATOM     18  C   UNL d   1       2.219  -1.538  -2.450  0.00  0.00     0.032 A 
BRANCH  16  19
ATOM     19  N   UNL d   1       1.779  -3.146  -5.786  0.00  0.00    -0.382 N 
BRANCH  19  20
ATOM     20  C   UNL d   1       1.258  -4.435  -6.256  0.00  0.00     0.118 C 
ATOM     21  C   UNL d   1       0.101  -4.243  -7.224  0.00  0.00     0.026 C 
ENDBRANCH  19  20
BRANCH  19  22
ATOM     22  C   UNL d   1       2.750  -2.458  -6.646  0.00  0.00     0.118 C 
ATOM     23  C   UNL d   1       2.267  -1.060  -7.006  0.00  0.00     0.026 C 
ENDBRANCH  19  22
ENDBRANCH  16  19
ENDBRANCH   1  13
TORSDOF 6
