REMARK  4 active torsions:
REMARK  status: ('A' for Active; 'I' for Inactive)
REMARK    1  A    between atoms: S_2  and  N_1 
REMARK    2  A    between atoms: C_8  and  S_2 
REMARK    3  A    between atoms: S_12  and  C_5 
REMARK    4  A    between atoms: C_11  and  C_7 
ROOT
ATOM      1  N   UNL d   1       0.938  -0.709  -0.023  0.00  0.00    -0.170 N 
ATOM      2  N   UNL d   1       0.939   0.658  -0.026  0.00  0.00    -0.287 N 
ATOM      3  HN  UNL d   1       1.749   1.278  -0.044  1.00  0.00     0.188 HD
ATOM      4  C   UNL d   1      -0.338  -1.227  -0.011  0.00  0.00     0.106 A 
ATOM      5  C   UNL d   1      -1.187  -0.142  -0.006  0.00  0.00     0.067 A 
ATOM      6  C   UNL d   1      -0.352   1.005  -0.000  0.00  0.00     0.037 A 
ENDROOT
BRANCH   1   7
ATOM      7  S   UNL d   1       2.383  -1.651   0.040  0.00  0.00     0.283 S 
ATOM      8  O   UNL d   1       2.373  -2.310   1.336  0.00  0.00    -0.198 OA
ATOM      9  O   UNL d   1       2.453  -2.381  -1.212  0.00  0.00    -0.198 OA
BRANCH   7  10
ATOM     10  C   UNL d   1       3.675  -0.430   0.048  0.00  0.00     0.081 A 
ATOM     11  C   UNL d   1       4.163   0.053   1.267  0.00  0.00     0.027 A 
ATOM     12  C   UNL d   1       5.131   1.058   1.267  0.00  0.00     0.025 A 
ATOM     13  C   UNL d   1       5.608   1.563   0.056  0.00  0.00     0.034 A 
ATOM     14  C   UNL d   1       5.136   1.063  -1.158  0.00  0.00     0.025 A 
ATOM     15 CL   UNL d   1       6.785   2.818   0.061  0.00  0.00    -0.084 Cl
ATOM     16  C   UNL d   1       4.167   0.058  -1.167  0.00  0.00     0.027 A 
ENDBRANCH   7  10
ENDBRANCH   1   7
BRANCH   4  17
ATOM     17  S   UNL d   1      -0.737  -2.916  -0.065  0.00  0.00    -0.114 SA
ATOM     18  C   UNL d   1      -0.927  -3.291   1.694  0.00  0.00     0.097 C 
ENDBRANCH   4  17
BRANCH   6  19
ATOM     19  C   UNL d   1      -0.747   2.477   0.005  0.00  0.00    -0.007 C 
ATOM     20  C   UNL d   1      -0.937   2.974  -1.441  0.00  0.00     0.021 C 
ATOM     21  C   UNL d   1      -2.061   2.693   0.782  0.00  0.00     0.021 C 
ATOM     22  C   UNL d   1       0.340   3.346   0.678  0.00  0.00     0.021 C 
ENDBRANCH   6  19
TORSDOF 4
