REMARK  4 active torsions:
REMARK  status: ('A' for Active; 'I' for Inactive)
REMARK    1  A    between atoms: S_14  and  C_2 
REMARK    2  A    between atoms: O_12  and  N_7 
REMARK    3  A    between atoms: C_10  and  O_12 
REMARK    4  A    between atoms: C_13  and  C_10 
ROOT
ATOM      1  C   UNL d   1       0.437   0.743  -0.069  0.00  0.00     0.020 A 
ATOM      2  C   UNL d   1       1.801   0.996  -0.098  0.00  0.00     0.055 A 
ATOM      3  S   UNL d   1       2.723  -0.454  -0.069  0.00  0.00    -0.071 SA
ATOM      4  C   UNL d   1       0.179  -0.691  -0.003  0.00  0.00    -0.016 A 
ATOM      5  C   UNL d   1       1.340  -1.441   0.018  0.00  0.00     0.093 A 
ATOM      6  C   UNL d   1      -0.691   1.700  -0.073  0.00  0.00     0.045 C 
ATOM      7  N   UNL d   1      -0.488   2.949  -0.362  0.00  0.00    -0.261 N 
ATOM      8  HN  UNL d   1       0.426   3.335  -0.598  1.00  0.00     0.194 HD
ATOM      9  C   UNL d   1       1.414  -2.871   0.110  0.00  0.00     0.107 C 
ATOM     10  N   UNL d   1       1.438  -4.027   0.187  0.00  0.00    -0.191 NA
ATOM     11  C   UNL d   1      -1.217  -1.248   0.066  0.00  0.00     0.042 C 
ATOM     12  C   UNL d   1      -2.057   1.119   0.283  0.00  0.00     0.060 C 
ATOM     13  C   UNL d   1      -2.252  -0.228  -0.407  0.00  0.00     0.011 C 
ENDROOT
BRANCH   2  14
ATOM     14  S   UNL d   1       2.655   2.535  -0.069  0.00  0.00    -0.126 SA
ATOM     15  C   UNL d   1       2.939   2.795  -1.834  0.00  0.00     0.096 C 
ENDBRANCH   2  14
BRANCH   7  16
ATOM     16  O   UNL d   1      -1.680   3.717  -0.314  0.00  0.00    -0.195 OA
BRANCH  16  17
ATOM     17  C   UNL d   1      -1.428   5.021  -0.648  0.00  0.00     0.315 C 
ATOM     18  O   UNL d   1      -0.343   5.522  -0.911  0.00  0.00    -0.257 OA
BRANCH  17  19
ATOM     19  C   UNL d   1      -2.696   5.820  -0.691  0.00  0.00     0.041 A 
ATOM     20  C   UNL d   1      -2.601   7.181  -1.036  0.00  0.00     0.019 A 
ATOM     21  C   UNL d   1      -3.745   7.981  -1.134  0.00  0.00     0.025 A 
ATOM     22  C   UNL d   1      -4.997   7.427  -0.886  0.00  0.00     0.034 A 
ATOM     23  C   UNL d   1      -5.112   6.083  -0.530  0.00  0.00     0.025 A 
ATOM     24 CL   UNL d   1      -6.408   8.402  -1.025  0.00  0.00    -0.084 Cl
ATOM     25  C   UNL d   1      -3.965   5.279  -0.431  0.00  0.00     0.019 A 
ENDBRANCH  17  19
ENDBRANCH  16  17
ENDBRANCH   7  16
TORSDOF 4
