REMARK  5 active torsions:
REMARK  status: ('A' for Active; 'I' for Inactive)
REMARK    1  A    between atoms: C_3  and  C_6 
REMARK       I    between atoms: N_7  and  C_3 
REMARK    2  A    between atoms: N_4  and  N_7 
REMARK    3  A    between atoms: C_10  and  C_9 
REMARK    4  A    between atoms: O_16  and  C_11 
REMARK    5  A    between atoms: C_17  and  O_16 
ROOT
ATOM      1  N   UNL d   1       6.326   1.607  -3.728  0.00  0.00    -0.197 NA
ATOM      2  C   UNL d   1       6.176   1.786  -2.589  0.00  0.00     0.068 C 
ATOM      3  C   UNL d   1       5.907   2.015  -1.175  0.00  0.00     0.228 C 
ENDROOT
BRANCH   3   4
ATOM      4  C   UNL d   1       4.433   2.126  -0.831  0.00  0.00     0.249 C 
ATOM      5  N   UNL d   1       3.514   2.033  -1.873  0.00  0.00    -0.270 N 
ATOM      6  H   UNL d   1       3.794   1.897  -2.841  0.00  0.00     0.190 HD
ATOM      7  O   UNL d   1       4.112   2.290   0.349  0.00  0.00    -0.271 OA
BRANCH   5   8
ATOM      8  N   UNL d   1       2.176   2.050  -1.582  0.00  0.00    -0.308 N 
ATOM      9  C   UNL d   1       1.353   1.944  -2.579  0.00  0.00     0.118 C 
ATOM     10  HN  UNL d   1       1.840   2.142  -0.623  1.00  0.00     0.186 HD
BRANCH   9  11
ATOM     11  C   UNL d   1      -0.117   1.901  -2.366  0.00  0.00    -0.019 A 
ATOM     12  C   UNL d   1      -0.646   2.001  -1.077  0.00  0.00     0.015 A 
ATOM     13  C   UNL d   1      -2.028   1.903  -0.865  0.00  0.00     0.037 A 
ATOM     14  C   UNL d   1      -2.893   1.701  -1.941  0.00  0.00     0.068 A 
ATOM     15  C   UNL d   1      -2.366   1.644  -3.235  0.00  0.00     0.037 A 
ATOM     16  C   UNL d   1      -0.982   1.734  -3.453  0.00  0.00     0.015 A 
BRANCH  14  17
ATOM     17  O   UNL d   1      -4.255   1.593  -1.846  0.00  0.00    -0.352 OA
BRANCH  17  18
ATOM     18  C   UNL d   1      -4.756   1.058  -0.616  0.00  0.00     0.171 C 
ATOM     19  C   UNL d   1      -6.268   0.936  -0.712  0.00  0.00     0.034 C 
ENDBRANCH  17  18
ENDBRANCH  14  17
ENDBRANCH   9  11
ENDBRANCH   5   8
ENDBRANCH   3   4
TORSDOF 5
