REMARK  6 active torsions:
REMARK  status: ('A' for Active; 'I' for Inactive)
REMARK    1  A    between atoms: N_7  and  S_1 
REMARK    2  A    between atoms: C_19  and  S_1 
REMARK    3  A    between atoms: N_2  and  C_20 
REMARK    4  A    between atoms: C_12  and  C_6 
REMARK       I    between atoms: N_16  and  C_9 
REMARK       I    between atoms: N_18  and  C_9 
REMARK       I    between atoms: C_11  and  N_13 
REMARK    5  A    between atoms: C_14  and  C_11 
REMARK       I    between atoms: N_13  and  C_17 
REMARK       I    between atoms: C_17  and  N_24 
REMARK    6  A    between atoms: N_24  and  N_18 
ROOT
ATOM      1  N   UNL d   1       0.273  -1.165   1.780  0.00  0.00    -0.255 N 
ATOM      2  HN  UNL d   1       0.465  -0.749   0.869  1.00  0.00     0.181 HD
ATOM      3  C   UNL d   1       0.968  -2.216   2.092  0.00  0.00     0.183 C 
ATOM      4  N   UNL d   1       1.732  -2.737   1.044  0.00  0.00    -0.356 N 
ATOM      5  N   UNL d   1       1.014  -2.966   3.256  0.00  0.00    -0.171 NA
ATOM      6  C   UNL d   1       2.520  -3.963   0.989  0.00  0.00     0.125 C 
ATOM      7  C   UNL d   1       1.617  -2.162  -0.308  0.00  0.00     0.125 C 
ATOM      8  C   UNL d   1       2.344  -3.126  -1.236  0.00  0.00     0.021 C 
ATOM      9  C   UNL d   1       3.309  -3.841  -0.313  0.00  0.00     0.021 C 
ATOM     10  H   UNL d   1       1.695  -3.724   3.204  0.00  0.00     0.156 HD
ENDROOT
BRANCH   1  11
ATOM     11  S   UNL d   1      -0.853  -0.446   2.665  0.00  0.00     0.265 S 
ATOM     12  O   UNL d   1      -0.265   0.222   3.808  0.00  0.00    -0.200 OA
ATOM     13  O   UNL d   1      -2.000  -1.325   2.811  0.00  0.00    -0.200 OA
BRANCH  11  14
ATOM     14  C   UNL d   1      -1.372   0.885   1.547  0.00  0.00     0.080 A 
ATOM     15  C   UNL d   1      -2.715   1.089   1.209  0.00  0.00     0.027 A 
ATOM     16  C   UNL d   1      -3.063   2.086   0.272  0.00  0.00     0.033 A 
ATOM     17  C   UNL d   1      -2.062   2.841  -0.361  0.00  0.00     0.057 A 
ATOM     18  C   UNL d   1      -0.725   2.661   0.030  0.00  0.00     0.033 A 
ATOM     19  C   UNL d   1      -0.379   1.682   0.971  0.00  0.00     0.027 A 
BRANCH  17  20
ATOM     20  N   UNL d   1      -2.392   3.764  -1.406  0.00  0.00    -0.255 N 
ATOM     21  C   UNL d   1      -1.619   4.149  -2.505  0.00  0.00     0.076 C 
ATOM     22  C   UNL d   1      -2.267   5.228  -3.067  0.00  0.00     0.069 C 
ATOM     23  C   UNL d   1      -0.434   3.493  -2.991  0.00  0.00     0.033 A 
ATOM     24  C   UNL d   1      -3.486   5.358  -2.365  0.00  0.00     0.135 C 
ATOM     25  N   UNL d   1      -3.600   4.407  -1.414  0.00  0.00    -0.289 N 
ATOM     26  HN  UNL d   1      -4.411   4.209  -0.829  1.00  0.00     0.187 HD
ATOM     27  S   UNL d   1       0.881   4.385  -3.639  0.00  0.00    -0.100 SA
ATOM     28  C   UNL d   1      -0.185   2.133  -3.046  0.00  0.00     0.021 A 
ATOM     29  C   UNL d   1       1.804   2.970  -3.897  0.00  0.00     0.050 A 
ATOM     30  C   UNL d   1       1.120   1.833  -3.530  0.00  0.00     0.008 A 
BRANCH  24  31
ATOM     31  C   UNL d   1      -4.539   6.397  -2.677  0.00  0.00     0.434 C 
ATOM     32  F   UNL d   1      -5.614   6.370  -1.849  0.00  0.00    -0.165 F 
ATOM     33  F   UNL d   1      -4.023   7.656  -2.607  0.00  0.00    -0.165 F 
ATOM     34  F   UNL d   1      -5.014   6.257  -3.946  0.00  0.00    -0.165 F 
ENDBRANCH  24  31
ENDBRANCH  17  20
ENDBRANCH  11  14
ENDBRANCH   1  11
BRANCH   5  35
ATOM     35  N   UNL d   1       1.234  -2.287   4.508  0.00  0.00    -0.266 N 
ATOM     36  C   UNL d   1       2.113  -2.932   5.360  0.00  0.00     0.337 C 
ATOM     37  N   UNL d   1       2.115  -2.567   6.689  0.00  0.00    -0.274 N 
ATOM     38  O   UNL d   1       2.881  -3.814   4.965  0.00  0.00    -0.246 OA
ATOM     39  C   UNL d   1       1.211  -1.774   7.380  0.00  0.00     0.262 C 
ATOM     40  H   UNL d   1       2.817  -3.060   7.226  0.00  0.00     0.173 HD
ATOM     41  O   UNL d   1       0.226  -1.271   6.830  0.00  0.00    -0.267 OA
ATOM     42  H   UNL d   1       0.410  -1.841   4.925  0.00  0.00     0.186 HD
BRANCH  39  43
ATOM     43  C   UNL d   1       1.440  -1.537   8.836  0.00  0.00     0.070 A 
ATOM     44  C   UNL d   1       2.357  -2.256   9.605  0.00  0.00     0.132 A 
ATOM     45  F   UNL d   1       3.108  -3.220   9.053  0.00  0.00    -0.205 F 
ATOM     46  C   UNL d   1       2.515  -2.001  10.974  0.00  0.00     0.043 A 
ATOM     47  C   UNL d   1       1.755  -1.010  11.590  0.00  0.00     0.003 A 
ATOM     48  C   UNL d   1       0.839  -0.276  10.841  0.00  0.00     0.001 A 
ATOM     49  C   UNL d   1       0.681  -0.540   9.474  0.00  0.00     0.020 A 
ENDBRANCH  39  43
ENDBRANCH   5  35
TORSDOF 6
