REMARK  3 active torsions:
REMARK  status: ('A' for Active; 'I' for Inactive)
REMARK    1  A    between atoms: C_8  and  C_3 
REMARK    2  A    between atoms: C_9  and  C_8 
REMARK    3  A    between atoms: O_12  and  C_9 
ROOT
ATOM      1  N   UNL d   1      -1.882  -1.509  -0.136  0.00  0.00    -0.301 N 
ATOM      2  HN  UNL d   1      -2.627  -2.201  -0.217  1.00  0.00     0.186 HD
ATOM      3  C   UNL d   1      -0.635  -1.872  -0.072  0.00  0.00     0.047 A 
ATOM      4  N   UNL d   1      -2.166  -0.178  -0.092  0.00  0.00    -0.266 N 
ATOM      5  C   UNL d   1      -1.252   0.845  -0.011  0.00  0.00     0.271 A 
ATOM      6  C   UNL d   1       0.490  -0.908   0.003  0.00  0.00     0.004 A 
ATOM      7  C   UNL d   1       0.164   0.447   0.015  0.00  0.00     0.045 A 
ATOM      8  O   UNL d   1      -1.589   2.023   0.034  0.00  0.00    -0.266 OA
ATOM      9  C   UNL d   1       1.835  -1.295   0.031  0.00  0.00     0.014 A 
ATOM     10  C   UNL d   1       1.170   1.421   0.043  0.00  0.00     0.018 A 
ATOM     11  C   UNL d   1       2.508   1.032   0.058  0.00  0.00     0.001 A 
ATOM     12  C   UNL d   1       2.839  -0.322   0.055  0.00  0.00     0.001 A 
ATOM     13  H   UNL d   1      -3.149   0.082  -0.091  0.00  0.00     0.190 HD
ENDROOT
BRANCH   3  14
ATOM     14  C   UNL d   1      -0.361  -3.356  -0.124  0.00  0.00     0.169 C 
BRANCH  14  15
ATOM     15  C   UNL d   1       0.220  -3.801  -1.434  0.00  0.00     0.145 C 
ATOM     16  O   UNL d   1       1.281  -4.402  -1.530  0.00  0.00    -0.650 OA
BRANCH  15  17
ATOM     17  O   UNL d   1      -0.536  -3.483  -2.507  0.00  0.00    -0.776 OA
ATOM     18  H   UNL d   1      -1.369  -3.016  -2.287  0.00  0.00     0.167 HD
ENDBRANCH  15  17
ENDBRANCH  14  15
ENDBRANCH   3  14
TORSDOF 3
