REMARK  5 active torsions:
REMARK  status: ('A' for Active; 'I' for Inactive)
REMARK    1  A    between atoms: C_2  and  C_1 
REMARK       I    between atoms: N_3  and  C_1 
REMARK    2  A    between atoms: C_10  and  N_3 
REMARK    3  A    between atoms: O_11  and  C_5 
REMARK    4  A    between atoms: O_12  and  C_6 
REMARK    5  A    between atoms: C_13  and  C_10 
ROOT
ATOM      1  C   UNL d   1       1.013   0.162   0.054  0.00  0.00     0.252 C 
ATOM      2  N   UNL d   1       1.135   0.818   1.257  0.00  0.00    -0.353 N 
ATOM      3  O   UNL d   1       1.462  -0.957  -0.163  0.00  0.00    -0.268 OA
ATOM      4  H   UNL d   1       0.844   1.780   1.349  0.00  0.00     0.163 HD
ENDROOT
BRANCH   1   5
ATOM      5  C   UNL d   1       0.294   0.889  -1.028  0.00  0.00     0.034 A 
ATOM      6  C   UNL d   1       0.637   0.612  -2.360  0.00  0.00     0.056 A 
ATOM      7  C   UNL d   1      -0.041   1.224  -3.426  0.00  0.00     0.102 A 
ATOM      8  C   UNL d   1      -1.085   2.121  -3.137  0.00  0.00     0.101 A 
ATOM      9  C   UNL d   1      -1.433   2.379  -1.802  0.00  0.00     0.040 A 
ATOM     10  C   UNL d   1      -0.748   1.774  -0.749  0.00  0.00     0.020 A 
BRANCH   7  11
ATOM     11  O   UNL d   1       0.241   0.966  -4.741  0.00  0.00    -0.353 OA
ATOM     12  C   UNL d   1       1.292   0.054  -5.038  0.00  0.00     0.210 C 
ENDBRANCH   7  11
BRANCH   8  13
ATOM     13  O   UNL d   1      -1.903   2.772  -4.025  0.00  0.00    -0.353 OA
ATOM     14  C   UNL d   1      -1.371   3.078  -5.306  0.00  0.00     0.210 C 
ENDBRANCH   8  13
ENDBRANCH   1   5
BRANCH   2  15
ATOM     15  C   UNL d   1       1.729   0.190   2.417  0.00  0.00     0.161 C 
BRANCH  15  16
ATOM     16  C   UNL d   1       0.756   0.146   3.568  0.00  0.00    -0.041 A 
ATOM     17  C   UNL d   1      -0.445  -0.572   3.453  0.00  0.00     0.009 A 
ATOM     18  C   UNL d   1      -1.334  -0.648   4.526  0.00  0.00     0.001 A 
ATOM     19  C   UNL d   1      -1.032  -0.010   5.727  0.00  0.00     0.000 A 
ATOM     20  C   UNL d   1       0.156   0.708   5.854  0.00  0.00     0.001 A 
ATOM     21  C   UNL d   1       1.046   0.787   4.781  0.00  0.00     0.009 A 
ENDBRANCH  15  16
ENDBRANCH   2  15
TORSDOF 5
