REMARK  2 active torsions:
REMARK  status: ('A' for Active; 'I' for Inactive)
REMARK    1  A    between atoms: C_6  and  C_1 
REMARK    2  A    between atoms: O_10  and  C_5 
ROOT
ATOM      1  C   UNL d   1      -0.327   0.985   0.308  0.00  0.00     0.200 A 
ATOM      2  C   UNL d   1       1.057   0.560  -0.035  0.00  0.00    -0.011 A 
ATOM      3  O   UNL d   1      -1.129  -0.190   0.133  0.00  0.00    -0.301 OA
ATOM      4  C   UNL d   1      -0.349  -1.204  -0.332  0.00  0.00     0.317 A 
ATOM      5  C   UNL d   1       1.048  -0.720  -0.417  0.00  0.00     0.146 A 
ATOM      6  O   UNL d   1      -0.746  -2.318  -0.627  0.00  0.00    -0.257 OA
ATOM      7  C   UNL d   1       2.200   1.509  -0.042  0.00  0.00     0.050 C 
ENDROOT
BRANCH   1   8
ATOM      8  C   UNL d   1      -0.546   1.576   1.691  0.00  0.00     0.019 A 
ATOM      9  C   UNL d   1      -0.977   2.914   1.836  0.00  0.00     0.044 A 
ATOM     10 CL   UNL d   1      -1.175   3.987   0.489  0.00  0.00    -0.084 Cl
ATOM     11  C   UNL d   1      -1.262   3.463   3.095  0.00  0.00     0.024 A 
ATOM     12  C   UNL d   1      -1.117   2.699   4.245  0.00  0.00     0.003 A 
ATOM     13  C   UNL d   1      -0.664   1.391   4.137  0.00  0.00     0.024 A 
ATOM     14  C   UNL d   1      -0.375   0.836   2.881  0.00  0.00     0.044 A 
ATOM     15 CL   UNL d   1       0.214  -0.790   2.917  0.00  0.00    -0.084 Cl
ENDBRANCH   1   8
BRANCH   5  16
ATOM     16  O   UNL d   1       2.101  -1.491  -0.813  0.00  0.00    -0.355 OA
ATOM     17  H   UNL d   1       2.925  -1.006  -0.646  0.00  0.00     0.218 HD
ENDBRANCH   5  16
TORSDOF 2
