REMARK  5 active torsions:
REMARK  status: ('A' for Active; 'I' for Inactive)
REMARK    1  A    between atoms: C_2  and  S_1 
REMARK    2  A    between atoms: C_6  and  S_1 
REMARK    3  A    between atoms: N_18  and  C_5 
REMARK    4  A    between atoms: C_11  and  C_6 
REMARK    5  A    between atoms: S_19  and  C_7 
ROOT
ATOM      1  C   UNL d   1       0.472   0.132   1.720  0.00  0.00     0.113 A 
ATOM      2  N   UNL d   1      -0.210  -0.847   3.770  0.00  0.00    -0.326 N 
ATOM      3  HN  UNL d   1      -0.383  -1.670   4.347  1.00  0.00     0.169 HD
ATOM      4  C   UNL d   1       0.215  -0.970   2.500  0.00  0.00     0.102 A 
ATOM      5  C   UNL d   1      -0.402   0.390   4.258  0.00  0.00     0.144 A 
ATOM      6  N   UNL d   1      -0.213   1.518   3.557  0.00  0.00    -0.345 N 
ATOM      7  HN  UNL d   1      -0.380   2.440   3.960  1.00  0.00     0.167 HD
ATOM      8  C   UNL d   1       0.212   1.360   2.287  0.00  0.00     0.117 A 
ENDROOT
BRANCH   1   9
ATOM      9  S   UNL d   1       0.921   0.065   0.032  0.00  0.00     0.185 S 
ATOM     10  O   UNL d   1      -0.060   0.888  -0.656  0.00  0.00    -0.222 OA
ATOM     11  O   UNL d   1       1.073  -1.321  -0.378  0.00  0.00    -0.222 OA
BRANCH   9  12
ATOM     12  C   UNL d   1       2.483   0.893  -0.139  0.00  0.00     0.210 C 
BRANCH  12  13
ATOM     13  C   UNL d   1       3.535   0.312   0.713  0.00  0.00     0.066 A 
ATOM     14  O   UNL d   1       3.738   0.918   1.919  0.00  0.00    -0.326 OA
ATOM     15  C   UNL d   1       4.826   0.332   2.482  0.00  0.00     0.142 A 
ATOM     16  C   UNL d   1       5.326  -0.646   1.655  0.00  0.00     0.027 A 
ATOM     17  C   UNL d   1       4.484  -0.670   0.517  0.00  0.00     0.035 A 
ENDBRANCH  12  13
ENDBRANCH   9  12
ENDBRANCH   1   9
BRANCH   4  18
ATOM     18  N   UNL d   1       0.448  -2.278   2.110  0.00  0.00    -0.287 NA
ATOM     19  H   UNL d   1       0.069  -2.916   2.804  0.00  0.00     0.125 HD
ATOM     20  H   UNL d   1       0.169  -2.495   1.155  0.00  0.00     0.125 HD
ENDBRANCH   4  18
BRANCH   5  21
ATOM     21  S   UNL d   1      -0.932   0.491   5.950  0.00  0.00    -0.098 SA
ATOM     22  C   UNL d   1      -0.939   2.283   6.191  0.00  0.00     0.099 C 
ENDBRANCH   5  21
TORSDOF 5
