REMARK  1 active torsions:
REMARK  status: ('A' for Active; 'I' for Inactive)
REMARK    1  A    between atoms: C_6  and  N_2 
ROOT
ATOM      1  C   UNL d   1      -2.409   0.003  -0.004  0.00  0.00     0.332 A 
ATOM      2  N   UNL d   1      -1.588  -1.196  -0.004  0.00  0.00    -0.267 N 
ATOM      3  N   UNL d   1      -1.546   1.102  -0.004  0.00  0.00    -0.306 N 
ATOM      4  C   UNL d   1      -0.227  -0.728  -0.003  0.00  0.00     0.070 A 
ATOM      5  C   UNL d   1      -0.239   0.669  -0.003  0.00  0.00     0.063 A 
ATOM      6  O   UNL d   1      -3.622   0.147  -0.003  0.00  0.00    -0.246 OA
ATOM      7  C   UNL d   1       1.001  -1.367  -0.003  0.00  0.00     0.032 A 
ATOM      8  C   UNL d   1       0.894   1.460  -0.002  0.00  0.00     0.032 A 
ATOM      9  C   UNL d   1       2.175  -0.594  -0.001  0.00  0.00     0.002 A 
ATOM     10  C   UNL d   1       2.123   0.807  -0.000  0.00  0.00     0.002 A 
ATOM     11  H   UNL d   1      -1.875   2.053  -0.004  0.00  0.00     0.171 HD
ENDROOT
BRANCH   2  12
ATOM     12  C   UNL d   1      -2.100  -2.501  -0.005  0.00  0.00     0.008 C 
ATOM     13  C   UNL d   1      -1.361  -3.625   0.003  0.00  0.00     0.038 C 
ATOM     14  C   UNL d   1      -3.594  -2.760  -0.015  0.00  0.00     0.068 C 
ENDBRANCH   2  12
TORSDOF 1
