REMARK  5 active torsions:
REMARK  status: ('A' for Active; 'I' for Inactive)
REMARK    1  A    between atoms: C_6  and  C_1 
REMARK    2  A    between atoms: C_13  and  C_2 
REMARK    3  A    between atoms: C_4  and  N_12 
REMARK       I    between atoms: N_12  and  C_6 
REMARK    4  A    between atoms: C_16  and  C_8 
REMARK    5  A    between atoms: C_19  and  C_9 
ROOT
ATOM      1  C   UNL d   1       1.147   0.683   0.128  0.00  0.00     0.073 A 
ATOM      2  C   UNL d   1      -0.146   1.152  -0.058  0.00  0.00     0.175 A 
ATOM      3  O   UNL d   1      -1.027   0.097  -0.060  0.00  0.00    -0.304 OA
ATOM      4  C   UNL d   1       1.003  -0.732   0.315  0.00  0.00     0.058 A 
ATOM      5  C   UNL d   1      -0.326  -1.050   0.167  0.00  0.00     0.087 A 
ENDROOT
BRANCH   1   6
ATOM      6  C   UNL d   1       2.444   1.361   0.184  0.00  0.00     0.260 C 
ATOM      7  N   UNL d   1       2.538   2.593  -0.417  0.00  0.00    -0.302 N 
ATOM      8  H   UNL d   1       1.743   3.092  -0.784  0.00  0.00     0.171 HD
ATOM      9  O   UNL d   1       3.379   0.769   0.714  0.00  0.00    -0.267 OA
BRANCH   7  10
ATOM     10  C   UNL d   1       3.769   3.183  -0.582  0.00  0.00     0.168 A 
ATOM     11  S   UNL d   1       3.771   4.694  -1.383  0.00  0.00    -0.037 SA
ATOM     12  C   UNL d   1       5.482   4.666  -1.240  0.00  0.00     0.074 A 
ATOM     13  N   UNL d   1       5.958   3.607  -0.623  0.00  0.00    -0.296 N 
ATOM     14  N   UNL d   1       4.955   2.740  -0.246  0.00  0.00    -0.279 N 
ATOM     15  HN  UNL d   1       6.949   3.447  -0.445  1.00  0.00     0.187 HD
ATOM     16  HN  UNL d   1       5.117   1.857   0.238  1.00  0.00     0.189 HD
BRANCH  12  17
ATOM     17  C   UNL d   1       6.396   5.760  -1.796  0.00  0.00     0.044 A 
ATOM     18  C   UNL d   1       7.762   5.334  -2.307  0.00  0.00     0.012 A 
ATOM     19  C   UNL d   1       7.663   6.106  -1.037  0.00  0.00     0.012 A 
ENDBRANCH  12  17
ENDBRANCH   7  10
ENDBRANCH   1   6
BRANCH   2  20
ATOM     20  C   UNL d   1      -0.767   2.487  -0.218  0.00  0.00     0.440 C 
ATOM     21  F   UNL d   1       0.158   3.484  -0.159  0.00  0.00    -0.164 F 
ATOM     22  F   UNL d   1      -1.383   2.623  -1.419  0.00  0.00    -0.164 F 
ATOM     23  F   UNL d   1      -1.687   2.753   0.741  0.00  0.00    -0.164 F 
ENDBRANCH   2  20
BRANCH   5  24
ATOM     24  C   UNL d   1      -1.080  -2.301   0.224  0.00  0.00    -0.002 A 
ATOM     25  C   UNL d   1      -0.421  -3.510   0.507  0.00  0.00     0.016 A 
ATOM     26  C   UNL d   1      -1.127  -4.714   0.598  0.00  0.00     0.024 A 
ATOM     27  C   UNL d   1      -2.505  -4.722   0.401  0.00  0.00     0.034 A 
ATOM     28  C   UNL d   1      -3.176  -3.540   0.101  0.00  0.00     0.024 A 
ATOM     29 CL   UNL d   1      -3.380  -6.196   0.537  0.00  0.00    -0.084 Cl
ATOM     30  C   UNL d   1      -2.466  -2.336   0.011  0.00  0.00     0.016 A 
ENDBRANCH   5  24
TORSDOF 5
