REMARK  4 active torsions:
REMARK  status: ('A' for Active; 'I' for Inactive)
REMARK    1  A    between atoms: S_8  and  C_2 
REMARK    2  A    between atoms: C_11  and  C_4 
REMARK    3  A    between atoms: C_7  and  C_9 
REMARK    4  A    between atoms: C_9  and  S_8 
ROOT
ATOM      1  C   UNL d   1       0.141  -0.751   0.089  0.00  0.00     0.041 C 
ATOM      2  C   UNL d   1       1.282  -1.526   0.205  0.00  0.00     0.056 C 
ATOM      3  C   UNL d   1       0.452   0.670   0.001  0.00  0.00    -0.021 C 
ATOM      4  C   UNL d   1       1.825   0.894  -0.064  0.00  0.00     0.059 C 
ATOM      5  S   UNL d   1       2.673  -0.573  -0.039  0.00  0.00    -0.078 SA
ATOM      6  C   UNL d   1      -1.257  -1.210   0.086  0.00  0.00     0.162 C 
ATOM      7  C   UNL d   1      -0.625   1.729  -0.038  0.00  0.00     0.050 C 
ATOM      8  C   UNL d   1      -2.032   1.189   0.343  0.00  0.00    -0.037 C 
ATOM      9  C   UNL d   1      -2.273  -0.167  -0.353  0.00  0.00     0.093 C 
ATOM     10  O   UNL d   1      -1.608  -2.349   0.377  0.00  0.00    -0.292 OA
ATOM     11  C   UNL d   1      -3.113   2.189  -0.116  0.00  0.00     0.015 C 
ATOM     12  C   UNL d   1      -2.163   1.034   1.873  0.00  0.00     0.015 C 
ENDROOT
BRANCH   2  13
ATOM     13  S   UNL d   1       1.432  -3.280   0.458  0.00  0.00    -0.117 SA
BRANCH  13  14
ATOM     14  C   UNL d   1       3.032  -3.390   1.328  0.00  0.00     0.122 C 
BRANCH  14  15
ATOM     15  C   UNL d   1       3.492  -4.799   1.616  0.00  0.00    -0.005 A 
ATOM     16  C   UNL d   1       4.288  -5.507   0.692  0.00  0.00     0.042 A 
ATOM     17 CL   UNL d   1       4.739  -4.842  -0.842  0.00  0.00    -0.084 Cl
ATOM     18  C   UNL d   1       4.781  -6.783   0.989  0.00  0.00     0.024 A 
ATOM     19  C   UNL d   1       4.483  -7.384   2.207  0.00  0.00     0.003 A 
ATOM     20  C   UNL d   1       3.687  -6.710   3.127  0.00  0.00     0.024 A 
ATOM     21  C   UNL d   1       3.194  -5.432   2.836  0.00  0.00     0.042 A 
ATOM     22 CL   UNL d   1       2.243  -4.666   4.062  0.00  0.00    -0.084 Cl
ENDBRANCH  14  15
ENDBRANCH  13  14
ENDBRANCH   2  13
BRANCH   4  23
ATOM     23  C   UNL d   1       2.538   2.173  -0.179  0.00  0.00     0.163 C 
ATOM     24  O   UNL d   1       1.939   3.246  -0.289  0.00  0.00    -0.292 OA
ATOM     25  C   UNL d   1       4.053   2.215  -0.150  0.00  0.00     0.097 C 
ENDBRANCH   4  23
TORSDOF 4
