REMARK  2 active torsions:
REMARK  status: ('A' for Active; 'I' for Inactive)
REMARK       I    between atoms: N_2  and  C_1 
REMARK       I    between atoms: N_6  and  C_1 
REMARK    1  A    between atoms: C_4  and  N_2 
REMARK    2  A    between atoms: C_5  and  N_2 
ROOT
ATOM      1  C   UNL d   1       0.922   0.106   0.074  0.00  0.00     0.327 C 
ATOM      2  N   UNL d   1       0.235   0.946   0.968  0.00  0.00    -0.265 N 
ATOM      3  O   UNL d   1       0.393  -0.485  -0.866  0.00  0.00    -0.246 OA
ATOM      4  N   UNL d   1       2.271  -0.055   0.326  0.00  0.00    -0.347 N 
ATOM      5  C   UNL d   1       3.101  -0.876  -0.519  0.00  0.00     0.151 C 
ATOM      6  H   UNL d   1       2.545   0.043   1.294  0.00  0.00     0.163 HD
ENDROOT
BRANCH   2   7
ATOM      7  C   UNL d   1      -1.199   0.888   0.973  0.00  0.00     0.044 A 
ATOM      8  C   UNL d   1      -1.853  -0.345   1.103  0.00  0.00     0.030 A 
ATOM      9  C   UNL d   1      -3.245  -0.401   1.197  0.00  0.00     0.002 A 
ATOM     10  C   UNL d   1      -3.999   0.770   1.123  0.00  0.00     0.000 A 
ATOM     11  C   UNL d   1      -3.364   1.998   0.949  0.00  0.00     0.002 A 
ATOM     12  C   UNL d   1      -1.970   2.058   0.881  0.00  0.00     0.030 A 
ENDBRANCH   2   7
BRANCH   2  13
ATOM     13  C   UNL d   1       0.836   1.897   1.870  0.00  0.00     0.044 A 
ATOM     14  C   UNL d   1       2.049   2.539   1.578  0.00  0.00     0.030 A 
ATOM     15  C   UNL d   1       2.643   3.416   2.494  0.00  0.00     0.002 A 
ATOM     16  C   UNL d   1       2.022   3.688   3.711  0.00  0.00     0.000 A 
ATOM     17  C   UNL d   1       0.808   3.085   4.013  0.00  0.00     0.002 A 
ATOM     18  C   UNL d   1       0.225   2.197   3.104  0.00  0.00     0.030 A 
ENDBRANCH   2  13
TORSDOF 2
