REMARK  3 active torsions:
REMARK  status: ('A' for Active; 'I' for Inactive)
REMARK    1  A    between atoms: C_4  and  C_1 
REMARK    2  A    between atoms: O_10  and  C_1 
REMARK    3  A    between atoms: C_14  and  O_10 
ROOT
ATOM      1  N   UNL d   1      -1.863   2.206   4.352  0.00  0.00    -0.359 N 
ATOM      2  HN  UNL d   1      -1.492   2.674   5.179  1.00  0.00     0.166 HD
ATOM      3  C   UNL d   1       0.220   0.408   1.181  0.00  0.00     0.041 A 
ATOM      4  C   UNL d   1      -3.136   2.072   4.064  0.00  0.00     0.139 A 
ATOM      5  C   UNL d   1      -1.819   1.023   2.318  0.00  0.00     0.033 A 
ATOM      6  S   UNL d   1      -3.506   1.217   2.627  0.00  0.00    -0.083 SA
ATOM      7  C   UNL d   1      -1.184   0.403   1.222  0.00  0.00     0.038 A 
ATOM      8  C   UNL d   1      -1.100   1.614   3.360  0.00  0.00     0.049 A 
ATOM      9  C   UNL d   1       0.951   0.979   2.231  0.00  0.00     0.020 A 
ATOM     10  C   UNL d   1       0.306   1.575   3.320  0.00  0.00     0.032 A 
ENDROOT
BRANCH   3  11
ATOM     11  C   UNL d   1       0.994  -0.130   0.026  0.00  0.00     0.298 C 
ATOM     12  O   UNL d   1       2.216  -0.080  -0.013  0.00  0.00    -0.259 OA
BRANCH  11  13
ATOM     13  O   UNL d   1       0.143  -0.609  -0.957  0.00  0.00    -0.275 OA
BRANCH  13  14
ATOM     14  C   UNL d   1       0.646  -1.024  -2.211  0.00  0.00     0.079 A 
ATOM     15  C   UNL d   1       1.879  -1.651  -2.382  0.00  0.00     0.037 A 
ATOM     16  C   UNL d   1       2.299  -2.009  -3.666  0.00  0.00     0.003 A 
ATOM     17  C   UNL d   1       1.476  -1.766  -4.766  0.00  0.00     0.000 A 
ATOM     18  C   UNL d   1       0.227  -1.173  -4.585  0.00  0.00     0.003 A 
ATOM     19  C   UNL d   1      -0.193  -0.804  -3.305  0.00  0.00     0.037 A 
ENDBRANCH  13  14
ENDBRANCH  11  13
ENDBRANCH   3  11
TORSDOF 3
