REMARK  1 active torsions:
REMARK  status: ('A' for Active; 'I' for Inactive)
REMARK    1  A    between atoms: N_6  and  C_2 
ROOT
ATOM      1  C   UNL d   1       0.008   0.798  -0.710  0.00  0.00     0.122 A 
ATOM      2  C   UNL d   1      -0.960   1.415   0.128  0.00  0.00     0.135 A 
ATOM      3  C   UNL d   1       0.118  -0.582  -0.632  0.00  0.00     0.138 A 
ATOM      4  N   UNL d   1       0.912   1.284  -1.645  0.00  0.00    -0.346 N 
ATOM      5  HN  UNL d   1       1.064   2.257  -1.911  1.00  0.00     0.167 HD
ATOM      6  N   UNL d   1       1.080  -0.928  -1.534  0.00  0.00    -0.337 N 
ATOM      7  N   UNL d   1      -1.665   0.573   0.948  0.00  0.00    -0.337 N 
ATOM      8  HN  UNL d   1      -2.361   0.954   1.589  1.00  0.00     0.168 HD
ATOM      9  N   UNL d   1      -0.569  -1.430   0.145  0.00  0.00    -0.337 N 
ATOM     10  HN  UNL d   1      -0.446  -2.442   0.155  1.00  0.00     0.168 HD
ATOM     11  C   UNL d   1       1.532   0.222  -2.115  0.00  0.00     0.182 A 
ATOM     12  C   UNL d   1      -1.444  -0.757   0.909  0.00  0.00     0.183 A 
ATOM     13  H   UNL d   1       1.388  -1.870  -1.723  0.00  0.00     0.168 HD
ENDROOT
BRANCH   2  14
ATOM     14  N   UNL d   1      -1.306   2.760   0.129  0.00  0.00    -0.361 N 
ATOM     15  C   UNL d   1      -0.531   3.744  -0.637  0.00  0.00     0.150 C 
ATOM     16  C   UNL d   1      -1.408   4.987  -0.888  0.00  0.00     0.187 C 
ATOM     17  O   UNL d   1      -1.939   5.532   0.332  0.00  0.00    -0.388 OA
ATOM     18  C   UNL d   1      -2.731   4.543   1.011  0.00  0.00     0.187 C 
ATOM     19  C   UNL d   1      -1.895   3.303   1.362  0.00  0.00     0.150 C 
ENDBRANCH   2  14
TORSDOF 1
