REMARK  8 active torsions:
REMARK  status: ('A' for Active; 'I' for Inactive)
REMARK    1  A    between atoms: C_12  and  N_2 
REMARK    2  A    between atoms: C_6  and  O_15 
REMARK       I    between atoms: N_8  and  C_6 
REMARK    3  A    between atoms: C_13  and  N_8 
REMARK    4  A    between atoms: C_18  and  C_12 
REMARK    5  A    between atoms: O_14  and  C_16 
REMARK    6  A    between atoms: C_17  and  O_14 
REMARK    7  A    between atoms: O_15  and  C_18 
REMARK    8  A    between atoms: C_23  and  C_17 
ROOT
ATOM      1  C   UNL d   1       7.103  -0.065  -0.264  0.00  0.00     0.365 C 
ATOM      2  N   UNL d   1       7.035   1.303  -0.440  0.00  0.00    -0.303 N 
ATOM      3  O   UNL d   1       8.179  -0.651  -0.302  0.00  0.00    -0.238 OA
ATOM      4  H   UNL d   1       7.939   1.713  -0.240  0.00  0.00     0.171 HD
ENDROOT
BRANCH   1   5
ATOM      5  O   UNL d   1       5.921  -0.639   0.086  0.00  0.00    -0.302 OA
BRANCH   5   6
ATOM      6  C   UNL d   1       6.017  -1.903   0.770  0.00  0.00     0.202 C 
BRANCH   6   7
ATOM      7  C   UNL d   1       4.904  -1.947   1.817  0.00  0.00     0.179 C 
BRANCH   7   8
ATOM      8  N   UNL d   1       5.029  -3.063   2.749  0.00  0.00    -0.255 N 
ATOM      9  C   UNL d   1       4.322  -4.245   2.526  0.00  0.00     0.273 A 
ATOM     10  C   UNL d   1       4.414  -5.273   3.581  0.00  0.00     0.045 A 
ATOM     11  O   UNL d   1       3.630  -4.457   1.534  0.00  0.00    -0.266 OA
ATOM     12  C   UNL d   1       5.234  -5.042   4.676  0.00  0.00    -0.004 A 
ATOM     13  C   UNL d   1       3.672  -6.458   3.514  0.00  0.00     0.018 A 
ATOM     14  C   UNL d   1       5.972  -3.787   4.715  0.00  0.00     0.119 A 
ATOM     15  C   UNL d   1       5.336  -5.971   5.712  0.00  0.00     0.014 A 
ATOM     16  N   UNL d   1       5.874  -2.855   3.821  0.00  0.00    -0.306 N 
ATOM     17  HN  UNL d   1       6.408  -1.990   3.906  1.00  0.00     0.186 HD
ATOM     18  C   UNL d   1       4.590  -7.148   5.648  0.00  0.00     0.001 A 
ATOM     19  C   UNL d   1       3.759  -7.391   4.551  0.00  0.00     0.001 A 
ENDBRANCH   7   8
ENDBRANCH   6   7
ENDBRANCH   5   6
ENDBRANCH   1   5
BRANCH   2  20
ATOM     20  C   UNL d   1       5.891   2.058  -0.144  0.00  0.00     0.037 A 
ATOM     21  C   UNL d   1       5.941   2.998   0.885  0.00  0.00     0.032 A 
ATOM     22  C   UNL d   1       4.770   3.651   1.278  0.00  0.00     0.039 A 
ATOM     23  C   UNL d   1       3.565   3.399   0.619  0.00  0.00     0.069 A 
ATOM     24  C   UNL d   1       3.552   2.561  -0.497  0.00  0.00     0.039 A 
ATOM     25  C   UNL d   1       4.708   1.868  -0.861  0.00  0.00     0.032 A 
BRANCH  23  26
ATOM     26  O   UNL d   1       2.459   4.010   1.147  0.00  0.00    -0.347 OA
BRANCH  26  27
ATOM     27  C   UNL d   1       1.226   3.317   0.929  0.00  0.00     0.214 C 
BRANCH  27  28
ATOM     28  C   UNL d   1       0.281   3.566   2.080  0.00  0.00    -0.034 A 
ATOM     29  C   UNL d   1      -1.008   4.065   1.855  0.00  0.00     0.009 A 
ATOM     30  C   UNL d   1      -1.901   4.226   2.917  0.00  0.00     0.001 A 
ATOM     31  C   UNL d   1      -1.516   3.885   4.212  0.00  0.00     0.000 A 
ATOM     32  C   UNL d   1      -0.237   3.384   4.449  0.00  0.00     0.001 A 
ATOM     33  C   UNL d   1       0.657   3.224   3.389  0.00  0.00     0.009 A 
ENDBRANCH  27  28
ENDBRANCH  26  27
ENDBRANCH  23  26
ENDBRANCH   2  20
TORSDOF 8
