REMARK  5 active torsions:
REMARK  status: ('A' for Active; 'I' for Inactive)
REMARK    1  A    between atoms: S_11  and  C_1 
REMARK    2  A    between atoms: N_9  and  C_3 
REMARK    3  A    between atoms: N_4  and  C_12 
REMARK    4  A    between atoms: C_16  and  S_11 
REMARK    5  A    between atoms: N_21  and  C_13 
ROOT
ATOM      1  C   UNL d   1      -0.032   1.171   0.063  0.00  0.00     0.136 A 
ATOM      2  S   UNL d   1       1.169  -0.039   0.156  0.00  0.00    -0.026 SA
ATOM      3  C   UNL d   1      -0.101  -1.218   0.078  0.00  0.00     0.166 A 
ATOM      4  N   UNL d   1      -1.263   0.716  -0.000  0.00  0.00    -0.286 N 
ATOM      5  HN  UNL d   1      -2.090   1.310  -0.055  1.00  0.00     0.188 HD
ATOM      6  N   UNL d   1      -1.300  -0.663   0.017  0.00  0.00    -0.278 N 
ATOM      7  HN  UNL d   1      -2.166  -1.202  -0.014  1.00  0.00     0.189 HD
ENDROOT
BRANCH   1   8
ATOM      8  S   UNL d   1       0.313   2.880  -0.021  0.00  0.00    -0.046 SA
BRANCH   8   9
ATOM      9  C   UNL d   1       0.184   3.281   1.706  0.00  0.00     0.076 A 
ATOM     10  N   UNL d   1       1.258   3.920   2.237  0.00  0.00    -0.358 N 
ATOM     11  C   UNL d   1       1.192   4.305   3.538  0.00  0.00     0.124 A 
ATOM     12  HN  UNL d   1       2.089   4.104   1.676  1.00  0.00     0.166 HD
ATOM     13  C   UNL d   1       0.087   4.075   4.339  0.00  0.00     0.118 A 
ATOM     14  C   UNL d   1      -1.018   3.426   3.788  0.00  0.00     0.040 A 
ATOM     15  C   UNL d   1      -0.969   3.031   2.448  0.00  0.00     0.040 A 
BRANCH  13  16
ATOM     16  N   UNL d   1       0.092   4.513   5.727  0.00  0.00    -0.114 N 
ATOM     17  O   UNL d   1       1.101   5.098   6.143  0.00  0.00    -0.532 OA
ATOM     18  O   UNL d   1      -0.915   4.272   6.408  0.00  0.00    -0.532 OA
ENDBRANCH  13  16
ENDBRANCH   8   9
ENDBRANCH   1   8
BRANCH   3  19
ATOM     19  N   UNL d   1       0.245  -2.532   0.096  0.00  0.00    -0.332 N 
ATOM     20  C   UNL d   1      -0.726  -3.369  -0.062  0.00  0.00     0.179 C 
ATOM     21  HN  UNL d   1       1.209  -2.837   0.225  1.00  0.00     0.168 HD
BRANCH  20  22
ATOM     22  N   UNL d   1      -0.619  -4.743  -0.083  0.00  0.00    -0.386 N 
ATOM     23  C   UNL d   1       0.659  -5.419   0.080  0.00  0.00     0.149 C 
ATOM     24  C   UNL d   1      -1.777  -5.607  -0.236  0.00  0.00     0.149 C 
ENDBRANCH  20  22
ENDBRANCH   3  19
TORSDOF 5
