REMARK  5 active torsions:
REMARK  status: ('A' for Active; 'I' for Inactive)
REMARK    1  A    between atoms: C_8  and  C_1 
REMARK    2  A    between atoms: C_7  and  S_10 
REMARK    3  A    between atoms: S_9  and  C_7 
REMARK    4  A    between atoms: S_10  and  C_8 
REMARK    5  A    between atoms: C_12  and  S_9 
ROOT
ATOM      1  C   UNL d   1      -0.800   1.184   0.055  0.00  0.00    -0.036 A 
ATOM      2  C   UNL d   1       0.502   1.741   0.008  0.00  0.00    -0.048 A 
ATOM      3  C   UNL d   1      -0.918  -0.262   0.002  0.00  0.00    -0.048 A 
ATOM      4  C   UNL d   1       1.653   0.888  -0.044  0.00  0.00    -0.049 A 
ATOM      5  C   UNL d   1       0.235  -1.103  -0.004  0.00  0.00    -0.049 A 
ATOM      6  C   UNL d   1       1.520  -0.526  -0.022  0.00  0.00    -0.049 A 
ATOM      7  C   UNL d   1      -2.271  -0.957  -0.069  0.00  0.00     0.049 C 
ATOM      8  C   UNL d   1       0.815   3.214  -0.024  0.00  0.00     0.049 C 
ATOM      9  C   UNL d   1       3.063   1.457  -0.106  0.00  0.00     0.049 C 
ATOM     10  C   UNL d   1       0.116  -2.612   0.005  0.00  0.00     0.049 C 
ATOM     11  C   UNL d   1       2.772  -1.377  -0.038  0.00  0.00     0.049 C 
ENDROOT
BRANCH   1  12
ATOM     12  C   UNL d   1      -2.148   1.931   0.091  0.00  0.00     0.120 C 
BRANCH  12  13
ATOM     13  S   UNL d   1      -2.446   3.680   0.355  0.00  0.00    -0.107 SA
BRANCH  13  14
ATOM     14  C   UNL d   1      -1.791   4.021   1.954  0.00  0.00     0.105 C 
ATOM     15  S   UNL d   1      -1.793   2.960   3.249  0.00  0.00    -0.065 SA
BRANCH  14  16
ATOM     16  S   UNL d   1      -0.983   5.595   2.021  0.00  0.00    -0.102 SA
BRANCH  16  17
ATOM     17  C   UNL d   1      -2.204   6.742   2.767  0.00  0.00     0.003 C 
ATOM     18  C   UNL d   1      -2.627   6.271   4.161  0.00  0.00     0.026 C 
ATOM     19  C   UNL d   1      -1.481   8.098   2.896  0.00  0.00     0.026 C 
ATOM     20  C   UNL d   1      -3.431   6.927   1.868  0.00  0.00     0.026 C 
ENDBRANCH  16  17
ENDBRANCH  14  16
ENDBRANCH  13  14
ENDBRANCH  12  13
ENDBRANCH   1  12
TORSDOF 5
