REMARK  4 active torsions:
REMARK  status: ('A' for Active; 'I' for Inactive)
REMARK    1  A    between atoms: N_3  and  C_1 
REMARK    2  A    between atoms: C_7  and  C_4 
REMARK    3  A    between atoms: N_13  and  C_7 
REMARK    4  A    between atoms: O_14  and  N_9 
ROOT
ATOM      1  C   UNL d   1       2.767  -5.404  -0.018  0.00  0.00     0.161 A 
ATOM      2  S   UNL d   1       1.072  -5.308  -0.040  0.00  0.00    -0.043 SA
ATOM      3  C   UNL d   1       1.196  -3.594  -0.016  0.00  0.00     0.122 A 
ATOM      4  N   UNL d   1       2.427  -3.106   0.006  0.00  0.00    -0.354 N 
ATOM      5  HN  UNL d   1       2.669  -2.115   0.022  1.00  0.00     0.166 HD
ATOM      6  C   UNL d   1       3.334  -4.152   0.005  0.00  0.00     0.132 A 
ENDROOT
BRANCH   3   7
ATOM      7  C   UNL d   1       0.024  -2.708  -0.020  0.00  0.00     0.153 C 
ATOM      8  N   UNL d   1      -1.169  -3.247  -0.034  0.00  0.00    -0.251 N 
ATOM      9  HN  UNL d   1      -1.346  -4.251  -0.044  1.00  0.00     0.196 HD
BRANCH   8  10
ATOM     10  O   UNL d   1      -2.176  -2.262  -0.035  0.00  0.00    -0.288 OA
ATOM     11  H   UNL d   1      -2.990  -2.800  -0.049  0.00  0.00     0.244 HD
ENDBRANCH   8  10
BRANCH   7  12
ATOM     12  N   UNL d   1       0.184  -1.345  -0.011  0.00  0.00    -0.382 N 
ATOM     13  H   UNL d   1       1.108  -0.936   0.022  0.00  0.00     0.157 HD
ATOM     14  H   UNL d   1      -0.650  -0.775   0.005  0.00  0.00     0.157 HD
ENDBRANCH   7  12
ENDBRANCH   3   7
BRANCH   1  15
ATOM     15  N   UNL d   1       3.457  -6.655  -0.025  0.00  0.00    -0.107 N 
ATOM     16  O   UNL d   1       4.694  -6.598  -0.006  0.00  0.00    -0.531 OA
ATOM     17  O   UNL d   1       2.788  -7.695  -0.047  0.00  0.00    -0.531 OA
ENDBRANCH   1  15
TORSDOF 4
