REMARK  4 active torsions:
REMARK  status: ('A' for Active; 'I' for Inactive)
REMARK    1  A    between atoms: C_2  and  C_1 
REMARK       I    between atoms: N_3  and  C_1 
REMARK       I    between atoms: C_5  and  N_3 
REMARK    2  A    between atoms: C_4  and  N_7 
REMARK       I    between atoms: N_7  and  C_5 
REMARK    3  A    between atoms: O_21  and  C_6 
REMARK    4  A    between atoms: O_24  and  C_12 
ROOT
ATOM      1  C   UNL d   1       1.079  -0.611  -0.103  0.00  0.00     0.265 C 
ATOM      2  N   UNL d   1       0.828  -1.848  -0.712  0.00  0.00    -0.275 N 
ATOM      3  C   UNL d   1       1.041  -3.151  -0.339  0.00  0.00     0.327 C 
ATOM      4  N   UNL d   1       1.729  -3.372   0.820  0.00  0.00    -0.306 N 
ATOM      5  O   UNL d   1       1.551  -0.474   1.017  0.00  0.00    -0.267 OA
ATOM      6  O   UNL d   1       0.580  -4.030  -1.070  0.00  0.00    -0.247 OA
ATOM      7  H   UNL d   1       0.373  -1.823  -1.609  0.00  0.00     0.173 HD
ATOM      8  H   UNL d   1       1.519  -2.693   1.550  0.00  0.00     0.171 HD
ENDROOT
BRANCH   1   9
ATOM      9  C   UNL d   1       0.602   0.535  -0.955  0.00  0.00     0.100 C 
ATOM     10  C   UNL d   1       1.031   0.605  -2.308  0.00  0.00     0.108 C 
ATOM     11  C   UNL d   1       0.331   1.436  -3.194  0.00  0.00     0.068 C 
ATOM     12 CL   UNL d   1       0.700   1.647  -4.867  0.00  0.00    -0.081 Cl
ATOM     13  C   UNL d   1      -0.756   2.189  -2.733  0.00  0.00     0.029 C 
ATOM     14  C   UNL d   1      -1.110   2.183  -1.385  0.00  0.00     0.039 C 
ATOM     15  C   UNL d   1      -0.412   1.389  -0.473  0.00  0.00     0.086 C 
BRANCH  10  16
ATOM     16  O   UNL d   1       2.200  -0.067  -2.565  0.00  0.00    -0.353 OA
ATOM     17  C   UNL d   1       2.369  -0.769  -3.788  0.00  0.00     0.210 C 
ENDBRANCH  10  16
BRANCH  15  18
ATOM     18  O   UNL d   1      -0.719   1.359   0.858  0.00  0.00    -0.355 OA
ATOM     19  C   UNL d   1      -1.251   2.554   1.435  0.00  0.00     0.210 C 
ENDBRANCH  15  18
ENDBRANCH   1   9
BRANCH   4  20
ATOM     20  C   UNL d   1       2.156  -4.667   1.239  0.00  0.00     0.071 A 
ATOM     21  C   UNL d   1       2.854  -5.567   0.401  0.00  0.00     0.040 A 
ATOM     22  C   UNL d   1       3.297  -6.808   0.888  0.00  0.00     0.040 A 
ATOM     23 BR   UNL d   1       3.451  -5.143  -1.361  0.00  0.00    -0.049 Br
ATOM     24  C   UNL d   1       3.074  -7.158   2.215  0.00  0.00     0.013 A 
ATOM     25  C   UNL d   1       2.392  -6.293   3.063  0.00  0.00     0.040 A 
ATOM     26 BR   UNL d   1       3.754  -8.793   2.880  0.00  0.00    -0.051 Br
ATOM     27  C   UNL d   1       1.941  -5.057   2.577  0.00  0.00     0.040 A 
ATOM     28 BR   UNL d   1       0.968  -3.957   3.787  0.00  0.00    -0.049 Br
ENDBRANCH   4  20
TORSDOF 4
