REMARK  9 active torsions:
REMARK  status: ('A' for Active; 'I' for Inactive)
REMARK    1  A    between atoms: C_2  and  S_1 
REMARK    2  A    between atoms: N_3  and  S_1 
REMARK    3  A    between atoms: C_5  and  N_3 
REMARK    4  A    between atoms: C_9  and  N_3 
REMARK    5  A    between atoms: C_11  and  C_5 
REMARK    6  A    between atoms: O_22  and  C_11 
REMARK    7  A    between atoms: O_23  and  C_11 
REMARK    8  A    between atoms: C_24  and  O_22 
REMARK    9  A    between atoms: C_25  and  O_23 
ROOT
ATOM      1  N   UNL d   1       0.947  -0.315  -1.696  0.00  0.00    -0.267 N 
ENDROOT
BRANCH   1   2
ATOM      2  S   UNL d   1       1.602   0.145  -0.208  0.00  0.00     0.268 S 
ATOM      3  O   UNL d   1       2.527   1.244  -0.391  0.00  0.00    -0.200 OA
ATOM      4  O   UNL d   1       0.530   0.270   0.754  0.00  0.00    -0.200 OA
BRANCH   2   5
ATOM      5  C   UNL d   1       2.598  -1.247   0.235  0.00  0.00     0.118 A 
ATOM      6  C   UNL d   1       3.636  -1.626  -0.615  0.00  0.00     0.142 A 
ATOM      7  C   UNL d   1       4.417  -2.738  -0.325  0.00  0.00     0.086 A 
ATOM      8  F   UNL d   1       3.903  -0.950  -1.737  0.00  0.00    -0.204 F 
ATOM      9  C   UNL d   1       4.164  -3.454   0.836  0.00  0.00     0.119 A 
ATOM     10  C   UNL d   1       3.150  -3.071   1.711  0.00  0.00     0.044 A 
ATOM     11  F   UNL d   1       4.906  -4.533   1.114  0.00  0.00    -0.206 F 
ATOM     12  C   UNL d   1       2.359  -1.957   1.415  0.00  0.00     0.031 A 
ENDBRANCH   2   5
ENDBRANCH   1   2
BRANCH   1  13
ATOM     13  C   UNL d   1      -0.106  -1.342  -1.929  0.00  0.00     0.202 C 
BRANCH  13  14
ATOM     14  C   UNL d   1      -0.374  -2.449  -0.878  0.00  0.00     0.278 C 
BRANCH  14  15
ATOM     15  O   UNL d   1      -0.966  -1.986   0.337  0.00  0.00    -0.360 OA
BRANCH  15  16
ATOM     16  C   UNL d   1      -2.204  -1.296   0.166  0.00  0.00     0.166 C 
ATOM     17  C   UNL d   1      -2.803  -0.984   1.524  0.00  0.00     0.033 C 
ENDBRANCH  15  16
ENDBRANCH  14  15
BRANCH  14  18
ATOM     18  O   UNL d   1      -1.223  -3.480  -1.411  0.00  0.00    -0.360 OA
BRANCH  18  19
ATOM     19  C   UNL d   1      -0.626  -4.287  -2.421  0.00  0.00     0.166 C 
ATOM     20  C   UNL d   1      -1.568  -5.430  -2.740  0.00  0.00     0.033 C 
ENDBRANCH  18  19
ENDBRANCH  14  18
ENDBRANCH  13  14
ENDBRANCH   1  13
BRANCH   1  21
ATOM     21  C   UNL d   1       1.163   0.575  -2.798  0.00  0.00     0.045 A 
ATOM     22  C   UNL d   1       2.045   0.180  -3.812  0.00  0.00     0.033 A 
ATOM     23  C   UNL d   1       2.207   0.972  -4.942  0.00  0.00     0.044 A 
ATOM     24  C   UNL d   1       1.470   2.144  -5.066  0.00  0.00     0.116 A 
ATOM     25  C   UNL d   1       0.575   2.536  -4.072  0.00  0.00     0.044 A 
ATOM     26  F   UNL d   1       1.612   2.899  -6.163  0.00  0.00    -0.206 F 
ATOM     27  C   UNL d   1       0.416   1.749  -2.931  0.00  0.00     0.033 A 
ENDBRANCH   1  21
TORSDOF 9
