REMARK  5 active torsions:
REMARK  status: ('A' for Active; 'I' for Inactive)
REMARK    1  A    between atoms: C_6  and  C_1 
REMARK    2  A    between atoms: C_8  and  C_2 
REMARK    3  A    between atoms: N_10  and  C_7 
REMARK    4  A    between atoms: O_14  and  C_8 
REMARK    5  A    between atoms: C_15  and  O_14 
ROOT
ATOM      1  C   UNL d   1      -1.182  -1.335   0.046  0.00  0.00     0.142 A 
ATOM      2  C   UNL d   1      -1.698  -0.046   0.041  0.00  0.00     0.115 A 
ATOM      3  N   UNL d   1       0.223  -1.378   0.031  0.00  0.00    -0.332 N 
ATOM      4  HN  UNL d   1       0.776  -2.234   0.052  1.00  0.00     0.168 HD
ATOM      5  S   UNL d   1      -0.411   1.097   0.040  0.00  0.00    -0.046 SA
ATOM      6  C   UNL d   1       0.726  -0.172  -0.013  0.00  0.00     0.143 A 
ENDROOT
BRANCH   2   7
ATOM      7  C   UNL d   1      -3.073   0.387   0.015  0.00  0.00     0.302 C 
ATOM      8  O   UNL d   1      -4.019  -0.230   0.477  0.00  0.00    -0.259 OA
BRANCH   7   9
ATOM      9  O   UNL d   1      -3.184   1.539  -0.706  0.00  0.00    -0.317 OA
BRANCH   9  10
ATOM     10  C   UNL d   1      -4.487   1.836  -1.224  0.00  0.00     0.174 C 
ATOM     11  C   UNL d   1      -4.609   1.173  -2.585  0.00  0.00     0.034 C 
ENDBRANCH   9  10
ENDBRANCH   7   9
ENDBRANCH   2   7
BRANCH   1  12
ATOM     12  C   UNL d   1      -1.932  -2.638  -0.001  0.00  0.00     0.434 C 
ATOM     13  F   UNL d   1      -3.270  -2.508  -0.160  0.00  0.00    -0.165 F 
ATOM     14  F   UNL d   1      -1.514  -3.409  -1.041  0.00  0.00    -0.165 F 
ATOM     15  F   UNL d   1      -1.740  -3.371   1.129  0.00  0.00    -0.165 F 
ENDBRANCH   1  12
BRANCH   6  16
ATOM     16  N   UNL d   1       2.040   0.068  -0.093  0.00  0.00    -0.380 N 
ATOM     17  H   UNL d   1       2.662  -0.708   0.106  0.00  0.00     0.158 HD
ATOM     18  H   UNL d   1       2.395   0.981   0.160  0.00  0.00     0.158 HD
ENDBRANCH   6  16
TORSDOF 5
