REMARK  4 active torsions:
REMARK  status: ('A' for Active; 'I' for Inactive)
REMARK    1  A    between atoms: C_6  and  C_1 
REMARK    2  A    between atoms: C_7  and  C_2 
REMARK    3  A    between atoms: C_10  and  N_3 
REMARK       I    between atoms: N_9  and  C_7 
REMARK    4  A    between atoms: C_17  and  N_9 
ROOT
ATOM      1  C   UNL d   1       1.102  -0.561  -0.382  0.00  0.00     0.157 A 
ATOM      2  C   UNL d   1      -0.111  -1.143   0.006  0.00  0.00     0.082 A 
ATOM      3  N   UNL d   1       0.984   0.813  -0.154  0.00  0.00    -0.251 N 
ATOM      4  N   UNL d   1      -0.224   1.098   0.399  0.00  0.00    -0.303 N 
ATOM      5  HN  UNL d   1      -0.556   2.009   0.715  1.00  0.00     0.186 HD
ATOM      6  C   UNL d   1      -0.880  -0.048   0.442  0.00  0.00     0.127 A 
ENDROOT
BRANCH   2   7
ATOM      7  C   UNL d   1      -0.657  -2.505  -0.001  0.00  0.00     0.259 C 
ATOM      8  N   UNL d   1       0.210  -3.544  -0.255  0.00  0.00    -0.323 N 
ATOM      9  H   UNL d   1       1.200  -3.340  -0.299  0.00  0.00     0.169 HD
ATOM     10  O   UNL d   1      -1.854  -2.652   0.239  0.00  0.00    -0.267 OA
BRANCH   8  11
ATOM     11  C   UNL d   1      -0.128  -4.894  -0.512  0.00  0.00     0.035 A 
ATOM     12  C   UNL d   1      -1.440  -5.371  -0.585  0.00  0.00     0.031 A 
ATOM     13  C   UNL d   1      -1.698  -6.694  -0.957  0.00  0.00     0.026 A 
ATOM     14  C   UNL d   1      -0.644  -7.552  -1.250  0.00  0.00     0.034 A 
ATOM     15  C   UNL d   1       0.670  -7.106  -1.143  0.00  0.00     0.026 A 
ATOM     16 CL   UNL d   1      -0.966  -9.160  -1.765  0.00  0.00    -0.084 Cl
ATOM     17  C   UNL d   1       0.927  -5.781  -0.771  0.00  0.00     0.031 A 
ENDBRANCH   8  11
ENDBRANCH   2   7
BRANCH   1  18
ATOM     18  C   UNL d   1       2.331  -1.149  -0.925  0.00  0.00     0.435 C 
ATOM     19  F   UNL d   1       2.365  -2.500  -0.792  0.00  0.00    -0.165 F 
ATOM     20  F   UNL d   1       2.468  -0.906  -2.251  0.00  0.00    -0.165 F 
ATOM     21  F   UNL d   1       3.448  -0.706  -0.301  0.00  0.00    -0.165 F 
ENDBRANCH   1  18
BRANCH   3  22
ATOM     22  C   UNL d   1       1.857   1.937  -0.385  0.00  0.00     0.057 A 
ATOM     23  C   UNL d   1       2.990   1.903  -1.206  0.00  0.00     0.033 A 
ATOM     24  C   UNL d   1       3.784   3.048  -1.377  0.00  0.00     0.026 A 
ATOM     25  C   UNL d   1       3.451   4.241  -0.745  0.00  0.00     0.034 A 
ATOM     26  C   UNL d   1       2.324   4.305   0.063  0.00  0.00     0.026 A 
ATOM     27 CL   UNL d   1       4.425   5.639  -0.975  0.00  0.00    -0.084 Cl
ATOM     28  C   UNL d   1       1.533   3.164   0.237  0.00  0.00     0.033 A 
ENDBRANCH   3  22
TORSDOF 4
