REMARK  1 active torsions:
REMARK  status: ('A' for Active; 'I' for Inactive)
REMARK    1  A    between atoms: C_15  and  C_5 
ROOT
ATOM      1  C   UNL d   1      -0.698   0.533   0.017  0.00  0.00     0.056 A 
ATOM      2  C   UNL d   1       0.777   0.514   0.067  0.00  0.00     0.153 A 
ATOM      3  N   UNL d   1       1.391  -0.703   0.056  0.00  0.00    -0.219 N 
ATOM      4  C   UNL d   1      -1.248  -0.746  -0.011  0.00  0.00     0.089 A 
ATOM      5  C   UNL d   1      -1.652   1.593  -0.007  0.00  0.00    -0.003 A 
ATOM      6  N   UNL d   1      -0.595  -1.959  -0.011  0.00  0.00    -0.345 N 
ATOM      7  HN  UNL d   1      -1.101  -2.844  -0.032  1.00  0.00     0.167 HD
ATOM      8  N   UNL d   1       2.907   0.761   0.114  0.00  0.00    -0.007 NA
ATOM      9  N   UNL d   1       2.721  -0.557   0.076  0.00  0.00     0.001 NA
ATOM     10  N   UNL d   1       1.701   1.443   0.115  0.00  0.00    -0.269 N 
ATOM     11  HN  UNL d   1       1.561   2.453   0.146  1.00  0.00     0.185 HD
ATOM     12  C   UNL d   1       0.712  -1.911   0.018  0.00  0.00     0.207 A 
ATOM     13  S   UNL d   1      -2.950  -0.662  -0.049  0.00  0.00    -0.082 SA
ATOM     14  C   UNL d   1      -2.928   1.052  -0.052  0.00  0.00     0.065 A 
ENDROOT
BRANCH   5  15
ATOM     15  C   UNL d   1      -1.453   3.047  -0.009  0.00  0.00    -0.024 A 
ATOM     16  C   UNL d   1      -0.384   3.626  -0.706  0.00  0.00     0.012 A 
ATOM     17  C   UNL d   1      -0.180   5.009  -0.692  0.00  0.00     0.001 A 
ATOM     18  C   UNL d   1      -1.062   5.839  -0.005  0.00  0.00     0.000 A 
ATOM     19  C   UNL d   1      -2.145   5.285   0.671  0.00  0.00     0.001 A 
ATOM     20  C   UNL d   1      -2.334   3.899   0.676  0.00  0.00     0.012 A 
ENDBRANCH   5  15
TORSDOF 1
