REMARK  3 active torsions:
REMARK  status: ('A' for Active; 'I' for Inactive)
REMARK    1  A    between atoms: N_4  and  C_1 
REMARK       I    between atoms: C_2  and  N_3 
REMARK    2  A    between atoms: C_5  and  C_2 
REMARK    3  A    between atoms: N_3  and  N_4 
ROOT
ATOM      1  C   UNL d   1       0.286  -1.438  -3.172  0.00  0.00     0.243 C 
ATOM      2  N   UNL d   1       0.867  -0.189  -2.999  0.00  0.00    -0.267 N 
ATOM      3  O   UNL d   1       0.958  -2.469  -3.119  0.00  0.00    -0.271 OA
ATOM      4  H   UNL d   1       0.425   0.636  -3.388  0.00  0.00     0.190 HD
ENDROOT
BRANCH   2   5
ATOM      5  N   UNL d   1       2.264  -0.170  -2.915  0.00  0.00    -0.274 N 
ATOM      6  H   UNL d   1       2.727  -1.082  -2.935  0.00  0.00     0.189 HD
BRANCH   5   7
ATOM      7  C   UNL d   1       3.008   0.964  -2.904  0.00  0.00     0.184 C 
ATOM      8  S   UNL d   1       4.666   0.923  -2.909  0.00  0.00    -0.040 SA
ATOM      9  N   UNL d   1       2.346   2.148  -2.921  0.00  0.00    -0.375 N 
ATOM     10  H   UNL d   1       1.446   2.196  -2.462  0.00  0.00     0.158 HD
ATOM     11  H   UNL d   1       2.928   2.969  -2.805  0.00  0.00     0.158 HD
ENDBRANCH   5   7
ENDBRANCH   2   5
BRANCH   1  12
ATOM     12  C   UNL d   1      -1.239  -1.443  -3.387  0.00  0.00     0.032 C 
ATOM     13  C   UNL d   1      -1.617  -0.623  -4.629  0.00  0.00     0.025 C 
ATOM     14  C   UNL d   1      -1.717  -2.891  -3.592  0.00  0.00     0.025 C 
ATOM     15  C   UNL d   1      -1.930  -0.864  -2.143  0.00  0.00     0.025 C 
ENDBRANCH   1  12
TORSDOF 3
