REMARK  2 active torsions:
REMARK  status: ('A' for Active; 'I' for Inactive)
REMARK    1  A    between atoms: C_2  and  C_1 
REMARK       I    between atoms: N_8  and  C_2 
REMARK    2  A    between atoms: N_7  and  C_3 
ROOT
ATOM      1  C   UNL d   1       0.888  -0.010  -0.026  0.00  0.00     0.127 C 
ATOM      2  C   UNL d   1       0.188  -0.840  -0.826  0.00  0.00     0.113 C 
ATOM      3  C   UNL d   1       0.258   0.933   0.831  0.00  0.00     0.106 C 
ATOM      4  N   UNL d   1      -0.211   1.718   1.547  0.00  0.00    -0.191 NA
ENDROOT
BRANCH   1   5
ATOM      5  C   UNL d   1       2.387  -0.060  -0.105  0.00  0.00     0.263 C 
ATOM      6  O   UNL d   1       2.964  -0.843  -0.852  0.00  0.00    -0.267 OA
ATOM      7  N   UNL d   1       3.071   0.815   0.718  0.00  0.00    -0.361 N 
ATOM      8  C   UNL d   1       4.515   0.864   0.759  0.00  0.00     0.149 C 
ATOM      9  H   UNL d   1       2.578   1.457   1.324  0.00  0.00     0.162 HD
ENDBRANCH   1   5
BRANCH   2  10
ATOM     10  N   UNL d   1      -1.175  -1.084  -0.980  0.00  0.00    -0.397 N 
ATOM     11  C   UNL d   1      -2.196  -0.822   0.034  0.00  0.00     0.148 C 
ATOM     12  C   UNL d   1      -1.716  -1.608  -2.239  0.00  0.00     0.148 C 
ENDBRANCH   2  10
TORSDOF 2
