REMARK  4 active torsions:
REMARK  status: ('A' for Active; 'I' for Inactive)
REMARK    1  A    between atoms: C_10  and  N_1 
REMARK    2  A    between atoms: S_9  and  C_2 
REMARK    3  A    between atoms: C_7  and  C_11 
REMARK    4  A    between atoms: C_11  and  S_9 
ROOT
ATOM      1  N   UNL d   1      -0.259   1.107  -0.160  0.00  0.00    -0.313 N 
ATOM      2  C   UNL d   1       1.040   0.663  -0.298  0.00  0.00     0.163 A 
ATOM      3  N   UNL d   1       1.058  -0.644  -0.400  0.00  0.00    -0.279 N 
ATOM      4  HN  UNL d   1       1.887  -1.223  -0.537  1.00  0.00     0.189 HD
ATOM      5  N   UNL d   1      -0.228  -1.096  -0.291  0.00  0.00    -0.294 N 
ATOM      6  HN  UNL d   1      -0.532  -2.069  -0.328  1.00  0.00     0.187 HD
ATOM      7  C   UNL d   1      -0.999  -0.048  -0.131  0.00  0.00     0.202 A 
ENDROOT
BRANCH   2   8
ATOM      8  S   UNL d   1       2.438   1.677  -0.236  0.00  0.00    -0.088 SA
BRANCH   8   9
ATOM      9  C   UNL d   1       3.776   0.539   0.116  0.00  0.00     0.124 C 
BRANCH   9  10
ATOM     10  C   UNL d   1       3.922  -0.260   1.401  0.00  0.00    -0.005 A 
ATOM     11  C   UNL d   1       3.075  -0.274   2.526  0.00  0.00     0.042 A 
ATOM     12 CL   UNL d   1       1.795   0.842   2.837  0.00  0.00    -0.084 Cl
ATOM     13  C   UNL d   1       3.277  -1.186   3.579  0.00  0.00     0.024 A 
ATOM     14  C   UNL d   1       4.364  -2.048   3.589  0.00  0.00     0.003 A 
ATOM     15  C   UNL d   1       5.272  -1.990   2.546  0.00  0.00     0.024 A 
ATOM     16  C   UNL d   1       5.053  -1.120   1.470  0.00  0.00     0.042 A 
ATOM     17 CL   UNL d   1       6.281  -1.133   0.238  0.00  0.00    -0.084 Cl
ENDBRANCH   9  10
ENDBRANCH   8   9
ENDBRANCH   2   8
BRANCH   1  18
ATOM     18  C   UNL d   1      -0.787   2.482  -0.072  0.00  0.00     0.029 C 
ATOM     19  C   UNL d   1      -0.424   3.288  -1.337  0.00  0.00     0.038 C 
ATOM     20  C   UNL d   1      -2.337   2.509   0.022  0.00  0.00     0.038 C 
ATOM     21  C   UNL d   1      -0.281   3.209   1.191  0.00  0.00     0.038 C 
ENDBRANCH   1  18
TORSDOF 4
