REMARK  7 active torsions:
REMARK  status: ('A' for Active; 'I' for Inactive)
REMARK    1  A    between atoms: C_2  and  C_1 
REMARK    2  A    between atoms: N_3  and  C_5 
REMARK    3  A    between atoms: N_4  and  C_6 
REMARK    4  A    between atoms: C_9  and  C_7 
REMARK    5  A    between atoms: C_10  and  C_8 
REMARK    6  A    between atoms: O_17  and  C_9 
REMARK    7  A    between atoms: O_18  and  C_10 
ROOT
ATOM      1  C   UNL d   1       1.358  -0.218   0.026  0.00  0.00     0.027 A 
ATOM      2  C   UNL d   1       0.420  -0.469   1.070  0.00  0.00     0.115 A 
ATOM      3  C   UNL d   1       0.786   0.304  -1.172  0.00  0.00     0.053 A 
ATOM      4  C   UNL d   1      -0.951  -0.147   0.964  0.00  0.00     0.037 A 
ATOM      5  C   UNL d   1      -0.591   0.610  -1.272  0.00  0.00     0.018 A 
ATOM      6  C   UNL d   1      -1.452   0.401  -0.206  0.00  0.00     0.003 A 
ENDROOT
BRANCH   1   7
ATOM      7  C   UNL d   1       2.845  -0.464   0.165  0.00  0.00     0.027 A 
ATOM      8  C   UNL d   1       3.577  -1.344  -0.683  0.00  0.00     0.115 A 
ATOM      9  C   UNL d   1       4.980  -1.490  -0.612  0.00  0.00     0.037 A 
ATOM     10  C   UNL d   1       5.707  -0.796   0.343  0.00  0.00     0.003 A 
ATOM     11  C   UNL d   1       5.034   0.026   1.234  0.00  0.00     0.018 A 
ATOM     12  C   UNL d   1       3.631   0.192   1.159  0.00  0.00     0.053 A 
BRANCH   8  13
ATOM     13  N   UNL d   1       2.906  -2.203  -1.666  0.00  0.00    -0.115 N 
ATOM     14  O   UNL d   1       1.825  -2.706  -1.347  0.00  0.00    -0.532 OA
ATOM     15  O   UNL d   1       3.482  -2.384  -2.750  0.00  0.00    -0.532 OA
ENDBRANCH   8  13
BRANCH  12  16
ATOM     16  C   UNL d   1       3.032   1.056   2.213  0.00  0.00     0.293 C 
ATOM     17  O   UNL d   1       2.138   1.862   2.029  0.00  0.00    -0.259 OA
BRANCH  16  18
ATOM     18  O   UNL d   1       3.569   0.687   3.402  0.00  0.00    -0.322 OA
ATOM     19  C   UNL d   1       2.994   1.287   4.565  0.00  0.00     0.213 C 
ENDBRANCH  16  18
ENDBRANCH  12  16
ENDBRANCH   1   7
BRANCH   2  20
ATOM     20  N   UNL d   1       0.811  -1.133   2.314  0.00  0.00    -0.115 N 
ATOM     21  O   UNL d   1       1.640  -2.051   2.243  0.00  0.00    -0.532 OA
ATOM     22  O   UNL d   1       0.272  -0.747   3.366  0.00  0.00    -0.532 OA
ENDBRANCH   2  20
BRANCH   3  23
ATOM     23  C   UNL d   1       1.583   0.521  -2.412  0.00  0.00     0.293 C 
ATOM     24  O   UNL d   1       2.707   0.984  -2.446  0.00  0.00    -0.259 OA
BRANCH  23  25
ATOM     25  O   UNL d   1       0.882  -0.006  -3.447  0.00  0.00    -0.322 OA
ATOM     26  C   UNL d   1       1.560  -0.048  -4.705  0.00  0.00     0.213 C 
ENDBRANCH  23  25
ENDBRANCH   3  23
TORSDOF 7
