REMARK  1 active torsions:
REMARK  status: ('A' for Active; 'I' for Inactive)
REMARK    1  A    between atoms: C_7  and  C_6 
ROOT
ATOM      1  C   UNL d   1      -1.152  -0.855   0.041  0.00  0.00     0.046 A 
ATOM      2  C   UNL d   1       0.349  -0.986   0.003  0.00  0.00     0.257 A 
ATOM      3  N   UNL d   1       0.817   0.305  -0.164  0.00  0.00    -0.322 N 
ATOM      4  C   UNL d   1      -1.463   0.575  -0.055  0.00  0.00     0.006 A 
ATOM      5  C   UNL d   1      -0.230   1.223  -0.198  0.00  0.00     0.046 A 
ATOM      6  C   UNL d   1      -1.908  -1.961   0.081  0.00  0.00     0.036 C 
ATOM      7  O   UNL d   1       1.007  -2.007   0.088  0.00  0.00    -0.267 OA
ATOM      8  C   UNL d   1      -2.632   1.313  -0.015  0.00  0.00     0.015 A 
ATOM      9  C   UNL d   1      -0.119   2.593  -0.336  0.00  0.00     0.030 A 
ATOM     10  C   UNL d   1      -2.544   2.704  -0.141  0.00  0.00     0.001 A 
ATOM     11  C   UNL d   1      -1.300   3.338  -0.309  0.00  0.00     0.002 A 
ATOM     12  H   UNL d   1       1.798   0.525  -0.236  0.00  0.00     0.169 HD
ENDROOT
BRANCH   6  13
ATOM     13  C   UNL d   1      -3.323  -1.941  -0.008  0.00  0.00     0.005 A 
ATOM     14  S   UNL d   1      -4.081  -2.130  -1.540  0.00  0.00    -0.102 SA
ATOM     15  C   UNL d   1      -5.644  -2.035  -0.860  0.00  0.00     0.050 A 
ATOM     16  C   UNL d   1      -5.603  -1.875   0.506  0.00  0.00     0.008 A 
ATOM     17  C   UNL d   1      -4.265  -1.826   0.998  0.00  0.00     0.019 A 
ENDBRANCH   6  13
TORSDOF 1
