REMARK  7 active torsions:
REMARK  status: ('A' for Active; 'I' for Inactive)
REMARK    1  A    between atoms: N_5  and  S_1 
REMARK    2  A    between atoms: C_9  and  S_1 
REMARK    3  A    between atoms: C_2  and  C_4 
REMARK    4  A    between atoms: N_8  and  C_3 
REMARK       I    between atoms: C_4  and  N_10 
REMARK    5  A    between atoms: N_10  and  N_5 
REMARK    6  A    between atoms: C_6  and  C_11 
REMARK    7  A    between atoms: C_7  and  C_12 
ROOT
ATOM      1  S   UNL d   1       1.252   0.065  -0.108  0.00  0.00     0.276 S 
ATOM      2  O   UNL d   1       0.641  -0.161  -1.400  0.00  0.00    -0.199 OA
ATOM      3  O   UNL d   1       2.689   0.087   0.041  0.00  0.00    -0.199 OA
ENDROOT
BRANCH   1   4
ATOM      4  N   UNL d   1       0.646  -1.121   0.938  0.00  0.00    -0.220 N 
ATOM      5  H   UNL d   1      -0.307  -1.013   1.305  0.00  0.00     0.200 HD
BRANCH   4   6
ATOM      6  N   UNL d   1       1.085  -2.497   0.688  0.00  0.00    -0.256 N 
ATOM      7  C   UNL d   1       0.252  -3.554   1.020  0.00  0.00     0.279 C 
ATOM      8  O   UNL d   1      -0.830  -3.338   1.574  0.00  0.00    -0.265 OA
ATOM      9  H   UNL d   1       1.936  -2.638   0.146  0.00  0.00     0.191 HD
BRANCH   7  10
ATOM     10  C   UNL d   1       0.736  -4.883   0.652  0.00  0.00     0.101 A 
ATOM     11  C   UNL d   1       0.039  -6.068   0.444  0.00  0.00     0.061 A 
ATOM     12  C   UNL d   1       0.917  -7.194   0.297  0.00  0.00     0.039 A 
ATOM     13  C   UNL d   1       2.241  -6.827   0.283  0.00  0.00     0.053 A 
ATOM     14  S   UNL d   1       2.438  -5.154   0.533  0.00  0.00    -0.094 SA
BRANCH  11  15
ATOM     15  N   UNL d   1      -1.379  -6.218   0.311  0.00  0.00    -0.331 N 
ATOM     16  C   UNL d   1      -2.094  -7.372   0.576  0.00  0.00     0.096 A 
ATOM     17  C   UNL d   1      -3.390  -7.211   0.138  0.00  0.00     0.019 A 
ATOM     18  C   UNL d   1      -3.484  -5.916  -0.411  0.00  0.00     0.019 A 
ATOM     19  C   UNL d   1      -2.254  -5.313  -0.252  0.00  0.00     0.096 A 
ENDBRANCH  11  15
ENDBRANCH   7  10
ENDBRANCH   4   6
ENDBRANCH   1   4
BRANCH   1  20
ATOM     20  C   UNL d   1       0.592   1.581   0.546  0.00  0.00     0.082 A 
ATOM     21  C   UNL d   1       1.348   2.337   1.453  0.00  0.00     0.041 A 
ATOM     22  C   UNL d   1       0.886   3.592   1.882  0.00  0.00     0.050 A 
ATOM     23  C   UNL d   1      -0.331   4.082   1.371  0.00  0.00     0.032 A 
ATOM     24  C   UNL d   1      -1.076   3.346   0.432  0.00  0.00     0.050 A 
ATOM     25  C   UNL d   1      -0.609   2.084   0.033  0.00  0.00     0.041 A 
BRANCH  22  26
ATOM     26  C   UNL d   1       1.677   4.436   2.858  0.00  0.00     0.417 C 
ATOM     27  F   UNL d   1       2.881   3.898   3.193  0.00  0.00    -0.166 F 
ATOM     28  F   UNL d   1       1.942   5.679   2.370  0.00  0.00    -0.166 F 
ATOM     29  F   UNL d   1       1.010   4.627   4.029  0.00  0.00    -0.166 F 
ENDBRANCH  22  26
BRANCH  24  30
ATOM     30  C   UNL d   1      -2.334   3.939  -0.166  0.00  0.00     0.417 C 
ATOM     31  F   UNL d   1      -2.908   3.151  -1.114  0.00  0.00    -0.166 F 
ATOM     32  F   UNL d   1      -3.295   4.165   0.770  0.00  0.00    -0.166 F 
ATOM     33  F   UNL d   1      -2.101   5.139  -0.765  0.00  0.00    -0.166 F 
ENDBRANCH  24  30
ENDBRANCH   1  20
TORSDOF 7
