REMARK  8 active torsions:
REMARK  status: ('A' for Active; 'I' for Inactive)
REMARK    1  A    between atoms: C_12  and  C_1 
REMARK    2  A    between atoms: C_2  and  O_14 
REMARK    3  A    between atoms: C_4  and  O_26 
REMARK    4  A    between atoms: C_5  and  O_27 
REMARK    5  A    between atoms: C_9  and  O_28 
REMARK    6  A    between atoms: C_11  and  C_30 
REMARK    7  A    between atoms: O_14  and  C_20 
REMARK    8  A    between atoms: O_31  and  C_30 
ROOT
ATOM      1  C   UNL d   1      -2.346  -0.357   0.075  0.00  0.00     0.048 C 
ATOM      2  C   UNL d   1      -1.427   0.802  -0.035  0.00  0.00     0.197 C 
ATOM      3  C   UNL d   1      -0.004   0.490  -0.235  0.00  0.00     0.049 A 
ATOM      4  C   UNL d   1      -1.784  -1.572   0.171  0.00  0.00     0.159 C 
ATOM      5  C   UNL d   1       0.438  -0.823  -0.107  0.00  0.00     0.091 A 
ATOM      6  O   UNL d   1      -0.430  -1.853   0.176  0.00  0.00    -0.321 OA
ATOM      7  C   UNL d   1       1.795  -1.123  -0.297  0.00  0.00     0.075 A 
ATOM      8  C   UNL d   1       0.889   1.502  -0.579  0.00  0.00     0.021 A 
ATOM      9  C   UNL d   1       2.700  -0.118  -0.678  0.00  0.00     0.074 A 
ATOM     10  O   UNL d   1      -1.816   1.964   0.018  0.00  0.00    -0.286 OA
ATOM     11  C   UNL d   1       2.228   1.194  -0.813  0.00  0.00     0.038 A 
ENDROOT
BRANCH   9  12
ATOM     12  O   UNL d   1       4.002  -0.514  -0.905  0.00  0.00    -0.318 OA
BRANCH  12  13
ATOM     13  C   UNL d   1       4.855   0.454  -1.549  0.00  0.00     0.298 C 
ATOM     14  C   UNL d   1       6.343   0.038  -1.525  0.00  0.00     0.205 C 
ATOM     15  C   UNL d   1       6.605  -1.163  -2.441  0.00  0.00     0.183 C 
ATOM     16  C   UNL d   1       6.011  -0.934  -3.840  0.00  0.00     0.180 C 
ATOM     17  C   UNL d   1       4.557  -0.458  -3.742  0.00  0.00     0.179 C 
ATOM     18  O   UNL d   1       4.456   0.712  -2.905  0.00  0.00    -0.348 OA
BRANCH  14  19
ATOM     19  O   UNL d   1       6.810  -0.198  -0.193  0.00  0.00    -0.388 OA
ATOM     20  H   UNL d   1       6.539  -1.096   0.069  0.00  0.00     0.210 HD
ENDBRANCH  14  19
BRANCH  15  21
ATOM     21  O   UNL d   1       8.016  -1.412  -2.551  0.00  0.00    -0.390 OA
ATOM     22  H   UNL d   1       8.440  -0.630  -2.953  0.00  0.00     0.210 HD
ENDBRANCH  15  21
BRANCH  16  23
ATOM     23  O   UNL d   1       6.103  -2.112  -4.643  0.00  0.00    -0.390 OA
ATOM     24  H   UNL d   1       6.033  -2.895  -4.068  0.00  0.00     0.210 HD
ENDBRANCH  16  23
BRANCH  17  25
ATOM     25  C   UNL d   1       4.014  -0.092  -5.130  0.00  0.00     0.198 C 
BRANCH  25  26
ATOM     26  O   UNL d   1       2.677   0.392  -5.019  0.00  0.00    -0.398 OA
ATOM     27  H   UNL d   1       2.706   1.101  -4.350  0.00  0.00     0.209 HD
ENDBRANCH  25  26
ENDBRANCH  17  25
ENDBRANCH  12  13
ENDBRANCH   9  12
BRANCH   1  28
ATOM     28  C   UNL d   1      -3.804  -0.161   0.068  0.00  0.00    -0.017 A 
ATOM     29  C   UNL d   1      -4.506  -0.090  -1.142  0.00  0.00     0.052 A 
ATOM     30  C   UNL d   1      -5.879   0.165  -1.151  0.00  0.00     0.102 A 
ATOM     31  O   UNL d   1      -6.489   0.258  -2.378  0.00  0.00    -0.346 OA
ATOM     32  C   UNL d   1      -6.570   0.320   0.056  0.00  0.00     0.102 A 
ATOM     33  C   UNL d   1      -7.782   0.868  -2.277  0.00  0.00     0.202 C 
ATOM     34  C   UNL d   1      -8.567   0.275  -1.118  0.00  0.00     0.202 C 
ATOM     35  O   UNL d   1      -7.920   0.554   0.128  0.00  0.00    -0.346 OA
ATOM     36  C   UNL d   1      -5.877   0.259   1.263  0.00  0.00     0.040 A 
ATOM     37  C   UNL d   1      -4.502   0.016   1.272  0.00  0.00     0.015 A 
ENDBRANCH   1  28
TORSDOF 8
