REMARK  4 active torsions:
REMARK  status: ('A' for Active; 'I' for Inactive)
REMARK    1  A    between atoms: C_2  and  S_1 
REMARK    2  A    between atoms: O_10  and  S_1 
REMARK    3  A    between atoms: N_8  and  C_5 
REMARK    4  A    between atoms: C_9  and  O_10 
ROOT
ATOM      1  O   UNL d   1       0.341  -1.178   0.816  0.00  0.00    -0.225 OA
ENDROOT
BRANCH   1   2
ATOM      2  C   UNL d   1       0.781  -2.465   0.995  0.00  0.00     0.140 A 
ATOM      3  C   UNL d   1      -0.161  -3.487   1.180  0.00  0.00     0.209 A 
ATOM      4  N   UNL d   1       0.153  -4.821   1.138  0.00  0.00    -0.339 N 
ATOM      5  C   UNL d   1       1.441  -5.163   0.921  0.00  0.00     0.007 A 
ATOM      6  HN  UNL d   1      -0.565  -5.533   1.267  1.00  0.00     0.167 HD
ATOM      7  C   UNL d   1       2.442  -4.212   0.793  0.00  0.00     0.027 A 
ATOM      8  C   UNL d   1       1.741  -6.624   0.769  0.00  0.00     0.068 C 
ATOM      9  C   UNL d   1       2.107  -2.857   0.820  0.00  0.00     0.044 A 
BRANCH   3  10
ATOM     10  N   UNL d   1      -1.555  -3.069   1.404  0.00  0.00    -0.095 N 
ATOM     11  O   UNL d   1      -1.772  -2.273   2.331  0.00  0.00    -0.530 OA
ATOM     12  O   UNL d   1      -2.418  -3.539   0.647  0.00  0.00    -0.530 OA
ENDBRANCH   3  10
ENDBRANCH   1   2
BRANCH   1  13
ATOM     13  S   UNL d   1       1.149   0.161   1.250  0.00  0.00     0.306 S 
ATOM     14  O   UNL d   1       0.627   0.647   2.505  0.00  0.00    -0.193 OA
ATOM     15  O   UNL d   1       2.566   0.043   0.974  0.00  0.00    -0.193 OA
BRANCH  13  16
ATOM     16  C   UNL d   1       0.646   1.345   0.092  0.00  0.00     0.135 A 
ATOM     17  C   UNL d   1       1.083   2.712   0.135  0.00  0.00     0.065 A 
ATOM     18  C   UNL d   1       0.592   3.446  -0.915  0.00  0.00     0.095 A 
ATOM     19 BR   UNL d   1       2.236   3.426   1.463  0.00  0.00    -0.047 Br
ATOM     20 CL   UNL d   1       0.863   5.103  -1.288  0.00  0.00    -0.075 Cl
ATOM     21  S   UNL d   1      -0.385   2.535  -1.952  0.00  0.00    -0.063 SA
ATOM     22  C   UNL d   1      -0.142   1.132  -1.017  0.00  0.00     0.101 A 
ATOM     23 CL   UNL d   1      -0.884  -0.301  -1.617  0.00  0.00    -0.074 Cl
ENDBRANCH  13  16
ENDBRANCH   1  13
TORSDOF 4
