REMARK  5 active torsions:
REMARK  status: ('A' for Active; 'I' for Inactive)
REMARK    1  A    between atoms: C_6  and  C_1 
REMARK    2  A    between atoms: C_5  and  C_4 
REMARK       I    between atoms: N_17  and  C_6 
REMARK    3  A    between atoms: C_12  and  C_18 
REMARK       I    between atoms: C_15  and  N_19 
REMARK       I    between atoms: N_20  and  C_15 
REMARK    4  A    between atoms: N_19  and  N_17 
REMARK    5  A    between atoms: C_24  and  N_20 
ROOT
ATOM      1  C   UNL d   1       0.679  -2.033  -0.620  0.00  0.00     0.313 C 
ATOM      2  N   UNL d   1       0.048  -3.261  -0.521  0.00  0.00    -0.259 N 
ATOM      3  O   UNL d   1       0.193  -1.030  -0.091  0.00  0.00    -0.262 OA
ATOM      4  H   UNL d   1       0.433  -4.113  -0.934  0.00  0.00     0.190 HD
ENDROOT
BRANCH   2   5
ATOM      5  N   UNL d   1      -1.126  -3.391   0.260  0.00  0.00    -0.248 N 
ATOM      6  C   UNL d   1      -1.740  -4.633   0.223  0.00  0.00     0.339 C 
ATOM      7  N   UNL d   1      -2.905  -4.673   0.963  0.00  0.00    -0.308 N 
ATOM      8  O   UNL d   1      -1.230  -5.556  -0.402  0.00  0.00    -0.245 OA
ATOM      9  H   UNL d   1      -3.125  -3.849   1.496  0.00  0.00     0.170 HD
ATOM     10  H   UNL d   1      -1.697  -2.554   0.311  0.00  0.00     0.192 HD
BRANCH   7  11
ATOM     11  C   UNL d   1      -3.796  -5.767   1.072  0.00  0.00     0.037 A 
ATOM     12  C   UNL d   1      -3.608  -6.977   0.399  0.00  0.00     0.045 A 
ATOM     13  C   UNL d   1      -4.571  -8.000   0.445  0.00  0.00     0.050 A 
ATOM     14  C   UNL d   1      -5.722  -7.813   1.220  0.00  0.00     0.016 A 
ATOM     15  C   UNL d   1      -5.900  -6.629   1.935  0.00  0.00     0.003 A 
ATOM     16  C   UNL d   1      -4.944  -5.610   1.858  0.00  0.00     0.029 A 
BRANCH  13  17
ATOM     17  C   UNL d   1      -4.390  -9.255  -0.371  0.00  0.00     0.417 C 
ATOM     18  F   UNL d   1      -3.209  -9.312  -1.047  0.00  0.00    -0.166 F 
ATOM     19  F   UNL d   1      -4.440 -10.387   0.385  0.00  0.00    -0.166 F 
ATOM     20  F   UNL d   1      -5.363  -9.396  -1.316  0.00  0.00    -0.166 F 
ENDBRANCH  13  17
ENDBRANCH   7  11
ENDBRANCH   2   5
BRANCH   1  21
ATOM     21  C   UNL d   1       1.903  -2.041  -1.394  0.00  0.00     0.241 A 
ATOM     22  N   UNL d   1       2.432  -3.046  -2.062  0.00  0.00    -0.313 N 
ATOM     23  C   UNL d   1       3.548  -2.459  -2.624  0.00  0.00     0.155 A 
ATOM     24  HN  UNL d   1       2.102  -4.008  -2.143  1.00  0.00     0.170 HD
ATOM     25  N   UNL d   1       3.720  -1.167  -2.306  0.00  0.00    -0.241 N 
ATOM     26  O   UNL d   1       2.624  -0.885  -1.490  0.00  0.00    -0.212 OA
ATOM     27  HN  UNL d   1       4.472  -0.540  -2.593  1.00  0.00     0.196 HD
BRANCH  23  28
ATOM     28  C   UNL d   1       4.451  -3.195  -3.527  0.00  0.00     0.085 A 
ATOM     29  N   UNL d   1       4.206  -4.533  -3.817  0.00  0.00    -0.351 N 
ATOM     30  C   UNL d   1       5.115  -4.983  -4.656  0.00  0.00     0.047 A 
ATOM     31  HN  UNL d   1       3.436  -5.083  -3.436  1.00  0.00     0.166 HD
ATOM     32  C   UNL d   1       5.157  -6.372  -5.188  0.00  0.00     0.076 C 
ATOM     33  S   UNL d   1       6.309  -3.844  -5.139  0.00  0.00    -0.087 SA
ATOM     34  C   UNL d   1       5.557  -2.657  -4.158  0.00  0.00     0.084 A 
ENDBRANCH  23  28
ENDBRANCH   1  21
TORSDOF 5
