REMARK  1 active torsions:
REMARK  status: ('A' for Active; 'I' for Inactive)
REMARK    1  A    between atoms: O_7  and  C_4 
ROOT
ATOM      1  C   UNL d   1      -0.026  -0.726  -0.068  0.00  0.00     0.004 A 
ATOM      2  C   UNL d   1      -0.042   0.671  -0.005  0.00  0.00     0.077 A 
ATOM      3  O   UNL d   1      -1.190   1.414   0.050  0.00  0.00    -0.350 OA
ATOM      4  C   UNL d   1      -1.311  -1.507  -0.087  0.00  0.00     0.156 C 
ATOM      5  C   UNL d   1      -2.382   0.708  -0.309  0.00  0.00     0.178 C 
ATOM      6  C   UNL d   1      -2.473  -0.643   0.380  0.00  0.00     0.063 C 
ATOM      7  C   UNL d   1       1.208  -1.395  -0.117  0.00  0.00     0.012 A 
ATOM      8  C   UNL d   1       1.155   1.387   0.042  0.00  0.00     0.037 A 
ATOM      9  C   UNL d   1       2.404  -0.674  -0.080  0.00  0.00     0.001 A 
ATOM     10  C   UNL d   1       2.376   0.717   0.004  0.00  0.00     0.003 A 
ENDROOT
BRANCH   4  11
ATOM     11  O   UNL d   1      -1.583  -1.974  -1.408  0.00  0.00    -0.391 OA
ATOM     12  H   UNL d   1      -1.015  -1.478  -2.023  0.00  0.00     0.210 HD
ENDBRANCH   4  11
TORSDOF 1
