REMARK  5 active torsions:
REMARK  status: ('A' for Active; 'I' for Inactive)
REMARK    1  A    between atoms: S_9  and  C_3 
REMARK    2  A    between atoms: C_10  and  C_4 
REMARK    3  A    between atoms: C_14  and  S_9 
REMARK    4  A    between atoms: C_11  and  C_14 
REMARK    5  A    between atoms: C_17  and  C_11 
ROOT
ATOM      1  N   UNL d   1      -1.742   1.282   0.046  0.00  0.00    -0.334 N 
ATOM      2  HN  UNL d   1      -2.308   2.131   0.030  1.00  0.00     0.168 HD
ATOM      3  C   UNL d   1      -0.393   1.341   0.046  0.00  0.00     0.095 A 
ATOM      4  C   UNL d   1      -2.313   0.065   0.067  0.00  0.00     0.133 A 
ATOM      5  N   UNL d   1      -1.615  -1.090   0.053  0.00  0.00    -0.343 N 
ATOM      6  HN  UNL d   1      -2.089  -1.994   0.060  1.00  0.00     0.167 HD
ATOM      7  C   UNL d   1       0.410   0.206   0.026  0.00  0.00     0.089 A 
ATOM      8  C   UNL d   1      -0.263  -1.008   0.030  0.00  0.00     0.031 A 
ATOM      9 CL   UNL d   1       2.136   0.268  -0.016  0.00  0.00    -0.079 Cl
ATOM     10  C   UNL d   1       0.461  -2.324   0.010  0.00  0.00     0.070 C 
ENDROOT
BRANCH   3  11
ATOM     11  S   UNL d   1       0.291   3.000   0.013  0.00  0.00    -0.103 SA
BRANCH  11  12
ATOM     12  C   UNL d   1      -1.052   3.935   0.822  0.00  0.00     0.164 C 
BRANCH  12  13
ATOM     13  C   UNL d   1      -1.249   3.556   2.283  0.00  0.00     0.169 C 
ATOM     14  O   UNL d   1      -0.600   2.682   2.858  0.00  0.00    -0.291 OA
BRANCH  13  15
ATOM     15  C   UNL d   1      -2.275   4.314   3.074  0.00  0.00     0.010 A 
ATOM     16  C   UNL d   1      -2.983   5.404   2.550  0.00  0.00     0.015 A 
ATOM     17  C   UNL d   1      -3.906   6.093   3.345  0.00  0.00     0.001 A 
ATOM     18  C   UNL d   1      -4.131   5.699   4.663  0.00  0.00     0.000 A 
ATOM     19  C   UNL d   1      -3.435   4.615   5.191  0.00  0.00     0.001 A 
ATOM     20  C   UNL d   1      -2.511   3.926   4.401  0.00  0.00     0.015 A 
ENDBRANCH  13  15
ENDBRANCH  12  13
ENDBRANCH  11  12
ENDBRANCH   3  11
BRANCH   4  21
ATOM     21  C   UNL d   1      -3.794  -0.017   0.122  0.00  0.00     0.076 A 
ATOM     22  N   UNL d   1      -4.491   1.157   0.060  0.00  0.00    -0.363 N 
ATOM     23  C   UNL d   1      -5.838   1.100   0.123  0.00  0.00     0.088 A 
ATOM     24  HN  UNL d   1      -4.007   2.050  -0.031  1.00  0.00     0.165 HD
ATOM     25  C   UNL d   1      -6.555  -0.076   0.248  0.00  0.00     0.017 A 
ATOM     26  C   UNL d   1      -5.849  -1.269   0.308  0.00  0.00     0.004 A 
ATOM     27  C   UNL d   1      -4.458  -1.242   0.242  0.00  0.00     0.033 A 
ENDBRANCH   4  21
TORSDOF 5
