REMARK  5 active torsions:
REMARK  status: ('A' for Active; 'I' for Inactive)
REMARK    1  A    between atoms: C_6  and  C_1 
REMARK    2  A    between atoms: C_9  and  C_3 
REMARK    3  A    between atoms: S_10  and  C_5 
REMARK    4  A    between atoms: O_14  and  C_6 
REMARK    5  A    between atoms: O_18  and  C_15 
ROOT
ATOM      1  C   UNL d   1       1.338  -1.237  -0.077  0.00  0.00     0.092 A 
ATOM      2  C   UNL d   1      -0.685  -0.065   0.114  0.00  0.00     0.081 A 
ATOM      3  C   UNL d   1      -0.051  -1.370  -0.017  0.00  0.00     0.021 A 
ATOM      4  S   UNL d   1       1.820   0.412  -0.011  0.00  0.00    -0.074 SA
ATOM      5  C   UNL d   1       0.217   0.979   0.062  0.00  0.00     0.063 A 
ATOM      6  C   UNL d   1      -2.096   0.157   0.274  0.00  0.00     0.102 C 
ATOM      7  N   UNL d   1      -3.241   0.343   0.360  0.00  0.00    -0.191 NA
ENDROOT
BRANCH   3   8
ATOM      8  C   UNL d   1      -0.746  -2.675  -0.063  0.00  0.00    -0.023 A 
ATOM      9  C   UNL d   1      -1.945  -2.813  -0.782  0.00  0.00     0.015 A 
ATOM     10  C   UNL d   1      -2.636  -4.032  -0.826  0.00  0.00     0.037 A 
ATOM     11  C   UNL d   1      -2.118  -5.152  -0.184  0.00  0.00     0.068 A 
ATOM     12  C   UNL d   1      -0.916  -5.039   0.509  0.00  0.00     0.037 A 
ATOM     13  C   UNL d   1      -0.256  -3.806   0.603  0.00  0.00     0.015 A 
BRANCH  11  14
ATOM     14  O   UNL d   1      -2.669  -6.402  -0.213  0.00  0.00    -0.356 OA
ATOM     15  C   UNL d   1      -4.090  -6.441  -0.294  0.00  0.00     0.210 C 
ENDBRANCH  11  14
ENDBRANCH   3   8
BRANCH   5  16
ATOM     16  S   UNL d   1      -0.091   2.714   0.137  0.00  0.00    -0.126 SA
ATOM     17  C   UNL d   1      -0.961   3.000  -1.425  0.00  0.00     0.096 C 
ENDBRANCH   5  16
BRANCH   1  18
ATOM     18  C   UNL d   1       2.385  -2.238  -0.232  0.00  0.00     0.184 C 
ATOM     19  O   UNL d   1       2.297  -3.290  -0.850  0.00  0.00    -0.646 OA
BRANCH  18  20
ATOM     20  O   UNL d   1       3.521  -1.914   0.441  0.00  0.00    -0.772 OA
ATOM     21  H   UNL d   1       3.455  -1.050   0.894  0.00  0.00     0.167 HD
ENDBRANCH  18  20
ENDBRANCH   1  18
TORSDOF 5
