REMARK  9 active torsions:
REMARK  status: ('A' for Active; 'I' for Inactive)
REMARK    1  A    between atoms: C_8  and  C_1 
REMARK    2  A    between atoms: C_9  and  C_1 
REMARK    3  A    between atoms: C_2  and  S_14 
REMARK    4  A    between atoms: N_12  and  N_4 
REMARK    5  A    between atoms: C_18  and  C_8 
REMARK    6  A    between atoms: O_22  and  C_9 
REMARK    7  A    between atoms: C_15  and  N_12 
REMARK    8  A    between atoms: S_14  and  C_18 
REMARK    9  A    between atoms: C_28  and  O_22 
ROOT
ATOM      1  C   UNL d   1      -0.885   2.471  -3.455  0.00  0.00     0.091 A 
ATOM      2  C   UNL d   1      -0.629   2.686  -4.815  0.00  0.00     0.084 A 
ATOM      3  N   UNL d   1      -0.486   3.338  -2.488  0.00  0.00    -0.353 N 
ATOM      4  HN  UNL d   1      -0.699   3.157  -1.507  1.00  0.00     0.166 HD
ATOM      5  C   UNL d   1       0.144   3.809  -5.177  0.00  0.00    -0.037 A 
ATOM      6  C   UNL d   1      -1.170   1.808  -5.818  0.00  0.00     0.103 C 
ATOM      7  N   UNL d   1      -1.614   1.149  -6.660  0.00  0.00    -0.191 NA
ATOM      8  C   UNL d   1       0.198   4.442  -2.852  0.00  0.00     0.006 A 
ATOM      9  C   UNL d   1       0.564   4.688  -4.167  0.00  0.00     0.033 A 
ATOM     10  C   UNL d   1       0.588   4.103  -6.586  0.00  0.00     0.050 C 
ATOM     11  C   UNL d   1       0.559   5.401  -1.759  0.00  0.00     0.068 C 
ENDROOT
BRANCH   1  12
ATOM     12  S   UNL d   1      -1.812   1.070  -2.836  0.00  0.00    -0.103 SA
BRANCH  12  13
ATOM     13  C   UNL d   1      -1.010   0.827  -1.203  0.00  0.00     0.166 C 
BRANCH  13  14
ATOM     14  C   UNL d   1       0.406   0.293  -1.328  0.00  0.00     0.193 C 
ATOM     15  O   UNL d   1       1.018   0.097  -2.374  0.00  0.00    -0.290 OA
BRANCH  14  16
ATOM     16  C   UNL d   1       1.108  -0.050  -0.034  0.00  0.00     0.170 C 
ATOM     17  N   UNL d   1       0.355  -0.256   1.015  0.00  0.00    -0.292 N 
ATOM     18  HN  UNL d   1      -0.661  -0.189   0.961  1.00  0.00     0.187 HD
BRANCH  17  19
ATOM     19  N   UNL d   1       0.985  -0.564   2.184  0.00  0.00    -0.298 N 
ATOM     20  H   UNL d   1       1.812  -1.180   2.199  0.00  0.00     0.187 HD
BRANCH  19  21
ATOM     21  C   UNL d   1       0.259  -0.522   3.394  0.00  0.00     0.069 A 
ATOM     22  C   UNL d   1       0.855  -0.878   4.620  0.00  0.00     0.062 A 
ATOM     23 CL   UNL d   1       2.461  -1.522   4.675  0.00  0.00    -0.082 Cl
ATOM     24  C   UNL d   1       0.171  -0.712   5.830  0.00  0.00     0.026 A 
ATOM     25  C   UNL d   1      -1.116  -0.177   5.836  0.00  0.00     0.002 A 
ATOM     26  C   UNL d   1      -1.720   0.184   4.636  0.00  0.00     0.002 A 
ATOM     27  C   UNL d   1      -1.036   0.016   3.431  0.00  0.00     0.033 A 
ENDBRANCH  19  21
ENDBRANCH  17  19
BRANCH  16  28
ATOM     28  C   UNL d   1       2.621  -0.128   0.050  0.00  0.00     0.315 C 
ATOM     29  O   UNL d   1       3.182  -1.038   0.639  0.00  0.00    -0.257 OA
BRANCH  28  30
ATOM     30  O   UNL d   1       3.164   1.012  -0.419  0.00  0.00    -0.317 OA
BRANCH  30  31
ATOM     31  C   UNL d   1       4.497   1.283   0.040  0.00  0.00     0.175 C 
ATOM     32  C   UNL d   1       4.384   2.300   1.161  0.00  0.00     0.034 C 
ENDBRANCH  30  31
ENDBRANCH  28  30
ENDBRANCH  16  28
ENDBRANCH  14  16
ENDBRANCH  13  14
ENDBRANCH  12  13
ENDBRANCH   1  12
TORSDOF 9
