REMARK  9 active torsions:
REMARK  status: ('A' for Active; 'I' for Inactive)
REMARK    1  A    between atoms: C_2  and  S_1 
REMARK    2  A    between atoms: C_8  and  S_1 
REMARK    3  A    between atoms: S_3  and  C_5 
REMARK    4  A    between atoms: C_9  and  S_3 
REMARK    5  A    between atoms: N_14  and  C_4 
REMARK    6  A    between atoms: C_5  and  C_20 
REMARK    7  A    between atoms: C_13  and  C_21 
REMARK    8  A    between atoms: C_20  and  N_14 
REMARK    9  A    between atoms: C_21  and  N_14 
ROOT
ATOM      1  C   UNL d   1      -0.942   1.583  -1.058  0.00  0.00     0.159 C 
ATOM      2  C   UNL d   1      -0.246   0.710  -1.809  0.00  0.00     0.121 C 
ATOM      3  C   UNL d   1      -2.254   1.327  -0.606  0.00  0.00     0.113 C 
ATOM      4  N   UNL d   1      -3.333   1.083  -0.253  0.00  0.00    -0.191 NA
ENDROOT
BRANCH   1   5
ATOM      5  S   UNL d   1      -0.294   3.172  -0.783  0.00  0.00     0.218 S 
ATOM      6  O   UNL d   1      -1.290   4.153  -1.181  0.00  0.00    -0.216 OA
ATOM      7  O   UNL d   1       1.054   3.281  -1.314  0.00  0.00    -0.216 OA
BRANCH   5   8
ATOM      8  C   UNL d   1      -0.122   3.302   0.989  0.00  0.00     0.065 A 
ATOM      9  C   UNL d   1       0.791   2.475   1.646  0.00  0.00     0.025 A 
ATOM     10  C   UNL d   1       0.960   2.578   3.028  0.00  0.00     0.025 A 
ATOM     11  C   UNL d   1       0.244   3.537   3.740  0.00  0.00     0.034 A 
ATOM     12  C   UNL d   1      -0.638   4.394   3.081  0.00  0.00     0.025 A 
ATOM     13 CL   UNL d   1       0.470   3.679   5.440  0.00  0.00    -0.084 Cl
ATOM     14  C   UNL d   1      -0.828   4.277   1.700  0.00  0.00     0.025 A 
ENDBRANCH   5   8
ENDBRANCH   1   5
BRANCH   2  15
ATOM     15  N   UNL d   1      -0.614  -0.545  -2.298  0.00  0.00    -0.382 N 
BRANCH  15  16
ATOM     16  C   UNL d   1      -0.581  -1.777  -1.485  0.00  0.00     0.138 C 
BRANCH  16  17
ATOM     17  C   UNL d   1       0.830  -2.280  -1.243  0.00  0.00     0.165 C 
BRANCH  17  18
ATOM     18  S   UNL d   1       1.484  -1.727   0.313  0.00  0.00     0.177 S 
ATOM     19  O   UNL d   1       1.794  -0.315   0.235  0.00  0.00    -0.223 OA
ATOM     20  O   UNL d   1       0.658  -2.249   1.384  0.00  0.00    -0.223 OA
BRANCH  18  21
ATOM     21  C   UNL d   1       3.039  -2.588   0.363  0.00  0.00     0.059 A 
ATOM     22  C   UNL d   1       4.134  -2.033  -0.306  0.00  0.00     0.025 A 
ATOM     23  C   UNL d   1       5.309  -2.775  -0.416  0.00  0.00     0.025 A 
ATOM     24  C   UNL d   1       5.381  -4.048   0.152  0.00  0.00     0.034 A 
ATOM     25  C   UNL d   1       4.302  -4.572   0.868  0.00  0.00     0.025 A 
ATOM     26 CL   UNL d   1       6.803  -4.993  -0.058  0.00  0.00    -0.084 Cl
ATOM     27  C   UNL d   1       3.123  -3.836   0.984  0.00  0.00     0.025 A 
ENDBRANCH  18  21
ENDBRANCH  17  18
ENDBRANCH  16  17
ENDBRANCH  15  16
BRANCH  15  28
ATOM     28  C   UNL d   1      -1.365  -0.651  -3.575  0.00  0.00     0.168 C 
BRANCH  28  29
ATOM     29  C   UNL d   1      -0.545  -1.205  -4.707  0.00  0.00     0.000 A 
ATOM     30  S   UNL d   1      -1.264  -2.230  -5.875  0.00  0.00    -0.105 SA
ATOM     31  C   UNL d   1       0.218  -2.434  -6.709  0.00  0.00     0.050 A 
ATOM     32  C   UNL d   1       1.237  -1.719  -6.121  0.00  0.00     0.008 A 
ATOM     33  C   UNL d   1       0.794  -0.995  -4.978  0.00  0.00     0.017 A 
ENDBRANCH  28  29
ENDBRANCH  15  28
ENDBRANCH   2  15
TORSDOF 9
