REMARK  4 active torsions:
REMARK  status: ('A' for Active; 'I' for Inactive)
REMARK       I    between atoms: C_2  and  N_1 
REMARK    1  A    between atoms: C_4  and  C_2 
REMARK    2  A    between atoms: C_8  and  N_3 
REMARK    3  A    between atoms: C_11  and  C_4 
REMARK    4  A    between atoms: C_12  and  C_8 
ROOT
ATOM      1  N   UNL d   1      -1.578   0.039   0.095  0.00  0.00    -0.349 N 
ATOM      2  C   UNL d   1      -2.540   0.166   1.088  0.00  0.00     0.224 C 
ATOM      3  N   UNL d   1       1.321  -0.168  -0.432  0.00  0.00     0.095 N 
ATOM      4  O   UNL d   1      -2.836  -0.779   1.828  0.00  0.00    -0.273 OA
ATOM      5  C   UNL d   1      -0.961  -1.269  -0.148  0.00  0.00     0.156 C 
ATOM      6  C   UNL d   1      -0.869   1.158  -0.530  0.00  0.00     0.156 C 
ATOM      7  C   UNL d   1       0.540  -1.258   0.203  0.00  0.00     0.292 C 
ATOM      8  C   UNL d   1       0.635   1.125  -0.156  0.00  0.00     0.292 C 
ENDROOT
BRANCH   2   9
ATOM      9  C   UNL d   1      -3.291   1.482   1.212  0.00  0.00     0.141 C 
BRANCH   9  10
ATOM     10  C   UNL d   1      -2.644   2.553   2.062  0.00  0.00    -0.050 A 
ATOM     11  C   UNL d   1      -2.995   3.896   1.840  0.00  0.00     0.007 A 
ATOM     12  C   UNL d   1      -2.416   4.920   2.591  0.00  0.00     0.001 A 
ATOM     13  C   UNL d   1      -1.491   4.615   3.585  0.00  0.00     0.000 A 
ATOM     14  C   UNL d   1      -1.167   3.285   3.846  0.00  0.00     0.001 A 
ATOM     15  C   UNL d   1      -1.750   2.258   3.099  0.00  0.00     0.007 A 
ENDBRANCH   9  10
ENDBRANCH   2   9
BRANCH   3  16
ATOM     16  C   UNL d   1       1.504  -0.339  -1.884  0.00  0.00     0.311 C 
BRANCH  16  17
ATOM     17  C   UNL d   1       2.243  -1.586  -2.323  0.00  0.00    -0.030 A 
ATOM     18  C   UNL d   1       1.612  -2.508  -3.175  0.00  0.00     0.009 A 
ATOM     19  C   UNL d   1       2.308  -3.606  -3.682  0.00  0.00     0.001 A 
ATOM     20  C   UNL d   1       3.644  -3.798  -3.343  0.00  0.00     0.000 A 
ATOM     21  C   UNL d   1       4.279  -2.902  -2.482  0.00  0.00     0.001 A 
ATOM     22  C   UNL d   1       3.582  -1.803  -1.972  0.00  0.00     0.009 A 
ENDBRANCH  16  17
ENDBRANCH   3  16
TORSDOF 4
