REMARK  5 active torsions:
REMARK  status: ('A' for Active; 'I' for Inactive)
REMARK    1  A    between atoms: N_3  and  S_1 
REMARK    2  A    between atoms: C_4  and  S_1 
REMARK    3  A    between atoms: C_2  and  C_5 
REMARK    4  A    between atoms: C_12  and  N_3 
REMARK    5  A    between atoms: C_7  and  C_12 
ROOT
ATOM      1  S   UNL d   1       1.087   0.001   0.139  0.00  0.00     0.241 S 
ATOM      2  O   UNL d   1       0.522   0.995   1.023  0.00  0.00    -0.206 OA
ATOM      3  O   UNL d   1       2.511  -0.151  -0.045  0.00  0.00    -0.206 OA
ENDROOT
BRANCH   1   4
ATOM      4  N   UNL d   1       0.405   0.181  -1.403  0.00  0.00    -0.211 NA
ATOM      5  H   UNL d   1       0.468  -0.695  -1.924  0.00  0.00     0.140 HD
BRANCH   4   6
ATOM      6  C   UNL d   1      -0.958   0.751  -1.428  0.00  0.00     0.146 C 
BRANCH   6   7
ATOM      7  C   UNL d   1      -1.541   0.844  -2.818  0.00  0.00    -0.006 A 
ATOM      8  C   UNL d   1      -2.932   0.781  -2.977  0.00  0.00     0.126 A 
ATOM      9  C   UNL d   1      -3.533   0.916  -4.222  0.00  0.00     0.085 A 
ATOM     10  F   UNL d   1      -3.712   0.591  -1.903  0.00  0.00    -0.205 F 
ATOM     11  C   UNL d   1      -2.730   1.126  -5.332  0.00  0.00     0.119 A 
ATOM     12  C   UNL d   1      -1.346   1.209  -5.212  0.00  0.00     0.043 A 
ATOM     13  F   UNL d   1      -3.295   1.260  -6.539  0.00  0.00    -0.206 F 
ATOM     14  C   UNL d   1      -0.750   1.077  -3.954  0.00  0.00     0.014 A 
ENDBRANCH   6   7
ENDBRANCH   4   6
ENDBRANCH   1   4
BRANCH   1  15
ATOM     15  C   UNL d   1       0.446  -1.593   0.612  0.00  0.00     0.075 A 
ATOM     16  C   UNL d   1      -0.773  -1.685   1.293  0.00  0.00     0.041 A 
ATOM     17  C   UNL d   1      -1.302  -2.945   1.608  0.00  0.00     0.049 A 
ATOM     18  C   UNL d   1      -0.573  -4.096   1.260  0.00  0.00     0.016 A 
ATOM     19  C   UNL d   1       0.661  -3.995   0.617  0.00  0.00     0.002 A 
ATOM     20  C   UNL d   1       1.176  -2.742   0.291  0.00  0.00     0.025 A 
BRANCH  17  21
ATOM     21  C   UNL d   1      -2.645  -3.084   2.289  0.00  0.00     0.417 C 
ATOM     22  F   UNL d   1      -3.237  -1.892   2.568  0.00  0.00    -0.166 F 
ATOM     23  F   UNL d   1      -3.537  -3.773   1.524  0.00  0.00    -0.166 F 
ATOM     24  F   UNL d   1      -2.566  -3.754   3.470  0.00  0.00    -0.166 F 
ENDBRANCH  17  21
ENDBRANCH   1  15
TORSDOF 5
