REMARK  5 active torsions:
REMARK  status: ('A' for Active; 'I' for Inactive)
REMARK    1  A    between atoms: C_2  and  S_1 
REMARK    2  A    between atoms: O_7  and  S_1 
REMARK    3  A    between atoms: C_9  and  C_3 
REMARK    4  A    between atoms: C_6  and  O_7 
REMARK    5  A    between atoms: O_18  and  C_9 
ROOT
ATOM      1  S   UNL d   1       0.400   0.141   0.082  0.00  0.00     0.320 S 
ATOM      2  O   UNL d   1       1.767   0.629   0.084  0.00  0.00    -0.191 OA
ATOM      3  O   UNL d   1      -0.559   0.538  -0.932  0.00  0.00    -0.191 OA
ENDROOT
BRANCH   1   4
ATOM      4  C   UNL d   1      -0.285   0.785   1.552  0.00  0.00     0.173 A 
ATOM      5  N   UNL d   1      -0.796   0.040   2.601  0.00  0.00    -0.340 N 
ATOM      6  C   UNL d   1      -1.241   0.930   3.467  0.00  0.00     0.183 A 
ATOM      7  HN  UNL d   1      -0.823  -0.977   2.685  1.00  0.00     0.167 HD
ATOM      8  N   UNL d   1      -1.039   2.208   3.026  0.00  0.00    -0.354 N 
ATOM      9  C   UNL d   1      -0.438   2.138   1.804  0.00  0.00     0.135 A 
ATOM     10  C   UNL d   1      -1.401   3.413   3.728  0.00  0.00     0.156 C 
ENDBRANCH   1   4
BRANCH   1  11
ATOM     11  O   UNL d   1       0.390  -1.481   0.293  0.00  0.00    -0.226 OA
BRANCH  11  12
ATOM     12  C   UNL d   1       0.722  -2.326  -0.722  0.00  0.00     0.113 A 
ATOM     13  C   UNL d   1       1.250  -3.591  -0.498  0.00  0.00     0.114 A 
ATOM     14  S   UNL d   1       1.566  -4.398  -1.994  0.00  0.00    -0.093 SA
ATOM     15  C   UNL d   1       0.972  -3.099  -2.915  0.00  0.00     0.053 A 
ATOM     16  C   UNL d   1       0.551  -2.060  -2.120  0.00  0.00     0.047 A 
BRANCH  13  17
ATOM     17  C   UNL d   1       1.583  -4.321   0.713  0.00  0.00     0.302 C 
ATOM     18  O   UNL d   1       2.002  -5.473   0.763  0.00  0.00    -0.259 OA
BRANCH  17  19
ATOM     19  O   UNL d   1       1.361  -3.557   1.821  0.00  0.00    -0.322 OA
ATOM     20  C   UNL d   1       1.628  -4.225   3.056  0.00  0.00     0.213 C 
ENDBRANCH  17  19
ENDBRANCH  13  17
ENDBRANCH  11  12
ENDBRANCH   1  11
TORSDOF 5
