REMARK  5 active torsions:
REMARK  status: ('A' for Active; 'I' for Inactive)
REMARK       I    between atoms: C_8  and  N_1 
REMARK       I    between atoms: C_9  and  N_2 
REMARK    1  A    between atoms: N_7  and  C_3 
REMARK    2  A    between atoms: C_11  and  C_6 
REMARK       I    between atoms: C_10  and  N_7 
REMARK    3  A    between atoms: C_14  and  C_8 
REMARK    4  A    between atoms: C_15  and  C_9 
REMARK    5  A    between atoms: C_17  and  C_10 
ROOT
ATOM      1  N   UNL d   1      -0.280  -1.135  -0.052  0.00  0.00    -0.117 N 
ATOM      2  N   UNL d   1      -0.261   1.119   0.092  0.00  0.00    -0.213 N 
ATOM      3  C   UNL d   1       1.029  -0.579   0.062  0.00  0.00     0.707 C 
ATOM      4  N   UNL d   1       1.046   0.710   0.131  0.00  0.00    -0.124 N 
ATOM      5  HN  UNL d   1       1.870   1.306   0.201  1.00  0.00     0.206 HD
ATOM      6  C   UNL d   1      -1.168   0.023  -0.216  0.00  0.00     0.272 C 
ATOM      7  C   UNL d   1      -0.622  -2.486   0.170  0.00  0.00     0.274 C 
ATOM      8  C   UNL d   1      -0.681   2.401   0.401  0.00  0.00     0.275 C 
ATOM      9  O   UNL d   1       0.301  -3.275   0.339  0.00  0.00    -0.267 OA
ATOM     10  O   UNL d   1      -1.868   2.713   0.376  0.00  0.00    -0.266 OA
ENDROOT
BRANCH   3  11
ATOM     11  N   UNL d   1       2.108  -1.403   0.067  0.00  0.00    -0.154 N 
ATOM     12  C   UNL d   1       3.399  -0.910   0.111  0.00  0.00     0.269 C 
ATOM     13  O   UNL d   1       3.674   0.236   0.452  0.00  0.00    -0.267 OA
ATOM     14  H   UNL d   1       1.928  -2.390  -0.049  0.00  0.00     0.187 HD
BRANCH  12  15
ATOM     15  C   UNL d   1       4.525  -1.822  -0.242  0.00  0.00     0.032 A 
ATOM     16  C   UNL d   1       4.394  -3.207  -0.413  0.00  0.00     0.017 A 
ATOM     17  C   UNL d   1       5.514  -3.977  -0.749  0.00  0.00     0.001 A 
ATOM     18  C   UNL d   1       6.763  -3.378  -0.917  0.00  0.00     0.000 A 
ATOM     19  C   UNL d   1       6.903  -2.005  -0.752  0.00  0.00     0.001 A 
ATOM     20  C   UNL d   1       5.791  -1.233  -0.418  0.00  0.00     0.017 A 
ENDBRANCH  12  15
ENDBRANCH   3  11
BRANCH   6  21
ATOM     21  C   UNL d   1      -1.659   0.097  -1.658  0.00  0.00    -0.013 A 
ATOM     22  C   UNL d   1      -0.924  -0.451  -2.731  0.00  0.00     0.011 A 
ATOM     23  C   UNL d   1      -1.460  -0.495  -4.018  0.00  0.00     0.001 A 
ATOM     24  C   UNL d   1      -2.720   0.039  -4.265  0.00  0.00     0.000 A 
ATOM     25  C   UNL d   1      -3.434   0.642  -3.232  0.00  0.00     0.001 A 
ATOM     26  C   UNL d   1      -2.907   0.679  -1.939  0.00  0.00     0.011 A 
ENDBRANCH   6  21
BRANCH   7  27
ATOM     27  C   UNL d   1      -2.027  -2.962   0.270  0.00  0.00     0.033 A 
ATOM     28  C   UNL d   1      -2.997  -2.678  -0.694  0.00  0.00     0.017 A 
ATOM     29  C   UNL d   1      -4.301  -3.163  -0.562  0.00  0.00     0.001 A 
ATOM     30  C   UNL d   1      -4.632  -3.990   0.506  0.00  0.00     0.000 A 
ATOM     31  C   UNL d   1      -3.658  -4.337   1.440  0.00  0.00     0.001 A 
ATOM     32  C   UNL d   1      -2.360  -3.824   1.326  0.00  0.00     0.017 A 
ENDBRANCH   7  27
BRANCH   8  33
ATOM     33  C   UNL d   1       0.341   3.426   0.776  0.00  0.00     0.034 A 
ATOM     34  C   UNL d   1       0.178   4.732   0.296  0.00  0.00     0.017 A 
ATOM     35  C   UNL d   1       1.118   5.719   0.611  0.00  0.00     0.001 A 
ATOM     36  C   UNL d   1       2.216   5.411   1.414  0.00  0.00     0.000 A 
ATOM     37  C   UNL d   1       2.368   4.123   1.920  0.00  0.00     0.001 A 
ATOM     38  C   UNL d   1       1.427   3.138   1.615  0.00  0.00     0.017 A 
ENDBRANCH   8  33
TORSDOF 5
