REMARK  3 active torsions:
REMARK  status: ('A' for Active; 'I' for Inactive)
REMARK    1  A    between atoms: N_4  and  C_1 
REMARK    2  A    between atoms: N_17  and  C_2 
REMARK    3  A    between atoms: C_18  and  C_13 
ROOT
ATOM      1  C   UNL d   1       2.254   1.066  -0.796  0.00  0.00     0.145 C 
ATOM      2  C   UNL d   1       2.539   0.413  -1.952  0.00  0.00     0.125 C 
ATOM      3  C   UNL d   1       1.754   0.326   0.332  0.00  0.00     0.120 C 
ATOM      4  C   UNL d   1       2.338  -1.002  -2.088  0.00  0.00     0.114 C 
ATOM      5  N   UNL d   1       1.323  -0.243   1.250  0.00  0.00    -0.190 NA
ATOM      6  N   UNL d   1       2.201  -2.147  -2.222  0.00  0.00    -0.190 NA
ENDROOT
BRANCH   1   7
ATOM      7  N   UNL d   1       2.504   2.435  -0.723  0.00  0.00    -0.355 N 
ATOM      8  C   UNL d   1       1.772   3.158   0.069  0.00  0.00     0.100 C 
ATOM      9  HN  UNL d   1       3.247   2.859  -1.278  1.00  0.00     0.166 HD
BRANCH   8  10
ATOM     10  C   UNL d   1       1.970   4.622   0.176  0.00  0.00    -0.020 A 
ATOM     11  C   UNL d   1       2.947   5.255  -0.599  0.00  0.00     0.022 A 
ATOM     12  C   UNL d   1       3.145   6.640  -0.500  0.00  0.00    -0.024 A 
ATOM     13  C   UNL d   1       4.187   7.304  -1.349  0.00  0.00     0.044 C 
ATOM     14  C   UNL d   1       2.342   7.384   0.366  0.00  0.00     0.076 A 
ATOM     15  C   UNL d   1       4.526   8.677  -0.792  0.00  0.00     0.042 C 
ATOM     16  C   UNL d   1       3.254   9.455  -0.423  0.00  0.00     0.061 C 
ATOM     17  O   UNL d   1       2.446   8.739   0.529  0.00  0.00    -0.340 OA
ATOM     18  C   UNL d   1       3.657  10.766   0.270  0.00  0.00     0.046 C 
ATOM     19  C   UNL d   1       2.395   9.800  -1.650  0.00  0.00     0.046 C 
ATOM     20  C   UNL d   1       1.373   6.750   1.148  0.00  0.00     0.038 A 
ATOM     21  C   UNL d   1       1.178   5.368   1.052  0.00  0.00     0.015 A 
ENDBRANCH   8  10
ENDBRANCH   1   7
BRANCH   2  22
ATOM     22  N   UNL d   1       3.045   1.024  -3.102  0.00  0.00    -0.291 NA
ATOM     23  H   UNL d   1       3.478   1.923  -2.885  0.00  0.00     0.125 HD
ATOM     24  H   UNL d   1       3.626   0.418  -3.679  0.00  0.00     0.125 HD
ENDBRANCH   2  22
TORSDOF 3
