REMARK  1 active torsions:
REMARK  status: ('A' for Active; 'I' for Inactive)
REMARK    1  A    between atoms: C_7  and  C_2 
ROOT
ATOM      1  C   UNL d   1      -0.130   0.393   0.769  0.00  0.00     0.131 C 
ATOM      2  C   UNL d   1      -0.644   1.364  -0.024  0.00  0.00    -0.020 C 
ATOM      3  C   UNL d   1       1.032   0.602   1.570  0.00  0.00     0.111 C 
ATOM      4  C   UNL d   1      -0.736  -0.896   0.846  0.00  0.00     0.111 C 
ATOM      5  N   UNL d   1      -1.240  -1.940   0.892  0.00  0.00    -0.191 NA
ATOM      6  N   UNL d   1       1.971   0.764   2.232  0.00  0.00    -0.191 NA
ATOM      7  C   UNL d   1      -1.884   1.230  -0.876  0.00  0.00     0.051 C 
ENDROOT
BRANCH   2   8
ATOM      8  C   UNL d   1      -0.004   2.692  -0.135  0.00  0.00    -0.028 A 
ATOM      9  C   UNL d   1       0.990   2.914  -1.097  0.00  0.00     0.013 A 
ATOM     10  C   UNL d   1       1.599   4.168  -1.204  0.00  0.00     0.024 A 
ATOM     11  C   UNL d   1       1.216   5.200  -0.349  0.00  0.00     0.034 A 
ATOM     12  C   UNL d   1       0.228   4.990   0.611  0.00  0.00     0.024 A 
ATOM     13 CL   UNL d   1       1.965   6.742  -0.482  0.00  0.00    -0.084 Cl
ATOM     14  C   UNL d   1      -0.383   3.737   0.719  0.00  0.00     0.013 A 
ENDBRANCH   2   8
TORSDOF 1
