REMARK  8 active torsions:
REMARK  status: ('A' for Active; 'I' for Inactive)
REMARK    1  A    between atoms: N_6  and  C_3 
REMARK    2  A    between atoms: N_7  and  C_4 
REMARK    3  A    between atoms: N_8  and  C_5 
REMARK       I    between atoms: C_9  and  N_8 
REMARK    4  A    between atoms: C_19  and  C_9 
REMARK    5  A    between atoms: C_10  and  C_20 
REMARK    6  A    between atoms: O_18  and  C_10 
REMARK    7  A    between atoms: S_17  and  C_19 
REMARK    8  A    between atoms: C_20  and  S_17 
ROOT
ATOM      1  N   UNL d   1      -1.250   0.087  -0.057  0.00  0.00    -0.327 N 
ATOM      2  HN  UNL d   1      -2.262   0.139  -0.173  1.00  0.00     0.169 HD
ATOM      3  C   UNL d   1      -0.510   1.228   0.032  0.00  0.00     0.132 A 
ATOM      4  C   UNL d   1      -0.629  -1.121   0.010  0.00  0.00     0.104 A 
ATOM      5  C   UNL d   1       0.899   1.169   0.111  0.00  0.00     0.079 A 
ATOM      6  C   UNL d   1       0.758  -1.206   0.123  0.00  0.00     0.051 A 
ATOM      7  C   UNL d   1       1.533  -0.060   0.162  0.00  0.00     0.037 A 
ENDROOT
BRANCH   5   8
ATOM      8  N   UNL d   1       1.736   2.303   0.175  0.00  0.00    -0.323 N 
ATOM      9  C   UNL d   1       2.047   3.039  -0.956  0.00  0.00     0.231 C 
ATOM     10  O   UNL d   1       1.911   2.674  -2.125  0.00  0.00    -0.272 OA
ATOM     11  H   UNL d   1       1.694   2.813   1.046  0.00  0.00     0.169 HD
BRANCH   9  12
ATOM     12  C   UNL d   1       2.758   4.344  -0.638  0.00  0.00     0.177 C 
BRANCH  12  13
ATOM     13  S   UNL d   1       4.547   4.046  -0.451  0.00  0.00    -0.149 SA
BRANCH  13  14
ATOM     14  C   UNL d   1       4.947   3.324  -2.080  0.00  0.00     0.184 C 
BRANCH  14  15
ATOM     15  C   UNL d   1       4.665   4.288  -3.212  0.00  0.00     0.149 C 
ATOM     16  O   UNL d   1       5.444   5.168  -3.568  0.00  0.00    -0.649 OA
BRANCH  15  17
ATOM     17  O   UNL d   1       3.459   4.124  -3.799  0.00  0.00    -0.776 OA
ATOM     18  H   UNL d   1       2.890   3.413  -3.410  0.00  0.00     0.167 HD
ENDBRANCH  15  17
ENDBRANCH  14  15
ENDBRANCH  13  14
ENDBRANCH  12  13
ENDBRANCH   9  12
ENDBRANCH   5   8
BRANCH   3  19
ATOM     19  N   UNL d   1      -1.135   2.475  -0.042  0.00  0.00    -0.361 N 
ATOM     20  C   UNL d   1      -2.447   2.546  -0.702  0.00  0.00     0.150 C 
ATOM     21  C   UNL d   1      -2.638   4.011  -1.154  0.00  0.00     0.187 C 
ATOM     22  O   UNL d   1      -2.542   4.936  -0.049  0.00  0.00    -0.388 OA
ATOM     23  C   UNL d   1      -1.289   4.786   0.643  0.00  0.00     0.187 C 
ATOM     24  C   UNL d   1      -1.101   3.343   1.143  0.00  0.00     0.150 C 
ENDBRANCH   3  19
BRANCH   4  25
ATOM     25  N   UNL d   1      -1.343  -2.295  -0.126  0.00  0.00    -0.363 N 
ATOM     26  C   UNL d   1      -2.627  -2.323  -0.821  0.00  0.00     0.150 C 
ATOM     27  C   UNL d   1      -2.687  -3.647  -1.618  0.00  0.00     0.187 C 
ATOM     28  O   UNL d   1      -2.510  -4.796  -0.764  0.00  0.00    -0.388 OA
ATOM     29  C   UNL d   1      -1.244  -4.732  -0.082  0.00  0.00     0.187 C 
ATOM     30  C   UNL d   1      -1.120  -3.448   0.755  0.00  0.00     0.150 C 
ENDBRANCH   4  25
TORSDOF 8
