REMARK  5 active torsions:
REMARK  status: ('A' for Active; 'I' for Inactive)
REMARK    1  A    between atoms: C_3  and  C_1 
REMARK    2  A    between atoms: C_13  and  C_2 
REMARK    3  A    between atoms: C_14  and  C_8 
REMARK    4  A    between atoms: O_18  and  C_13 
REMARK    5  A    between atoms: C_24  and  O_18 
ROOT
ATOM      1  C   UNL d   1       0.338  -2.709  -0.009  0.00  0.00     0.055 A 
ATOM      2  N   UNL d   1       1.538  -3.057   0.583  0.00  0.00    -0.349 N 
ATOM      3  HN  UNL d   1       2.149  -2.411   1.082  1.00  0.00     0.166 HD
ATOM      4  C   UNL d   1       1.782  -4.343   0.412  0.00  0.00     0.084 A 
ATOM      5  S   UNL d   1       0.566  -5.197  -0.461  0.00  0.00    -0.081 SA
ATOM      6  C   UNL d   1      -0.308  -3.741  -0.655  0.00  0.00     0.082 A 
ENDROOT
BRANCH   1   7
ATOM      7  C   UNL d   1      -0.077  -1.310   0.062  0.00  0.00     0.057 A 
ATOM      8  C   UNL d   1      -1.400  -0.784   0.065  0.00  0.00     0.144 A 
ATOM      9  N   UNL d   1      -1.369   0.561   0.061  0.00  0.00    -0.254 N 
ATOM     10  O   UNL d   1      -0.036   0.917   0.086  0.00  0.00    -0.241 OA
ATOM     11  HN  UNL d   1      -2.171   1.192   0.043  1.00  0.00     0.195 HD
ATOM     12  C   UNL d   1       0.736  -0.200   0.083  0.00  0.00     0.087 A 
ATOM     13  C   UNL d   1       2.195   0.013   0.054  0.00  0.00     0.080 C 
BRANCH   8  14
ATOM     14  C   UNL d   1      -2.664  -1.513   0.031  0.00  0.00     0.312 C 
ATOM     15  O   UNL d   1      -2.798  -2.660   0.437  0.00  0.00    -0.258 OA
BRANCH  14  16
ATOM     16  O   UNL d   1      -3.639  -0.829  -0.641  0.00  0.00    -0.317 OA
BRANCH  16  17
ATOM     17  C   UNL d   1      -4.696  -1.641  -1.171  0.00  0.00     0.175 C 
ATOM     18  C   UNL d   1      -4.262  -2.157  -2.534  0.00  0.00     0.034 C 
ENDBRANCH  16  17
ENDBRANCH  14  16
ENDBRANCH   8  14
ENDBRANCH   1   7
BRANCH   4  19
ATOM     19  C   UNL d   1       2.969  -5.035   0.936  0.00  0.00    -0.001 A 
ATOM     20  C   UNL d   1       3.578  -4.552   2.105  0.00  0.00     0.038 A 
ATOM     21  C   UNL d   1       4.718  -5.172   2.616  0.00  0.00     0.035 A 
ATOM     22 CL   UNL d   1       5.447  -4.569   4.053  0.00  0.00    -0.084 Cl
ATOM     23  C   UNL d   1       5.274  -6.275   1.972  0.00  0.00     0.024 A 
ATOM     24  C   UNL d   1       4.684  -6.764   0.809  0.00  0.00     0.003 A 
ATOM     25  C   UNL d   1       3.540  -6.147   0.294  0.00  0.00     0.014 A 
ENDBRANCH   4  19
TORSDOF 5
