REMARK  4 active torsions:
REMARK  status: ('A' for Active; 'I' for Inactive)
REMARK    1  A    between atoms: C_7  and  C_1 
REMARK    2  A    between atoms: C_4  and  C_6 
REMARK       I    between atoms: N_14  and  C_7 
REMARK    3  A    between atoms: C_18  and  N_14 
REMARK    4  A    between atoms: C_15  and  C_18 
ROOT
ATOM      1  C   UNL d   1      -1.903   0.082  -0.020  0.00  0.00     0.054 A 
ATOM      2  N   UNL d   1       0.263   1.159  -0.022  0.00  0.00    -0.355 N 
ATOM      3  HN  UNL d   1       0.821   2.013  -0.027  1.00  0.00     0.166 HD
ATOM      4  C   UNL d   1      -1.099   1.226  -0.009  0.00  0.00     0.021 A 
ATOM      5  C   UNL d   1       0.870  -0.060  -0.028  0.00  0.00     0.117 A 
ATOM      6  C   UNL d   1      -1.269  -1.167  -0.030  0.00  0.00     0.021 A 
ATOM      7  C   UNL d   1       0.126  -1.238  -0.035  0.00  0.00     0.035 A 
ATOM      8  C   UNL d   1      -1.658   2.620   0.005  0.00  0.00     0.069 C 
ENDROOT
BRANCH   1   9
ATOM      9  C   UNL d   1      -3.388   0.178   0.045  0.00  0.00     0.253 C 
ATOM     10  O   UNL d   1      -3.915   1.076   0.692  0.00  0.00    -0.268 OA
ATOM     11  N   UNL d   1      -4.112  -0.773  -0.640  0.00  0.00    -0.353 N 
ATOM     12  H   UNL d   1      -3.654  -1.487  -1.189  0.00  0.00     0.163 HD
BRANCH  11  13
ATOM     13  C   UNL d   1      -5.559  -0.774  -0.615  0.00  0.00     0.149 C 
BRANCH  13  14
ATOM     14  C   UNL d   1      -6.045  -0.769  -2.029  0.00  0.00    -0.018 C 
ATOM     15  C   UNL d   1      -6.885  -1.675  -2.547  0.00  0.00     0.008 C 
ENDBRANCH  13  14
ENDBRANCH  11  13
ENDBRANCH   1   9
BRANCH   5  16
ATOM     16  C   UNL d   1       2.393  -0.138  -0.015  0.00  0.00     0.432 C 
ATOM     17  F   UNL d   1       3.022   1.070  -0.002  0.00  0.00    -0.165 F 
ATOM     18  F   UNL d   1       2.869  -0.818   1.069  0.00  0.00    -0.165 F 
ATOM     19  F   UNL d   1       2.886  -0.802  -1.103  0.00  0.00    -0.165 F 
ENDBRANCH   5  16
TORSDOF 4
