REMARK  5 active torsions:
REMARK  status: ('A' for Active; 'I' for Inactive)
REMARK    1  A    between atoms: N_7  and  C_1 
REMARK    2  A    between atoms: S_4  and  C_2 
REMARK    3  A    between atoms: C_9  and  C_3 
REMARK    4  A    between atoms: O_16  and  C_9 
REMARK    5  A    between atoms: N_14  and  C_10 
ROOT
ATOM      1  C   UNL d   1       1.411   0.922  -0.133  0.00  0.00     0.078 A 
ATOM      2  C   UNL d   1       1.453  -0.503   0.023  0.00  0.00     0.093 A 
ATOM      3  C   UNL d   1       0.116   1.423  -0.026  0.00  0.00     0.108 A 
ATOM      4  S   UNL d   1      -1.011   0.141   0.263  0.00  0.00    -0.092 SA
ATOM      5  C   UNL d   1       0.200  -1.044   0.207  0.00  0.00     0.076 A 
ENDROOT
BRANCH   1   6
ATOM      6  N   UNL d   1       2.586   1.625  -0.460  0.00  0.00    -0.350 N 
ATOM      7  C   UNL d   1       2.851   2.672   0.248  0.00  0.00     0.178 C 
ATOM      8  HN  UNL d   1       3.198   1.323  -1.218  1.00  0.00     0.166 HD
BRANCH   7   9
ATOM      9  N   UNL d   1       3.975   3.460   0.115  0.00  0.00    -0.386 N 
ATOM     10  C   UNL d   1       4.035   4.805   0.666  0.00  0.00     0.149 C 
ATOM     11  C   UNL d   1       5.022   3.143  -0.847  0.00  0.00     0.149 C 
ENDBRANCH   7   9
ENDBRANCH   1   6
BRANCH   2  12
ATOM     12  S   UNL d   1       2.827  -1.553  -0.007  0.00  0.00     0.174 S 
ATOM     13  O   UNL d   1       2.768  -2.212   1.286  0.00  0.00    -0.223 OA
ATOM     14  O   UNL d   1       2.662  -2.304  -1.236  0.00  0.00    -0.223 OA
ATOM     15  C   UNL d   1       4.325  -0.637  -0.086  0.00  0.00     0.167 C 
ENDBRANCH   2  12
BRANCH   3  16
ATOM     16  C   UNL d   1      -0.475   2.749  -0.107  0.00  0.00     0.302 C 
ATOM     17  O   UNL d   1      -1.589   3.058   0.303  0.00  0.00    -0.259 OA
BRANCH  16  18
ATOM     18  O   UNL d   1       0.366   3.641  -0.705  0.00  0.00    -0.322 OA
ATOM     19  C   UNL d   1      -0.167   4.965  -0.794  0.00  0.00     0.213 C 
ENDBRANCH  16  18
ENDBRANCH   3  16
TORSDOF 5
