REMARK  5 active torsions:
REMARK  status: ('A' for Active; 'I' for Inactive)
REMARK    1  A    between atoms: C_6  and  C_1 
REMARK    2  A    between atoms: S_9  and  C_7 
REMARK    3  A    between atoms: C_12  and  S_9 
REMARK    4  A    between atoms: C_10  and  C_12 
REMARK    5  A    between atoms: C_11  and  C_10 
ROOT
ATOM      1  C   UNL d   1       2.635  -3.067  -4.022  0.00  0.00     0.207 A 
ATOM      2  N   UNL d   1       2.454  -2.641  -2.711  0.00  0.00    -0.317 N 
ATOM      3  HN  UNL d   1       1.822  -3.017  -2.004  1.00  0.00     0.169 HD
ATOM      4  N   UNL d   1       3.528  -2.321  -4.713  0.00  0.00    -0.280 N 
ATOM      5  HN  UNL d   1       3.820  -2.407  -5.687  1.00  0.00     0.188 HD
ATOM      6  C   UNL d   1       3.290  -1.641  -2.606  0.00  0.00     0.161 A 
ATOM      7  N   UNL d   1       3.932  -1.437  -3.782  0.00  0.00    -0.278 N 
ATOM      8  H   UNL d   1       4.658  -0.762  -3.997  0.00  0.00     0.189 HD
ENDROOT
BRANCH   6   9
ATOM      9  S   UNL d   1       3.670  -0.731  -1.198  0.00  0.00    -0.085 SA
BRANCH   9  10
ATOM     10  C   UNL d   1       3.295  -1.975   0.081  0.00  0.00     0.166 C 
BRANCH  10  11
ATOM     11  C   UNL d   1       4.175  -3.206  -0.089  0.00  0.00     0.169 C 
ATOM     12  O   UNL d   1       5.398  -3.099  -0.211  0.00  0.00    -0.291 OA
BRANCH  11  13
ATOM     13  C   UNL d   1       3.576  -4.581  -0.070  0.00  0.00     0.011 A 
ATOM     14  C   UNL d   1       2.200  -4.828  -0.020  0.00  0.00     0.015 A 
ATOM     15  C   UNL d   1       1.714  -6.141  -0.009  0.00  0.00     0.007 A 
ATOM     16  C   UNL d   1       2.590  -7.230  -0.055  0.00  0.00    -0.062 A 
ATOM     17  C   UNL d   1       3.965  -6.989  -0.108  0.00  0.00     0.007 A 
ATOM     18  C   UNL d   1       2.046  -8.628  -0.043  0.00  0.00     0.048 C 
ATOM     19  C   UNL d   1       4.452  -5.677  -0.117  0.00  0.00     0.015 A 
ENDBRANCH  11  13
ENDBRANCH  10  11
ENDBRANCH   9  10
ENDBRANCH   6   9
BRANCH   1  20
ATOM     20  C   UNL d   1       1.933  -4.283  -4.590  0.00  0.00     0.450 C 
ATOM     21  F   UNL d   1       0.996  -4.788  -3.738  0.00  0.00    -0.163 F 
ATOM     22  F   UNL d   1       1.281  -4.017  -5.756  0.00  0.00    -0.163 F 
ATOM     23  F   UNL d   1       2.800  -5.301  -4.850  0.00  0.00    -0.163 F 
ENDBRANCH   1  20
TORSDOF 5
