REMARK  3 active torsions:
REMARK  status: ('A' for Active; 'I' for Inactive)
REMARK    1  A    between atoms: C_6  and  C_1 
REMARK    2  A    between atoms: O_9  and  C_6 
REMARK    3  A    between atoms: C_11  and  O_9 
ROOT
ATOM      1  C   UNL d   1      -1.384   0.746  -0.040  0.00  0.00     0.125 A 
ATOM      2  N   UNL d   1      -1.264  -0.611   0.067  0.00  0.00    -0.295 N 
ATOM      3  C   UNL d   1      -0.090   1.226   0.004  0.00  0.00     0.063 A 
ATOM      4  N   UNL d   1       0.007  -1.041   0.145  0.00  0.00    -0.305 N 
ATOM      5  HN  UNL d   1       0.341  -2.002   0.225  1.00  0.00     0.186 HD
ATOM      6  C   UNL d   1       0.732   0.082   0.095  0.00  0.00     0.024 A 
ATOM      7  C   UNL d   1       2.212   0.021   0.112  0.00  0.00     0.070 C 
ATOM      8  H   UNL d   1      -2.014  -1.296   0.069  0.00  0.00     0.187 HD
ENDROOT
BRANCH   1   9
ATOM      9  C   UNL d   1      -2.648   1.396  -0.205  0.00  0.00     0.311 C 
ATOM     10  O   UNL d   1      -3.722   0.815  -0.286  0.00  0.00    -0.258 OA
BRANCH   9  11
ATOM     11  O   UNL d   1      -2.463   2.739  -0.314  0.00  0.00    -0.317 OA
BRANCH  11  12
ATOM     12  C   UNL d   1      -3.611   3.502  -0.710  0.00  0.00     0.175 C 
ATOM     13  C   UNL d   1      -3.634   3.599  -2.224  0.00  0.00     0.034 C 
ENDBRANCH  11  12
ENDBRANCH   9  11
ENDBRANCH   1   9
TORSDOF 3
