REMARK  6 active torsions:
REMARK  status: ('A' for Active; 'I' for Inactive)
REMARK    1  A    between atoms: C_3  and  S_1 
REMARK    2  A    between atoms: C_11  and  S_1 
REMARK    3  A    between atoms: C_5  and  C_2 
REMARK    4  A    between atoms: C_4  and  N_9 
REMARK    5  A    between atoms: O_19  and  C_5 
REMARK    6  A    between atoms: N_9  and  C_6 
ROOT
ATOM      1  C   UNL d   1       0.427   1.611   0.526  0.00  0.00     0.159 C 
ATOM      2  C   UNL d   1      -0.392   2.303  -0.286  0.00  0.00     0.123 C 
ATOM      3  C   UNL d   1       1.018   0.386   0.159  0.00  0.00     0.113 C 
ATOM      4  N   UNL d   1       1.493  -0.637  -0.119  0.00  0.00    -0.191 NA
ENDROOT
BRANCH   1   5
ATOM      5  S   UNL d   1       0.696   2.248   2.110  0.00  0.00     0.218 S 
ATOM      6  O   UNL d   1      -0.554   2.200   2.850  0.00  0.00    -0.216 OA
ATOM      7  O   UNL d   1       1.401   3.513   1.987  0.00  0.00    -0.216 OA
BRANCH   5   8
ATOM      8  C   UNL d   1       1.817   1.135   2.947  0.00  0.00     0.065 A 
ATOM      9  C   UNL d   1       3.197   1.372   2.891  0.00  0.00     0.025 A 
ATOM     10  C   UNL d   1       4.064   0.579   3.648  0.00  0.00     0.025 A 
ATOM     11  C   UNL d   1       3.553  -0.433   4.461  0.00  0.00     0.034 A 
ATOM     12  C   UNL d   1       2.178  -0.667   4.518  0.00  0.00     0.025 A 
ATOM     13 CL   UNL d   1       4.621  -1.379   5.423  0.00  0.00    -0.084 Cl
ATOM     14  C   UNL d   1       1.304   0.121   3.765  0.00  0.00     0.025 A 
ENDBRANCH   5   8
ENDBRANCH   1   5
BRANCH   2  15
ATOM     15  N   UNL d   1      -0.745   2.022  -1.594  0.00  0.00    -0.362 N 
ATOM     16  H   UNL d   1      -1.753   1.885  -1.724  0.00  0.00     0.165 HD
BRANCH  15  17
ATOM     17  C   UNL d   1      -0.011   2.299  -2.713  0.00  0.00     0.055 A 
ATOM     18  C   UNL d   1      -0.413   1.997  -4.008  0.00  0.00     0.106 A 
ATOM     19  S   UNL d   1       0.769   2.509  -5.155  0.00  0.00    -0.094 SA
ATOM     20  C   UNL d   1       1.786   3.140  -3.945  0.00  0.00     0.053 A 
ATOM     21  C   UNL d   1       1.255   2.966  -2.688  0.00  0.00     0.038 A 
BRANCH  18  22
ATOM     22  C   UNL d   1      -1.600   1.340  -4.532  0.00  0.00     0.302 C 
ATOM     23  O   UNL d   1      -1.878   1.187  -5.716  0.00  0.00    -0.259 OA
BRANCH  22  24
ATOM     24  O   UNL d   1      -2.403   0.903  -3.511  0.00  0.00    -0.322 OA
ATOM     25  C   UNL d   1      -3.560   0.186  -3.950  0.00  0.00     0.213 C 
ENDBRANCH  22  24
ENDBRANCH  18  22
ENDBRANCH  15  17
ENDBRANCH   2  15
TORSDOF 6
