REMARK  7 active torsions:
REMARK  status: ('A' for Active; 'I' for Inactive)
REMARK    1  A    between atoms: C_5  and  C_1 
REMARK       I    between atoms: N_7  and  C_5 
REMARK       I    between atoms: C_12  and  N_7 
REMARK    2  A    between atoms: C_8  and  C_11 
REMARK    3  A    between atoms: C_9  and  C_10 
REMARK    4  A    between atoms: O_29  and  C_12 
REMARK    5  A    between atoms: C_18  and  C_14 
REMARK    6  A    between atoms: C_17  and  C_32 
REMARK    7  A    between atoms: C_32  and  O_29 
ROOT
ATOM      1  C   UNL d   1      -0.497  -4.856   1.403  0.00  0.00     0.081 A 
ATOM      2  S   UNL d   1       0.391  -5.300  -0.002  0.00  0.00    -0.072 SA
ATOM      3  C   UNL d   1       0.083  -5.404   2.552  0.00  0.00    -0.031 A 
ATOM      4  C   UNL d   1       1.526  -6.201   0.878  0.00  0.00     0.092 A 
ATOM      5  C   UNL d   1       1.277  -6.175   2.238  0.00  0.00    -0.027 A 
ATOM      6  C   UNL d   1       2.601  -6.894   0.245  0.00  0.00     0.107 C 
ATOM      7  N   UNL d   1       3.483  -7.462  -0.257  0.00  0.00    -0.191 NA
ATOM      8  C   UNL d   1      -0.412  -5.260   3.965  0.00  0.00     0.050 C 
ATOM      9  C   UNL d   1       2.146  -6.876   3.247  0.00  0.00     0.051 C 
ENDROOT
BRANCH   1  10
ATOM     10  C   UNL d   1      -1.709  -4.030   1.252  0.00  0.00     0.267 C 
ATOM     11  N   UNL d   1      -1.977  -3.615  -0.045  0.00  0.00    -0.268 N 
ATOM     12  C   UNL d   1      -3.024  -2.799  -0.373  0.00  0.00     0.368 C 
ATOM     13  H   UNL d   1      -1.156  -3.454  -0.605  0.00  0.00     0.174 HD
ATOM     14  O   UNL d   1      -2.867  -1.792  -1.055  0.00  0.00    -0.238 OA
ATOM     15  O   UNL d   1      -2.417  -3.706   2.203  0.00  0.00    -0.267 OA
BRANCH  12  16
ATOM     16  O   UNL d   1      -4.206  -3.248   0.116  0.00  0.00    -0.292 OA
BRANCH  16  17
ATOM     17  C   UNL d   1      -5.325  -2.365  -0.042  0.00  0.00     0.274 C 
BRANCH  17  18
ATOM     18  C   UNL d   1      -5.932  -2.478  -1.375  0.00  0.00    -0.074 C 
ATOM     19  C   UNL d   1      -6.438  -2.593  -2.459  0.00  0.00    -0.065 C 
BRANCH  19  20
ATOM     20  C   UNL d   1      -7.017  -2.837  -3.747  0.00  0.00     0.019 A 
ATOM     21  C   UNL d   1      -7.191  -1.814  -4.683  0.00  0.00     0.036 A 
ATOM     22  C   UNL d   1      -7.721  -2.096  -5.956  0.00  0.00     0.050 A 
ATOM     23  C   UNL d   1      -8.065  -3.421  -6.269  0.00  0.00     0.032 A 
ATOM     24  C   UNL d   1      -7.897  -4.455  -5.336  0.00  0.00     0.050 A 
ATOM     25  C   UNL d   1      -7.375  -4.148  -4.072  0.00  0.00     0.036 A 
BRANCH  22  26
ATOM     26  C   UNL d   1      -7.899  -0.993  -6.974  0.00  0.00     0.417 C 
ATOM     27  F   UNL d   1      -8.390  -1.439  -8.167  0.00  0.00    -0.166 F 
ATOM     28  F   UNL d   1      -8.765  -0.029  -6.556  0.00  0.00    -0.166 F 
ATOM     29  F   UNL d   1      -6.734  -0.356  -7.268  0.00  0.00    -0.166 F 
ENDBRANCH  22  26
BRANCH  24  30
ATOM     30  C   UNL d   1      -8.243  -5.886  -5.669  0.00  0.00     0.417 C 
ATOM     31  F   UNL d   1      -8.719  -6.050  -6.934  0.00  0.00    -0.166 F 
ATOM     32  F   UNL d   1      -7.169  -6.716  -5.564  0.00  0.00    -0.166 F 
ATOM     33  F   UNL d   1      -9.195  -6.396  -4.841  0.00  0.00    -0.166 F 
ENDBRANCH  24  30
ENDBRANCH  19  20
ENDBRANCH  17  18
ENDBRANCH  16  17
ENDBRANCH  12  16
ENDBRANCH   1  10
TORSDOF 7
