REMARK  3 active torsions:
REMARK  status: ('A' for Active; 'I' for Inactive)
REMARK    1  A    between atoms: C_3  and  C_4 
REMARK       I    between atoms: N_5  and  C_3 
REMARK    2  A    between atoms: C_9  and  N_5 
REMARK    3  A    between atoms: C_10  and  C_9 
ROOT
ATOM      1  N   UNL d   1       6.429   0.199   2.687  0.00  0.00    -0.197 NA
ATOM      2  C   UNL d   1       6.123  -0.675   1.989  0.00  0.00     0.068 C 
ATOM      3  C   UNL d   1       5.698  -1.798   1.145  0.00  0.00     0.226 C 
ENDROOT
BRANCH   3   4
ATOM      4  C   UNL d   1       4.196  -1.857   0.956  0.00  0.00     0.230 C 
ATOM      5  N   UNL d   1       3.411  -1.507   2.033  0.00  0.00    -0.356 N 
ATOM      6  H   UNL d   1       3.832  -1.144   2.881  0.00  0.00     0.162 HD
ATOM      7  O   UNL d   1       3.715  -2.277  -0.096  0.00  0.00    -0.273 OA
BRANCH   5   8
ATOM      8  C   UNL d   1       1.972  -1.389   1.932  0.00  0.00     0.161 C 
BRANCH   8   9
ATOM      9  C   UNL d   1       1.269  -2.150   3.024  0.00  0.00    -0.038 A 
ATOM     10  C   UNL d   1       0.454  -1.496   3.954  0.00  0.00     0.025 A 
ATOM     11  C   UNL d   1      -0.206  -2.255   4.910  0.00  0.00     0.088 A 
ATOM     12  N   UNL d   1      -0.109  -3.597   5.003  0.00  0.00    -0.375 N 
ATOM     13  C   UNL d   1       0.679  -4.211   4.095  0.00  0.00     0.088 A 
ATOM     14  HN  UNL d   1      -0.605  -4.122   5.723  1.00  0.00     0.164 HD
ATOM     15  C   UNL d   1       1.376  -3.541   3.102  0.00  0.00     0.025 A 
ENDBRANCH   8   9
ENDBRANCH   5   8
ENDBRANCH   3   4
TORSDOF 3
