REMARK  4 active torsions:
REMARK  status: ('A' for Active; 'I' for Inactive)
REMARK    1  A    between atoms: S_4  and  C_1 
REMARK    2  A    between atoms: C_3  and  C_2 
REMARK    3  A    between atoms: C_5  and  S_4 
REMARK    4  A    between atoms: C_8  and  C_5 
ROOT
ATOM      1  C   UNL d   1      -0.940   1.170   0.271  0.00  0.00     0.092 A 
ATOM      2  C   UNL d   1      -0.992  -0.091  -0.323  0.00  0.00     0.081 A 
ATOM      3  N   UNL d   1      -0.654   1.331   1.590  0.00  0.00    -0.360 N 
ATOM      4  HN  UNL d   1      -0.625   2.262   2.006  1.00  0.00     0.166 HD
ATOM      5  C   UNL d   1      -0.789  -1.214   0.506  0.00  0.00     0.020 A 
ATOM      6  C   UNL d   1      -0.408   0.232   2.337  0.00  0.00     0.089 A 
ATOM      7  C   UNL d   1      -0.493  -1.055   1.851  0.00  0.00     0.018 A 
ENDROOT
BRANCH   1   8
ATOM      8  S   UNL d   1      -1.457   2.647  -0.573  0.00  0.00    -0.029 SA
BRANCH   8   9
ATOM      9  C   UNL d   1      -0.385   3.879   0.067  0.00  0.00     0.225 C 
ATOM     10  O   UNL d   1       0.827   3.708   0.136  0.00  0.00    -0.279 OA
BRANCH   9  11
ATOM     11  C   UNL d   1      -0.986   5.226   0.356  0.00  0.00     0.021 A 
ATOM     12  C   UNL d   1      -0.117   6.323   0.502  0.00  0.00     0.018 A 
ATOM     13  C   UNL d   1      -0.615   7.615   0.683  0.00  0.00     0.025 A 
ATOM     14  C   UNL d   1      -1.993   7.825   0.737  0.00  0.00     0.034 A 
ATOM     15  C   UNL d   1      -2.869   6.749   0.634  0.00  0.00     0.025 A 
ATOM     16 CL   UNL d   1      -2.611   9.419   0.913  0.00  0.00    -0.084 Cl
ATOM     17  C   UNL d   1      -2.368   5.454   0.450  0.00  0.00     0.018 A 
ENDBRANCH   9  11
ENDBRANCH   8   9
ENDBRANCH   1   8
BRANCH   2  18
ATOM     18  C   UNL d   1      -1.272  -0.350  -1.775  0.00  0.00     0.420 C 
ATOM     19  F   UNL d   1      -1.332   0.731  -2.594  0.00  0.00    -0.166 F 
ATOM     20  F   UNL d   1      -0.324  -1.161  -2.331  0.00  0.00    -0.166 F 
ATOM     21  F   UNL d   1      -2.453  -1.010  -1.952  0.00  0.00    -0.166 F 
ENDBRANCH   2  18
TORSDOF 4
