REMARK  2 active torsions:
REMARK  status: ('A' for Active; 'I' for Inactive)
REMARK    1  A    between atoms: O_5  and  C_2 
REMARK    2  A    between atoms: C_7  and  O_5 
ROOT
ATOM      1  C   UNL d   1       1.771   0.533  -0.740  0.00  0.00     0.100 A 
ATOM      2  C   UNL d   1       1.028   1.423   0.051  0.00  0.00     0.098 A 
ATOM      3  C   UNL d   1       2.680   1.038  -1.729  0.00  0.00     0.104 C 
ATOM      4  N   UNL d   1       3.423   1.442  -2.523  0.00  0.00    -0.191 NA
ATOM      5  C   UNL d   1       1.609  -0.846  -0.543  0.00  0.00     0.057 A 
ATOM      6 CL   UNL d   1       2.460  -2.018  -1.488  0.00  0.00    -0.083 Cl
ATOM      7  C   UNL d   1       0.203   0.935   1.077  0.00  0.00     0.039 A 
ATOM      8  C   UNL d   1       0.040  -0.436   1.256  0.00  0.00     0.005 A 
ATOM      9  C   UNL d   1       0.734  -1.325   0.440  0.00  0.00     0.025 A 
ENDROOT
BRANCH   2  10
ATOM     10  O   UNL d   1       1.172   2.778  -0.184  0.00  0.00    -0.309 OA
BRANCH  10  11
ATOM     11  C   UNL d   1       0.058   3.577  -0.038  0.00  0.00     0.076 A 
ATOM     12  C   UNL d   1       0.234   4.789   0.628  0.00  0.00     0.037 A 
ATOM     13  C   UNL d   1      -0.864   5.617   0.863  0.00  0.00     0.003 A 
ATOM     14  C   UNL d   1      -2.132   5.238   0.419  0.00  0.00     0.000 A 
ATOM     15  C   UNL d   1      -2.299   4.049  -0.291  0.00  0.00     0.003 A 
ATOM     16  C   UNL d   1      -1.200   3.228  -0.540  0.00  0.00     0.037 A 
ENDBRANCH  10  11
ENDBRANCH   2  10
TORSDOF 2
