REMARK  6 active torsions:
REMARK  status: ('A' for Active; 'I' for Inactive)
REMARK    1  A    between atoms: C_2  and  S_1 
REMARK    2  A    between atoms: N_11  and  S_1 
REMARK    3  A    between atoms: C_7  and  C_3 
REMARK    4  A    between atoms: S_5  and  C_4 
REMARK    5  A    between atoms: C_6  and  S_5 
REMARK    6  A    between atoms: O_15  and  C_7 
ROOT
ATOM      1  C   UNL d   1       0.657   0.710  -1.596  0.00  0.00     0.098 A 
ATOM      2  C   UNL d   1       0.080  -0.226  -2.469  0.00  0.00     0.029 A 
ATOM      3  C   UNL d   1       0.671   2.081  -1.923  0.00  0.00     0.050 A 
ATOM      4  C   UNL d   1      -0.430   0.249  -3.694  0.00  0.00     0.022 A 
ATOM      5  C   UNL d   1       0.149   2.519  -3.134  0.00  0.00     0.035 A 
ATOM      6  C   UNL d   1      -0.396   1.606  -4.025  0.00  0.00     0.025 A 
ATOM      7 CL   UNL d   1       0.205   4.187  -3.541  0.00  0.00    -0.084 Cl
ENDROOT
BRANCH   2   8
ATOM      8  S   UNL d   1      -0.029  -1.998  -2.241  0.00  0.00    -0.088 SA
BRANCH   8   9
ATOM      9  C   UNL d   1      -1.637  -2.158  -1.464  0.00  0.00     0.022 A 
ATOM     10  C   UNL d   1      -2.858  -2.294  -2.152  0.00  0.00     0.054 A 
ATOM     11  C   UNL d   1      -4.059  -2.373  -1.422  0.00  0.00     0.020 A 
ATOM     12  C   UNL d   1      -4.054  -2.349  -0.028  0.00  0.00     0.001 A 
ATOM     13  C   UNL d   1      -2.847  -2.258   0.653  0.00  0.00     0.001 A 
ATOM     14  C   UNL d   1      -1.650  -2.171  -0.058  0.00  0.00     0.020 A 
BRANCH  10  15
ATOM     15  C   UNL d   1      -3.011  -2.351  -3.632  0.00  0.00     0.177 C 
ATOM     16  O   UNL d   1      -4.013  -1.948  -4.201  0.00  0.00    -0.646 OA
BRANCH  15  17
ATOM     17  O   UNL d   1      -2.002  -2.950  -4.294  0.00  0.00    -0.773 OA
ATOM     18  H   UNL d   1      -1.262  -3.243  -3.726  0.00  0.00     0.167 HD
ENDBRANCH  15  17
ENDBRANCH  10  15
ENDBRANCH   8   9
ENDBRANCH   2   8
BRANCH   1  19
ATOM     19  S   UNL d   1       1.446   0.299  -0.058  0.00  0.00     0.259 S 
ATOM     20  O   UNL d   1       1.635  -1.124   0.087  0.00  0.00    -0.201 OA
ATOM     21  O   UNL d   1       0.795   1.076   0.972  0.00  0.00    -0.201 OA
BRANCH  19  22
ATOM     22  N   UNL d   1       2.984   0.969  -0.253  0.00  0.00    -0.320 N 
ATOM     23  C   UNL d   1       3.929   0.268  -1.119  0.00  0.00     0.159 C 
ATOM     24  H   UNL d   1       3.339   1.352   0.624  0.00  0.00     0.171 HD
ENDBRANCH  19  22
ENDBRANCH   1  19
TORSDOF 6
