REMARK  5 active torsions:
REMARK  status: ('A' for Active; 'I' for Inactive)
REMARK    1  A    between atoms: S_12  and  C_2 
REMARK    2  A    between atoms: C_6  and  C_3 
REMARK       I    between atoms: N_8  and  C_6 
REMARK       I    between atoms: C_7  and  N_9 
REMARK       I    between atoms: N_11  and  C_7 
REMARK    3  A    between atoms: N_9  and  N_8 
REMARK    4  A    between atoms: O_19  and  C_10 
REMARK    5  A    between atoms: C_16  and  N_11 
ROOT
ATOM      1  C   UNL d   1       2.453   2.090   0.268  0.00  0.00     0.277 C 
ATOM      2  N   UNL d   1       3.818   2.007   0.059  0.00  0.00    -0.261 N 
ATOM      3  O   UNL d   1       1.922   3.173   0.521  0.00  0.00    -0.265 OA
ATOM      4  H   UNL d   1       4.282   1.124  -0.159  0.00  0.00     0.190 HD
ENDROOT
BRANCH   1   5
ATOM      5  C   UNL d   1       1.721   0.819   0.169  0.00  0.00     0.082 A 
ATOM      6  C   UNL d   1       0.349   0.595   0.119  0.00  0.00    -0.025 A 
ATOM      7  C   UNL d   1       0.016  -0.820  -0.012  0.00  0.00     0.002 A 
ATOM      8  C   UNL d   1      -0.720   1.659   0.138  0.00  0.00     0.041 C 
ATOM      9  C   UNL d   1       1.152  -1.612   0.037  0.00  0.00     0.051 A 
ATOM     10  C   UNL d   1      -1.419  -1.280  -0.141  0.00  0.00     0.153 C 
ATOM     11  S   UNL d   1       2.574  -0.665   0.127  0.00  0.00    -0.076 SA
ATOM     12  C   UNL d   1      -2.402  -0.132  -0.400  0.00  0.00     0.037 C 
ATOM     13  C   UNL d   1      -2.100   1.083   0.472  0.00  0.00     0.007 C 
BRANCH   9  14
ATOM     14  S   UNL d   1       1.340  -3.363  -0.061  0.00  0.00    -0.126 SA
ATOM     15  C   UNL d   1      -0.005  -4.023   0.940  0.00  0.00     0.096 C 
ENDBRANCH   9  14
BRANCH  10  16
ATOM     16  O   UNL d   1      -1.596  -2.224  -1.195  0.00  0.00    -0.391 OA
ATOM     17  H   UNL d   1      -1.011  -1.951  -1.923  0.00  0.00     0.210 HD
ENDBRANCH  10  16
ENDBRANCH   1   5
BRANCH   2  18
ATOM     18  N   UNL d   1       4.664   3.134   0.180  0.00  0.00    -0.248 N 
ATOM     19  C   UNL d   1       6.027   2.860   0.140  0.00  0.00     0.339 C 
ATOM     20  N   UNL d   1       6.811   3.987   0.273  0.00  0.00    -0.308 N 
ATOM     21  O   UNL d   1       6.417   1.714  -0.057  0.00  0.00    -0.245 OA
ATOM     22  H   UNL d   1       6.335   4.847   0.497  0.00  0.00     0.170 HD
ATOM     23  H   UNL d   1       4.290   3.900   0.733  0.00  0.00     0.192 HD
BRANCH  20  24
ATOM     24  C   UNL d   1       8.207   4.069   0.050  0.00  0.00     0.036 A 
ATOM     25  C   UNL d   1       8.984   2.999  -0.408  0.00  0.00     0.031 A 
ATOM     26  C   UNL d   1      10.341   3.166  -0.703  0.00  0.00     0.026 A 
ATOM     27  C   UNL d   1      10.940   4.407  -0.530  0.00  0.00     0.034 A 
ATOM     28  C   UNL d   1      10.195   5.478  -0.041  0.00  0.00     0.026 A 
ATOM     29 CL   UNL d   1      12.596   4.624  -0.940  0.00  0.00    -0.084 Cl
ATOM     30  C   UNL d   1       8.834   5.309   0.248  0.00  0.00     0.031 A 
ENDBRANCH  20  24
ENDBRANCH   2  18
TORSDOF 5
