REMARK  7 active torsions:
REMARK  status: ('A' for Active; 'I' for Inactive)
REMARK    1  A    between atoms: C_12  and  N_1 
REMARK    2  A    between atoms: C_9  and  C_2 
REMARK    3  A    between atoms: S_11  and  C_5 
REMARK    4  A    between atoms: C_8  and  C_10 
REMARK    5  A    between atoms: C_20  and  C_12 
REMARK    6  A    between atoms: C_22  and  C_20 
REMARK    7  A    between atoms: O_21  and  C_22 
ROOT
ATOM      1  N   UNL d   1      -0.196  -1.259  -0.007  0.00  0.00    -0.311 N 
ATOM      2  C   UNL d   1       1.032  -0.619  -0.109  0.00  0.00     0.134 A 
ATOM      3  N   UNL d   1       0.820   0.685  -0.064  0.00  0.00    -0.283 N 
ATOM      4  HN  UNL d   1       1.543   1.404  -0.089  1.00  0.00     0.188 HD
ATOM      5  C   UNL d   1      -1.127  -0.249   0.048  0.00  0.00     0.160 A 
ATOM      6  N   UNL d   1      -0.523   0.915   0.021  0.00  0.00    -0.278 N 
ATOM      7  HN  UNL d   1      -0.976   1.828   0.058  1.00  0.00     0.189 HD
ENDROOT
BRANCH   2   8
ATOM      8  C   UNL d   1       2.380  -1.208  -0.148  0.00  0.00     0.009 A 
ATOM      9  C   UNL d   1       2.700  -2.371  -0.856  0.00  0.00     0.016 A 
ATOM     10  C   UNL d   1       3.989  -2.916  -0.799  0.00  0.00     0.017 A 
ATOM     11  C   UNL d   1       5.002  -2.286  -0.066  0.00  0.00     0.048 A 
ATOM     12  C   UNL d   1       4.707  -1.081   0.584  0.00  0.00     0.017 A 
ATOM     13  C   UNL d   1       3.412  -0.553   0.544  0.00  0.00     0.016 A 
BRANCH  11  14
ATOM     14  C   UNL d   1       6.390  -2.872   0.021  0.00  0.00     0.417 C 
ATOM     15  F   UNL d   1       6.494  -4.103  -0.555  0.00  0.00    -0.166 F 
ATOM     16  F   UNL d   1       7.327  -2.094  -0.586  0.00  0.00    -0.166 F 
ATOM     17  F   UNL d   1       6.808  -3.030   1.308  0.00  0.00    -0.166 F 
ENDBRANCH  11  14
ENDBRANCH   2   8
BRANCH   1  18
ATOM     18  C   UNL d   1      -0.437  -2.688   0.026  0.00  0.00     0.135 C 
BRANCH  18  19
ATOM     19  C   UNL d   1       0.126  -3.430   1.241  0.00  0.00     0.046 C 
BRANCH  19  20
ATOM     20  C   UNL d   1      -0.471  -2.984   2.568  0.00  0.00     0.168 C 
BRANCH  20  21
ATOM     21  O   UNL d   1      -1.885  -3.148   2.517  0.00  0.00    -0.396 OA
ATOM     22  C   UNL d   1      -2.485  -2.833   3.770  0.00  0.00     0.201 C 
ENDBRANCH  20  21
ENDBRANCH  19  20
ENDBRANCH  18  19
ENDBRANCH   1  18
BRANCH   5  23
ATOM     23  S   UNL d   1      -2.849  -0.407   0.141  0.00  0.00    -0.105 SA
ATOM     24  H   UNL d   1      -2.996  -1.719   0.351  0.00  0.00     0.110 HD
ENDBRANCH   5  23
TORSDOF 7
