REMARK  2 active torsions:
REMARK  status: ('A' for Active; 'I' for Inactive)
REMARK       I    between atoms: C_2  and  N_1 
REMARK       I    between atoms: C_3  and  N_1 
REMARK       I    between atoms: N_5  and  C_2 
REMARK    1  A    between atoms: C_4  and  C_3 
REMARK    2  A    between atoms: C_8  and  N_5 
ROOT
ATOM      1  N   UNL d   1       1.159   0.044  -0.083  0.00  0.00    -0.275 N 
ATOM      2  C   UNL d   1       0.372  -0.698  -0.926  0.00  0.00     0.323 C 
ATOM      3  C   UNL d   1       2.534   0.031   0.054  0.00  0.00     0.259 C 
ATOM      4  N   UNL d   1       1.016  -1.540  -1.788  0.00  0.00    -0.338 N 
ATOM      5  O   UNL d   1      -0.850  -0.590  -0.841  0.00  0.00    -0.247 OA
ATOM      6  O   UNL d   1       3.305  -0.498  -0.740  0.00  0.00    -0.267 OA
ATOM      7  H   UNL d   1       0.602   0.616   0.531  0.00  0.00     0.173 HD
ATOM      8  H   UNL d   1       2.034  -1.503  -1.801  0.00  0.00     0.164 HD
ENDROOT
BRANCH   3   9
ATOM      9  C   UNL d   1       3.071   0.771   1.229  0.00  0.00     0.034 A 
ATOM     10  C   UNL d   1       4.302   1.430   1.103  0.00  0.00     0.044 A 
ATOM     11  C   UNL d   1       4.846   2.099   2.201  0.00  0.00     0.073 A 
ATOM     12 CL   UNL d   1       6.354   2.912   2.035  0.00  0.00    -0.081 Cl
ATOM     13  C   UNL d   1       4.170   2.102   3.420  0.00  0.00     0.138 A 
ATOM     14  C   UNL d   1       2.950   1.445   3.555  0.00  0.00     0.045 A 
ATOM     15  F   UNL d   1       4.684   2.727   4.489  0.00  0.00    -0.204 F 
ATOM     16  C   UNL d   1       2.396   0.776   2.460  0.00  0.00     0.020 A 
ENDBRANCH   3   9
BRANCH   4  17
ATOM     17  C   UNL d   1       0.326  -2.408  -2.688  0.00  0.00     0.086 A 
ATOM     18  C   UNL d   1       0.522  -3.897  -2.600  0.00  0.00     0.027 A 
ATOM     19  C   UNL d   1       1.049  -3.140  -3.784  0.00  0.00     0.027 A 
ENDBRANCH   4  17
TORSDOF 2
