REMARK  1 active torsions:
REMARK  status: ('A' for Active; 'I' for Inactive)
REMARK    1  A    between atoms: S_14  and  C_11 
ROOT
ATOM      1  S   UNL d   1      -1.233   1.546  -0.164  0.00  0.00     0.268 S 
ATOM      2  C   UNL d   1       0.213   0.675  -0.026  0.00  0.00     0.138 A 
ATOM      3  C   UNL d   1       0.315  -0.681  -0.072  0.00  0.00     0.119 A 
ATOM      4  N   UNL d   1      -2.392   0.495   0.173  0.00  0.00    -0.268 N 
ATOM      5  HN  UNL d   1      -3.287   0.883   0.471  1.00  0.00     0.180 HD
ATOM      6  S   UNL d   1      -0.951  -1.817  -0.273  0.00  0.00    -0.044 SA
ATOM      7  N   UNL d   1       1.643  -0.974   0.034  0.00  0.00    -0.288 N 
ATOM      8  C   UNL d   1       1.532   1.158   0.057  0.00  0.00     0.048 A 
ATOM      9  N   UNL d   1       2.409   0.141   0.118  0.00  0.00    -0.301 N 
ATOM     10  HN  UNL d   1       3.424   0.196   0.208  1.00  0.00     0.187 HD
ATOM     11  C   UNL d   1      -2.314  -0.784   0.109  0.00  0.00     0.123 C 
ATOM     12  O   UNL d   1      -1.281   1.912  -1.562  0.00  0.00    -0.200 OA
ATOM     13  O   UNL d   1      -1.152   2.530   0.891  0.00  0.00    -0.200 OA
ATOM     14  C   UNL d   1       2.301  -2.259   0.062  0.00  0.00     0.178 C 
ATOM     15  C   UNL d   1       2.020   2.560   0.057  0.00  0.00     0.071 C 
ENDROOT
BRANCH  11  16
ATOM     16  S   UNL d   1      -3.759  -1.735   0.464  0.00  0.00    -0.109 SA
ATOM     17  C   UNL d   1      -4.964  -0.435   0.802  0.00  0.00     0.097 C 
ENDBRANCH  11  16
TORSDOF 1
