REMARK  3 active torsions:
REMARK  status: ('A' for Active; 'I' for Inactive)
REMARK    1  A    between atoms: C_3  and  C_1 
REMARK       I    between atoms: N_7  and  C_3 
REMARK    2  A    between atoms: C_6  and  C_10 
REMARK    3  A    between atoms: C_16  and  N_7 
ROOT
ATOM      1  C   UNL d   1       2.294   0.406  -1.710  0.00  0.00     0.254 C 
ATOM      2  N   UNL d   1       1.505   1.235  -2.488  0.00  0.00    -0.325 N 
ATOM      3  O   UNL d   1       3.117  -0.407  -2.130  0.00  0.00    -0.270 OA
ATOM      4  H   UNL d   1       0.949   1.920  -1.990  0.00  0.00     0.169 HD
ENDROOT
BRANCH   2   5
ATOM      5  C   UNL d   1       1.420   1.272  -3.894  0.00  0.00     0.035 A 
ATOM      6  C   UNL d   1       2.084   0.370  -4.729  0.00  0.00     0.043 A 
ATOM      7  C   UNL d   1       1.997   0.462  -6.128  0.00  0.00     0.001 A 
ATOM      8  C   UNL d   1       1.203   1.473  -6.682  0.00  0.00     0.014 A 
ATOM      9  C   UNL d   1       0.513   2.365  -5.859  0.00  0.00     0.003 A 
ATOM     10  C   UNL d   1       0.620   2.264  -4.471  0.00  0.00     0.029 A 
BRANCH   7  11
ATOM     11  C   UNL d   1       2.737  -0.480  -6.956  0.00  0.00     0.102 A 
ATOM     12  O   UNL d   1       2.734  -0.274  -8.314  0.00  0.00    -0.304 OA
ATOM     13  C   UNL d   1       3.514  -1.274  -8.802  0.00  0.00     0.233 A 
ATOM     14  N   UNL d   1       4.004  -2.097  -7.901  0.00  0.00    -0.354 N 
ATOM     15  C   UNL d   1       3.514  -1.595  -6.720  0.00  0.00     0.127 A 
ATOM     16  HN  UNL d   1       4.602  -2.911  -8.044  1.00  0.00     0.166 HD
ENDBRANCH   7  11
ENDBRANCH   2   5
BRANCH   1  17
ATOM     17  C   UNL d   1       2.043   0.515  -0.194  0.00  0.00     0.245 C 
ATOM     18  O   UNL d   1       1.536   1.766   0.266  0.00  0.00    -0.331 OA
ATOM     19  C   UNL d   1       0.170   1.818   0.338  0.00  0.00     0.103 A 
ATOM     20  C   UNL d   1      -0.387   3.068   0.602  0.00  0.00     0.040 A 
ATOM     21  C   UNL d   1      -0.655   0.720   0.089  0.00  0.00     0.102 A 
ATOM     22  C   UNL d   1      -1.772   3.228   0.576  0.00  0.00     0.003 A 
ATOM     23  C   UNL d   1      -2.596   2.139   0.284  0.00  0.00     0.003 A 
ATOM     24  C   UNL d   1      -2.037   0.884   0.042  0.00  0.00     0.039 A 
ATOM     25  O   UNL d   1      -0.171  -0.534  -0.162  0.00  0.00    -0.345 OA
ATOM     26  C   UNL d   1       1.191  -0.665   0.261  0.00  0.00     0.218 C 
ENDBRANCH   1  17
TORSDOF 3
