REMARK  3 active torsions:
REMARK  status: ('A' for Active; 'I' for Inactive)
REMARK    1  A    between atoms: O_11  and  C_4 
REMARK    2  A    between atoms: C_12  and  C_7 
REMARK    3  A    between atoms: C_16  and  O_11 
ROOT
ATOM      1  N   UNL d   1       0.264   0.613   0.014  0.00  0.00    -0.255 N 
ATOM      2  C   UNL d   1       0.202  -0.759  -0.074  0.00  0.00     0.159 A 
ATOM      3  C   UNL d   1      -0.908   1.337   0.087  0.00  0.00     0.290 C 
ATOM      4  C   UNL d   1      -2.185   0.525   0.032  0.00  0.00     0.166 C 
ATOM      5  N   UNL d   1      -0.857  -1.478  -0.158  0.00  0.00    -0.337 N 
ATOM      6  HN  UNL d   1      -0.808  -2.495  -0.218  1.00  0.00     0.168 HD
ATOM      7  C   UNL d   1       1.562   1.100   0.018  0.00  0.00     0.061 A 
ATOM      8  C   UNL d   1      -2.063  -0.813  -0.165  0.00  0.00     0.047 C 
ATOM      9  S   UNL d   1       1.816  -1.443  -0.076  0.00  0.00    -0.063 SA
ATOM     10  C   UNL d   1       2.506   0.145  -0.022  0.00  0.00     0.084 A 
ATOM     11  O   UNL d   1      -0.972   2.561   0.191  0.00  0.00    -0.264 OA
ATOM     12  C   UNL d   1      -3.206  -1.761  -0.444  0.00  0.00     0.071 C 
ENDROOT
BRANCH   4  13
ATOM     13  O   UNL d   1      -3.356   1.274   0.082  0.00  0.00    -0.303 OA
BRANCH  13  14
ATOM     14  C   UNL d   1      -4.496   0.786   0.675  0.00  0.00     0.076 A 
ATOM     15  C   UNL d   1      -4.500  -0.018   1.817  0.00  0.00     0.039 A 
ATOM     16  C   UNL d   1      -5.695  -0.600   2.250  0.00  0.00     0.026 A 
ATOM     17  C   UNL d   1      -6.886  -0.324   1.579  0.00  0.00     0.034 A 
ATOM     18  C   UNL d   1      -6.900   0.559   0.501  0.00  0.00     0.026 A 
ATOM     19 CL   UNL d   1      -8.344  -1.094   2.072  0.00  0.00    -0.084 Cl
ATOM     20  C   UNL d   1      -5.703   1.120   0.053  0.00  0.00     0.039 A 
ENDBRANCH  13  14
ENDBRANCH   4  13
BRANCH   7  21
ATOM     21  C   UNL d   1       1.952   2.511   0.020  0.00  0.00    -0.008 A 
ATOM     22  C   UNL d   1       2.183   3.176  -1.194  0.00  0.00     0.015 A 
ATOM     23  C   UNL d   1       2.691   4.478  -1.202  0.00  0.00     0.024 A 
ATOM     24  C   UNL d   1       2.971   5.118   0.003  0.00  0.00     0.034 A 
ATOM     25  C   UNL d   1       2.741   4.472   1.216  0.00  0.00     0.024 A 
ATOM     26 CL   UNL d   1       3.628   6.708  -0.007  0.00  0.00    -0.084 Cl
ATOM     27  C   UNL d   1       2.233   3.167   1.226  0.00  0.00     0.015 A 
ENDBRANCH   7  21
TORSDOF 3
