REMARK  3 active torsions:
REMARK  status: ('A' for Active; 'I' for Inactive)
REMARK    1  A    between atoms: N_7  and  C_1 
REMARK    2  A    between atoms: C_11  and  N_7 
REMARK    3  A    between atoms: O_19  and  C_12 
ROOT
ATOM      1  C   UNL d   1      -1.124  -1.505  -0.143  0.00  0.00     0.090 A 
ATOM      2  C   UNL d   1      -1.600  -0.250  -0.049  0.00  0.00     0.110 A 
ATOM      3  C   UNL d   1       0.359  -1.716  -0.210  0.00  0.00     0.206 A 
ATOM      4  C   UNL d   1      -0.723   0.949   0.007  0.00  0.00     0.206 A 
ATOM      5  C   UNL d   1       1.255  -0.555  -0.083  0.00  0.00     0.030 A 
ATOM      6  C   UNL d   1       0.734   0.732  -0.009  0.00  0.00     0.030 A 
ATOM      7  O   UNL d   1       0.813  -2.845  -0.377  0.00  0.00    -0.285 OA
ATOM      8  O   UNL d   1      -1.164   2.092   0.073  0.00  0.00    -0.286 OA
ATOM      9 CL   UNL d   1      -3.307   0.068  -0.044  0.00  0.00    -0.078 Cl
ATOM     10  C   UNL d   1       2.643  -0.749  -0.064  0.00  0.00     0.016 A 
ATOM     11  C   UNL d   1       1.601   1.834   0.049  0.00  0.00     0.016 A 
ATOM     12  C   UNL d   1       2.981   1.640   0.051  0.00  0.00     0.001 A 
ATOM     13  C   UNL d   1       3.504   0.349   0.005  0.00  0.00     0.001 A 
ENDROOT
BRANCH   1  14
ATOM     14  N   UNL d   1      -1.879  -2.679  -0.261  0.00  0.00    -0.255 NA
ATOM     15  H   UNL d   1      -1.287  -3.411  -0.675  0.00  0.00     0.134 HD
BRANCH  14  16
ATOM     16  C   UNL d   1      -2.547  -3.290   0.838  0.00  0.00     0.013 A 
ATOM     17  C   UNL d   1      -2.324  -2.936   2.175  0.00  0.00     0.026 A 
ATOM     18  C   UNL d   1      -2.986  -3.607   3.208  0.00  0.00     0.038 A 
ATOM     19  C   UNL d   1      -3.877  -4.630   2.909  0.00  0.00     0.065 A 
ATOM     20  C   UNL d   1      -4.104  -5.010   1.593  0.00  0.00     0.038 A 
ATOM     21  C   UNL d   1      -3.432  -4.345   0.563  0.00  0.00     0.026 A 
BRANCH  19  22
ATOM     22  O   UNL d   1      -4.517  -5.239   3.947  0.00  0.00    -0.361 OA
ATOM     23  H   UNL d   1      -5.172  -5.859   3.586  0.00  0.00     0.217 HD
ENDBRANCH  19  22
ENDBRANCH  14  16
ENDBRANCH   1  14
TORSDOF 3
