REMARK  1 active torsions:
REMARK  status: ('A' for Active; 'I' for Inactive)
REMARK    1  A    between atoms: C_10  and  C_6 
ROOT
ATOM      1  N   UNL d   1      -6.987  -5.821   0.480  0.00  0.00    -0.191 NA
ATOM      2  C   UNL d   1      -6.294  -4.894   0.404  0.00  0.00     0.099 C 
ATOM      3  C   UNL d   1      -3.911  -1.401   0.146  0.00  0.00    -0.035 A 
ATOM      4  C   UNL d   1      -5.458  -3.732   0.313  0.00  0.00     0.044 A 
ATOM      5  C   UNL d   1      -4.138  -2.008   1.387  0.00  0.00     0.013 A 
ATOM      6  C   UNL d   1      -4.436  -1.980  -1.014  0.00  0.00     0.013 A 
ATOM      7  C   UNL d   1      -4.910  -3.170   1.470  0.00  0.00     0.023 A 
ATOM      8  C   UNL d   1      -5.209  -3.142  -0.930  0.00  0.00     0.023 A 
ENDROOT
BRANCH   3   9
ATOM      9  C   UNL d   1      -3.149  -0.154   0.067  0.00  0.00     0.034 C 
ATOM     10  C   UNL d   1      -1.815  -0.062  -0.020  0.00  0.00     0.057 A 
ATOM     11  S   UNL d   1      -0.993   1.480  -0.050  0.00  0.00    -0.086 SA
ATOM     12  C   UNL d   1      -0.846  -1.200  -0.074  0.00  0.00     0.200 A 
ATOM     13  C   UNL d   1       0.594   0.695  -0.036  0.00  0.00     0.020 A 
ATOM     14  C   UNL d   1       1.827   1.332  -0.003  0.00  0.00     0.020 A 
ATOM     15  C   UNL d   1       0.531  -0.694  -0.050  0.00  0.00     0.032 A 
ATOM     16  C   UNL d   1       2.989   0.552   0.021  0.00  0.00     0.001 A 
ATOM     17  C   UNL d   1       2.912  -0.849   0.009  0.00  0.00     0.001 A 
ATOM     18  C   UNL d   1       1.672  -1.485  -0.029  0.00  0.00     0.017 A 
ATOM     19  O   UNL d   1      -1.110  -2.389  -0.130  0.00  0.00    -0.286 OA
ENDBRANCH   3   9
TORSDOF 1
