REMARK  2 active torsions:
REMARK  status: ('A' for Active; 'I' for Inactive)
REMARK    1  A    between atoms: C_2  and  C_1 
REMARK       I    between atoms: N_3  and  C_1 
REMARK    2  A    between atoms: C_5  and  N_3 
ROOT
ATOM      1  C   UNL d   1       0.956   0.018   0.170  0.00  0.00     0.263 C 
ATOM      2  N   UNL d   1       0.199   0.253  -0.971  0.00  0.00    -0.322 N 
ATOM      3  O   UNL d   1       0.482  -0.063   1.301  0.00  0.00    -0.267 OA
ATOM      4  H   UNL d   1       0.702   0.200  -1.848  0.00  0.00     0.169 HD
ENDROOT
BRANCH   2   5
ATOM      5  C   UNL d   1      -1.204   0.398  -1.038  0.00  0.00     0.036 A 
ATOM      6  C   UNL d   1      -2.016   0.596   0.082  0.00  0.00     0.053 A 
ATOM      7  C   UNL d   1      -3.404   0.656  -0.054  0.00  0.00     0.036 A 
ATOM      8 CL   UNL d   1      -4.390   0.881   1.340  0.00  0.00    -0.084 Cl
ATOM      9  C   UNL d   1      -3.999   0.528  -1.305  0.00  0.00     0.024 A 
ATOM     10  C   UNL d   1      -3.197   0.366  -2.433  0.00  0.00     0.004 A 
ATOM     11  C   UNL d   1      -1.805   0.314  -2.301  0.00  0.00     0.029 A 
ENDBRANCH   2   5
BRANCH   1  12
ATOM     12  C   UNL d   1       2.385  -0.182  -0.045  0.00  0.00     0.072 A 
ATOM     13  S   UNL d   1       3.134  -0.056  -1.581  0.00  0.00    -0.097 SA
ATOM     14  C   UNL d   1       4.675  -0.439  -0.939  0.00  0.00     0.050 A 
ATOM     15  C   UNL d   1       4.630  -0.654   0.420  0.00  0.00     0.009 A 
ATOM     16  C   UNL d   1       3.312  -0.501   0.932  0.00  0.00     0.025 A 
ENDBRANCH   1  12
TORSDOF 2
