REMARK  9 active torsions:
REMARK  status: ('A' for Active; 'I' for Inactive)
REMARK    1  A    between atoms: C_3  and  C_1 
REMARK    2  A    between atoms: C_2  and  N_4 
REMARK    3  A    between atoms: N_11  and  C_2 
REMARK    4  A    between atoms: N_4  and  C_9 
REMARK    5  A    between atoms: O_18  and  C_5 
REMARK    6  A    between atoms: O_19  and  C_8 
REMARK    7  A    between atoms: C_20  and  N_11 
REMARK    8  A    between atoms: C_16  and  C_24 
REMARK    9  A    between atoms: C_24  and  C_20 
ROOT
ATOM      1  C   UNL d   1       0.839  -4.585   2.162  0.00  0.00     0.172 C 
ATOM      2  S   UNL d   1       0.584  -3.413   3.321  0.00  0.00    -0.041 SA
ENDROOT
BRANCH   1   3
ATOM      3  N   UNL d   1       1.041  -4.415   0.812  0.00  0.00    -0.333 N 
ATOM      4  H   UNL d   1       0.608  -5.123   0.238  0.00  0.00     0.168 HD
BRANCH   3   5
ATOM      5  C   UNL d   1       1.642  -3.358   0.101  0.00  0.00     0.035 A 
ATOM      6  C   UNL d   1       2.496  -2.424   0.687  0.00  0.00     0.045 A 
ATOM      7  C   UNL d   1       3.107  -1.421  -0.084  0.00  0.00     0.050 A 
ATOM      8  C   UNL d   1       2.862  -1.376  -1.463  0.00  0.00     0.016 A 
ATOM      9  C   UNL d   1       2.035  -2.324  -2.062  0.00  0.00     0.003 A 
ATOM     10  C   UNL d   1       1.435  -3.315  -1.284  0.00  0.00     0.029 A 
BRANCH   7  11
ATOM     11  C   UNL d   1       4.020  -0.406   0.557  0.00  0.00     0.417 C 
ATOM     12  F   UNL d   1       4.227  -0.611   1.887  0.00  0.00    -0.166 F 
ATOM     13  F   UNL d   1       3.544   0.865   0.443  0.00  0.00    -0.166 F 
ATOM     14  F   UNL d   1       5.259  -0.391  -0.012  0.00  0.00    -0.166 F 
ENDBRANCH   7  11
ENDBRANCH   3   5
ENDBRANCH   1   3
BRANCH   1  15
ATOM     15  N   UNL d   1       0.825  -5.896   2.571  0.00  0.00    -0.367 N 
ATOM     16  H   UNL d   1       0.758  -6.011   3.578  0.00  0.00     0.161 HD
BRANCH  15  17
ATOM     17  C   UNL d   1       1.308  -7.009   1.775  0.00  0.00     0.126 C 
BRANCH  17  18
ATOM     18  C   UNL d   1       1.365  -8.338   2.523  0.00  0.00     0.058 C 
BRANCH  18  19
ATOM     19  C   UNL d   1       1.695  -9.424   1.528  0.00  0.00    -0.054 A 
ATOM     20  C   UNL d   1       0.664 -10.020   0.782  0.00  0.00     0.046 A 
ATOM     21  C   UNL d   1       0.940 -10.920  -0.257  0.00  0.00     0.102 A 
ATOM     22  C   UNL d   1       2.281 -11.216  -0.554  0.00  0.00     0.101 A 
ATOM     23  C   UNL d   1       3.306 -10.651   0.218  0.00  0.00     0.040 A 
ATOM     24  C   UNL d   1       3.021  -9.755   1.247  0.00  0.00     0.010 A 
BRANCH  21  25
ATOM     25  O   UNL d   1      -0.036 -11.532  -0.998  0.00  0.00    -0.353 OA
ATOM     26  C   UNL d   1      -1.393 -11.250  -0.681  0.00  0.00     0.210 C 
ENDBRANCH  21  25
BRANCH  22  27
ATOM     27  O   UNL d   1       2.747 -12.060  -1.530  0.00  0.00    -0.353 OA
ATOM     28  C   UNL d   1       1.979 -12.135  -2.726  0.00  0.00     0.210 C 
ENDBRANCH  22  27
ENDBRANCH  18  19
ENDBRANCH  17  18
ENDBRANCH  15  17
ENDBRANCH   1  15
TORSDOF 9
