REMARK  4 active torsions:
REMARK  status: ('A' for Active; 'I' for Inactive)
REMARK    1  A    between atoms: C_2  and  C_1 
REMARK       I    between atoms: N_3  and  C_1 
REMARK       I    between atoms: C_5  and  N_3 
REMARK    2  A    between atoms: C_4  and  N_7 
REMARK       I    between atoms: N_7  and  C_5 
REMARK    3  A    between atoms: O_21  and  C_6 
REMARK    4  A    between atoms: O_24  and  C_12 
ROOT
ATOM      1  C   UNL d   1       1.089  -0.552   0.067  0.00  0.00     0.265 C 
ATOM      2  N   UNL d   1       0.979  -1.912  -0.289  0.00  0.00    -0.275 N 
ATOM      3  C   UNL d   1       1.029  -3.158   0.301  0.00  0.00     0.327 C 
ATOM      4  N   UNL d   1       1.553  -3.298   1.552  0.00  0.00    -0.305 N 
ATOM      5  O   UNL d   1       1.474  -0.162   1.165  0.00  0.00    -0.267 OA
ATOM      6  O   UNL d   1       0.540  -4.080  -0.349  0.00  0.00    -0.247 OA
ATOM      7  H   UNL d   1       0.615  -2.059  -1.222  0.00  0.00     0.173 HD
ATOM      8  H   UNL d   1       1.330  -2.537   2.188  0.00  0.00     0.171 HD
ENDROOT
BRANCH   1   9
ATOM      9  C   UNL d   1       0.592   0.382  -1.054  0.00  0.00     0.100 C 
ATOM     10  C   UNL d   1       0.965   0.134  -2.416  0.00  0.00     0.108 C 
ATOM     11  C   UNL d   1       0.221   0.725  -3.450  0.00  0.00     0.068 C 
ATOM     12 CL   UNL d   1       0.520   0.570  -5.141  0.00  0.00    -0.081 Cl
ATOM     13  C   UNL d   1      -0.856   1.558  -3.145  0.00  0.00     0.029 C 
ATOM     14  C   UNL d   1      -1.129   1.907  -1.824  0.00  0.00     0.039 C 
ATOM     15  C   UNL d   1      -0.383   1.368  -0.771  0.00  0.00     0.086 C 
BRANCH  10  16
ATOM     16  O   UNL d   1       2.155  -0.541  -2.537  0.00  0.00    -0.353 OA
ATOM     17  C   UNL d   1       2.406  -1.444  -3.603  0.00  0.00     0.210 C 
ENDBRANCH  10  16
BRANCH  15  18
ATOM     18  O   UNL d   1      -0.572   1.724   0.537  0.00  0.00    -0.355 OA
ATOM     19  C   UNL d   1      -1.268   2.928   0.854  0.00  0.00     0.210 C 
ENDBRANCH  15  18
ENDBRANCH   1   9
BRANCH   4  20
ATOM     20  C   UNL d   1       1.933  -4.558   2.152  0.00  0.00     0.080 A 
ATOM     21  C   UNL d   1       2.567  -5.620   1.477  0.00  0.00     0.064 A 
ATOM     22  C   UNL d   1       3.075  -6.747   2.187  0.00  0.00     0.050 A 
ATOM     23 CL   UNL d   1       2.950  -5.644  -0.212  0.00  0.00    -0.082 Cl
ATOM     24  C   UNL d   1       2.955  -6.809   3.566  0.00  0.00     0.037 A 
ATOM     25  C   UNL d   1       2.281  -5.821   4.254  0.00  0.00     0.050 A 
ATOM     26 CL   UNL d   1       3.684  -8.120   4.426  0.00  0.00    -0.084 Cl
ATOM     27  C   UNL d   1       1.766  -4.713   3.555  0.00  0.00     0.064 A 
ATOM     28 CL   UNL d   1       0.860  -3.555   4.471  0.00  0.00    -0.082 Cl
ENDBRANCH   4  20
TORSDOF 4
