REMARK  5 active torsions:
REMARK  status: ('A' for Active; 'I' for Inactive)
REMARK    1  A    between atoms: C_2  and  S_1 
REMARK    2  A    between atoms: N_3  and  S_1 
REMARK    3  A    between atoms: C_13  and  N_7 
REMARK    4  A    between atoms: C_17  and  C_13 
REMARK    5  A    between atoms: C_18  and  C_17 
ROOT
ATOM      1  N   UNL d   1       0.605   0.707   1.375  0.00  0.00    -0.204 NA
ATOM      2  N   UNL d   1      -0.767   3.086   3.005  0.00  0.00     0.089 N 
ATOM      3  C   UNL d   1       0.717   2.184   1.098  0.00  0.00     0.138 C 
ATOM      4  C   UNL d   1       0.536   3.095   2.322  0.00  0.00     0.287 C 
ATOM      5  C   UNL d   1      -1.097   0.545   3.274  0.00  0.00     0.046 C 
ATOM      6  C   UNL d   1      -0.760   0.282   1.813  0.00  0.00     0.109 C 
ATOM      7  C   UNL d   1      -0.873   1.927   3.880  0.00  0.00     0.273 C 
ENDROOT
BRANCH   1   8
ATOM      8  S   UNL d   1       1.054  -0.194  -0.055  0.00  0.00     0.250 S 
ATOM      9  O   UNL d   1       0.905  -1.608   0.218  0.00  0.00    -0.205 OA
ATOM     10  O   UNL d   1       0.386   0.421  -1.183  0.00  0.00    -0.205 OA
BRANCH   8  11
ATOM     11  C   UNL d   1       2.787   0.037  -0.372  0.00  0.00     0.115 A 
ATOM     12  S   UNL d   1       3.853  -0.486   0.858  0.00  0.00    -0.089 SA
ATOM     13  C   UNL d   1       5.227  -0.063  -0.069  0.00  0.00     0.051 A 
ATOM     14  C   UNL d   1       4.884   0.492  -1.282  0.00  0.00     0.009 A 
ATOM     15  C   UNL d   1       3.472   0.551  -1.457  0.00  0.00     0.033 A 
ENDBRANCH   8  11
ENDBRANCH   1   8
BRANCH   2  16
ATOM     16  C   UNL d   1      -1.903   3.371   2.117  0.00  0.00     0.277 C 
BRANCH  16  17
ATOM     17  C   UNL d   1      -3.276   3.433   2.806  0.00  0.00     0.068 C 
BRANCH  17  18
ATOM     18  C   UNL d   1      -4.393   3.650   1.809  0.00  0.00    -0.057 A 
ATOM     19  C   UNL d   1      -5.058   2.556   1.235  0.00  0.00     0.007 A 
ATOM     20  C   UNL d   1      -6.096   2.757   0.323  0.00  0.00     0.001 A 
ATOM     21  C   UNL d   1      -6.473   4.050  -0.030  0.00  0.00     0.000 A 
ATOM     22  C   UNL d   1      -5.806   5.144   0.519  0.00  0.00     0.001 A 
ATOM     23  C   UNL d   1      -4.768   4.946   1.432  0.00  0.00     0.007 A 
ENDBRANCH  17  18
ENDBRANCH  16  17
ENDBRANCH   2  16
TORSDOF 5
