REMARK  5 active torsions:
REMARK  status: ('A' for Active; 'I' for Inactive)
REMARK       I    between atoms: N_2  and  C_1 
REMARK       I    between atoms: N_4  and  C_1 
REMARK    1  A    between atoms: C_5  and  N_2 
REMARK    2  A    between atoms: C_14  and  N_4 
REMARK    3  A    between atoms: N_7  and  C_15 
REMARK    4  A    between atoms: C_13  and  C_14 
REMARK    5  A    between atoms: C_15  and  C_13 
ROOT
ATOM      1  C   UNL d   1       1.820  -0.500   1.018  0.00  0.00     0.320 C 
ATOM      2  N   UNL d   1       0.924  -1.509   0.746  0.00  0.00    -0.309 N 
ATOM      3  O   UNL d   1       2.009   0.032   2.105  0.00  0.00    -0.247 OA
ATOM      4  N   UNL d   1       2.496  -0.091  -0.114  0.00  0.00    -0.343 N 
ATOM      5  H   UNL d   1       1.008  -1.952  -0.155  0.00  0.00     0.170 HD
ATOM      6  H   UNL d   1       2.190  -0.439  -1.010  0.00  0.00     0.164 HD
ENDROOT
BRANCH   2   7
ATOM      7  C   UNL d   1      -0.079  -2.007   1.608  0.00  0.00     0.036 A 
ATOM      8  C   UNL d   1      -0.352  -1.469   2.870  0.00  0.00     0.031 A 
ATOM      9  C   UNL d   1      -1.411  -1.958   3.643  0.00  0.00     0.026 A 
ATOM     10  C   UNL d   1      -2.203  -2.992   3.159  0.00  0.00     0.034 A 
ATOM     11  C   UNL d   1      -1.933  -3.556   1.916  0.00  0.00     0.026 A 
ATOM     12 CL   UNL d   1      -3.532  -3.561   4.092  0.00  0.00    -0.084 Cl
ATOM     13  C   UNL d   1      -0.872  -3.065   1.143  0.00  0.00     0.031 A 
ENDBRANCH   2   7
BRANCH   4  14
ATOM     14  C   UNL d   1       3.304   1.115  -0.097  0.00  0.00     0.126 C 
BRANCH  14  15
ATOM     15  C   UNL d   1       4.798   0.829   0.049  0.00  0.00     0.050 C 
BRANCH  15  16
ATOM     16  C   UNL d   1       5.577   2.154   0.077  0.00  0.00     0.273 C 
BRANCH  16  17
ATOM     17  N   UNL d   1       7.039   2.018   0.200  0.00  0.00     0.080 N 
ATOM     18  C   UNL d   1       7.635   1.313  -0.935  0.00  0.00     0.309 C 
ATOM     19  C   UNL d   1       7.646   3.350   0.318  0.00  0.00     0.309 C 
ENDBRANCH  16  17
ENDBRANCH  15  16
ENDBRANCH  14  15
ENDBRANCH   4  14
TORSDOF 5
