REMARK  6 active torsions:
REMARK  status: ('A' for Active; 'I' for Inactive)
REMARK    1  A    between atoms: C_10  and  C_1 
REMARK    2  A    between atoms: C_6  and  C_2 
REMARK    3  A    between atoms: C_9  and  C_5 
REMARK    4  A    between atoms: N_16  and  C_9 
REMARK    5  A    between atoms: O_17  and  C_10 
REMARK    6  A    between atoms: C_19  and  O_17 
ROOT
ATOM      1  C   UNL d   1       0.187  -1.300  -0.016  0.00  0.00     0.072 A 
ATOM      2  C   UNL d   1       0.942  -0.134  -0.004  0.00  0.00     0.133 A 
ATOM      3  N   UNL d   1       0.313   1.087   0.020  0.00  0.00    -0.354 N 
ATOM      4  HN  UNL d   1       0.878   1.936   0.042  1.00  0.00     0.166 HD
ATOM      5  C   UNL d   1      -1.866   0.069  -0.033  0.00  0.00     0.025 A 
ATOM      6  C   UNL d   1      -1.217  -1.179  -0.041  0.00  0.00     0.036 A 
ATOM      7  C   UNL d   1      -1.048   1.196   0.014  0.00  0.00     0.019 A 
ATOM      8  C   UNL d   1      -1.494   2.625   0.075  0.00  0.00     0.069 C 
ENDROOT
BRANCH   1   9
ATOM      9  C   UNL d   1       0.763  -2.661   0.056  0.00  0.00     0.295 C 
ATOM     10  O   UNL d   1       1.748  -2.960   0.714  0.00  0.00    -0.259 OA
BRANCH   9  11
ATOM     11  O   UNL d   1      -0.019  -3.512  -0.651  0.00  0.00    -0.318 OA
BRANCH  11  12
ATOM     12  C   UNL d   1       0.364  -4.898  -0.667  0.00  0.00     0.174 C 
ATOM     13  C   UNL d   1      -0.021  -5.601   0.621  0.00  0.00     0.034 C 
ENDBRANCH  11  12
ENDBRANCH   9  11
ENDBRANCH   1   9
BRANCH   2  14
ATOM     14  C   UNL d   1       2.459  -0.063  -0.081  0.00  0.00     0.433 C 
ATOM     15  F   UNL d   1       3.133  -1.234  -0.205  0.00  0.00    -0.165 F 
ATOM     16  F   UNL d   1       2.866   0.669  -1.166  0.00  0.00    -0.165 F 
ATOM     17  F   UNL d   1       3.005   0.569   1.000  0.00  0.00    -0.165 F 
ENDBRANCH   2  14
BRANCH   5  18
ATOM     18  C   UNL d   1      -3.360   0.054  -0.094  0.00  0.00     0.106 C 
ATOM     19  S   UNL d   1      -4.331   1.067  -1.000  0.00  0.00    -0.060 SA
BRANCH  18  20
ATOM     20  N   UNL d   1      -3.997  -0.949   0.601  0.00  0.00    -0.389 N 
ATOM     21  H   UNL d   1      -3.540  -1.646   1.176  0.00  0.00     0.157 HD
ATOM     22  H   UNL d   1      -5.009  -1.005   0.540  0.00  0.00     0.157 HD
ENDBRANCH  18  20
ENDBRANCH   5  18
TORSDOF 6
