REMARK  5 active torsions:
REMARK  status: ('A' for Active; 'I' for Inactive)
REMARK    1  A    between atoms: C_16  and  C_3 
REMARK    2  A    between atoms: C_15  and  C_4 
REMARK    3  A    between atoms: C_6  and  N_9 
REMARK    4  A    between atoms: N_18  and  C_7 
REMARK    5  A    between atoms: C_17  and  C_21 
ROOT
ATOM      1  C   UNL d   1      -1.526  -8.866  -0.916  0.00  0.00     0.151 C 
ATOM      2  C   UNL d   1      -1.630  -9.571  -2.072  0.00  0.00     0.145 C 
ATOM      3  C   UNL d   1      -1.719  -9.534   0.343  0.00  0.00     0.120 C 
ATOM      4  C   UNL d   1      -1.847 -10.992  -2.077  0.00  0.00     0.120 C 
ATOM      5  N   UNL d   1      -1.863 -10.037   1.381  0.00  0.00    -0.190 NA
ATOM      6  N   UNL d   1      -2.002 -12.145  -2.110  0.00  0.00    -0.190 NA
ENDROOT
BRANCH   1   7
ATOM      7  N   UNL d   1      -1.342  -7.486  -0.984  0.00  0.00    -0.354 N 
ATOM      8  C   UNL d   1      -0.714  -6.894  -0.014  0.00  0.00     0.100 C 
ATOM      9  HN  UNL d   1      -1.693  -6.952  -1.778  1.00  0.00     0.166 HD
BRANCH   8  10
ATOM     10  C   UNL d   1      -0.502  -5.427  -0.015  0.00  0.00    -0.021 A 
ATOM     11  C   UNL d   1      -1.015  -4.646  -1.050  0.00  0.00     0.013 A 
ATOM     12  C   UNL d   1      -0.774  -3.269  -1.072  0.00  0.00     0.015 A 
ATOM     13  C   UNL d   1      -0.047  -2.642  -0.047  0.00  0.00    -0.002 A 
ATOM     14  C   UNL d   1       0.464  -3.443   0.988  0.00  0.00     0.015 A 
ATOM     15  C   UNL d   1       0.235  -4.828   1.011  0.00  0.00     0.013 A 
BRANCH  13  16
ATOM     16  C   UNL d   1       0.183  -1.186  -0.038  0.00  0.00     0.084 A 
ATOM     17  N   UNL d   1       1.238  -0.588   0.487  0.00  0.00    -0.352 N 
ATOM     18  C   UNL d   1       1.161   0.793   0.324  0.00  0.00     0.024 A 
ATOM     19  HN  UNL d   1       2.006  -1.073   0.951  1.00  0.00     0.166 HD
ATOM     20  C   UNL d   1       0.005   1.221  -0.297  0.00  0.00     0.077 A 
ATOM     21  S   UNL d   1      -0.986  -0.105  -0.702  0.00  0.00    -0.081 SA
BRANCH  18  22
ATOM     22  C   UNL d   1       2.303   1.676   0.807  0.00  0.00    -0.008 C 
ATOM     23  C   UNL d   1       3.428   0.838   1.447  0.00  0.00     0.021 C 
ATOM     24  C   UNL d   1       2.898   2.461  -0.380  0.00  0.00     0.021 C 
ATOM     25  C   UNL d   1       1.793   2.682   1.859  0.00  0.00     0.021 C 
ENDBRANCH  18  22
ENDBRANCH  13  16
ENDBRANCH   8  10
ENDBRANCH   1   7
BRANCH   2  26
ATOM     26  N   UNL d   1      -1.571  -9.004  -3.342  0.00  0.00    -0.388 N 
ATOM     27  H   UNL d   1      -1.182  -8.062  -3.356  0.00  0.00     0.157 HD
ATOM     28  H   UNL d   1      -1.327  -9.613  -4.119  0.00  0.00     0.157 HD
ENDBRANCH   2  26
TORSDOF 5
