REMARK  4 active torsions:
REMARK  status: ('A' for Active; 'I' for Inactive)
REMARK       I    between atoms: N_2  and  C_1 
REMARK    1  A    between atoms: C_5  and  C_1 
REMARK    2  A    between atoms: C_6  and  N_2 
REMARK    3  A    between atoms: C_3  and  C_4 
REMARK    4  A    between atoms: O_10  and  C_3 
ROOT
ATOM      1  C   UNL d   1       2.957  -3.533  -1.510  0.00  0.00     0.041 A 
ATOM      2  C   UNL d   1       1.065  -2.006  -1.329  0.00  0.00     0.035 A 
ATOM      3  C   UNL d   1       2.291  -2.486  -0.863  0.00  0.00     0.047 A 
ATOM      4  C   UNL d   1       2.363  -4.138  -2.622  0.00  0.00     0.018 A 
ATOM      5  C   UNL d   1       1.111  -3.704  -3.063  0.00  0.00     0.003 A 
ATOM      6  C   UNL d   1       0.459  -2.648  -2.413  0.00  0.00     0.029 A 
ENDROOT
BRANCH   2   7
ATOM      7  N   UNL d   1       0.419  -0.892  -0.740  0.00  0.00    -0.327 N 
ATOM      8  C   UNL d   1       1.042   0.048   0.069  0.00  0.00     0.229 C 
ATOM      9  O   UNL d   1       2.254   0.086   0.279  0.00  0.00    -0.272 OA
ATOM     10  H   UNL d   1      -0.523  -0.697  -1.055  0.00  0.00     0.169 HD
BRANCH   8  11
ATOM     11  C   UNL d   1       0.117   1.113   0.687  0.00  0.00     0.030 C 
ATOM     12  C   UNL d   1      -0.973   0.445   1.533  0.00  0.00     0.025 C 
ATOM     13  C   UNL d   1       0.966   2.018   1.603  0.00  0.00     0.025 C 
ATOM     14  C   UNL d   1      -0.511   1.977  -0.413  0.00  0.00     0.025 C 
ENDBRANCH   8  11
ENDBRANCH   2   7
BRANCH   1  15
ATOM     15  C   UNL d   1       4.293  -3.999  -1.049  0.00  0.00     0.293 C 
ATOM     16  O   UNL d   1       4.920  -4.898  -1.587  0.00  0.00    -0.259 OA
BRANCH  15  17
ATOM     17  O   UNL d   1       4.697  -3.277   0.025  0.00  0.00    -0.323 OA
ATOM     18  C   UNL d   1       6.000  -3.589   0.514  0.00  0.00     0.213 C 
ENDBRANCH  15  17
ENDBRANCH   1  15
TORSDOF 4
