REMARK  7 active torsions:
REMARK  status: ('A' for Active; 'I' for Inactive)
REMARK       I    between atoms: N_6  and  C_1 
REMARK    1  A    between atoms: C_14  and  C_1 
REMARK    2  A    between atoms: C_4  and  O_15 
REMARK    3  A    between atoms: N_10  and  N_6 
REMARK    4  A    between atoms: S_13  and  C_14 
REMARK    5  A    between atoms: C_16  and  S_13 
REMARK    6  A    between atoms: O_15  and  C_17 
REMARK    7  A    between atoms: C_17  and  C_16 
ROOT
ATOM      1  C   UNL d   1       4.807  -0.872   1.647  0.00  0.00     0.101 C 
ENDROOT
BRANCH   1   2
ATOM      2  S   UNL d   1       2.991  -0.713   1.833  0.00  0.00    -0.158 SA
BRANCH   2   3
ATOM      3  C   UNL d   1       2.615   0.282   0.360  0.00  0.00     0.177 C 
BRANCH   3   4
ATOM      4  C   UNL d   1       3.236   1.657   0.471  0.00  0.00     0.240 C 
ATOM      5  O   UNL d   1       4.335   1.933  -0.013  0.00  0.00    -0.271 OA
ATOM      6  N   UNL d   1       2.475   2.568   1.193  0.00  0.00    -0.293 N 
ATOM      7  H   UNL d   1       1.578   2.300   1.596  0.00  0.00     0.183 HD
BRANCH   6   8
ATOM      8  N   UNL d   1       2.952   3.881   1.380  0.00  0.00    -0.247 NA
ATOM      9  H   UNL d   1       3.690   4.034   0.677  0.00  0.00     0.143 HD
ATOM     10  H   UNL d   1       3.460   3.906   2.269  0.00  0.00     0.143 HD
ENDBRANCH   6   8
ENDBRANCH   3   4
ENDBRANCH   2   3
ENDBRANCH   1   2
BRANCH   1  11
ATOM     11  C   UNL d   1       5.311  -1.947   2.613  0.00  0.00     0.186 C 
BRANCH  11  12
ATOM     12  O   UNL d   1       6.727  -2.080   2.487  0.00  0.00    -0.349 OA
BRANCH  12  13
ATOM     13  C   UNL d   1       7.398  -2.829   3.421  0.00  0.00     0.090 A 
ATOM     14  C   UNL d   1       6.947  -3.908   4.200  0.00  0.00     0.069 A 
ATOM     15  C   UNL d   1       7.828  -4.563   5.074  0.00  0.00     0.050 A 
ATOM     16 CL   UNL d   1       5.355  -4.583   4.155  0.00  0.00    -0.081 Cl
ATOM     17  C   UNL d   1       9.155  -4.161   5.172  0.00  0.00     0.035 A 
ATOM     18  C   UNL d   1       9.621  -3.101   4.405  0.00  0.00     0.026 A 
ATOM     19 CL   UNL d   1      10.223  -4.991   6.234  0.00  0.00    -0.084 Cl
ATOM     20  C   UNL d   1       8.747  -2.445   3.534  0.00  0.00     0.040 A 
ENDBRANCH  12  13
ENDBRANCH  11  12
ENDBRANCH   1  11
TORSDOF 7
