REMARK  5 active torsions:
REMARK  status: ('A' for Active; 'I' for Inactive)
REMARK    1  A    between atoms: C_7  and  C_1 
REMARK    2  A    between atoms: C_8  and  C_2 
REMARK    3  A    between atoms: O_13  and  C_6 
REMARK    4  A    between atoms: O_17  and  C_8 
REMARK    5  A    between atoms: C_19  and  O_17 
ROOT
ATOM      1  C   UNL d   1       0.747  -1.154  -0.078  0.00  0.00     0.089 A 
ATOM      2  C   UNL d   1      -0.155   1.117  -0.047  0.00  0.00     0.133 A 
ATOM      3  N   UNL d   1      -0.570  -1.183  -0.018  0.00  0.00    -0.329 N 
ATOM      4  HN  UNL d   1      -1.133  -2.032   0.026  1.00  0.00     0.168 HD
ATOM      5  S   UNL d   1       1.415   0.433  -0.184  0.00  0.00    -0.061 SA
ATOM      6  C   UNL d   1      -1.073   0.091  -0.025  0.00  0.00     0.164 A 
ENDROOT
BRANCH   1   7
ATOM      7  C   UNL d   1       1.623  -2.342  -0.050  0.00  0.00     0.020 A 
ATOM      8  C   UNL d   1       1.257  -3.564  -0.652  0.00  0.00     0.048 A 
ATOM      9  C   UNL d   1       2.106  -4.678  -0.594  0.00  0.00     0.048 A 
ATOM     10 CL   UNL d   1      -0.220  -3.782  -1.533  0.00  0.00    -0.083 Cl
ATOM     11  C   UNL d   1       3.329  -4.589   0.061  0.00  0.00     0.035 A 
ATOM     12  C   UNL d   1       3.713  -3.401   0.670  0.00  0.00     0.025 A 
ATOM     13 CL   UNL d   1       4.374  -5.953   0.113  0.00  0.00    -0.084 Cl
ATOM     14  C   UNL d   1       2.863  -2.292   0.622  0.00  0.00     0.017 A 
ENDBRANCH   1   7
BRANCH   6  15
ATOM     15  O   UNL d   1      -2.397   0.279   0.032  0.00  0.00    -0.345 OA
ATOM     16  H   UNL d   1      -2.796  -0.610   0.028  0.00  0.00     0.219 HD
ENDBRANCH   6  15
BRANCH   2  17
ATOM     17  C   UNL d   1      -0.296   2.546   0.067  0.00  0.00     0.304 C 
ATOM     18  O   UNL d   1       0.627   3.353   0.136  0.00  0.00    -0.259 OA
BRANCH  17  19
ATOM     19  O   UNL d   1      -1.609   2.886   0.194  0.00  0.00    -0.317 OA
BRANCH  19  20
ATOM     20  C   UNL d   1      -1.876   4.181   0.748  0.00  0.00     0.174 C 
ATOM     21  C   UNL d   1      -1.926   4.045   2.258  0.00  0.00     0.034 C 
ENDBRANCH  19  20
ENDBRANCH  17  19
ENDBRANCH   2  17
TORSDOF 5
