REMARK  5 active torsions:
REMARK  status: ('A' for Active; 'I' for Inactive)
REMARK    1  A    between atoms: O_7  and  S_1 
REMARK    2  A    between atoms: C_11  and  S_1 
REMARK    3  A    between atoms: C_2  and  O_7 
REMARK    4  A    between atoms: C_9  and  C_3 
REMARK    5  A    between atoms: C_10  and  C_14 
ROOT
ATOM      1  S   UNL d   1       1.099  -0.024   0.000  0.00  0.00     0.304 S 
ATOM      2  O   UNL d   1       0.415  -0.289  -1.250  0.00  0.00    -0.193 OA
ATOM      3  O   UNL d   1       2.546   0.099   0.042  0.00  0.00    -0.193 OA
ENDROOT
BRANCH   1   4
ATOM      4  O   UNL d   1       0.649  -1.159   1.101  0.00  0.00    -0.209 OA
BRANCH   4   5
ATOM      5  C   UNL d   1       0.965  -2.447   0.910  0.00  0.00     0.179 A 
ATOM      6  C   UNL d   1       1.669  -3.103  -0.079  0.00  0.00     0.094 A 
ATOM      7  C   UNL d   1       1.658  -4.478   0.268  0.00  0.00     0.136 A 
ATOM      8  N   UNL d   1       0.990  -4.666   1.422  0.00  0.00    -0.293 N 
ATOM      9  N   UNL d   1       0.579  -3.433   1.782  0.00  0.00    -0.274 N 
ATOM     10  HN  UNL d   1       0.830  -5.545   1.915  1.00  0.00     0.187 HD
ATOM     11  C   UNL d   1      -0.196  -3.282   2.991  0.00  0.00     0.180 C 
BRANCH   7  12
ATOM     12  C   UNL d   1       2.286  -5.600  -0.515  0.00  0.00     0.434 C 
ATOM     13  F   UNL d   1       2.902  -5.145  -1.643  0.00  0.00    -0.165 F 
ATOM     14  F   UNL d   1       3.236  -6.266   0.195  0.00  0.00    -0.165 F 
ATOM     15  F   UNL d   1       1.375  -6.522  -0.926  0.00  0.00    -0.165 F 
ENDBRANCH   7  12
ENDBRANCH   4   5
ENDBRANCH   1   4
BRANCH   1  16
ATOM     16  C   UNL d   1       0.426   1.509   0.609  0.00  0.00     0.086 A 
ATOM     17  C   UNL d   1       1.274   2.590   0.872  0.00  0.00     0.026 A 
ATOM     18  C   UNL d   1       0.731   3.824   1.232  0.00  0.00     0.018 A 
ATOM     19  C   UNL d   1      -0.661   3.990   1.331  0.00  0.00     0.048 A 
ATOM     20  C   UNL d   1      -1.498   2.890   1.071  0.00  0.00     0.018 A 
ATOM     21  C   UNL d   1      -0.961   1.653   0.708  0.00  0.00     0.026 A 
BRANCH  19  22
ATOM     22  C   UNL d   1      -1.265   5.329   1.688  0.00  0.00     0.417 C 
ATOM     23  F   UNL d   1      -0.341   6.303   1.912  0.00  0.00    -0.166 F 
ATOM     24  F   UNL d   1      -2.083   5.807   0.709  0.00  0.00    -0.166 F 
ATOM     25  F   UNL d   1      -2.026   5.269   2.815  0.00  0.00    -0.166 F 
ENDBRANCH  19  22
ENDBRANCH   1  16
TORSDOF 5
