REMARK  5 active torsions:
REMARK  status: ('A' for Active; 'I' for Inactive)
REMARK    1  A    between atoms: N_2  and  S_1 
REMARK    2  A    between atoms: C_5  and  S_1 
REMARK    3  A    between atoms: S_4  and  N_2 
REMARK    4  A    between atoms: C_7  and  S_4 
REMARK    5  A    between atoms: C_6  and  C_8 
ROOT
ATOM      1  S   UNL d   1       0.815  -1.747   2.148  0.00  0.00     0.077 S 
ATOM      2  O   UNL d   1       2.243  -1.875   2.325  0.00  0.00    -0.243 OA
ATOM      3  C   UNL d   1      -0.006  -1.609   3.707  0.00  0.00     0.144 C 
ENDROOT
BRANCH   1   4
ATOM      4  N   UNL d   1       0.355  -0.398   1.295  0.00  0.00    -0.235 N 
ATOM      5  HN  UNL d   1      -0.370   0.217   1.665  1.00  0.00     0.189 HD
BRANCH   4   6
ATOM      6  S   UNL d   1       1.087  -0.046  -0.181  0.00  0.00     0.271 S 
ATOM      7  O   UNL d   1       1.198  -1.272  -0.953  0.00  0.00    -0.200 OA
ATOM      8  O   UNL d   1       2.244   0.807   0.010  0.00  0.00    -0.200 OA
BRANCH   6   9
ATOM      9  C   UNL d   1      -0.142   0.949  -0.993  0.00  0.00     0.102 A 
ATOM     10  C   UNL d   1      -0.589   2.155  -0.448  0.00  0.00     0.057 A 
ATOM     11 CL   UNL d   1      -0.125   2.746   1.105  0.00  0.00    -0.083 Cl
ATOM     12  C   UNL d   1      -1.479   2.950  -1.183  0.00  0.00     0.025 A 
ATOM     13  C   UNL d   1      -1.920   2.546  -2.445  0.00  0.00     0.002 A 
ATOM     14  C   UNL d   1      -1.489   1.334  -2.977  0.00  0.00     0.002 A 
ATOM     15  C   UNL d   1      -0.602   0.535  -2.255  0.00  0.00     0.027 A 
ENDBRANCH   6   9
ENDBRANCH   4   6
ENDBRANCH   1   4
BRANCH   1  16
ATOM     16  C   UNL d   1       0.118  -3.119   1.332  0.00  0.00     0.107 A 
ATOM     17  N   UNL d   1      -1.232  -3.051   1.271  0.00  0.00    -0.357 N 
ATOM     18  C   UNL d   1      -1.851  -4.140   0.763  0.00  0.00     0.105 A 
ATOM     19  HN  UNL d   1      -1.749  -2.231   1.587  1.00  0.00     0.166 HD
ATOM     20  C   UNL d   1      -1.186  -5.281   0.332  0.00  0.00     0.063 A 
ATOM     21  C   UNL d   1       0.216  -5.285   0.394  0.00  0.00     0.020 A 
ATOM     22  C   UNL d   1       0.891  -4.180   0.903  0.00  0.00     0.041 A 
BRANCH  20  23
ATOM     23  C   UNL d   1      -1.953  -6.474  -0.151  0.00  0.00     0.418 C 
ATOM     24  F   UNL d   1      -3.303  -6.292  -0.140  0.00  0.00    -0.166 F 
ATOM     25  F   UNL d   1      -1.634  -6.823  -1.426  0.00  0.00    -0.166 F 
ATOM     26  F   UNL d   1      -1.723  -7.579   0.610  0.00  0.00    -0.166 F 
ENDBRANCH  20  23
ENDBRANCH   1  16
TORSDOF 5
