REMARK  6 active torsions:
REMARK  status: ('A' for Active; 'I' for Inactive)
REMARK    1  A    between atoms: C_4  and  C_1 
REMARK       I    between atoms: N_11  and  C_4 
REMARK    2  A    between atoms: O_15  and  C_7 
REMARK    3  A    between atoms: O_16  and  C_8 
REMARK    4  A    between atoms: C_17  and  N_11 
REMARK    5  A    between atoms: C_13  and  C_20 
REMARK    6  A    between atoms: C_20  and  C_17 
ROOT
ATOM      1  C   UNL d   1       3.506  -1.429  -0.048  0.00  0.00     0.258 C 
ATOM      2  O   UNL d   1       3.739  -2.635   0.003  0.00  0.00    -0.267 OA
ATOM      3  N   UNL d   1       4.542  -0.513  -0.084  0.00  0.00    -0.356 N 
ATOM      4  H   UNL d   1       4.326   0.476  -0.122  0.00  0.00     0.162 HD
ENDROOT
BRANCH   3   5
ATOM      5  C   UNL d   1       5.910  -0.991  -0.069  0.00  0.00     0.127 C 
BRANCH   5   6
ATOM      6  C   UNL d   1       6.970   0.113  -0.080  0.00  0.00     0.058 C 
BRANCH   6   7
ATOM      7  C   UNL d   1       8.373  -0.456  -0.056  0.00  0.00    -0.054 A 
ATOM      8  C   UNL d   1       8.797  -1.254   1.022  0.00  0.00     0.046 A 
ATOM      9  C   UNL d   1      10.088  -1.804   1.077  0.00  0.00     0.102 A 
ATOM     10  C   UNL d   1      10.970  -1.560   0.013  0.00  0.00     0.101 A 
ATOM     11  C   UNL d   1      10.563  -0.737  -1.046  0.00  0.00     0.040 A 
ATOM     12  C   UNL d   1       9.277  -0.191  -1.085  0.00  0.00     0.010 A 
BRANCH   9  13
ATOM     13  O   UNL d   1      10.543  -2.540   2.138  0.00  0.00    -0.353 OA
ATOM     14  C   UNL d   1       9.655  -2.767   3.224  0.00  0.00     0.210 C 
ENDBRANCH   9  13
BRANCH  10  15
ATOM     15  O   UNL d   1      12.266  -1.997  -0.105  0.00  0.00    -0.353 OA
ATOM     16  C   UNL d   1      12.559  -3.278   0.443  0.00  0.00     0.210 C 
ENDBRANCH  10  15
ENDBRANCH   6   7
ENDBRANCH   5   6
ENDBRANCH   3   5
BRANCH   1  17
ATOM     17  C   UNL d   1       2.149  -0.909  -0.072  0.00  0.00     0.074 A 
ATOM     18  S   UNL d   1       1.776   0.755  -0.109  0.00  0.00    -0.084 SA
ATOM     19  C   UNL d   1       0.074   0.463  -0.123  0.00  0.00     0.016 A 
ATOM     20  C   UNL d   1      -0.959   1.420  -0.155  0.00  0.00     0.019 A 
ATOM     21  C   UNL d   1      -0.207  -0.904  -0.098  0.00  0.00    -0.018 A 
ATOM     22  C   UNL d   1      -2.287   0.984  -0.165  0.00  0.00     0.001 A 
ATOM     23  C   UNL d   1      -2.587  -0.372  -0.141  0.00  0.00     0.001 A 
ATOM     24  C   UNL d   1      -1.559  -1.317  -0.107  0.00  0.00     0.013 A 
ATOM     25  C   UNL d   1       1.000  -1.675  -0.067  0.00  0.00     0.037 A 
ENDBRANCH   1  17
TORSDOF 6
