REMARK  6 active torsions:
REMARK  status: ('A' for Active; 'I' for Inactive)
REMARK    1  A    between atoms: C_16  and  N_1 
REMARK    2  A    between atoms: S_15  and  C_2 
REMARK    3  A    between atoms: O_19  and  C_3 
REMARK    4  A    between atoms: C_17  and  C_10 
REMARK    5  A    between atoms: C_14  and  C_18 
REMARK    6  A    between atoms: C_18  and  S_15 
ROOT
ATOM      1  N   UNL d   1       0.023  -1.411  -0.043  0.00  0.00    -0.286 N 
ATOM      2  C   UNL d   1       1.232  -0.778  -0.175  0.00  0.00     0.165 A 
ATOM      3  C   UNL d   1      -0.884  -0.381   0.107  0.00  0.00     0.240 A 
ATOM      4  N   UNL d   1       1.075   0.519  -0.030  0.00  0.00    -0.277 N 
ATOM      5  HN  UNL d   1       1.818   1.219  -0.055  1.00  0.00     0.189 HD
ATOM      6  N   UNL d   1      -0.257   0.768   0.159  0.00  0.00    -0.263 N 
ATOM      7  HN  UNL d   1      -0.684   1.682   0.314  1.00  0.00     0.190 HD
ENDROOT
BRANCH   2   8
ATOM      8  S   UNL d   1       2.746  -1.529  -0.530  0.00  0.00    -0.084 SA
BRANCH   8   9
ATOM      9  C   UNL d   1       3.843  -0.069  -0.435  0.00  0.00     0.168 C 
BRANCH   9  10
ATOM     10  C   UNL d   1       5.260  -0.402  -0.725  0.00  0.00     0.150 A 
ATOM     11  O   UNL d   1       5.976   0.519  -1.451  0.00  0.00    -0.277 OA
ATOM     12  C   UNL d   1       7.210  -0.077  -1.528  0.00  0.00     0.174 A 
ATOM     13  N   UNL d   1       7.246  -1.236  -0.900  0.00  0.00    -0.277 N 
ATOM     14  N   UNL d   1       5.989  -1.439  -0.367  0.00  0.00    -0.281 N 
ATOM     15  HN  UNL d   1       8.048  -1.861  -0.823  1.00  0.00     0.189 HD
ATOM     16  HN  UNL d   1       5.685  -2.235   0.194  1.00  0.00     0.189 HD
BRANCH  12  17
ATOM     17  C   UNL d   1       8.241   0.606  -2.300  0.00  0.00     0.017 A 
ATOM     18  C   UNL d   1       8.075   1.920  -2.765  0.00  0.00     0.016 A 
ATOM     19  C   UNL d   1       9.066   2.537  -3.534  0.00  0.00     0.001 A 
ATOM     20  C   UNL d   1      10.238   1.850  -3.846  0.00  0.00     0.000 A 
ATOM     21  C   UNL d   1      10.425   0.550  -3.381  0.00  0.00     0.001 A 
ATOM     22  C   UNL d   1       9.435  -0.065  -2.609  0.00  0.00     0.016 A 
ENDBRANCH  12  17
ENDBRANCH   9  10
ENDBRANCH   8   9
ENDBRANCH   2   8
BRANCH   1  23
ATOM     23  C   UNL d   1      -0.334  -2.818  -0.036  0.00  0.00     0.095 C 
ATOM     24  C   UNL d   1      -0.533  -3.388  -1.446  0.00  0.00     0.026 C 
ATOM     25  C   UNL d   1      -1.218  -4.753  -1.367  0.00  0.00     0.002 C 
ATOM     26  C   UNL d   1      -0.468  -5.726  -0.459  0.00  0.00     0.000 C 
ATOM     27  C   UNL d   1      -0.147  -5.133   0.915  0.00  0.00     0.002 C 
ATOM     28  C   UNL d   1       0.534  -3.765   0.807  0.00  0.00     0.026 C 
ENDBRANCH   1  23
BRANCH   3  29
ATOM     29  O   UNL d   1      -2.201  -0.482   0.188  0.00  0.00    -0.331 OA
ATOM     30  H   UNL d   1      -2.488  -1.329  -0.181  0.00  0.00     0.221 HD
ENDBRANCH   3  29
TORSDOF 6
