REMARK  7 active torsions:
REMARK  status: ('A' for Active; 'I' for Inactive)
REMARK    1  A    between atoms: C_5  and  C_1 
REMARK    2  A    between atoms: N_6  and  C_2 
REMARK    3  A    between atoms: C_3  and  C_11 
REMARK       I    between atoms: C_4  and  N_7 
REMARK       I    between atoms: N_9  and  C_4 
REMARK    4  A    between atoms: O_22  and  C_5 
REMARK    5  A    between atoms: N_7  and  C_12 
REMARK    6  A    between atoms: C_20  and  N_9 
REMARK    7  A    between atoms: C_27  and  O_22 
ROOT
ATOM      1  C   UNL d   1       1.676  -0.257   0.053  0.00  0.00     0.068 C 
ATOM      2  C   UNL d   1       0.861  -1.342  -0.315  0.00  0.00     0.046 C 
ATOM      3  C   UNL d   1       1.132   1.036   0.113  0.00  0.00     0.049 C 
ATOM      4  C   UNL d   1      -0.410  -1.046  -0.845  0.00  0.00     0.032 C 
ATOM      5  C   UNL d   1      -0.209   1.266  -0.192  0.00  0.00     0.037 C 
ATOM      6  C   UNL d   1      -0.942   0.246  -0.791  0.00  0.00     0.032 C 
ENDROOT
BRANCH   5   7
ATOM      7  N   UNL d   1      -0.884   2.463   0.145  0.00  0.00    -0.309 N 
ATOM      8  C   UNL d   1      -0.467   3.333   1.147  0.00  0.00     0.325 C 
ATOM      9  N   UNL d   1      -1.368   4.364   1.341  0.00  0.00    -0.309 N 
ATOM     10  O   UNL d   1       0.572   3.197   1.787  0.00  0.00    -0.247 OA
ATOM     11  H   UNL d   1      -2.248   4.308   0.854  0.00  0.00     0.170 HD
ATOM     12  H   UNL d   1      -1.848   2.526  -0.138  0.00  0.00     0.170 HD
BRANCH   9  13
ATOM     13  C   UNL d   1      -1.157   5.518   2.130  0.00  0.00     0.036 A 
ATOM     14  C   UNL d   1       0.037   5.790   2.801  0.00  0.00     0.030 A 
ATOM     15  C   UNL d   1       0.243   7.019   3.431  0.00  0.00     0.018 A 
ATOM     16  C   UNL d   1      -0.749   8.005   3.410  0.00  0.00     0.048 A 
ATOM     17  C   UNL d   1      -1.980   7.703   2.811  0.00  0.00     0.018 A 
ATOM     18  C   UNL d   1      -2.182   6.470   2.178  0.00  0.00     0.030 A 
BRANCH  16  19
ATOM     19  C   UNL d   1      -0.454   9.365   3.985  0.00  0.00     0.417 C 
ATOM     20  F   UNL d   1      -1.488  10.243   3.867  0.00  0.00    -0.166 F 
ATOM     21  F   UNL d   1      -0.141   9.325   5.308  0.00  0.00    -0.166 F 
ATOM     22  F   UNL d   1       0.609   9.962   3.369  0.00  0.00    -0.166 F 
ENDBRANCH  16  19
ENDBRANCH   9  13
ENDBRANCH   5   7
BRANCH   1  23
ATOM     23  C   UNL d   1       3.125  -0.417   0.351  0.00  0.00     0.295 C 
ATOM     24  O   UNL d   1       3.874  -1.183  -0.234  0.00  0.00    -0.259 OA
BRANCH  23  25
ATOM     25  O   UNL d   1       3.475   0.425   1.355  0.00  0.00    -0.318 OA
BRANCH  25  26
ATOM     26  C   UNL d   1       4.858   0.426   1.737  0.00  0.00     0.174 C 
ATOM     27  C   UNL d   1       5.681   1.278   0.787  0.00  0.00     0.034 C 
ENDBRANCH  25  26
ENDBRANCH  23  25
ENDBRANCH   1  23
BRANCH   2  28
ATOM     28  N   UNL d   1       1.103  -2.691  -0.032  0.00  0.00    -0.380 N 
ATOM     29  C   UNL d   1       1.665  -2.992   1.291  0.00  0.00     0.123 C 
ATOM     30  C   UNL d   1       1.316  -4.434   1.652  0.00  0.00     0.020 C 
ATOM     31  C   UNL d   1       1.818  -5.390   0.574  0.00  0.00     0.003 C 
ATOM     32  C   UNL d   1       1.304  -4.984  -0.810  0.00  0.00     0.020 C 
ATOM     33  C   UNL d   1       1.612  -3.515  -1.127  0.00  0.00     0.123 C 
ENDBRANCH   2  28
TORSDOF 7
