REMARK  2 active torsions:
REMARK  status: ('A' for Active; 'I' for Inactive)
REMARK    1  A    between atoms: S_8  and  C_1 
REMARK    2  A    between atoms: C_7  and  C_4 
ROOT
ATOM      1  C   UNL d   1       0.552  -0.702  -0.778  0.00  0.00     0.184 A 
ATOM      2  N   UNL d   1      -0.028  -1.124   0.326  0.00  0.00    -0.338 N 
ATOM      3  HN  UNL d   1      -0.027  -2.066   0.717  1.00  0.00     0.168 HD
ATOM      4  C   UNL d   1      -0.401   1.080   0.004  0.00  0.00     0.104 A 
ATOM      5  O   UNL d   1       0.368   0.628  -1.036  0.00  0.00    -0.286 OA
ATOM      6  C   UNL d   1      -0.634  -0.000   0.828  0.00  0.00     0.129 A 
ENDROOT
BRANCH   4   7
ATOM      7  C   UNL d   1      -0.776   2.488  -0.001  0.00  0.00    -0.001 A 
ATOM      8  C   UNL d   1      -0.362   3.350  -1.030  0.00  0.00     0.016 A 
ATOM      9  C   UNL d   1      -0.743   4.697  -1.036  0.00  0.00     0.024 A 
ATOM     10  C   UNL d   1      -1.540   5.195  -0.010  0.00  0.00     0.034 A 
ATOM     11  C   UNL d   1      -1.954   4.361   1.024  0.00  0.00     0.024 A 
ATOM     12 CL   UNL d   1      -2.021   6.846  -0.023  0.00  0.00    -0.084 Cl
ATOM     13  C   UNL d   1      -1.572   3.015   1.028  0.00  0.00     0.016 A 
ENDBRANCH   4   7
BRANCH   1  14
ATOM     14  S   UNL d   1       1.471  -1.745  -1.813  0.00  0.00    -0.099 SA
ATOM     15  H   UNL d   1       1.313  -2.845  -1.064  0.00  0.00     0.110 HD
ENDBRANCH   1  14
TORSDOF 2
