REMARK  4 active torsions:
REMARK  status: ('A' for Active; 'I' for Inactive)
REMARK    1  A    between atoms: C_2  and  C_1 
REMARK       I    between atoms: N_3  and  C_2 
REMARK       I    between atoms: C_4  and  N_3 
REMARK       I    between atoms: N_8  and  C_4 
REMARK    2  A    between atoms: O_19  and  C_5 
REMARK    3  A    between atoms: O_18  and  C_6 
REMARK    4  A    between atoms: C_7  and  N_8 
ROOT
ATOM      1  C   UNL d   1       0.325  -3.590  -0.775  0.00  0.00     0.265 C 
ATOM      2  N   UNL d   1       1.694  -3.780  -0.950  0.00  0.00    -0.275 N 
ATOM      3  C   UNL d   1       2.343  -4.578  -1.845  0.00  0.00     0.327 C 
ATOM      4  N   UNL d   1       1.988  -5.893  -1.922  0.00  0.00    -0.303 N 
ATOM      5  O   UNL d   1      -0.455  -4.535  -0.724  0.00  0.00    -0.267 OA
ATOM      6  O   UNL d   1       3.186  -4.027  -2.534  0.00  0.00    -0.247 OA
ATOM      7  H   UNL d   1       2.199  -2.907  -1.017  0.00  0.00     0.173 HD
ATOM      8  H   UNL d   1       1.001  -6.090  -1.758  0.00  0.00     0.171 HD
ENDROOT
BRANCH   1   9
ATOM      9  C   UNL d   1      -0.108  -2.124  -0.573  0.00  0.00     0.102 C 
ATOM     10  C   UNL d   1       0.862  -1.091  -0.453  0.00  0.00     0.108 C 
ATOM     11  C   UNL d   1       0.500   0.259  -0.522  0.00  0.00     0.070 C 
ATOM     12 CL   UNL d   1       1.681   1.521  -0.552  0.00  0.00    -0.081 Cl
ATOM     13  C   UNL d   1      -0.832   0.617  -0.649  0.00  0.00     0.053 C 
ATOM     14  C   UNL d   1      -1.814  -0.374  -0.689  0.00  0.00     0.070 C 
ATOM     15  C   UNL d   1      -1.479  -1.746  -0.600  0.00  0.00     0.108 C 
ATOM     16 CL   UNL d   1      -3.426   0.192  -0.996  0.00  0.00    -0.081 Cl
BRANCH  10  17
ATOM     17  O   UNL d   1       2.206  -1.396  -0.400  0.00  0.00    -0.353 OA
ATOM     18  C   UNL d   1       2.747  -1.282   0.922  0.00  0.00     0.210 C 
ENDBRANCH  10  17
BRANCH  15  19
ATOM     19  O   UNL d   1      -2.430  -2.732  -0.656  0.00  0.00    -0.353 OA
ATOM     20  C   UNL d   1      -3.511  -2.612   0.277  0.00  0.00     0.210 C 
ENDBRANCH  15  19
ENDBRANCH   1   9
BRANCH   4  21
ATOM     21  C   UNL d   1       2.729  -6.784  -2.745  0.00  0.00     0.114 A 
ATOM     22  C   UNL d   1       4.122  -6.702  -2.893  0.00  0.00     0.146 A 
ATOM     23  F   UNL d   1       4.860  -5.926  -2.083  0.00  0.00    -0.204 F 
ATOM     24  C   UNL d   1       4.803  -7.463  -3.846  0.00  0.00     0.045 A 
ATOM     25  C   UNL d   1       4.097  -8.359  -4.645  0.00  0.00     0.006 A 
ATOM     26  C   UNL d   1       2.726  -8.520  -4.447  0.00  0.00     0.045 A 
ATOM     27  C   UNL d   1       2.058  -7.748  -3.490  0.00  0.00     0.146 A 
ATOM     28  F   UNL d   1       0.733  -7.905  -3.346  0.00  0.00    -0.204 F 
ENDBRANCH   4  21
TORSDOF 4
