REMARK  2 active torsions:
REMARK  status: ('A' for Active; 'I' for Inactive)
REMARK    1  A    between atoms: C_2  and  N_1 
REMARK    2  A    between atoms: N_5  and  C_4 
ROOT
ATOM      1  C   UNL d   1      -0.233   3.121   1.054  0.00  0.00     0.125 A 
ATOM      2  C   UNL d   1      -1.238   2.792   1.980  0.00  0.00     0.067 A 
ATOM      3  C   UNL d   1      -1.342   1.494   2.496  0.00  0.00     0.032 A 
ATOM      4  C   UNL d   1       0.694   2.183   0.613  0.00  0.00     0.077 A 
ATOM      5  N   UNL d   1       2.600   2.718  -1.054  0.00  0.00    -0.191 NA
ATOM      6  C   UNL d   1       1.737   2.494  -0.312  0.00  0.00     0.102 C 
ATOM      7  C   UNL d   1      -0.392   0.560   2.050  0.00  0.00     0.031 A 
ATOM      8  C   UNL d   1       0.611   0.891   1.127  0.00  0.00     0.027 A 
ENDROOT
BRANCH   1   9
ATOM      9  N   UNL d   1      -0.193   4.484   0.570  0.00  0.00    -0.114 N 
ATOM     10  O   UNL d   1      -0.043   5.373   1.417  0.00  0.00    -0.532 OA
ATOM     11  O   UNL d   1      -0.349   4.653  -0.645  0.00  0.00    -0.532 OA
ENDBRANCH   1   9
BRANCH   3  12
ATOM     12  N   UNL d   1      -2.326   1.159   3.403  0.00  0.00    -0.379 N 
ATOM     13  C   UNL d   1      -2.134   0.111   4.419  0.00  0.00     0.133 C 
ATOM     14  C   UNL d   1      -2.307   0.684   5.831  0.00  0.00     0.093 C 
ATOM     15  S   UNL d   1      -3.968   1.390   6.102  0.00  0.00    -0.166 SA
ATOM     16  C   UNL d   1      -4.003   2.500   4.651  0.00  0.00     0.093 C 
ATOM     17  C   UNL d   1      -3.671   1.761   3.352  0.00  0.00     0.133 C 
ENDBRANCH   3  12
TORSDOF 2
