REMARK  9 active torsions:
REMARK  status: ('A' for Active; 'I' for Inactive)
REMARK    1  A    between atoms: C_8  and  C_2 
REMARK    2  A    between atoms: S_9  and  C_5 
REMARK    3  A    between atoms: C_12  and  S_9 
REMARK    4  A    between atoms: C_10  and  C_12 
REMARK    5  A    between atoms: C_11  and  C_10 
REMARK    6  A    between atoms: C_25  and  C_23 
REMARK    7  A    between atoms: C_26  and  C_25 
REMARK    8  A    between atoms: C_28  and  C_26 
REMARK    9  A    between atoms: C_27  and  C_28 
ROOT
ATOM      1  N   UNL d   1      -1.002  -0.067   0.364  0.00  0.00    -0.320 N 
ATOM      2  C   UNL d   1      -0.306   1.029  -0.079  0.00  0.00     0.132 A 
ATOM      3  N   UNL d   1       0.803   0.596  -0.659  0.00  0.00    -0.283 N 
ATOM      4  HN  UNL d   1       1.518   1.183  -1.088  1.00  0.00     0.188 HD
ATOM      5  C   UNL d   1      -0.266  -1.156   0.018  0.00  0.00     0.161 A 
ATOM      6  N   UNL d   1       0.833  -0.783  -0.586  0.00  0.00    -0.278 N 
ATOM      7  HN  UNL d   1       1.571  -1.394  -0.935  1.00  0.00     0.189 HD
ATOM      8  H   UNL d   1      -1.908  -0.079   0.809  0.00  0.00     0.169 HD
ENDROOT
BRANCH   2   9
ATOM      9  C   UNL d   1      -0.760   2.415   0.030  0.00  0.00     0.009 A 
ATOM     10  C   UNL d   1      -1.586   2.854   1.074  0.00  0.00     0.016 A 
ATOM     11  C   UNL d   1      -2.000   4.191   1.144  0.00  0.00     0.008 A 
ATOM     12  C   UNL d   1      -1.603   5.115   0.170  0.00  0.00    -0.058 A 
ATOM     13  C   UNL d   1      -0.767   4.681  -0.865  0.00  0.00     0.008 A 
ATOM     14  C   UNL d   1      -0.352   3.347  -0.932  0.00  0.00     0.016 A 
BRANCH  12  15
ATOM     15  C   UNL d   1      -2.054   6.555   0.248  0.00  0.00     0.038 C 
BRANCH  15  16
ATOM     16  C   UNL d   1      -2.844   7.040  -0.974  0.00  0.00     0.005 C 
BRANCH  16  17
ATOM     17  C   UNL d   1      -4.157   6.279  -1.183  0.00  0.00    -0.000 C 
BRANCH  17  18
ATOM     18  C   UNL d   1      -4.903   6.802  -2.411  0.00  0.00    -0.005 C 
ATOM     19  C   UNL d   1      -6.198   6.041  -2.645  0.00  0.00     0.005 C 
ENDBRANCH  17  18
ENDBRANCH  16  17
ENDBRANCH  15  16
ENDBRANCH  12  15
ENDBRANCH   2   9
BRANCH   5  20
ATOM     20  S   UNL d   1      -0.833  -2.741   0.353  0.00  0.00    -0.085 SA
BRANCH  20  21
ATOM     21  C   UNL d   1       0.548  -3.761  -0.267  0.00  0.00     0.166 C 
BRANCH  21  22
ATOM     22  C   UNL d   1       0.209  -5.246  -0.182  0.00  0.00     0.169 C 
ATOM     23  O   UNL d   1      -0.848  -5.678   0.279  0.00  0.00    -0.291 OA
BRANCH  22  24
ATOM     24  C   UNL d   1       1.205  -6.247  -0.687  0.00  0.00     0.011 A 
ATOM     25  C   UNL d   1       2.454  -5.888  -1.211  0.00  0.00     0.017 A 
ATOM     26  C   UNL d   1       3.327  -6.878  -1.684  0.00  0.00     0.025 A 
ATOM     27  C   UNL d   1       2.960  -8.223  -1.635  0.00  0.00     0.034 A 
ATOM     28  C   UNL d   1       1.728  -8.593  -1.107  0.00  0.00     0.025 A 
ATOM     29 CL   UNL d   1       4.031  -9.429  -2.232  0.00  0.00    -0.084 Cl
ATOM     30  C   UNL d   1       0.855  -7.608  -0.635  0.00  0.00     0.017 A 
ENDBRANCH  22  24
ENDBRANCH  21  22
ENDBRANCH  20  21
ENDBRANCH   5  20
TORSDOF 9
