REMARK  1 active torsions:
REMARK  status: ('A' for Active; 'I' for Inactive)
REMARK    1  A    between atoms: N_15  and  N_12 
ROOT
ATOM      1  N   UNL d   1       0.906   0.402  -0.004  0.00  0.00    -0.287 N 
ATOM      2  N   UNL d   1       0.974  -1.990   0.049  0.00  0.00    -0.321 N 
ATOM      3  HN  UNL d   1       1.543  -2.837   0.058  1.00  0.00     0.169 HD
ATOM      4  C   UNL d   1       1.507  -0.826   0.010  0.00  0.00     0.158 A 
ATOM      5  C   UNL d   1      -0.498   0.447   0.018  0.00  0.00     0.127 A 
ATOM      6  C   UNL d   1      -0.406  -2.050   0.078  0.00  0.00     0.131 A 
ATOM      7  C   UNL d   1      -1.208  -0.766   0.069  0.00  0.00     0.054 A 
ATOM      8  S   UNL d   1       3.275  -0.602  -0.030  0.00  0.00    -0.064 SA
ATOM      9  C   UNL d   1       1.772   1.476  -0.025  0.00  0.00     0.108 A 
ATOM     10  N   UNL d   1      -1.122   1.661  -0.006  0.00  0.00    -0.351 N 
ATOM     11  HN  UNL d   1      -0.582   2.526  -0.049  1.00  0.00     0.166 HD
ATOM     12  N   UNL d   1      -0.828  -3.283   0.098  0.00  0.00    -0.308 N 
ATOM     13  HN  UNL d   1      -0.145  -4.040   0.133  1.00  0.00     0.182 HD
ATOM     14  C   UNL d   1       3.072   1.142  -0.041  0.00  0.00     0.071 A 
ATOM     15  C   UNL d   1      -2.603  -0.689   0.122  0.00  0.00     0.020 A 
ATOM     16  C   UNL d   1      -2.468   1.686   0.027  0.00  0.00     0.090 A 
ATOM     17  C   UNL d   1      -3.244   0.549   0.093  0.00  0.00     0.018 A 
ENDROOT
BRANCH  12  18
ATOM     18  N   UNL d   1      -2.138  -3.585   0.073  0.00  0.00    -0.248 NA
ATOM     19  H   UNL d   1      -2.243  -4.560   0.374  0.00  0.00     0.143 HD
ATOM     20  H   UNL d   1      -2.465  -3.600  -0.896  0.00  0.00     0.143 HD
ENDBRANCH  12  18
TORSDOF 1
