REMARK  7 active torsions:
REMARK  status: ('A' for Active; 'I' for Inactive)
REMARK    1  A    between atoms: C_3  and  C_1 
REMARK    2  A    between atoms: C_5  and  CA_2 
REMARK       I    between atoms: N_4  and  C_3 
REMARK    3  A    between atoms: C_6  and  N_4 
REMARK    4  A    between atoms: OXT_20  and  C_5 
REMARK    5  A    between atoms: C_7  and  C_8 
REMARK    6  A    between atoms: O_21  and  C_7 
REMARK    7  A    between atoms: O_22  and  C_13 
ROOT
ATOM      1  C   UNL d   1      -2.122  -4.416  -0.372  0.00  0.00     0.275 C 
ATOM      2  N   UNL d   1      -1.123  -3.546   0.005  0.00  0.00    -0.319 N 
ATOM      3  O   UNL d   1      -2.095  -5.639  -0.304  0.00  0.00    -0.266 OA
ATOM      4  H   UNL d   1      -1.354  -2.563   0.114  0.00  0.00     0.169 HD
ENDROOT
BRANCH   1   5
ATOM      5  C   UNL d   1      -3.308  -3.766  -0.965  0.00  0.00     0.134 A 
ATOM      6  CA  UNL d   1      -4.595  -4.088  -0.575  0.00  0.00     0.139 A 
ATOM      7  N   UNL d   1      -5.699  -3.738  -1.317  0.00  0.00    -0.357 N 
ATOM      8  C   UNL d   1      -5.429  -3.026  -2.439  0.00  0.00     0.105 A 
ATOM      9  HN  UNL d   1      -6.648  -3.995  -1.044  1.00  0.00     0.165 HD
ATOM     10  C   UNL d   1      -4.142  -2.650  -2.797  0.00  0.00     0.105 A 
ATOM     11  N   UNL d   1      -3.056  -3.006  -2.072  0.00  0.00    -0.358 N 
ATOM     12  HN  UNL d   1      -2.111  -2.724  -2.334  1.00  0.00     0.165 HD
BRANCH   6  13
ATOM     13  C   UNL d   1      -4.891  -4.684   0.750  0.00  0.00     0.196 C 
ATOM     14  O   UNL d   1      -4.140  -4.665   1.707  0.00  0.00    -0.645 OA
BRANCH  13  15
ATOM     15  OXT UNL d   1      -6.170  -5.135   0.793  0.00  0.00    -0.772 OA
ATOM     16  HXT UNL d   1      -6.630  -4.934  -0.055  0.00  0.00     0.167 HD
ENDBRANCH  13  15
ENDBRANCH   6  13
ENDBRANCH   1   5
BRANCH   2  17
ATOM     17  C   UNL d   1       0.206  -3.903   0.307  0.00  0.00     0.068 A 
ATOM     18  C   UNL d   1       0.957  -3.075   1.157  0.00  0.00     0.096 A 
ATOM     19  C   UNL d   1       2.332  -3.270   1.304  0.00  0.00     0.057 A 
ATOM     20  C   UNL d   1       2.963  -4.307   0.603  0.00  0.00     0.040 A 
ATOM     21  C   UNL d   1       2.205  -5.182  -0.180  0.00  0.00     0.021 A 
ATOM     22  C   UNL d   1       0.828  -4.985  -0.318  0.00  0.00     0.033 A 
BRANCH  18  23
ATOM     23  O   UNL d   1       0.413  -2.032   1.868  0.00  0.00    -0.354 OA
ATOM     24  C   UNL d   1      -0.643  -2.452   2.743  0.00  0.00     0.210 C 
ENDBRANCH  18  23
BRANCH  20  25
ATOM     25  C   UNL d   1       4.429  -4.516   0.666  0.00  0.00     0.176 C 
ATOM     26  O   UNL d   1       4.951  -5.614   0.601  0.00  0.00    -0.646 OA
BRANCH  25  27
ATOM     27  O   UNL d   1       5.132  -3.364   0.736  0.00  0.00    -0.773 OA
ATOM     28  H   UNL d   1       4.612  -2.554   0.588  0.00  0.00     0.167 HD
ENDBRANCH  25  27
ENDBRANCH  20  25
ENDBRANCH   2  17
TORSDOF 7
