REMARK  4 active torsions:
REMARK  status: ('A' for Active; 'I' for Inactive)
REMARK       I    between atoms: N_2  and  C_1 
REMARK    1  A    between atoms: C_3  and  C_1 
REMARK       I    between atoms: C_4  and  N_2 
REMARK       I    between atoms: N_5  and  C_4 
REMARK    2  A    between atoms: C_9  and  N_5 
REMARK    3  A    between atoms: O_19  and  C_10 
REMARK    4  A    between atoms: O_18  and  C_11 
ROOT
ATOM      1  C   UNL d   1       0.660   0.113  -0.732  0.00  0.00     0.265 C 
ATOM      2  N   UNL d   1       2.022   0.321  -0.940  0.00  0.00    -0.275 N 
ATOM      3  C   UNL d   1       2.941  -0.433  -1.645  0.00  0.00     0.327 C 
ATOM      4  N   UNL d   1       2.471  -1.603  -2.194  0.00  0.00    -0.309 N 
ATOM      5  O   UNL d   1       0.067  -0.841  -1.230  0.00  0.00    -0.267 OA
ATOM      6  O   UNL d   1       4.086   0.000  -1.742  0.00  0.00    -0.247 OA
ATOM      7  H   UNL d   1       2.415   1.187  -0.597  0.00  0.00     0.173 HD
ATOM      8  H   UNL d   1       1.458  -1.722  -2.123  0.00  0.00     0.170 HD
ENDROOT
BRANCH   1   9
ATOM      9  C   UNL d   1      -0.051   1.124   0.128  0.00  0.00     0.099 A 
ATOM     10  C   UNL d   1       0.216   2.509   0.029  0.00  0.00     0.086 A 
ATOM     11  C   UNL d   1      -0.471   3.412   0.855  0.00  0.00     0.038 A 
ATOM     12  C   UNL d   1      -1.504   2.976   1.675  0.00  0.00     0.005 A 
ATOM     13  C   UNL d   1      -1.808   1.622   1.741  0.00  0.00     0.038 A 
ATOM     14  C   UNL d   1      -1.043   0.682   1.035  0.00  0.00     0.086 A 
BRANCH  10  15
ATOM     15  O   UNL d   1       1.153   2.931  -0.885  0.00  0.00    -0.355 OA
ATOM     16  C   UNL d   1       1.031   4.290  -1.315  0.00  0.00     0.210 C 
ENDBRANCH  10  15
BRANCH  14  17
ATOM     17  O   UNL d   1      -1.207  -0.667   1.203  0.00  0.00    -0.355 OA
ATOM     18  C   UNL d   1      -1.829  -1.114   2.406  0.00  0.00     0.210 C 
ENDBRANCH  14  17
ENDBRANCH   1   9
BRANCH   4  19
ATOM     19  C   UNL d   1       3.193  -2.531  -2.982  0.00  0.00     0.038 A 
ATOM     20  C   UNL d   1       4.586  -2.548  -3.073  0.00  0.00     0.055 A 
ATOM     21  C   UNL d   1       5.241  -3.455  -3.931  0.00  0.00     0.058 A 
ATOM     22 CL   UNL d   1       6.968  -3.399  -3.992  0.00  0.00    -0.082 Cl
ATOM     23  C   UNL d   1       4.497  -4.351  -4.699  0.00  0.00     0.055 A 
ATOM     24  C   UNL d   1       3.110  -4.372  -4.579  0.00  0.00     0.028 A 
ATOM     25 CL   UNL d   1       5.229  -5.448  -5.820  0.00  0.00    -0.083 Cl
ATOM     26  C   UNL d   1       2.456  -3.478  -3.715  0.00  0.00     0.031 A 
ENDBRANCH   4  19
TORSDOF 4
