REMARK  4 active torsions:
REMARK  status: ('A' for Active; 'I' for Inactive)
REMARK    1  A    between atoms: C_2  and  S_1 
REMARK    2  A    between atoms: N_3  and  S_1 
REMARK    3  A    between atoms: C_12  and  N_3 
REMARK    4  A    between atoms: C_7  and  C_12 
ROOT
ATOM      1  S   UNL d   1       0.998  -0.043  -0.110  0.00  0.00     0.259 S 
ATOM      2  O   UNL d   1       0.641   1.305   0.270  0.00  0.00    -0.201 OA
ATOM      3  O   UNL d   1       2.367  -0.429  -0.371  0.00  0.00    -0.201 OA
ENDROOT
BRANCH   1   4
ATOM      4  C   UNL d   1       0.037  -0.447  -1.554  0.00  0.00     0.081 A 
ATOM      5  C   UNL d   1       0.458  -1.466  -2.414  0.00  0.00     0.050 A 
ATOM      6  C   UNL d   1      -0.261  -1.722  -3.587  0.00  0.00     0.057 A 
ATOM      7 CL   UNL d   1       0.293  -3.007  -4.602  0.00  0.00    -0.083 Cl
ATOM      8  C   UNL d   1      -1.383  -0.947  -3.910  0.00  0.00     0.055 A 
ATOM      9  C   UNL d   1      -1.782   0.088  -3.058  0.00  0.00     0.027 A 
ATOM     10 CL   UNL d   1      -2.308  -1.204  -5.346  0.00  0.00    -0.083 Cl
ATOM     11  C   UNL d   1      -1.073   0.341  -1.881  0.00  0.00     0.027 A 
ENDBRANCH   1   4
BRANCH   1  12
ATOM     12  N   UNL d   1       0.377  -1.045   1.074  0.00  0.00    -0.311 N 
ATOM     13  H   UNL d   1      -0.535  -0.779   1.439  0.00  0.00     0.172 HD
BRANCH  12  14
ATOM     14  C   UNL d   1       0.765  -2.453   1.096  0.00  0.00     0.174 C 
BRANCH  14  15
ATOM     15  C   UNL d   1       0.131  -3.202   2.243  0.00  0.00    -0.001 A 
ATOM     16  C   UNL d   1      -0.474  -4.446   2.020  0.00  0.00     0.127 A 
ATOM     17  C   UNL d   1      -1.034  -5.181   3.058  0.00  0.00     0.085 A 
ATOM     18  F   UNL d   1      -0.519  -4.950   0.778  0.00  0.00    -0.205 F 
ATOM     19  C   UNL d   1      -0.982  -4.669   4.346  0.00  0.00     0.119 A 
ATOM     20  C   UNL d   1      -0.379  -3.443   4.607  0.00  0.00     0.043 A 
ATOM     21  F   UNL d   1      -1.516  -5.369   5.356  0.00  0.00    -0.206 F 
ATOM     22  C   UNL d   1       0.183  -2.711   3.558  0.00  0.00     0.015 A 
ENDBRANCH  14  15
ENDBRANCH  12  14
ENDBRANCH   1  12
TORSDOF 4
