REMARK  5 active torsions:
REMARK  status: ('A' for Active; 'I' for Inactive)
REMARK    1  A    between atoms: C_8  and  C_1 
REMARK    2  A    between atoms: N_6  and  C_2 
REMARK       I    between atoms: C_7  and  N_6 
REMARK    3  A    between atoms: C_11  and  C_7 
REMARK    4  A    between atoms: O_16  and  C_8 
REMARK    5  A    between atoms: C_19  and  O_16 
ROOT
ATOM      1  C   UNL d   1      -2.093   0.897   0.084  0.00  0.00     0.110 A 
ATOM      2  C   UNL d   1      -0.905   1.614   0.207  0.00  0.00     0.071 A 
ATOM      3  S   UNL d   1      -1.799  -0.776  -0.153  0.00  0.00    -0.063 SA
ATOM      4  C   UNL d   1       0.249   0.743   0.212  0.00  0.00     0.026 A 
ATOM      5  C   UNL d   1      -0.125  -0.575  -0.026  0.00  0.00     0.087 A 
ATOM      6  N   UNL d   1       0.690  -1.647  -0.120  0.00  0.00    -0.360 N 
ATOM      7  HN  UNL d   1       0.348  -2.587  -0.317  1.00  0.00     0.166 HD
ATOM      8  C   UNL d   1       1.624   0.956   0.455  0.00  0.00     0.018 A 
ATOM      9  C   UNL d   1       1.992  -1.370   0.068  0.00  0.00     0.089 A 
ATOM     10  C   UNL d   1       2.505  -0.121   0.363  0.00  0.00     0.018 A 
ENDROOT
BRANCH   2  11
ATOM     11  N   UNL d   1      -0.883   2.991   0.424  0.00  0.00    -0.323 N 
ATOM     12  C   UNL d   1      -0.438   3.988  -0.405  0.00  0.00     0.255 C 
ATOM     13  O   UNL d   1      -0.726   5.142  -0.042  0.00  0.00    -0.270 OA
ATOM     14  H   UNL d   1      -1.673   3.357   0.954  0.00  0.00     0.169 HD
BRANCH  12  15
ATOM     15  C   UNL d   1       0.333   3.805  -1.708  0.00  0.00     0.270 C 
ATOM     16 CL   UNL d   1       2.069   3.697  -1.416  0.00  0.00    -0.098 Cl
ATOM     17 CL   UNL d   1      -0.286   2.516  -2.740  0.00  0.00    -0.098 Cl
ENDBRANCH  12  15
ENDBRANCH   2  11
BRANCH   1  18
ATOM     18  C   UNL d   1      -3.476   1.336   0.020  0.00  0.00     0.302 C 
ATOM     19  O   UNL d   1      -4.463   0.619  -0.087  0.00  0.00    -0.259 OA
BRANCH  18  20
ATOM     20  O   UNL d   1      -3.527   2.701   0.008  0.00  0.00    -0.317 OA
BRANCH  20  21
ATOM     21  C   UNL d   1      -4.743   3.267  -0.501  0.00  0.00     0.174 C 
ATOM     22  C   UNL d   1      -4.626   3.364  -2.013  0.00  0.00     0.034 C 
ENDBRANCH  20  21
ENDBRANCH  18  20
ENDBRANCH   1  18
TORSDOF 5
