REMARK  9 active torsions:
REMARK  status: ('A' for Active; 'I' for Inactive)
REMARK    1  A    between atoms: C_4  and  C_1 
REMARK    2  A    between atoms: C_7  and  C_1 
REMARK    3  A    between atoms: C_8  and  C_1 
REMARK    4  A    between atoms: C_2  and  C_10 
REMARK    5  A    between atoms: O_13  and  C_2 
REMARK    6  A    between atoms: C_3  and  C_11 
REMARK    7  A    between atoms: O_12  and  C_3 
REMARK    8  A    between atoms: C_10  and  C_7 
REMARK    9  A    between atoms: C_11  and  C_8 
ROOT
ATOM      1  C   UNL d   1       1.010   0.131  -0.023  0.00  0.00     0.017 C 
ATOM      2  C   UNL d   1       2.547   0.104  -0.022  0.00  0.00     0.023 C 
ENDROOT
BRANCH   1   3
ATOM      3  C   UNL d   1       0.447   0.796   1.256  0.00  0.00     0.131 C 
ATOM      4  O   UNL d   1      -0.586   1.474   1.213  0.00  0.00    -0.298 OA
ATOM      5  C   UNL d   1       1.140   0.597   2.583  0.00  0.00     0.091 C 
ENDBRANCH   1   3
BRANCH   1   6
ATOM      6  C   UNL d   1       0.506   0.935  -1.259  0.00  0.00     0.027 C 
BRANCH   6   7
ATOM      7  C   UNL d   1       0.955   2.398  -1.313  0.00  0.00     0.111 C 
BRANCH   7   8
ATOM      8  C   UNL d   1       0.408   3.050  -2.555  0.00  0.00     0.139 C 
ATOM      9  O   UNL d   1       0.988   3.045  -3.632  0.00  0.00    -0.650 OA
BRANCH   8  10
ATOM     10  O   UNL d   1      -0.813   3.597  -2.383  0.00  0.00    -0.776 OA
ATOM     11  H   UNL d   1      -1.169   3.491  -1.477  0.00  0.00     0.167 HD
ENDBRANCH   8  10
ENDBRANCH   7   8
ENDBRANCH   6   7
ENDBRANCH   1   6
BRANCH   1  12
ATOM     12  C   UNL d   1       0.435  -1.316  -0.062  0.00  0.00     0.027 C 
BRANCH  12  13
ATOM     13  C   UNL d   1       0.842  -2.150  -1.286  0.00  0.00     0.111 C 
BRANCH  13  14
ATOM     14  C   UNL d   1       0.263  -3.544  -1.247  0.00  0.00     0.139 C 
ATOM     15  O   UNL d   1      -0.425  -3.998  -0.350  0.00  0.00    -0.650 OA
BRANCH  14  16
ATOM     16  O   UNL d   1       0.605  -4.270  -2.339  0.00  0.00    -0.776 OA
ATOM     17  H   UNL d   1       1.153  -3.787  -2.985  0.00  0.00     0.167 HD
ENDBRANCH  14  16
ENDBRANCH  13  14
ENDBRANCH  12  13
ENDBRANCH   1  12
TORSDOF 9
