REMARK  4 active torsions:
REMARK  status: ('A' for Active; 'I' for Inactive)
REMARK    1  A    between atoms: C_7  and  N_1 
REMARK    2  A    between atoms: C_5  and  C_2 
REMARK    3  A    between atoms: O_15  and  C_5 
REMARK    4  A    between atoms: C_8  and  C_7 
ROOT
ATOM      1  N   UNL d   1      -0.049  -1.029  -0.024  0.00  0.00    -0.347 N 
ATOM      2  C   UNL d   1      -1.562   0.716  -0.300  0.00  0.00     0.110 C 
ATOM      3  C   UNL d   1       0.723   0.112   0.027  0.00  0.00     0.221 C 
ATOM      4  C   UNL d   1      -1.460  -0.756   0.075  0.00  0.00     0.141 C 
ATOM      5  C   UNL d   1      -0.211   1.295   0.120  0.00  0.00     0.119 C 
ATOM      6  O   UNL d   1       1.939   0.182   0.023  0.00  0.00    -0.273 OA
ENDROOT
BRANCH   1   7
ATOM      7  C   UNL d   1       0.485  -2.373  -0.136  0.00  0.00     0.171 C 
BRANCH   7   8
ATOM      8  C   UNL d   1       0.815  -2.943   1.208  0.00  0.00     0.000 A 
ATOM      9  S   UNL d   1      -0.357  -3.814   2.106  0.00  0.00    -0.105 SA
ATOM     10  C   UNL d   1       0.771  -4.194   3.335  0.00  0.00     0.050 A 
ATOM     11  C   UNL d   1       2.012  -3.655   3.081  0.00  0.00     0.008 A 
ATOM     12  C   UNL d   1       2.033  -2.920   1.862  0.00  0.00     0.017 A 
ENDBRANCH   7   8
ENDBRANCH   1   7
BRANCH   2  13
ATOM     13  C   UNL d   1      -1.800   0.900  -1.786  0.00  0.00     0.145 C 
ATOM     14  O   UNL d   1      -1.880  -0.004  -2.602  0.00  0.00    -0.650 OA
BRANCH  13  15
ATOM     15  O   UNL d   1      -1.969   2.194  -2.144  0.00  0.00    -0.776 OA
ATOM     16  H   UNL d   1      -1.913   2.841  -1.416  0.00  0.00     0.167 HD
ENDBRANCH  13  15
ENDBRANCH   2  13
TORSDOF 4
