REMARK  9 active torsions:
REMARK  status: ('A' for Active; 'I' for Inactive)
REMARK    1  A    between atoms: N_2  and  C_1 
REMARK    2  A    between atoms: C_3  and  C_1 
REMARK    3  A    between atoms: N_4  and  C_1 
REMARK    4  A    between atoms: C_5  and  C_1 
REMARK       I    between atoms: C_6  and  N_2 
REMARK    5  A    between atoms: C_7  and  N_4 
REMARK    6  A    between atoms: O_19  and  C_5 
REMARK    7  A    between atoms: O_18  and  C_6 
REMARK    8  A    between atoms: C_22  and  O_18 
REMARK    9  A    between atoms: C_23  and  O_19 
ROOT
ATOM      1  C   UNL d   1       0.953  -0.070   0.030  0.00  0.00     0.298 C 
ENDROOT
BRANCH   1   2
ATOM      2  N   UNL d   1       0.460  -1.268  -0.635  0.00  0.00    -0.294 N 
ATOM      3  C   UNL d   1      -0.813  -1.706  -0.538  0.00  0.00     0.363 C 
ATOM      4  O   UNL d   1      -1.684  -1.196   0.149  0.00  0.00    -0.238 OA
ATOM      5  H   UNL d   1       1.059  -1.730  -1.304  0.00  0.00     0.168 HD
BRANCH   3   6
ATOM      6  O   UNL d   1      -0.938  -2.837  -1.267  0.00  0.00    -0.304 OA
BRANCH   6   7
ATOM      7  C   UNL d   1      -2.127  -3.599  -1.018  0.00  0.00     0.176 C 
ATOM      8  C   UNL d   1      -1.872  -4.516   0.166  0.00  0.00     0.034 C 
ENDBRANCH   6   7
ENDBRANCH   3   6
ENDBRANCH   1   2
BRANCH   1   9
ATOM      9  C   UNL d   1       0.572   0.015   1.566  0.00  0.00     0.442 C 
ATOM     10  F   UNL d   1       0.161  -1.175   2.073  0.00  0.00    -0.166 F 
ATOM     11  F   UNL d   1       1.602   0.408   2.359  0.00  0.00    -0.166 F 
ATOM     12  F   UNL d   1      -0.421   0.919   1.781  0.00  0.00    -0.166 F 
ENDBRANCH   1   9
BRANCH   1  13
ATOM     13  N   UNL d   1       0.430   1.077  -0.770  0.00  0.00    -0.345 N 
ATOM     14  H   UNL d   1       0.242   1.891  -0.184  0.00  0.00     0.163 HD
BRANCH  13  15
ATOM     15  C   UNL d   1       0.795   1.404  -2.074  0.00  0.00     0.069 A 
ATOM     16  C   UNL d   1       1.558   0.603  -2.946  0.00  0.00     0.145 A 
ATOM     17  C   UNL d   1       1.814   0.973  -4.264  0.00  0.00     0.086 A 
ATOM     18  F   UNL d   1       2.084  -0.560  -2.532  0.00  0.00    -0.204 F 
ATOM     19  C   UNL d   1       1.277   2.152  -4.750  0.00  0.00     0.119 A 
ATOM     20  C   UNL d   1       0.487   2.957  -3.942  0.00  0.00     0.044 A 
ATOM     21  F   UNL d   1       1.513   2.512  -6.016  0.00  0.00    -0.206 F 
ATOM     22  C   UNL d   1       0.243   2.578  -2.618  0.00  0.00     0.035 A 
ENDBRANCH  13  15
ENDBRANCH   1  13
BRANCH   1  23
ATOM     23  C   UNL d   1       2.499  -0.032   0.099  0.00  0.00     0.318 C 
ATOM     24  O   UNL d   1       3.165   0.997   0.204  0.00  0.00    -0.260 OA
BRANCH  23  25
ATOM     25  O   UNL d   1       3.030  -1.292   0.103  0.00  0.00    -0.318 OA
BRANCH  25  26
ATOM     26  C   UNL d   1       4.461  -1.365   0.197  0.00  0.00     0.174 C 
ATOM     27  C   UNL d   1       4.915  -1.175   1.635  0.00  0.00     0.034 C 
ENDBRANCH  25  26
ENDBRANCH  23  25
ENDBRANCH   1  23
TORSDOF 9
