REMARK  3 active torsions:
REMARK  status: ('A' for Active; 'I' for Inactive)
REMARK    1  A    between atoms: C4_7  and  C1_1 
REMARK    2  A    between atoms: C5_8  and  C2_4 
REMARK    3  A    between atoms: O2_12  and  C4_7 
ROOT
ATOM      1  C1  <1> d   1       1.242   0.829   0.316  0.00  0.00     0.114 A 
ATOM      2  N1  <1> d   1       1.332  -0.560   0.482  0.00  0.00    -0.344 N 
ATOM      3  H1  <1> d   1       2.102  -1.045   0.943  1.00  0.00     0.167 HD
ATOM      4  C2  <1> d   1       0.274  -1.150  -0.046  0.00  0.00     0.086 A 
ATOM      5  S1  <1> d   1      -0.898  -0.066  -0.709  0.00  0.00    -0.081 SA
ATOM      6  C3  <1> d   1       0.092   1.266  -0.307  0.00  0.00     0.088 A 
ENDROOT
BRANCH   4   7
ATOM      7  C5  <1> d   1       0.041  -2.600  -0.052  0.00  0.00     0.013 A 
ATOM      8  C6  <1> d   1      -0.671  -3.250  -1.059  0.00  0.00     0.101 A 
ATOM      9  N2  <1> d   1      -0.912  -4.585  -1.098  0.00  0.00    -0.374 N 
ATOM     10  C8  <1> d   1      -0.416  -5.321  -0.083  0.00  0.00     0.087 A 
ATOM     11  H2  <1> d   1      -1.443  -5.011  -1.857  1.00  0.00     0.164 HD
ATOM     12  C9  <1> d   1       0.317  -4.784   0.963  0.00  0.00     0.018 A 
ATOM     13  C7  <1> d   1       0.551  -3.409   0.971  0.00  0.00     0.017 A 
ENDBRANCH   4   7
BRANCH   1  14
ATOM     14  C4  <1> d   1       2.315   1.701   0.784  0.00  0.00     0.194 C 
ATOM     15  O1  <1> d   1       2.314   2.919   0.687  0.00  0.00    -0.645 OA
BRANCH  14  16
ATOM     16  O2  <1> d   1       3.336   1.000   1.346  0.00  0.00    -0.772 OA
ATOM     17  H2  <1> d   1       3.103   0.045   1.297  0.00  0.00     0.167 HD
ENDBRANCH  14  16
ENDBRANCH   1  14
TORSDOF 3
