REMARK  4 active torsions:
REMARK  status: ('A' for Active; 'I' for Inactive)
REMARK    1  A    between atoms: S_7  and  C_2 
REMARK    2  A    between atoms: C_16  and  S_7 
REMARK    3  A    between atoms: C_13  and  C_16 
REMARK    4  A    between atoms: O_17  and  C_13 
ROOT
ATOM      1  C   UNL d   1       0.084  -0.754  -0.004  0.00  0.00     0.042 A 
ATOM      2  C   UNL d   1       1.232  -1.526  -0.011  0.00  0.00     0.057 A 
ATOM      3  C   UNL d   1       0.382   0.667  -0.044  0.00  0.00    -0.014 A 
ATOM      4  C   UNL d   1       1.745   0.901  -0.075  0.00  0.00     0.093 A 
ATOM      5  S   UNL d   1       2.641  -0.545  -0.025  0.00  0.00    -0.071 SA
ATOM      6  C   UNL d   1      -1.301  -1.220   0.054  0.00  0.00     0.162 C 
ATOM      7  C   UNL d   1       2.369   2.188  -0.130  0.00  0.00     0.107 C 
ATOM      8  N   UNL d   1       2.850   3.241  -0.174  0.00  0.00    -0.191 NA
ATOM      9  C   UNL d   1      -0.707   1.722  -0.049  0.00  0.00     0.050 C 
ATOM     10  C   UNL d   1      -2.099   1.157   0.353  0.00  0.00    -0.037 C 
ATOM     11  C   UNL d   1      -2.337  -0.190  -0.363  0.00  0.00     0.093 C 
ATOM     12  O   UNL d   1      -1.632  -2.352   0.391  0.00  0.00    -0.292 OA
ATOM     13  C   UNL d   1      -3.206   2.140  -0.072  0.00  0.00     0.015 C 
ATOM     14  C   UNL d   1      -2.191   0.980   1.884  0.00  0.00     0.015 C 
ENDROOT
BRANCH   2  15
ATOM     15  S   UNL d   1       1.432  -3.275   0.044  0.00  0.00    -0.112 SA
BRANCH  15  16
ATOM     16  C   UNL d   1       0.571  -3.853  -1.443  0.00  0.00     0.191 C 
BRANCH  16  17
ATOM     17  C   UNL d   1       1.154  -3.341  -2.743  0.00  0.00     0.268 C 
ATOM     18  O   UNL d   1       2.059  -2.531  -2.883  0.00  0.00    -0.264 OA
BRANCH  17  19
ATOM     19  O   UNL d   1       0.478  -3.923  -3.782  0.00  0.00    -0.326 OA
ATOM     20  C   UNL d   1       0.933  -3.527  -5.078  0.00  0.00     0.213 C 
ENDBRANCH  17  19
ENDBRANCH  16  17
ENDBRANCH  15  16
ENDBRANCH   2  15
TORSDOF 4
