REMARK  4 active torsions:
REMARK  status: ('A' for Active; 'I' for Inactive)
REMARK    1  A    between atoms: N_4  and  S_1 
REMARK    2  A    between atoms: C_8  and  S_1 
REMARK    3  A    between atoms: C_2  and  C_3 
REMARK       I    between atoms: C_3  and  N_5 
REMARK    4  A    between atoms: N_5  and  N_4 
ROOT
ATOM      1  N   UNL d   1       0.497   1.531  -0.080  0.00  0.00    -0.220 N 
ATOM      2  H   UNL d   1      -0.458   1.638  -0.439  0.00  0.00     0.200 HD
ENDROOT
BRANCH   1   3
ATOM      3  S   UNL d   1       1.102  -0.036   0.150  0.00  0.00     0.276 S 
ATOM      4  O   UNL d   1       0.488  -0.546   1.359  0.00  0.00    -0.199 OA
ATOM      5  O   UNL d   1       2.543   0.039   0.034  0.00  0.00    -0.199 OA
BRANCH   3   6
ATOM      6  C   UNL d   1       0.459  -0.950  -1.222  0.00  0.00     0.081 A 
ATOM      7  C   UNL d   1       1.240  -1.119  -2.368  0.00  0.00     0.026 A 
ATOM      8  C   UNL d   1       0.792  -1.961  -3.390  0.00  0.00     0.008 A 
ATOM      9  C   UNL d   1      -0.426  -2.643  -3.267  0.00  0.00    -0.062 A 
ATOM     10  C   UNL d   1      -1.202  -2.460  -2.114  0.00  0.00     0.008 A 
ATOM     11  C   UNL d   1      -0.872  -3.583  -4.350  0.00  0.00     0.048 C 
ATOM     12  C   UNL d   1      -0.760  -1.620  -1.090  0.00  0.00     0.026 A 
ENDBRANCH   3   6
ENDBRANCH   1   3
BRANCH   1  13
ATOM     13  N   UNL d   1       0.944   2.517   0.903  0.00  0.00    -0.256 N 
ATOM     14  C   UNL d   1       0.116   3.564   1.283  0.00  0.00     0.278 C 
ATOM     15  O   UNL d   1      -0.947   3.755   0.691  0.00  0.00    -0.265 OA
ATOM     16  H   UNL d   1       1.772   2.286   1.448  0.00  0.00     0.191 HD
BRANCH  14  17
ATOM     17  C   UNL d   1       0.603   4.352   2.419  0.00  0.00     0.090 A 
ATOM     18  C   UNL d   1       0.091   5.486   3.025  0.00  0.00     0.029 A 
ATOM     19  C   UNL d   1       0.868   5.955   4.124  0.00  0.00     0.027 A 
ATOM     20  I   UNL d   1      -1.619   6.488   2.470  0.00  0.00    -0.043 I 
ATOM     21  C   UNL d   1       1.962   5.155   4.353  0.00  0.00     0.052 A 
ATOM     22  S   UNL d   1       2.048   3.864   3.245  0.00  0.00    -0.095 SA
ENDBRANCH  14  17
ENDBRANCH   1  13
TORSDOF 4
