REMARK  3 active torsions:
REMARK  status: ('A' for Active; 'I' for Inactive)
REMARK    1  A    between atoms: C_10  and  N_3 
REMARK    2  A    between atoms: C_9  and  N_4 
REMARK    3  A    between atoms: C_13  and  C_7 
ROOT
ATOM      1  C   UNL d   1      -1.368   0.004  -0.012  0.00  0.00     0.196 C 
ATOM      2  C   UNL d   1       1.518  -0.084   0.129  0.00  0.00     0.102 C 
ATOM      3  N   UNL d   1      -0.634  -1.212   0.066  0.00  0.00    -0.254 N 
ATOM      4  N   UNL d   1      -0.569   1.179  -0.126  0.00  0.00    -0.254 N 
ATOM      5  C   UNL d   1       0.828   1.220  -0.021  0.00  0.00     0.270 C 
ATOM      6  C   UNL d   1       0.755  -1.347   0.075  0.00  0.00     0.270 C 
ATOM      7  C   UNL d   1       2.864  -0.030   0.269  0.00  0.00     0.034 C 
ATOM      8  S   UNL d   1      -3.075   0.043   0.109  0.00  0.00    -0.039 SA
ATOM      9  O   UNL d   1       1.497   2.255  -0.083  0.00  0.00    -0.266 OA
ATOM     10  O   UNL d   1       1.327  -2.437   0.036  0.00  0.00    -0.266 OA
ENDROOT
BRANCH   7  11
ATOM     11  C   UNL d   1       3.798  -1.157   0.362  0.00  0.00    -0.035 A 
ATOM     12  C   UNL d   1       4.368  -1.680  -0.806  0.00  0.00     0.013 A 
ATOM     13  C   UNL d   1       5.223  -2.784  -0.741  0.00  0.00     0.024 A 
ATOM     14  C   UNL d   1       5.518  -3.356   0.494  0.00  0.00     0.034 A 
ATOM     15  C   UNL d   1       4.979  -2.826   1.665  0.00  0.00     0.024 A 
ATOM     16 CL   UNL d   1       6.550  -4.732   0.572  0.00  0.00    -0.084 Cl
ATOM     17  C   UNL d   1       4.119  -1.724   1.600  0.00  0.00     0.013 A 
ENDBRANCH   7  11
BRANCH   4  18
ATOM     18  C   UNL d   1      -1.194   2.463  -0.349  0.00  0.00     0.045 A 
ATOM     19  C   UNL d   1      -1.964   2.698  -1.500  0.00  0.00     0.030 A 
ATOM     20  C   UNL d   1      -2.531   3.955  -1.728  0.00  0.00     0.002 A 
ATOM     21  C   UNL d   1      -2.334   4.988  -0.814  0.00  0.00     0.000 A 
ATOM     22  C   UNL d   1      -1.570   4.768   0.330  0.00  0.00     0.002 A 
ATOM     23  C   UNL d   1      -0.996   3.515   0.558  0.00  0.00     0.030 A 
ENDBRANCH   4  18
BRANCH   3  24
ATOM     24  C   UNL d   1      -1.342  -2.461   0.077  0.00  0.00     0.045 A 
ATOM     25  C   UNL d   1      -1.634  -3.095   1.292  0.00  0.00     0.030 A 
ATOM     26  C   UNL d   1      -2.317  -4.312   1.292  0.00  0.00     0.002 A 
ATOM     27  C   UNL d   1      -2.698  -4.901   0.086  0.00  0.00     0.000 A 
ATOM     28  C   UNL d   1      -2.397  -4.276  -1.125  0.00  0.00     0.002 A 
ATOM     29  C   UNL d   1      -1.717  -3.058  -1.133  0.00  0.00     0.030 A 
ENDBRANCH   3  24
TORSDOF 3
