REMARK  7 active torsions:
REMARK  status: ('A' for Active; 'I' for Inactive)
REMARK    1  A    between atoms: C_6  and  S_1 
REMARK    2  A    between atoms: N_11  and  S_1 
REMARK    3  A    between atoms: C_4  and  C_8 
REMARK    4  A    between atoms: N_13  and  N_11 
REMARK    5  A    between atoms: C_12  and  O_20 
REMARK       I    between atoms: C_14  and  N_13 
REMARK    6  A    between atoms: C_26  and  C_14 
REMARK    7  A    between atoms: O_20  and  C_26 
ROOT
ATOM      1  C   UNL d   1       1.384  -9.717  -2.650  0.00  0.00    -0.006 C 
ATOM      2  C   UNL d   1       0.938  -7.471  -1.006  0.00  0.00     0.081 C 
ATOM      3  C   UNL d   1      -0.143  -8.272  -1.413  0.00  0.00    -0.027 C 
ATOM      4  C   UNL d   1       2.241  -7.766  -1.465  0.00  0.00    -0.027 C 
ATOM      5  C   UNL d   1       0.128  -9.449  -2.117  0.00  0.00     0.023 C 
ATOM      6  C   UNL d   1       2.440  -8.873  -2.316  0.00  0.00     0.023 C 
ATOM      7  C   UNL d   1       3.442  -6.925  -1.120  0.00  0.00     0.051 C 
ATOM      8  C   UNL d   1      -1.600  -7.966  -1.201  0.00  0.00     0.051 C 
ENDROOT
BRANCH   2   9
ATOM      9  O   UNL d   1       0.811  -6.370  -0.189  0.00  0.00    -0.341 OA
BRANCH   9  10
ATOM     10  C   UNL d   1      -0.091  -6.524   0.902  0.00  0.00     0.280 C 
BRANCH  10  11
ATOM     11  C   UNL d   1       0.520  -6.278   2.261  0.00  0.00     0.260 C 
ATOM     12  N   UNL d   1       1.605  -5.438   2.281  0.00  0.00    -0.259 N 
ATOM     13  H   UNL d   1       1.999  -5.008   1.446  0.00  0.00     0.190 HD
ATOM     14  O   UNL d   1       0.043  -6.760   3.292  0.00  0.00    -0.269 OA
BRANCH  12  15
ATOM     15  N   UNL d   1       2.182  -5.193   3.566  0.00  0.00    -0.220 N 
ATOM     16  H   UNL d   1       1.713  -5.620   4.374  0.00  0.00     0.200 HD
BRANCH  15  17
ATOM     17  S   UNL d   1       3.417  -4.088   3.791  0.00  0.00     0.278 S 
ATOM     18  O   UNL d   1       4.587  -4.638   3.138  0.00  0.00    -0.199 OA
ATOM     19  O   UNL d   1       2.940  -2.766   3.455  0.00  0.00    -0.199 OA
BRANCH  17  20
ATOM     20  C   UNL d   1       3.649  -4.185   5.539  0.00  0.00     0.104 A 
ATOM     21  C   UNL d   1       4.887  -4.642   6.017  0.00  0.00     0.050 A 
ATOM     22  C   UNL d   1       5.080  -4.798   7.385  0.00  0.00     0.035 A 
ATOM     23 CL   UNL d   1       6.587  -5.378   7.973  0.00  0.00    -0.084 Cl
ATOM     24  C   UNL d   1       4.057  -4.502   8.282  0.00  0.00     0.025 A 
ATOM     25  C   UNL d   1       2.826  -4.043   7.804  0.00  0.00     0.027 A 
ATOM     26  C   UNL d   1       2.616  -3.879   6.431  0.00  0.00     0.057 A 
ATOM     27 CL   UNL d   1       1.044  -3.355   5.949  0.00  0.00    -0.083 Cl
ENDBRANCH  17  20
ENDBRANCH  15  17
ENDBRANCH  12  15
ENDBRANCH  10  11
ENDBRANCH   9  10
ENDBRANCH   2   9
BRANCH   1  28
ATOM     28  C   UNL d   1       1.597 -10.906  -3.541  0.00  0.00     0.070 C 
ATOM     29  N   UNL d   1       2.745 -11.515  -3.433  0.00  0.00    -0.294 N 
ATOM     30  N   UNL d   1       2.961 -12.676  -4.126  0.00  0.00    -0.261 N 
ATOM     31  HN  UNL d   1       3.476 -11.129  -2.836  1.00  0.00     0.187 HD
ATOM     32  C   UNL d   1       4.249 -13.313  -3.936  0.00  0.00     0.181 C 
ATOM     33  C   UNL d   1       1.991 -13.343  -4.865  0.00  0.00     0.272 C 
ATOM     34  C   UNL d   1       0.696 -12.662  -5.008  0.00  0.00     0.046 C 
ATOM     35  O   UNL d   1       2.169 -14.429  -5.412  0.00  0.00    -0.266 OA
ATOM     36  C   UNL d   1       0.522 -11.401  -4.450  0.00  0.00     0.009 C 
ATOM     37  C   UNL d   1      -0.341 -13.268  -5.736  0.00  0.00     0.018 C 
ATOM     38  C   UNL d   1      -0.652 -10.693  -4.753  0.00  0.00     0.015 C 
ATOM     39  C   UNL d   1      -1.698 -11.305  -5.447  0.00  0.00     0.001 C 
ATOM     40  C   UNL d   1      -1.550 -12.604  -5.923  0.00  0.00     0.001 C 
ENDBRANCH   1  28
TORSDOF 7
