REMARK  3 active torsions:
REMARK  status: ('A' for Active; 'I' for Inactive)
REMARK    1  A    between atoms: C_7  and  C_9 
REMARK    2  A    between atoms: N_10  and  C_8 
REMARK    3  A    between atoms: C_17  and  N_10 
ROOT
ATOM      1  N   UNL d   1      -3.155   1.138  -1.170  0.00  0.00    -0.365 N 
ATOM      2  H   UNL d   1      -2.775   2.071  -0.989  0.00  0.00     0.165 HD
ENDROOT
BRANCH   1   3
ATOM      3  C   UNL d   1      -2.405   0.089  -0.689  0.00  0.00     0.112 C 
ATOM      4  C   UNL d   1      -1.190   0.113  -0.114  0.00  0.00     0.130 C 
ATOM      5  C   UNL d   1      -0.463   1.369   0.075  0.00  0.00     0.303 C 
ATOM      6  C   UNL d   1      -0.579  -1.168   0.249  0.00  0.00     0.303 C 
ATOM      7  O   UNL d   1       0.867   1.233   0.250  0.00  0.00    -0.279 OA
ATOM      8  O   UNL d   1      -1.006   2.468   0.070  0.00  0.00    -0.259 OA
ATOM      9  C   UNL d   1       1.468  -0.006  -0.131  0.00  0.00     0.175 C 
ATOM     10  O   UNL d   1       0.764  -1.145   0.363  0.00  0.00    -0.279 OA
ATOM     11  C   UNL d   1       1.621  -0.083  -1.655  0.00  0.00     0.080 C 
ATOM     12  C   UNL d   1       2.853  -0.042   0.514  0.00  0.00     0.080 C 
ATOM     13  O   UNL d   1      -1.222  -2.194   0.431  0.00  0.00    -0.259 OA
ENDBRANCH   1   3
BRANCH   1  14
ATOM     14  C   UNL d   1      -4.384   1.100  -1.852  0.00  0.00     0.032 A 
ATOM     15  C   UNL d   1      -5.120  -0.075  -2.048  0.00  0.00     0.045 A 
ATOM     16  C   UNL d   1      -6.320  -0.084  -2.780  0.00  0.00     0.050 A 
ATOM     17  C   UNL d   1      -6.788   1.116  -3.331  0.00  0.00     0.016 A 
ATOM     18  C   UNL d   1      -6.069   2.294  -3.153  0.00  0.00     0.003 A 
ATOM     19  C   UNL d   1      -4.877   2.282  -2.422  0.00  0.00     0.029 A 
BRANCH  16  20
ATOM     20  C   UNL d   1      -7.092  -1.364  -2.975  0.00  0.00     0.417 C 
ATOM     21  F   UNL d   1      -6.499  -2.452  -2.408  0.00  0.00    -0.166 F 
ATOM     22  F   UNL d   1      -8.345  -1.304  -2.444  0.00  0.00    -0.166 F 
ATOM     23  F   UNL d   1      -7.258  -1.678  -4.290  0.00  0.00    -0.166 F 
ENDBRANCH  16  20
ENDBRANCH   1  14
TORSDOF 3
