REMARK  5 active torsions:
REMARK  status: ('A' for Active; 'I' for Inactive)
REMARK       I    between atoms: N_2  and  C_1 
REMARK       I    between atoms: N_4  and  C_1 
REMARK    1  A    between atoms: C_8  and  N_2 
REMARK    2  A    between atoms: C_3  and  C_7 
REMARK    3  A    between atoms: O_9  and  C_3 
REMARK    4  A    between atoms: C_7  and  N_4 
REMARK    5  A    between atoms: C_10  and  O_9 
ROOT
ATOM      1  C   UNL d   1       1.033  -0.030   0.034  0.00  0.00     0.321 C 
ATOM      2  N   UNL d   1       0.507   0.905  -0.823  0.00  0.00    -0.309 N 
ATOM      3  N   UNL d   1       0.094  -0.486   0.921  0.00  0.00    -0.334 N 
ATOM      4  O   UNL d   1       2.192  -0.426   0.079  0.00  0.00    -0.247 OA
ATOM      5  H   UNL d   1      -0.423   1.227  -0.607  0.00  0.00     0.170 HD
ATOM      6  H   UNL d   1      -0.891  -0.296   0.781  0.00  0.00     0.164 HD
ENDROOT
BRANCH   2   7
ATOM      7  C   UNL d   1       1.182   1.585  -1.856  0.00  0.00     0.036 A 
ATOM      8  C   UNL d   1       2.463   1.243  -2.297  0.00  0.00     0.029 A 
ATOM      9  C   UNL d   1       3.080   1.977  -3.312  0.00  0.00     0.002 A 
ATOM     10  C   UNL d   1       2.425   3.056  -3.897  0.00  0.00     0.000 A 
ATOM     11  C   UNL d   1       1.142   3.395  -3.475  0.00  0.00     0.002 A 
ATOM     12  C   UNL d   1       0.521   2.658  -2.464  0.00  0.00     0.029 A 
ENDBRANCH   2   7
BRANCH   3  13
ATOM     13  C   UNL d   1       0.451  -1.450   1.945  0.00  0.00     0.235 C 
BRANCH  13  14
ATOM     14  C   UNL d   1      -0.757  -1.725   2.817  0.00  0.00     0.276 C 
ATOM     15  O   UNL d   1      -1.879  -1.280   2.600  0.00  0.00    -0.263 OA
BRANCH  14  16
ATOM     16  O   UNL d   1      -0.394  -2.480   3.890  0.00  0.00    -0.321 OA
BRANCH  16  17
ATOM     17  C   UNL d   1      -1.351  -2.525   4.956  0.00  0.00     0.174 C 
ATOM     18  C   UNL d   1      -1.096  -1.341   5.873  0.00  0.00     0.034 C 
ENDBRANCH  16  17
ENDBRANCH  14  16
ENDBRANCH  13  14
ENDBRANCH   3  13
TORSDOF 5
