REMARK  9 active torsions:
REMARK  status: ('A' for Active; 'I' for Inactive)
REMARK    1  A    between atoms: S_16  and  C_1 
REMARK    2  A    between atoms: C_2  and  S_15 
REMARK    3  A    between atoms: S_15  and  C_18 
REMARK    4  A    between atoms: C_17  and  S_16 
REMARK    5  A    between atoms: C_20  and  C_17 
REMARK    6  A    between atoms: C_18  and  C_19 
REMARK    7  A    between atoms: C_19  and  C_22 
REMARK    8  A    between atoms: C_21  and  C_20 
REMARK    9  A    between atoms: C_22  and  C_21 
ROOT
ATOM      1  C   UNL d   1      -4.703   4.334  -0.011  0.00  0.00     0.001 C 
ENDROOT
BRANCH   1   2
ATOM      2  C   UNL d   1      -3.170   4.269  -0.011  0.00  0.00     0.010 C 
BRANCH   2   3
ATOM      3  C   UNL d   1      -2.648   2.828  -0.008  0.00  0.00     0.082 C 
BRANCH   3   4
ATOM      4  S   UNL d   1      -0.825   2.855  -0.009  0.00  0.00    -0.092 SA
BRANCH   4   5
ATOM      5  C   UNL d   1      -0.453   1.177  -0.006  0.00  0.00     0.160 A 
ATOM      6  N   UNL d   1       0.843   0.756  -0.005  0.00  0.00    -0.331 N 
ATOM      7  C   UNL d   1       0.787  -0.603  -0.002  0.00  0.00     0.199 A 
ATOM      8  H   UNL d   1       1.660   1.347  -0.005  0.00  0.00     0.168 HD
ATOM      9  N   UNL d   1      -0.469  -0.990  -0.002  0.00  0.00    -0.294 N 
ATOM     10  N   UNL d   1      -1.258   0.144  -0.004  0.00  0.00    -0.279 N 
ATOM     11  HN  UNL d   1      -0.801  -1.954  -0.000  1.00  0.00     0.187 HD
ATOM     12  HN  UNL d   1      -2.278   0.171  -0.004  1.00  0.00     0.189 HD
ENDBRANCH   4   5
ENDBRANCH   3   4
ENDBRANCH   2   3
ENDBRANCH   1   2
BRANCH   1  13
ATOM     13  C   UNL d   1      -5.205   5.787  -0.015  0.00  0.00     0.001 C 
BRANCH  13  14
ATOM     14  C   UNL d   1      -6.738   5.854  -0.016  0.00  0.00     0.010 C 
BRANCH  14  15
ATOM     15  C   UNL d   1      -7.258   7.295  -0.021  0.00  0.00     0.082 C 
BRANCH  15  16
ATOM     16  S   UNL d   1      -9.081   7.270  -0.019  0.00  0.00    -0.092 SA
BRANCH  16  17
ATOM     17  C   UNL d   1      -9.453   8.949  -0.030  0.00  0.00     0.160 A 
ATOM     18  N   UNL d   1     -10.746   9.370  -0.032  0.00  0.00    -0.331 N 
ATOM     19  C   UNL d   1     -10.691  10.730  -0.042  0.00  0.00     0.199 A 
ATOM     20  H   UNL d   1     -11.564   8.781  -0.026  0.00  0.00     0.168 HD
ATOM     21  N   UNL d   1      -9.435  11.117  -0.046  0.00  0.00    -0.294 N 
ATOM     22  N   UNL d   1      -8.646   9.982  -0.038  0.00  0.00    -0.279 N 
ATOM     23  HN  UNL d   1      -9.103  12.081  -0.053  1.00  0.00     0.187 HD
ATOM     24  HN  UNL d   1      -7.627   9.954  -0.039  1.00  0.00     0.189 HD
ENDBRANCH  16  17
ENDBRANCH  15  16
ENDBRANCH  14  15
ENDBRANCH  13  14
ENDBRANCH   1  13
TORSDOF 9
