REMARK  8 active torsions:
REMARK  status: ('A' for Active; 'I' for Inactive)
REMARK    1  A    between atoms: N_6  and  C_1 
REMARK    2  A    between atoms: N_5  and  C_9 
REMARK    3  A    between atoms: C_16  and  N_10 
REMARK    4  A    between atoms: C_22  and  C_16 
REMARK    5  A    between atoms: O_21  and  C_26 
REMARK    6  A    between atoms: C_24  and  O_21 
REMARK    7  A    between atoms: C_26  and  C_22 
REMARK    8  A    between atoms: O_32  and  C_22 
ROOT
ATOM      1  N   UNL d   1      -4.373   0.351   0.537  0.00  0.00    -0.360 N 
ATOM      2  N   UNL d   1      -7.215   1.651   0.903  0.00  0.00     0.092 N 
ATOM      3  C   UNL d   1      -5.153   0.984  -0.535  0.00  0.00     0.155 C 
ATOM      4  C   UNL d   1      -6.114   2.068   0.004  0.00  0.00     0.292 C 
ATOM      5  C   UNL d   1      -5.758   0.248   2.581  0.00  0.00     0.050 C 
ATOM      6  C   UNL d   1      -5.112  -0.525   1.439  0.00  0.00     0.127 C 
ATOM      7  C   UNL d   1      -6.731   1.392   2.257  0.00  0.00     0.274 C 
ENDROOT
BRANCH   2   8
ATOM      8  C   UNL d   1      -8.081   0.644   0.286  0.00  0.00     0.306 C 
BRANCH   8   9
ATOM      9  C   UNL d   1      -9.298   0.104   1.062  0.00  0.00     0.170 C 
BRANCH   9  10
ATOM     10  C   UNL d   1     -10.381   1.155   1.360  0.00  0.00     0.209 C 
BRANCH  10  11
ATOM     11  O   UNL d   1     -11.449   0.473   2.038  0.00  0.00    -0.349 OA
BRANCH  11  12
ATOM     12  C   UNL d   1     -12.619   1.152   2.209  0.00  0.00     0.069 A 
ATOM     13  C   UNL d   1     -13.767   0.352   2.269  0.00  0.00     0.039 A 
ATOM     14  C   UNL d   1     -15.023   0.920   2.494  0.00  0.00     0.039 A 
ATOM     15  C   UNL d   1     -15.124   2.301   2.677  0.00  0.00     0.103 A 
ATOM     16  C   UNL d   1     -13.978   3.111   2.630  0.00  0.00     0.039 A 
ATOM     17  C   UNL d   1     -12.725   2.530   2.393  0.00  0.00     0.039 A 
BRANCH  15  18
ATOM     18  N   UNL d   1     -16.434   2.910   2.934  0.00  0.00    -0.116 N 
ATOM     19  O   UNL d   1     -17.426   2.162   2.949  0.00  0.00    -0.532 OA
ATOM     20  O   UNL d   1     -16.477   4.133   3.122  0.00  0.00    -0.532 OA
ENDBRANCH  15  18
ENDBRANCH  11  12
ENDBRANCH  10  11
ENDBRANCH   9  10
BRANCH   9  21
ATOM     21  O   UNL d   1      -9.854  -0.966   0.268  0.00  0.00    -0.392 OA
ATOM     22  H   UNL d   1     -10.303  -0.567  -0.498  0.00  0.00     0.210 HD
ENDBRANCH   9  21
ENDBRANCH   8   9
ENDBRANCH   2   8
BRANCH   1  23
ATOM     23  C   UNL d   1      -3.013   0.287   0.382  0.00  0.00     0.147 A 
ATOM     24  N   UNL d   1      -2.384   0.893  -0.604  0.00  0.00    -0.336 N 
ATOM     25  C   UNL d   1      -1.018   0.720  -0.529  0.00  0.00     0.051 A 
ATOM     26  HN  UNL d   1      -2.851   1.427  -1.336  1.00  0.00     0.168 HD
ATOM     27  C   UNL d   1      -0.070   1.260  -1.422  0.00  0.00     0.032 A 
ATOM     28  C   UNL d   1      -0.576  -0.052   0.540  0.00  0.00     0.036 A 
ATOM     29  C   UNL d   1       1.292   1.020  -1.215  0.00  0.00     0.026 A 
ATOM     30  C   UNL d   1       1.707   0.241  -0.140  0.00  0.00     0.035 A 
ATOM     31  C   UNL d   1       0.788  -0.316   0.754  0.00  0.00     0.045 A 
ATOM     32 CL   UNL d   1       3.390  -0.035   0.102  0.00  0.00    -0.084 Cl
ATOM     33  S   UNL d   1      -1.939  -0.548   1.458  0.00  0.00    -0.052 SA
ENDBRANCH   1  23
TORSDOF 8
