REMARK  5 active torsions:
REMARK  status: ('A' for Active; 'I' for Inactive)
REMARK    1  A    between atoms: N_2  and  C_1 
REMARK    2  A    between atoms: C_3  and  N_5 
REMARK    3  A    between atoms: N_7  and  C_3 
REMARK    4  A    between atoms: N_5  and  C_4 
REMARK    5  A    between atoms: C_13  and  N_7 
ROOT
ATOM      1  C   UNL d   1       4.333   1.581   0.876  0.00  0.00     0.176 C 
ATOM      2  S   UNL d   1       5.895   1.814   1.460  0.00  0.00    -0.041 SA
ENDROOT
BRANCH   1   3
ATOM      3  N   UNL d   1       3.788   0.393   0.460  0.00  0.00    -0.331 N 
ATOM      4  H   UNL d   1       3.272   0.500  -0.404  0.00  0.00     0.168 HD
BRANCH   3   5
ATOM      5  C   UNL d   1       4.348  -0.901   0.667  0.00  0.00     0.067 C 
ATOM      6  C   UNL d   1       4.917  -1.380   1.865  0.00  0.00     0.131 C 
ATOM      7  C   UNL d   1       5.669  -2.567   1.890  0.00  0.00     0.062 C 
ATOM      8  C   UNL d   1       5.783  -3.321   0.730  0.00  0.00     0.036 C 
ATOM      9  C   UNL d   1       5.111  -2.937  -0.428  0.00  0.00     0.026 C 
ATOM     10 CL   UNL d   1       6.741  -4.748   0.728  0.00  0.00    -0.084 Cl
ATOM     11  C   UNL d   1       4.387  -1.739  -0.457  0.00  0.00     0.034 C 
BRANCH   6  12
ATOM     12  N   UNL d   1       4.626  -0.760   3.156  0.00  0.00    -0.113 N 
ATOM     13  O   UNL d   1       3.487  -0.306   3.334  0.00  0.00    -0.532 OA
ATOM     14  O   UNL d   1       5.517  -0.797   4.021  0.00  0.00    -0.532 OA
ENDBRANCH   6  12
ENDBRANCH   3   5
ENDBRANCH   1   3
BRANCH   1  15
ATOM     15  N   UNL d   1       3.627   2.732   0.704  0.00  0.00    -0.333 N 
ATOM     16  H   UNL d   1       4.196   3.526   0.990  0.00  0.00     0.168 HD
BRANCH  15  17
ATOM     17  C   UNL d   1       2.402   3.082   0.111  0.00  0.00     0.035 A 
ATOM     18  C   UNL d   1       1.389   2.205  -0.265  0.00  0.00     0.053 A 
ATOM     19  C   UNL d   1       0.296   2.673  -1.012  0.00  0.00     0.042 A 
ATOM     20 CL   UNL d   1      -0.886   1.517  -1.519  0.00  0.00    -0.084 Cl
ATOM     21  C   UNL d   1       0.180   4.028  -1.361  0.00  0.00    -0.040 A 
ATOM     22  C   UNL d   1       1.148   4.918  -0.887  0.00  0.00     0.011 A 
ATOM     23  C   UNL d   1      -0.910   4.545  -2.256  0.00  0.00     0.050 C 
ATOM     24  C   UNL d   1       2.238   4.449  -0.155  0.00  0.00     0.030 A 
ENDBRANCH  15  17
ENDBRANCH   1  15
TORSDOF 5
