REMARK  3 active torsions:
REMARK  status: ('A' for Active; 'I' for Inactive)
REMARK    1  A    between atoms: S_15  and  C_8 
REMARK    2  A    between atoms: C_14  and  C_18 
REMARK    3  A    between atoms: C_18  and  S_15 
ROOT
ATOM      1  C   UNL d   1       0.130  -0.766   0.008  0.00  0.00     0.106 A 
ATOM      2  C   UNL d   1      -0.030   0.564  -0.020  0.00  0.00     0.090 A 
ATOM      3  C   UNL d   1       1.472  -1.421   0.025  0.00  0.00     0.281 A 
ATOM      4  N   UNL d   1      -1.271   1.226  -0.042  0.00  0.00    -0.292 N 
ATOM      5  N   UNL d   1      -2.498   0.567  -0.095  0.00  0.00    -0.286 N 
ATOM      6  HN  UNL d   1      -3.359   1.110  -0.148  1.00  0.00     0.188 HD
ATOM      7  S   UNL d   1      -1.219  -1.837   0.030  0.00  0.00    -0.056 SA
ATOM      8  C   UNL d   1      -2.558  -0.729  -0.078  0.00  0.00     0.128 A 
ATOM      9  C   UNL d   1       1.263   1.299  -0.031  0.00  0.00     0.140 A 
ATOM     10  N   UNL d   1       2.457   0.801  -0.019  0.00  0.00    -0.305 N 
ATOM     11  HN  UNL d   1       3.284   1.398  -0.030  1.00  0.00     0.186 HD
ATOM     12  N   UNL d   1       2.561  -0.562   0.008  0.00  0.00    -0.261 N 
ATOM     13  O   UNL d   1       1.600  -2.646   0.050  0.00  0.00    -0.265 OA
ATOM     14  C   UNL d   1      -1.453   2.682  -0.017  0.00  0.00     0.178 C 
ATOM     15  C   UNL d   1       3.896  -1.128   0.007  0.00  0.00     0.181 C 
ENDROOT
BRANCH   8  16
ATOM     16  S   UNL d   1      -4.072  -1.604  -0.139  0.00  0.00    -0.099 SA
BRANCH  16  17
ATOM     17  C   UNL d   1      -5.317  -0.311  -0.345  0.00  0.00     0.121 C 
BRANCH  17  18
ATOM     18  C   UNL d   1      -6.691  -0.959  -0.376  0.00  0.00    -0.027 A 
ATOM     19  C   UNL d   1      -7.308  -1.393  -1.565  0.00  0.00     0.042 A 
ATOM     20  C   UNL d   1      -8.526  -2.082  -1.532  0.00  0.00     0.048 A 
ATOM     21 CL   UNL d   1      -6.593  -1.126  -3.115  0.00  0.00    -0.084 Cl
ATOM     22  C   UNL d   1      -9.136  -2.353  -0.310  0.00  0.00     0.035 A 
ATOM     23  C   UNL d   1      -8.547  -1.935   0.879  0.00  0.00     0.024 A 
ATOM     24 CL   UNL d   1     -10.621  -3.221  -0.268  0.00  0.00    -0.084 Cl
ATOM     25  C   UNL d   1      -7.333  -1.243   0.846  0.00  0.00     0.011 A 
ENDBRANCH  17  18
ENDBRANCH  16  17
ENDBRANCH   8  16
TORSDOF 3
