REMARK  4 active torsions:
REMARK  status: ('A' for Active; 'I' for Inactive)
REMARK    1  A    between atoms: C_6  and  S_1 
REMARK    2  A    between atoms: C_16  and  S_1 
REMARK    3  A    between atoms: N_2  and  C_3 
REMARK    4  A    between atoms: N_19  and  C_9 
ROOT
ATOM      1  C   UNL d   1      -0.638   0.575  -4.218  0.00  0.00     0.704 A 
ATOM      2  N   UNL d   1      -0.560  -0.691  -3.742  0.00  0.00    -0.178 N 
ATOM      3  HN  UNL d   1      -0.883  -1.479  -4.304  1.00  0.00     0.185 HD
ATOM      4  C   UNL d   1       0.393   0.157  -1.744  0.00  0.00     0.118 A 
ATOM      5  C   UNL d   1      -0.051  -0.888  -2.516  0.00  0.00     0.117 A 
ATOM      6  N   UNL d   1      -0.219   1.647  -3.515  0.00  0.00    -0.198 N 
ATOM      7  HN  UNL d   1      -0.272   2.591  -3.899  1.00  0.00     0.183 HD
ATOM      8  C   UNL d   1       0.274   1.415  -2.283  0.00  0.00     0.133 A 
ENDROOT
BRANCH   4   9
ATOM      9  S   UNL d   1       0.972  -0.018  -0.106  0.00  0.00     0.211 S 
ATOM     10  O   UNL d   1       0.448  -1.258   0.442  0.00  0.00    -0.217 OA
ATOM     11  O   UNL d   1       0.676   1.235   0.565  0.00  0.00    -0.217 OA
BRANCH   9  12
ATOM     12  C   UNL d   1       2.745  -0.169  -0.159  0.00  0.00     0.064 A 
ATOM     13  C   UNL d   1       3.544   0.823   0.423  0.00  0.00     0.025 A 
ATOM     14  C   UNL d   1       4.936   0.698   0.388  0.00  0.00     0.025 A 
ATOM     15  C   UNL d   1       5.517  -0.415  -0.220  0.00  0.00     0.034 A 
ATOM     16  C   UNL d   1       4.718  -1.410  -0.787  0.00  0.00     0.025 A 
ATOM     17 CL   UNL d   1       7.229  -0.564  -0.267  0.00  0.00    -0.084 Cl
ATOM     18  C   UNL d   1       3.326  -1.292  -0.755  0.00  0.00     0.025 A 
ENDBRANCH   9  12
ENDBRANCH   4   9
BRANCH   5  19
ATOM     19  N   UNL d   1       0.063  -2.226  -2.159  0.00  0.00    -0.287 NA
ATOM     20  H   UNL d   1      -0.405  -2.779  -2.879  0.00  0.00     0.125 HD
ATOM     21  H   UNL d   1      -0.313  -2.420  -1.229  0.00  0.00     0.125 HD
ENDBRANCH   5  19
BRANCH   1  22
ATOM     22  N   UNL d   1      -1.220   0.775  -5.528  0.00  0.00    -0.091 N 
ATOM     23  N   UNL d   1      -1.844  -0.265  -6.167  0.00  0.00    -0.284 N 
ATOM     24  C   UNL d   1      -2.355   0.256  -7.282  0.00  0.00     0.025 A 
ATOM     25  HN  UNL d   1      -1.904  -1.234  -5.854  1.00  0.00     0.188 HD
ATOM     26  C   UNL d   1      -3.144  -0.581  -8.219  0.00  0.00     0.070 C 
ATOM     27  C   UNL d   1      -2.027   1.614  -7.419  0.00  0.00     0.053 A 
ATOM     28  C   UNL d   1      -1.275   1.934  -6.305  0.00  0.00     0.050 A 
ATOM     29  C   UNL d   1      -0.624   3.236  -6.007  0.00  0.00     0.071 C 
ENDBRANCH   1  22
TORSDOF 4
