REMARK  3 active torsions:
REMARK  status: ('A' for Active; 'I' for Inactive)
REMARK    1  A    between atoms: N_14  and  C_4 
REMARK    2  A    between atoms: C_13  and  C_9 
REMARK    3  A    between atoms: C_12  and  C_11 
ROOT
ATOM      1  C   UNL d   1       0.184  -0.812   0.024  0.00  0.00     0.148 A 
ATOM      2  N   UNL d   1       0.243   0.591   0.013  0.00  0.00    -0.222 N 
ATOM      3  C   UNL d   1       1.491  -1.243   0.025  0.00  0.00     0.077 A 
ATOM      4  C   UNL d   1      -0.969   1.367   0.012  0.00  0.00     0.128 A 
ATOM      5  N   UNL d   1       1.543   1.015  -0.026  0.00  0.00    -0.293 N 
ATOM      6  HN  UNL d   1       1.869   1.981  -0.070  1.00  0.00     0.187 HD
ATOM      7  N   UNL d   1      -0.992  -1.506   0.030  0.00  0.00    -0.336 N 
ATOM      8  HN  UNL d   1      -1.007  -2.526   0.042  1.00  0.00     0.167 HD
ATOM      9  C   UNL d   1       2.308  -0.090   0.005  0.00  0.00     0.054 A 
ATOM     10  C   UNL d   1      -2.131   0.682   0.011  0.00  0.00     0.084 A 
ATOM     11  C   UNL d   1      -2.096  -0.811   0.019  0.00  0.00     0.121 A 
ATOM     12  I   UNL d   1       2.003  -3.213   0.039  0.00  0.00    -0.038 I 
ENDROOT
BRANCH   9  13
ATOM     13  C   UNL d   1       3.837   0.061  -0.012  0.00  0.00    -0.006 C 
ATOM     14  C   UNL d   1       4.441  -0.566  -1.284  0.00  0.00     0.021 C 
ATOM     15  C   UNL d   1       4.269   1.551  -0.004  0.00  0.00     0.021 C 
ATOM     16  C   UNL d   1       4.472  -0.580   1.239  0.00  0.00     0.021 C 
ENDBRANCH   9  13
BRANCH   4  17
ATOM     17  N   UNL d   1      -0.942   2.782   0.006  0.00  0.00    -0.374 N 
ATOM     18  C   UNL d   1      -1.997   3.604  -0.591  0.00  0.00     0.150 C 
ATOM     19  C   UNL d   1       0.129   3.576   0.614  0.00  0.00     0.150 C 
ENDBRANCH   4  17
BRANCH  11  20
ATOM     20  C   UNL d   1      -3.445  -1.532   0.015  0.00  0.00     0.432 C 
ATOM     21  F   UNL d   1      -4.505  -0.672  -0.010  0.00  0.00    -0.165 F 
ATOM     22  F   UNL d   1      -3.595  -2.344  -1.067  0.00  0.00    -0.165 F 
ATOM     23  F   UNL d   1      -3.619  -2.310   1.117  0.00  0.00    -0.165 F 
ENDBRANCH  11  20
TORSDOF 3
