REMARK  2 active torsions:
REMARK  status: ('A' for Active; 'I' for Inactive)
REMARK    1  A    between atoms: C_9  and  N_6 
REMARK    2  A    between atoms: O_16  and  C_10 
ROOT
ATOM      1  C   UNL d   1      -1.134   0.707  -0.067  0.00  0.00     0.114 C 
ATOM      2  C   UNL d   1      -1.720  -0.700  -0.331  0.00  0.00     0.273 C 
ATOM      3  N   UNL d   1      -0.649  -1.564  -0.238  0.00  0.00    -0.321 N 
ATOM      4  C   UNL d   1       0.319   0.508  -0.033  0.00  0.00     0.023 A 
ATOM      5  C   UNL d   1       0.541  -0.865  -0.089  0.00  0.00     0.047 A 
ATOM      6  N   UNL d   1      -1.707   1.846   0.159  0.00  0.00    -0.351 N 
ATOM      7  HN  UNL d   1      -1.125   2.671   0.298  1.00  0.00     0.166 HD
ATOM      8  O   UNL d   1      -2.865  -0.998  -0.593  0.00  0.00    -0.266 OA
ATOM      9  C   UNL d   1       1.354   1.417   0.055  0.00  0.00     0.016 A 
ATOM     10  C   UNL d   1       1.812  -1.394  -0.029  0.00  0.00     0.030 A 
ATOM     11  C   UNL d   1       2.653   0.899   0.095  0.00  0.00     0.001 A 
ATOM     12  C   UNL d   1       2.878  -0.493   0.065  0.00  0.00     0.002 A 
ATOM     13  H   UNL d   1      -0.742  -2.560  -0.363  0.00  0.00     0.169 HD
ENDROOT
BRANCH   6  14
ATOM     14  C   UNL d   1      -3.103   1.983   0.219  0.00  0.00     0.032 A 
ATOM     15  C   UNL d   1      -3.922   1.168   1.007  0.00  0.00     0.032 A 
ATOM     16  C   UNL d   1      -5.305   1.364   1.046  0.00  0.00     0.039 A 
ATOM     17  C   UNL d   1      -5.868   2.422   0.346  0.00  0.00     0.065 A 
ATOM     18  C   UNL d   1      -5.069   3.288  -0.390  0.00  0.00     0.039 A 
ATOM     19  C   UNL d   1      -3.689   3.063  -0.451  0.00  0.00     0.032 A 
BRANCH  17  20
ATOM     20  O   UNL d   1      -7.220   2.583   0.418  0.00  0.00    -0.361 OA
ATOM     21  H   UNL d   1      -7.470   3.338  -0.138  0.00  0.00     0.217 HD
ENDBRANCH  17  20
ENDBRANCH   6  14
TORSDOF 2
