REMARK  6 active torsions:
REMARK  status: ('A' for Active; 'I' for Inactive)
REMARK    1  A    between atoms: N_2  and  C_1 
REMARK    2  A    between atoms: O_8  and  C_3 
REMARK    3  A    between atoms: C_5  and  C_6 
REMARK    4  A    between atoms: N_20  and  C_5 
REMARK    5  A    between atoms: C_7  and  O_8 
REMARK    6  A    between atoms: O_23  and  N_11 
ROOT
ATOM      1  C   UNL d   1      -4.200   4.427   0.857  0.00  0.00     0.137 A 
ATOM      2  C   UNL d   1      -5.161   3.476   0.495  0.00  0.00     0.109 A 
ATOM      3  C   UNL d   1      -2.829   4.136   0.821  0.00  0.00     0.053 A 
ATOM      4  C   UNL d   1      -2.399   2.846   0.484  0.00  0.00     0.006 A 
ATOM      5  C   UNL d   1      -4.719   2.182   0.196  0.00  0.00     0.041 A 
ATOM      6  C   UNL d   1      -3.354   1.863   0.199  0.00  0.00     0.018 A 
ENDROOT
BRANCH   2   7
ATOM      7  O   UNL d   1      -6.527   3.613   0.493  0.00  0.00    -0.308 OA
BRANCH   7   8
ATOM      8  C   UNL d   1      -7.141   4.737  -0.006  0.00  0.00     0.079 A 
ATOM      9  C   UNL d   1      -6.631   5.563  -1.008  0.00  0.00     0.061 A 
ATOM     10  C   UNL d   1      -7.327   6.722  -1.361  0.00  0.00     0.038 A 
ATOM     11 CL   UNL d   1      -6.651   7.796  -2.524  0.00  0.00    -0.084 Cl
ATOM     12  C   UNL d   1      -8.553   7.029  -0.775  0.00  0.00     0.048 A 
ATOM     13  C   UNL d   1      -9.091   6.156   0.165  0.00  0.00     0.038 A 
ATOM     14  C   UNL d   1      -8.393   5.014   0.551  0.00  0.00     0.061 A 
ATOM     15 CL   UNL d   1     -10.628   6.492   0.863  0.00  0.00    -0.084 Cl
ENDBRANCH   7   8
ENDBRANCH   2   7
BRANCH   1  16
ATOM     16  N   UNL d   1      -4.566   5.738   1.347  0.00  0.00    -0.113 N 
ATOM     17  O   UNL d   1      -5.313   5.787   2.333  0.00  0.00    -0.532 OA
ATOM     18  O   UNL d   1      -4.080   6.713   0.764  0.00  0.00    -0.532 OA
ENDBRANCH   1  16
BRANCH   4  19
ATOM     19  C   UNL d   1      -0.932   2.538   0.466  0.00  0.00     0.108 C 
ATOM     20  N   UNL d   1      -0.095   3.504   0.727  0.00  0.00    -0.258 N 
ATOM     21  HN  UNL d   1      -0.369   4.456   0.970  1.00  0.00     0.195 HD
BRANCH  20  22
ATOM     22  O   UNL d   1       1.234   3.061   0.627  0.00  0.00    -0.289 OA
ATOM     23  H   UNL d   1       1.731   3.870   0.851  0.00  0.00     0.244 HD
ENDBRANCH  20  22
BRANCH  19  24
ATOM     24  N   UNL d   1      -0.497   1.268   0.174  0.00  0.00    -0.287 NA
ATOM     25  H   UNL d   1      -0.917   0.840  -0.642  0.00  0.00     0.125 HD
ATOM     26  H   UNL d   1       0.518   1.286   0.088  0.00  0.00     0.125 HD
ENDBRANCH  19  24
ENDBRANCH   4  19
TORSDOF 6
