REMARK  7 active torsions:
REMARK  status: ('A' for Active; 'I' for Inactive)
REMARK    1  A    between atoms: C_6  and  C_1 
REMARK    2  A    between atoms: C_22  and  C_4 
REMARK    3  A    between atoms: S_15  and  C_6 
REMARK    4  A    between atoms: C_18  and  S_15 
REMARK    5  A    between atoms: C_20  and  C_30 
REMARK    6  A    between atoms: O_29  and  C_32 
REMARK    7  A    between atoms: C_30  and  O_29 
ROOT
ATOM      1  C   UNL d   1       0.092  -2.672  -0.008  0.00  0.00    -0.002 A 
ATOM      2  C   UNL d   1       0.580  -3.529   0.988  0.00  0.00     0.017 A 
ATOM      3  C   UNL d   1      -0.602  -3.241  -1.089  0.00  0.00     0.017 A 
ATOM      4  C   UNL d   1      -0.507  -5.430  -0.059  0.00  0.00     0.069 A 
ATOM      5  C   UNL d   1       0.278  -4.897   0.964  0.00  0.00     0.037 A 
ATOM      6  C   UNL d   1      -0.893  -4.609  -1.118  0.00  0.00     0.037 A 
ENDROOT
BRANCH   1   7
ATOM      7  C   UNL d   1       0.239  -1.214   0.145  0.00  0.00     0.085 A 
ATOM      8  N   UNL d   1       1.256  -0.589   0.707  0.00  0.00    -0.346 N 
ATOM      9  C   UNL d   1       1.016   0.795   0.795  0.00  0.00     0.097 A 
ATOM     10  HN  UNL d   1       2.106  -1.048   1.035  1.00  0.00     0.167 HD
ATOM     11  C   UNL d   1      -0.245   1.155   0.338  0.00  0.00     0.086 A 
ATOM     12  S   UNL d   1      -1.078  -0.188  -0.292  0.00  0.00    -0.081 SA
BRANCH   9  13
ATOM     13  C   UNL d   1       2.010   1.719   1.373  0.00  0.00     0.240 C 
ATOM     14  O   UNL d   1       2.937   1.385   2.098  0.00  0.00    -0.278 OA
BRANCH  13  15
ATOM     15  S   UNL d   1       1.803   3.411   0.864  0.00  0.00    -0.044 SA
BRANCH  15  16
ATOM     16  C   UNL d   1       2.028   4.309   2.391  0.00  0.00     0.030 A 
ATOM     17  C   UNL d   1       1.382   4.016   3.605  0.00  0.00     0.052 A 
ATOM     18  C   UNL d   1       1.687   4.735   4.766  0.00  0.00     0.049 A 
ATOM     19 CL   UNL d   1       0.130   2.827   3.735  0.00  0.00    -0.083 Cl
ATOM     20  C   UNL d   1       2.588   5.794   4.708  0.00  0.00     0.035 A 
ATOM     21  C   UNL d   1       3.163   6.163   3.496  0.00  0.00     0.025 A 
ATOM     22 CL   UNL d   1       2.981   6.661   6.139  0.00  0.00    -0.084 Cl
ATOM     23  C   UNL d   1       2.888   5.420   2.344  0.00  0.00     0.022 A 
ENDBRANCH  15  16
ENDBRANCH  13  15
ENDBRANCH   9  13
ENDBRANCH   1   7
BRANCH   4  24
ATOM     24  O   UNL d   1      -0.855  -6.750   0.073  0.00  0.00    -0.347 OA
BRANCH  24  25
ATOM     25  C   UNL d   1      -2.051  -7.123  -0.618  0.00  0.00     0.214 C 
BRANCH  25  26
ATOM     26  C   UNL d   1      -2.639  -8.381  -0.007  0.00  0.00    -0.032 A 
ATOM     27  C   UNL d   1      -3.927  -8.316   0.580  0.00  0.00     0.043 A 
ATOM     28  C   UNL d   1      -4.420  -9.536   1.077  0.00  0.00     0.086 A 
ATOM     29  N   UNL d   1      -5.593  -9.797   1.667  0.00  0.00    -0.240 N 
ATOM     30  C   UNL d   1      -3.659 -10.773   1.000  0.00  0.00     0.085 A 
ATOM     31  O   UNL d   1      -5.573 -11.152   1.955  0.00  0.00    -0.156 OA
ATOM     32  HN  UNL d   1      -6.345  -9.137   1.863  1.00  0.00     0.197 HD
ATOM     33  N   UNL d   1      -4.392 -11.751   1.546  0.00  0.00    -0.240 N 
ATOM     34  HN  UNL d   1      -4.134 -12.733   1.641  1.00  0.00     0.197 HD
ATOM     35  C   UNL d   1      -2.376 -10.831   0.427  0.00  0.00     0.034 A 
ATOM     36  C   UNL d   1      -1.898  -9.601  -0.070  0.00  0.00     0.012 A 
ENDBRANCH  25  26
ENDBRANCH  24  25
ENDBRANCH   4  24
TORSDOF 7
