REMARK  7 active torsions:
REMARK  status: ('A' for Active; 'I' for Inactive)
REMARK    1  A    between atoms: N_9  and  C_1 
REMARK    2  A    between atoms: C_15  and  N_2 
REMARK    3  A    between atoms: C_3  and  C_15 
REMARK    4  A    between atoms: S_16  and  C_10 
REMARK    5  A    between atoms: C_22  and  S_16 
REMARK    6  A    between atoms: C_18  and  C_22 
REMARK       I    between atoms: N_20  and  C_18 
REMARK    7  A    between atoms: C_26  and  N_20 
ROOT
ATOM      1  C   UNL d   1       3.426   0.846  -0.251  0.00  0.00     0.120 A 
ATOM      2  N   UNL d   1       3.668   0.264  -1.480  0.00  0.00    -0.318 N 
ATOM      3  C   UNL d   1       4.955  -0.205  -1.422  0.00  0.00     0.162 A 
ATOM      4  N   UNL d   1       4.518   0.736   0.483  0.00  0.00    -0.285 N 
ATOM      5  HN  UNL d   1       4.632   1.079   1.437  1.00  0.00     0.188 HD
ATOM      6  N   UNL d   1       5.473   0.083  -0.253  0.00  0.00    -0.278 N 
ATOM      7  HN  UNL d   1       6.419  -0.140   0.055  1.00  0.00     0.189 HD
ATOM      8  C   UNL d   1       2.745   0.110  -2.575  0.00  0.00     0.160 C 
ENDROOT
BRANCH   1   9
ATOM      9  C   UNL d   1       2.129   1.401   0.222  0.00  0.00     0.227 C 
BRANCH   9  10
ATOM     10  N   UNL d   1       2.191   2.847   0.431  0.00  0.00    -0.287 N 
ATOM     11  C   UNL d   1       2.387   3.525   1.614  0.00  0.00     0.060 A 
ATOM     12  C   UNL d   1       2.072   4.853   1.336  0.00  0.00     0.150 A 
ATOM     13  C   UNL d   1       2.825   2.872   2.877  0.00  0.00     0.072 C 
ATOM     14  C   UNL d   1       1.782   4.883  -0.051  0.00  0.00     0.057 A 
ATOM     15  N   UNL d   1       1.841   3.660  -0.595  0.00  0.00    -0.300 N 
ATOM     16  C   UNL d   1       1.424   6.051  -0.901  0.00  0.00     0.072 C 
ATOM     17  HN  UNL d   1       1.662   3.399  -1.565  1.00  0.00     0.187 HD
BRANCH  12  18
ATOM     18  N   UNL d   1       2.036   5.950   2.270  0.00  0.00    -0.112 N 
ATOM     19  O   UNL d   1       2.232   5.696   3.464  0.00  0.00    -0.532 OA
ATOM     20  O   UNL d   1       1.779   7.071   1.812  0.00  0.00    -0.532 OA
ENDBRANCH  12  18
ENDBRANCH   9  10
ENDBRANCH   1   9
BRANCH   3  21
ATOM     21  S   UNL d   1       5.751  -1.080  -2.697  0.00  0.00    -0.083 SA
BRANCH  21  22
ATOM     22  C   UNL d   1       7.273  -1.548  -1.823  0.00  0.00     0.185 C 
BRANCH  22  23
ATOM     23  C   UNL d   1       8.318  -2.307  -2.628  0.00  0.00     0.231 C 
ATOM     24  N   UNL d   1       8.079  -2.486  -3.977  0.00  0.00    -0.327 N 
ATOM     25  H   UNL d   1       7.263  -2.019  -4.356  0.00  0.00     0.169 HD
ATOM     26  O   UNL d   1       9.336  -2.682  -2.041  0.00  0.00    -0.272 OA
BRANCH  24  27
ATOM     27  C   UNL d   1       8.938  -3.126  -4.904  0.00  0.00     0.034 A 
ATOM     28  C   UNL d   1      10.040  -3.902  -4.531  0.00  0.00     0.029 A 
ATOM     29  C   UNL d   1      10.889  -4.457  -5.494  0.00  0.00     0.002 A 
ATOM     30  C   UNL d   1      10.641  -4.248  -6.847  0.00  0.00     0.000 A 
ATOM     31  C   UNL d   1       9.527  -3.507  -7.235  0.00  0.00     0.002 A 
ATOM     32  C   UNL d   1       8.674  -2.958  -6.270  0.00  0.00     0.029 A 
ENDBRANCH  24  27
ENDBRANCH  22  23
ENDBRANCH  21  22
ENDBRANCH   3  21
TORSDOF 7
