REMARK  4 active torsions:
REMARK  status: ('A' for Active; 'I' for Inactive)
REMARK    1  A    between atoms: C_9  and  C_6 
REMARK    2  A    between atoms: O_10  and  C_11 
REMARK    3  A    between atoms: C_14  and  O_10 
REMARK    4  A    between atoms: C_13  and  C_14 
ROOT
ATOM      1  C   UNL d   1      -3.859   0.401   0.087  0.00  0.00    -0.035 A 
ATOM      2  C   UNL d   1      -6.240  -1.072   0.123  0.00  0.00     0.069 A 
ATOM      3  C   UNL d   1      -4.112  -0.498   1.127  0.00  0.00     0.014 A 
ATOM      4  C   UNL d   1      -4.817   0.590  -0.912  0.00  0.00     0.014 A 
ATOM      5  C   UNL d   1      -6.009  -0.136  -0.887  0.00  0.00     0.037 A 
ATOM      6  C   UNL d   1      -5.304  -1.226   1.146  0.00  0.00     0.037 A 
ENDROOT
BRANCH   1   7
ATOM      7  C   UNL d   1      -2.596   1.138   0.032  0.00  0.00     0.036 C 
ATOM      8  C   UNL d   1      -1.489   0.712  -0.590  0.00  0.00     0.076 A 
ATOM      9  C   UNL d   1      -0.241   1.514  -0.606  0.00  0.00     0.264 A 
ATOM     10  S   UNL d   1      -1.249  -0.764  -1.454  0.00  0.00    -0.055 SA
ATOM     11  N   UNL d   1       0.733   0.840  -1.284  0.00  0.00    -0.307 N 
ATOM     12  O   UNL d   1      -0.096   2.613  -0.093  0.00  0.00    -0.267 OA
ATOM     13  C   UNL d   1       0.420  -0.378  -1.809  0.00  0.00     0.146 A 
ATOM     14  H   UNL d   1       1.652   1.242  -1.385  0.00  0.00     0.170 HD
ATOM     15  S   UNL d   1       1.494  -1.316  -2.650  0.00  0.00    -0.052 SA
ENDBRANCH   1   7
BRANCH   2  16
ATOM     16  O   UNL d   1      -7.341  -1.882   0.200  0.00  0.00    -0.347 OA
BRANCH  16  17
ATOM     17  C   UNL d   1      -8.003  -2.117  -1.045  0.00  0.00     0.214 C 
BRANCH  17  18
ATOM     18  C   UNL d   1      -8.820  -3.382  -0.951  0.00  0.00    -0.034 A 
ATOM     19  C   UNL d   1     -10.190  -3.372  -1.254  0.00  0.00     0.012 A 
ATOM     20  C   UNL d   1     -10.928  -4.555  -1.208  0.00  0.00     0.043 A 
ATOM     21  C   UNL d   1     -10.297  -5.745  -0.863  0.00  0.00     0.116 A 
ATOM     22  C   UNL d   1      -8.940  -5.777  -0.567  0.00  0.00     0.043 A 
ATOM     23  F   UNL d   1     -11.008  -6.879  -0.822  0.00  0.00    -0.206 F 
ATOM     24  C   UNL d   1      -8.201  -4.596  -0.611  0.00  0.00     0.012 A 
ENDBRANCH  17  18
ENDBRANCH  16  17
ENDBRANCH   2  16
TORSDOF 4
