REMARK  6 active torsions:
REMARK  status: ('A' for Active; 'I' for Inactive)
REMARK    1  A    between atoms: C_3  and  C_1 
REMARK    2  A    between atoms: C_15  and  N_2 
REMARK    3  A    between atoms: S_14  and  C_6 
REMARK    4  A    between atoms: C_16  and  C_15 
REMARK    5  A    between atoms: C_19  and  C_16 
REMARK    6  A    between atoms: O_18  and  C_19 
ROOT
ATOM      1  C   UNL d   1      -0.221  -1.268  -0.022  0.00  0.00     0.152 A 
ATOM      2  N   UNL d   1       1.045  -0.713  -0.048  0.00  0.00    -0.310 N 
ATOM      3  N   UNL d   1      -1.109  -0.309  -0.199  0.00  0.00    -0.281 N 
ATOM      4  HN  UNL d   1      -2.118  -0.438  -0.279  1.00  0.00     0.188 HD
ATOM      5  C   UNL d   1       0.835   0.642  -0.139  0.00  0.00     0.160 A 
ATOM      6  N   UNL d   1      -0.448   0.888  -0.259  0.00  0.00    -0.278 N 
ATOM      7  HN  UNL d   1      -0.876   1.807  -0.375  1.00  0.00     0.189 HD
ENDROOT
BRANCH   1   8
ATOM      8  C   UNL d   1      -0.600  -2.697   0.180  0.00  0.00     0.085 A 
ATOM      9  N   UNL d   1       0.323  -3.696   0.438  0.00  0.00    -0.351 N 
ATOM     10  C   UNL d   1      -0.299  -4.843   0.596  0.00  0.00     0.047 A 
ATOM     11  HN  UNL d   1       1.332  -3.563   0.496  1.00  0.00     0.166 HD
ATOM     12  C   UNL d   1       0.376  -6.134   0.912  0.00  0.00     0.076 C 
ATOM     13  S   UNL d   1      -2.010  -4.794   0.438  0.00  0.00    -0.087 SA
ATOM     14  C   UNL d   1      -1.916  -3.111   0.143  0.00  0.00     0.084 A 
ENDBRANCH   1   8
BRANCH   2  15
ATOM     15  C   UNL d   1       2.295  -1.437   0.021  0.00  0.00     0.135 C 
BRANCH  15  16
ATOM     16  C   UNL d   1       2.649  -2.225  -1.247  0.00  0.00     0.046 C 
BRANCH  16  17
ATOM     17  C   UNL d   1       2.714  -1.381  -2.514  0.00  0.00     0.168 C 
BRANCH  17  18
ATOM     18  O   UNL d   1       3.673  -0.343  -2.339  0.00  0.00    -0.396 OA
ATOM     19  C   UNL d   1       3.804   0.437  -3.525  0.00  0.00     0.201 C 
ENDBRANCH  17  18
ENDBRANCH  16  17
ENDBRANCH  15  16
ENDBRANCH   2  15
BRANCH   5  20
ATOM     20  S   UNL d   1       2.042   1.880  -0.074  0.00  0.00    -0.105 SA
ATOM     21  H   UNL d   1       3.157   1.168  -0.274  0.00  0.00     0.110 HD
ENDBRANCH   5  20
TORSDOF 6
