REMARK  4 active torsions:
REMARK  status: ('A' for Active; 'I' for Inactive)
REMARK    1  A    between atoms: C_2  and  C_1 
REMARK       I    between atoms: N_9  and  C_2 
REMARK    2  A    between atoms: O_12  and  C_3 
REMARK    3  A    between atoms: N_6  and  N_9 
REMARK    4  A    between atoms: C_13  and  C_11 
ROOT
ATOM      1  C   UNL d   1       2.824   1.362   0.026  0.00  0.00     0.273 C 
ATOM      2  N   UNL d   1       4.158   0.947  -0.065  0.00  0.00    -0.266 N 
ATOM      3  O   UNL d   1       1.900   0.631  -0.325  0.00  0.00    -0.266 OA
ATOM      4  H   UNL d   1       4.882   1.654  -0.091  0.00  0.00     0.190 HD
ENDROOT
BRANCH   2   5
ATOM      5  N   UNL d   1       4.588  -0.260  -0.591  0.00  0.00    -0.308 N 
ATOM      6  C   UNL d   1       3.841  -1.304  -0.395  0.00  0.00     0.118 C 
ATOM      7  HN  UNL d   1       5.461  -0.326  -1.114  1.00  0.00     0.186 HD
BRANCH   6   8
ATOM      8  C   UNL d   1       4.152  -2.630  -0.970  0.00  0.00    -0.019 A 
ATOM      9  C   UNL d   1       5.391  -2.902  -1.555  0.00  0.00     0.014 A 
ATOM     10  C   UNL d   1       5.660  -4.186  -2.041  0.00  0.00     0.024 A 
ATOM     11  C   UNL d   1       4.688  -5.184  -1.948  0.00  0.00     0.034 A 
ATOM     12  C   UNL d   1       3.442  -4.908  -1.387  0.00  0.00     0.024 A 
ATOM     13 CL   UNL d   1       5.031  -6.769  -2.521  0.00  0.00    -0.084 Cl
ATOM     14  C   UNL d   1       3.173  -3.628  -0.894  0.00  0.00     0.014 A 
ENDBRANCH   6   8
ENDBRANCH   2   5
BRANCH   1  15
ATOM     15  C   UNL d   1       2.590   2.734   0.546  0.00  0.00     0.073 A 
ATOM     16  C   UNL d   1       1.334   3.461   0.726  0.00  0.00     0.090 A 
ATOM     17  C   UNL d   1       1.538   4.753   1.170  0.00  0.00     0.087 A 
ATOM     18  S   UNL d   1       3.167   5.123   1.441  0.00  0.00    -0.110 SA
ATOM     19  C   UNL d   1       3.638   3.557   0.959  0.00  0.00     0.069 A 
BRANCH  16  20
ATOM     20  O   UNL d   1       0.026   3.161   0.507  0.00  0.00    -0.354 OA
ATOM     21  C   UNL d   1      -0.351   1.804   0.420  0.00  0.00     0.210 C 
ENDBRANCH  16  20
ENDBRANCH   1  15
TORSDOF 4
