REMARK  16 active torsions:
REMARK  status: ('A' for Active; 'I' for Inactive)
REMARK    1  A    between atoms: C_1  and  O_6 
REMARK    2  A    between atoms: C_2  and  O_7 
REMARK    3  A    between atoms: C_3  and  O_10 
REMARK    4  A    between atoms: C_4  and  O_9 
REMARK    5  A    between atoms: C_12  and  O_6 
REMARK    6  A    between atoms: C_11  and  O_7 
REMARK    7  A    between atoms: C_8  and  C_17 
REMARK    8  A    between atoms: C_13  and  O_9 
REMARK    9  A    between atoms: C_14  and  O_10 
REMARK   10  A    between atoms: C_22  and  C_11 
REMARK   11  A    between atoms: C_23  and  C_12 
REMARK   12  A    between atoms: C_24  and  C_13 
REMARK   13  A    between atoms: C_25  and  C_14 
REMARK   14  A    between atoms: C_15  and  O_16 
REMARK   15  A    between atoms: C_27  and  C_15 
REMARK   16  A    between atoms: O_16  and  C_17 
ROOT
ATOM      1  C   UNL d   1       0.949  -1.352  -0.154  0.00  0.00     0.220 C 
ATOM      2  C   UNL d   1       1.744  -0.074   0.183  0.00  0.00     0.198 C 
ATOM      3  C   UNL d   1      -0.496  -1.224   0.378  0.00  0.00     0.302 C 
ATOM      4  C   UNL d   1       0.997   1.190  -0.285  0.00  0.00     0.195 C 
ATOM      5  O   UNL d   1      -1.125  -0.029  -0.120  0.00  0.00    -0.348 OA
ATOM      6  C   UNL d   1      -0.440   1.175   0.268  0.00  0.00     0.181 C 
ENDROOT
BRANCH   6   7
ATOM      7  C   UNL d   1      -1.265   2.382  -0.215  0.00  0.00     0.213 C 
BRANCH   7   8
ATOM      8  O   UNL d   1      -0.624   3.628   0.105  0.00  0.00    -0.315 OA
BRANCH   8   9
ATOM      9  C   UNL d   1      -0.758   4.043   1.374  0.00  0.00     0.293 C 
ATOM     10  O   UNL d   1      -1.382   3.494   2.262  0.00  0.00    -0.259 OA
BRANCH   9  11
ATOM     11  C   UNL d   1       0.038   5.298   1.601  0.00  0.00     0.039 A 
ATOM     12  C   UNL d   1       0.022   5.890   2.874  0.00  0.00     0.017 A 
ATOM     13  C   UNL d   1       0.792   7.024   3.135  0.00  0.00     0.001 A 
ATOM     14  C   UNL d   1       1.580   7.580   2.128  0.00  0.00     0.000 A 
ATOM     15  C   UNL d   1       1.600   7.003   0.858  0.00  0.00     0.001 A 
ATOM     16  C   UNL d   1       0.834   5.866   0.592  0.00  0.00     0.017 A 
ENDBRANCH   9  11
ENDBRANCH   8   9
ENDBRANCH   7   8
ENDBRANCH   6   7
BRANCH   4  17
ATOM     17  O   UNL d   1       0.946   1.221  -1.734  0.00  0.00    -0.307 OA
BRANCH  17  18
ATOM     18  C   UNL d   1       2.001   1.819  -2.348  0.00  0.00     0.293 C 
ATOM     19  O   UNL d   1       2.920   2.400  -1.790  0.00  0.00    -0.259 OA
BRANCH  18  20
ATOM     20  C   UNL d   1       1.937   1.641  -3.821  0.00  0.00     0.039 A 
ATOM     21  C   UNL d   1       3.023   2.094  -4.586  0.00  0.00     0.017 A 
ATOM     22  C   UNL d   1       3.029   1.920  -5.971  0.00  0.00     0.001 A 
ATOM     23  C   UNL d   1       1.952   1.298  -6.597  0.00  0.00     0.000 A 
ATOM     24  C   UNL d   1       0.864   0.855  -5.844  0.00  0.00     0.001 A 
ATOM     25  C   UNL d   1       0.854   1.024  -4.458  0.00  0.00     0.017 A 
ENDBRANCH  18  20
ENDBRANCH  17  18
ENDBRANCH   4  17
BRANCH   3  26
ATOM     26  O   UNL d   1      -0.524  -1.219   1.815  0.00  0.00    -0.283 OA
BRANCH  26  27
ATOM     27  C   UNL d   1      -0.559  -2.441   2.401  0.00  0.00     0.295 C 
ATOM     28  O   UNL d   1      -0.644  -3.515   1.828  0.00  0.00    -0.259 OA
BRANCH  27  29
ATOM     29  C   UNL d   1      -0.413  -2.318   3.875  0.00  0.00     0.039 A 
ATOM     30  C   UNL d   1      -0.324  -3.496   4.631  0.00  0.00     0.017 A 
ATOM     31  C   UNL d   1      -0.141  -3.433   6.013  0.00  0.00     0.001 A 
ATOM     32  C   UNL d   1      -0.050  -2.195   6.646  0.00  0.00     0.000 A 
ATOM     33  C   UNL d   1      -0.153  -1.019   5.903  0.00  0.00     0.001 A 
ATOM     34  C   UNL d   1      -0.335  -1.077   4.520  0.00  0.00     0.017 A 
ENDBRANCH  27  29
ENDBRANCH  26  27
ENDBRANCH   3  26
BRANCH   2  35
ATOM     35  O   UNL d   1       3.025  -0.120  -0.490  0.00  0.00    -0.306 OA
BRANCH  35  36
ATOM     36  C   UNL d   1       4.082  -0.621   0.187  0.00  0.00     0.293 C 
ATOM     37  O   UNL d   1       4.082  -0.944   1.365  0.00  0.00    -0.259 OA
BRANCH  36  38
ATOM     38  C   UNL d   1       5.225  -0.854  -0.739  0.00  0.00     0.039 A 
ATOM     39  C   UNL d   1       6.317  -1.593  -0.266  0.00  0.00     0.017 A 
ATOM     40  C   UNL d   1       7.387  -1.889  -1.113  0.00  0.00     0.001 A 
ATOM     41  C   UNL d   1       7.376  -1.443  -2.435  0.00  0.00     0.000 A 
ATOM     42  C   UNL d   1       6.295  -0.705  -2.913  0.00  0.00     0.001 A 
ATOM     43  C   UNL d   1       5.222  -0.413  -2.069  0.00  0.00     0.017 A 
ENDBRANCH  36  38
ENDBRANCH  35  36
ENDBRANCH   2  35
BRANCH   1  44
ATOM     44  O   UNL d   1       1.595  -2.488   0.474  0.00  0.00    -0.304 OA
BRANCH  44  45
ATOM     45  C   UNL d   1       2.511  -3.177  -0.248  0.00  0.00     0.293 C 
ATOM     46  O   UNL d   1       2.750  -3.009  -1.432  0.00  0.00    -0.259 OA
BRANCH  45  47
ATOM     47  C   UNL d   1       3.308  -4.075   0.639  0.00  0.00     0.039 A 
ATOM     48  C   UNL d   1       4.468  -4.660   0.114  0.00  0.00     0.017 A 
ATOM     49  C   UNL d   1       5.300  -5.436   0.925  0.00  0.00     0.001 A 
ATOM     50  C   UNL d   1       4.976  -5.636   2.267  0.00  0.00     0.000 A 
ATOM     51  C   UNL d   1       3.817  -5.068   2.795  0.00  0.00     0.001 A 
ATOM     52  C   UNL d   1       2.985  -4.291   1.986  0.00  0.00     0.017 A 
ENDBRANCH  45  47
ENDBRANCH  44  45
ENDBRANCH   1  44
TORSDOF 16
