REMARK  8 active torsions:
REMARK  status: ('A' for Active; 'I' for Inactive)
REMARK       I    between atoms: N_2  and  C_1 
REMARK       I    between atoms: N_5  and  C_1 
REMARK    1  A    between atoms: C_3  and  N_2 
REMARK    2  A    between atoms: C_12  and  N_2 
REMARK    3  A    between atoms: C_4  and  C_3 
REMARK    4  A    between atoms: C_13  and  C_3 
REMARK    5  A    between atoms: C_6  and  C_4 
REMARK    6  A    between atoms: C_10  and  N_5 
REMARK    7  A    between atoms: C_7  and  C_6 
REMARK    8  A    between atoms: O_22  and  C_19 
ROOT
ATOM      1  C   UNL d   1       0.869   0.367   0.168  0.00  0.00     0.328 C 
ATOM      2  N   UNL d   1       0.259  -0.502  -0.737  0.00  0.00    -0.290 N 
ATOM      3  N   UNL d   1       0.061   0.991   1.095  0.00  0.00    -0.307 N 
ATOM      4  O   UNL d   1       2.089   0.594   0.120  0.00  0.00    -0.246 OA
ATOM      5  H   UNL d   1      -0.669   0.421   1.512  0.00  0.00     0.170 HD
ENDROOT
BRANCH   2   6
ATOM      6  C   UNL d   1      -1.210  -0.739  -0.980  0.00  0.00     0.134 C 
BRANCH   6   7
ATOM      7  C   UNL d   1      -1.665  -2.123  -0.466  0.00  0.00     0.109 C 
BRANCH   7   8
ATOM      8  C   UNL d   1      -1.459  -2.293   1.012  0.00  0.00     0.133 C 
ATOM      9  O   UNL d   1      -1.947  -1.532   1.840  0.00  0.00    -0.297 OA
BRANCH   8  10
ATOM     10  C   UNL d   1      -0.639  -3.473   1.423  0.00  0.00     0.055 A 
ATOM     11  C   UNL d   1      -1.184  -4.495   2.389  0.00  0.00     0.013 A 
ATOM     12  C   UNL d   1      -0.089  -3.563   2.824  0.00  0.00     0.013 A 
ENDBRANCH   8  10
ENDBRANCH   7   8
ENDBRANCH   6   7
BRANCH   6  13
ATOM     13  C   UNL d   1      -2.182   0.440  -0.882  0.00  0.00    -0.035 A 
ATOM     14  C   UNL d   1      -1.807   1.706  -1.368  0.00  0.00     0.009 A 
ATOM     15  C   UNL d   1      -2.748   2.727  -1.532  0.00  0.00     0.001 A 
ATOM     16  C   UNL d   1      -4.089   2.498  -1.241  0.00  0.00     0.000 A 
ATOM     17  C   UNL d   1      -4.482   1.262  -0.741  0.00  0.00     0.001 A 
ATOM     18  C   UNL d   1      -3.537   0.251  -0.548  0.00  0.00     0.009 A 
ENDBRANCH   6  13
ENDBRANCH   2   6
BRANCH   2  19
ATOM     19  C   UNL d   1       1.126  -1.438  -1.423  0.00  0.00     0.040 A 
ATOM     20  C   UNL d   1       2.073  -2.179  -0.701  0.00  0.00     0.032 A 
ATOM     21  C   UNL d   1       2.773  -3.233  -1.304  0.00  0.00     0.039 A 
ATOM     22  C   UNL d   1       2.554  -3.538  -2.646  0.00  0.00     0.068 A 
ATOM     23  C   UNL d   1       1.657  -2.768  -3.383  0.00  0.00     0.039 A 
ATOM     24  C   UNL d   1       0.948  -1.725  -2.780  0.00  0.00     0.032 A 
BRANCH  22  25
ATOM     25  O   UNL d   1       3.135  -4.556  -3.350  0.00  0.00    -0.356 OA
ATOM     26  C   UNL d   1       4.136  -5.312  -2.683  0.00  0.00     0.210 C 
ENDBRANCH  22  25
ENDBRANCH   2  19
BRANCH   3  27
ATOM     27  C   UNL d   1       0.501   2.108   1.863  0.00  0.00     0.058 A 
ATOM     28  C   UNL d   1       0.068   2.285   3.185  0.00  0.00     0.060 A 
ATOM     29 CL   UNL d   1      -0.957   1.125   3.954  0.00  0.00    -0.082 Cl
ATOM     30  C   UNL d   1       0.503   3.382   3.942  0.00  0.00     0.026 A 
ATOM     31  C   UNL d   1       1.355   4.333   3.378  0.00  0.00     0.002 A 
ATOM     32  C   UNL d   1       1.774   4.184   2.060  0.00  0.00     0.002 A 
ATOM     33  C   UNL d   1       1.352   3.081   1.310  0.00  0.00     0.031 A 
ENDBRANCH   3  27
TORSDOF 8
