REMARK  7 active torsions:
REMARK  status: ('A' for Active; 'I' for Inactive)
REMARK    1  A    between atoms: C_5  and  S_1 
REMARK    2  A    between atoms: N_6  and  S_1 
REMARK       I    between atoms: C_2  and  N_3 
REMARK    3  A    between atoms: O_8  and  C_2 
REMARK    4  A    between atoms: C_4  and  C_7 
REMARK    5  A    between atoms: C_19  and  N_6 
REMARK    6  A    between atoms: C_15  and  O_8 
REMARK    7  A    between atoms: C_22  and  C_19 
ROOT
ATOM      1  N   UNL d   1      -0.338   1.838  -0.330  0.00  0.00    -0.315 N 
ATOM      2  H   UNL d   1      -1.179   2.405  -0.244  0.00  0.00     0.172 HD
ENDROOT
BRANCH   1   3
ATOM      3  S   UNL d   1       0.110   1.070   1.099  0.00  0.00     0.258 S 
ATOM      4  O   UNL d   1      -1.103   0.872   1.855  0.00  0.00    -0.201 OA
ATOM      5  O   UNL d   1       1.003  -0.017   0.771  0.00  0.00    -0.201 OA
BRANCH   3   6
ATOM      6  C   UNL d   1       1.066   2.327   1.935  0.00  0.00     0.080 A 
ATOM      7  C   UNL d   1       0.437   3.161   2.867  0.00  0.00     0.041 A 
ATOM      8  C   UNL d   1       1.186   4.109   3.582  0.00  0.00     0.049 A 
ATOM      9  C   UNL d   1       2.564   4.220   3.326  0.00  0.00     0.016 A 
ATOM     10  C   UNL d   1       3.189   3.379   2.402  0.00  0.00     0.002 A 
ATOM     11  C   UNL d   1       2.445   2.417   1.718  0.00  0.00     0.025 A 
BRANCH   8  12
ATOM     12  C   UNL d   1       0.543   4.982   4.634  0.00  0.00     0.417 C 
ATOM     13  F   UNL d   1      -0.787   4.743   4.799  0.00  0.00    -0.166 F 
ATOM     14  F   UNL d   1       1.109   4.816   5.861  0.00  0.00    -0.166 F 
ATOM     15  F   UNL d   1       0.651   6.308   4.346  0.00  0.00    -0.166 F 
ENDBRANCH   8  12
ENDBRANCH   3   6
ENDBRANCH   1   3
BRANCH   1  16
ATOM     16  C   UNL d   1       0.697   2.164  -1.307  0.00  0.00     0.137 C 
BRANCH  16  17
ATOM     17  C   UNL d   1       0.121   2.848  -2.558  0.00  0.00     0.007 C 
ATOM     18  C   UNL d   1       1.240   3.055  -3.600  0.00  0.00     0.026 C 
ATOM     19  C   UNL d   1       2.242   4.127  -3.165  0.00  0.00     0.128 C 
ATOM     20  N   UNL d   1       1.563   5.366  -2.815  0.00  0.00    -0.328 N 
ATOM     21  C   UNL d   1       2.018   6.563  -3.349  0.00  0.00     0.363 C 
ATOM     22  C   UNL d   1       0.477   5.272  -1.844  0.00  0.00     0.128 C 
ATOM     23  O   UNL d   1       2.905   6.635  -4.189  0.00  0.00    -0.238 OA
ATOM     24  C   UNL d   1      -0.538   4.211  -2.269  0.00  0.00     0.026 C 
BRANCH  21  25
ATOM     25  O   UNL d   1       1.354   7.634  -2.847  0.00  0.00    -0.294 OA
BRANCH  25  26
ATOM     26  C   UNL d   1       1.556   8.965  -3.391  0.00  0.00     0.061 C 
ATOM     27  C   UNL d   1       1.144   9.013  -4.867  0.00  0.00     0.046 C 
ATOM     28  C   UNL d   1       0.609   9.863  -2.577  0.00  0.00     0.046 C 
ATOM     29  C   UNL d   1       2.993   9.457  -3.188  0.00  0.00     0.046 C 
ENDBRANCH  25  26
ENDBRANCH  21  25
ENDBRANCH  16  17
ENDBRANCH   1  16
TORSDOF 7
