REMARK  5 active torsions:
REMARK  status: ('A' for Active; 'I' for Inactive)
REMARK    1  A    between atoms: C_5  and  C_1 
REMARK    2  A    between atoms: C_10  and  C_4 
REMARK       I    between atoms: N_13  and  C_5 
REMARK    3  A    between atoms: C_9  and  O_12 
REMARK    4  A    between atoms: O_12  and  C_19 
REMARK    5  A    between atoms: N_20  and  N_13 
ROOT
ATOM      1  C   UNL d   1       0.360  -0.998  -0.426  0.00  0.00     0.241 A 
ATOM      2  N   UNL d   1       0.839   0.155  -0.856  0.00  0.00    -0.315 N 
ATOM      3  HN  UNL d   1       1.439   0.340  -1.660  1.00  0.00     0.169 HD
ATOM      4  C   UNL d   1       0.320   1.048   0.061  0.00  0.00     0.138 A 
ATOM      5  N   UNL d   1      -0.451   0.474   1.002  0.00  0.00    -0.242 N 
ATOM      6  HN  UNL d   1      -0.943   0.927   1.772  1.00  0.00     0.196 HD
ATOM      7  O   UNL d   1      -0.421  -0.880   0.681  0.00  0.00    -0.212 OA
ENDROOT
BRANCH   4   8
ATOM      8  C   UNL d   1       0.587   2.483   0.001  0.00  0.00     0.010 A 
ATOM      9  C   UNL d   1       1.390   3.026  -1.014  0.00  0.00     0.018 A 
ATOM     10  C   UNL d   1       1.623   4.409  -1.090  0.00  0.00     0.038 A 
ATOM     11  C   UNL d   1       1.036   5.267  -0.163  0.00  0.00     0.078 A 
ATOM     12  C   UNL d   1       0.277   4.728   0.877  0.00  0.00     0.038 A 
ATOM     13  C   UNL d   1       0.047   3.352   0.957  0.00  0.00     0.018 A 
BRANCH  11  14
ATOM     14  O   UNL d   1       1.131   6.625  -0.138  0.00  0.00    -0.255 OA
BRANCH  14  15
ATOM     15  C   UNL d   1       1.404   7.316  -1.346  0.00  0.00     0.530 C 
ATOM     16  F   UNL d   1       0.988   6.654  -2.446  0.00  0.00    -0.144 F 
ATOM     17  F   UNL d   1       0.759   8.504  -1.312  0.00  0.00    -0.144 F 
ATOM     18  F   UNL d   1       2.729   7.558  -1.448  0.00  0.00    -0.144 F 
ENDBRANCH  14  15
ENDBRANCH  11  14
ENDBRANCH   4   8
BRANCH   1  19
ATOM     19  C   UNL d   1       0.600  -2.304  -0.994  0.00  0.00     0.309 C 
ATOM     20  O   UNL d   1       0.163  -3.365  -0.538  0.00  0.00    -0.262 OA
ATOM     21  N   UNL d   1       1.393  -2.277  -2.143  0.00  0.00    -0.287 N 
ATOM     22  H   UNL d   1       1.656  -1.371  -2.535  0.00  0.00     0.183 HD
BRANCH  21  23
ATOM     23  N   UNL d   1       1.668  -3.463  -2.862  0.00  0.00    -0.247 NA
ATOM     24  H   UNL d   1       1.030  -4.191  -2.507  0.00  0.00     0.143 HD
ATOM     25  H   UNL d   1       2.596  -3.794  -2.586  0.00  0.00     0.143 HD
ENDBRANCH  21  23
ENDBRANCH   1  19
TORSDOF 5
