REMARK  3 active torsions:
REMARK  status: ('A' for Active; 'I' for Inactive)
REMARK    1  A    between atoms: N_7  and  N_1 
REMARK    2  A    between atoms: C_6  and  C_2 
REMARK    3  A    between atoms: C_14  and  N_7 
ROOT
ATOM      1  N   UNL d   1       0.811  -0.711   0.086  0.00  0.00    -0.237 N 
ATOM      2  C   UNL d   1      -0.527  -1.049  -0.107  0.00  0.00     0.075 A 
ATOM      3  C   UNL d   1       1.117   0.652  -0.044  0.00  0.00     0.164 A 
ATOM      4  C   UNL d   1      -1.305   0.025  -0.330  0.00  0.00     0.085 A 
ATOM      5  S   UNL d   1      -0.408   1.512  -0.335  0.00  0.00    -0.068 SA
ATOM      6  S   UNL d   1       2.604   1.403   0.009  0.00  0.00    -0.050 SA
ENDROOT
BRANCH   1   7
ATOM      7  N   UNL d   1       1.851  -1.617   0.331  0.00  0.00    -0.292 N 
ATOM      8  H   UNL d   1       2.243  -2.037  -0.505  0.00  0.00     0.187 HD
BRANCH   7   9
ATOM      9  C   UNL d   1       1.762  -2.457   1.458  0.00  0.00     0.048 A 
ATOM     10  C   UNL d   1       2.482  -3.662   1.460  0.00  0.00     0.031 A 
ATOM     11  C   UNL d   1       2.370  -4.564   2.520  0.00  0.00     0.002 A 
ATOM     12  C   UNL d   1       1.554  -4.261   3.608  0.00  0.00     0.000 A 
ATOM     13  C   UNL d   1       0.888  -3.042   3.654  0.00  0.00     0.002 A 
ATOM     14  C   UNL d   1       1.012  -2.136   2.597  0.00  0.00     0.031 A 
ENDBRANCH   7   9
ENDBRANCH   1   7
BRANCH   2  15
ATOM     15  C   UNL d   1      -1.087  -2.413  -0.049  0.00  0.00    -0.005 A 
ATOM     16  C   UNL d   1      -2.243  -2.666   0.712  0.00  0.00     0.039 A 
ATOM     17  C   UNL d   1      -2.796  -3.951   0.783  0.00  0.00     0.056 A 
ATOM     18 CL   UNL d   1      -4.238  -4.152   1.715  0.00  0.00    -0.083 Cl
ATOM     19  C   UNL d   1      -2.187  -5.010   0.108  0.00  0.00     0.055 A 
ATOM     20  C   UNL d   1      -1.035  -4.775  -0.645  0.00  0.00     0.026 A 
ATOM     21 CL   UNL d   1      -2.808  -6.621   0.152  0.00  0.00    -0.083 Cl
ATOM     22  C   UNL d   1      -0.500  -3.484  -0.734  0.00  0.00     0.015 A 
ENDBRANCH   2  15
TORSDOF 3
