REMARK  3 active torsions:
REMARK  status: ('A' for Active; 'I' for Inactive)
REMARK    1  A    between atoms: C_8  and  N_2 
REMARK    2  A    between atoms: C_10  and  C_7 
REMARK    3  A    between atoms: O_17  and  C_11 
ROOT
ATOM      1  C   UNL d   1       0.045  -0.788   0.016  0.00  0.00     0.058 A 
ATOM      2  N   UNL d   1      -1.161   1.116  -0.074  0.00  0.00    -0.220 N 
ATOM      3  C   UNL d   1      -1.344  -0.268   0.043  0.00  0.00     0.279 A 
ATOM      4  N   UNL d   1       0.175   1.507  -0.163  0.00  0.00    -0.294 N 
ATOM      5  HN  UNL d   1       0.528   2.459  -0.261  1.00  0.00     0.187 HD
ATOM      6  C   UNL d   1       0.887   0.414  -0.095  0.00  0.00     0.038 A 
ATOM      7  C   UNL d   1       0.298  -2.099   0.098  0.00  0.00     0.030 C 
ATOM      8  O   UNL d   1      -2.345  -0.955   0.149  0.00  0.00    -0.265 OA
ATOM      9  C   UNL d   1       2.379   0.422  -0.099  0.00  0.00     0.071 C 
ENDROOT
BRANCH   7  10
ATOM     10  C   UNL d   1       1.617  -2.721   0.125  0.00  0.00    -0.035 A 
ATOM     11  C   UNL d   1       2.243  -2.955   1.354  0.00  0.00     0.014 A 
ATOM     12  C   UNL d   1       3.500  -3.558   1.394  0.00  0.00     0.037 A 
ATOM     13  C   UNL d   1       4.125  -3.927   0.208  0.00  0.00     0.065 A 
ATOM     14  C   UNL d   1       3.510  -3.710  -1.021  0.00  0.00     0.037 A 
ATOM     15  C   UNL d   1       2.250  -3.107  -1.062  0.00  0.00     0.014 A 
BRANCH  13  16
ATOM     16  O   UNL d   1       5.353  -4.510   0.297  0.00  0.00    -0.361 OA
ATOM     17  H   UNL d   1       5.669  -4.713  -0.599  0.00  0.00     0.217 HD
ENDBRANCH  13  16
ENDBRANCH   7  10
BRANCH   2  18
ATOM     18  C   UNL d   1      -2.154   2.125  -0.019  0.00  0.00     0.060 A 
ATOM     19  C   UNL d   1      -3.485   1.834   0.305  0.00  0.00     0.031 A 
ATOM     20  C   UNL d   1      -4.441   2.852   0.399  0.00  0.00     0.002 A 
ATOM     21  C   UNL d   1      -4.083   4.174   0.152  0.00  0.00     0.000 A 
ATOM     22  C   UNL d   1      -2.770   4.481  -0.189  0.00  0.00     0.002 A 
ATOM     23  C   UNL d   1      -1.813   3.465  -0.269  0.00  0.00     0.031 A 
ENDBRANCH   2  18
TORSDOF 3
