REMARK  5 active torsions:
REMARK  status: ('A' for Active; 'I' for Inactive)
REMARK    1  A    between atoms: O_5  and  C_1 
REMARK    2  A    between atoms: C_3  and  C_2 
REMARK       I    between atoms: N_6  and  C_3 
REMARK    3  A    between atoms: C_18  and  O_5 
REMARK    4  A    between atoms: C_17  and  N_6 
REMARK    5  A    between atoms: C_16  and  C_17 
ROOT
ATOM      1  C   UNL d   1      -0.535   0.801   0.483  0.00  0.00     0.163 C 
ATOM      2  C   UNL d   1       0.699   1.315   0.103  0.00  0.00     0.083 C 
ATOM      3  N   UNL d   1      -0.948  -0.449   0.124  0.00  0.00    -0.346 N 
ATOM      4  HN  UNL d   1      -1.901  -0.759   0.310  1.00  0.00     0.167 HD
ATOM      5  C   UNL d   1       1.596   0.438  -0.525  0.00  0.00     0.023 C 
ATOM      6  C   UNL d   1      -0.064  -1.262  -0.483  0.00  0.00     0.090 C 
ATOM      7  C   UNL d   1       1.221  -0.875  -0.803  0.00  0.00     0.018 C 
ENDROOT
BRANCH   2   8
ATOM      8  C   UNL d   1       1.225   2.645   0.463  0.00  0.00     0.256 C 
ATOM      9  N   UNL d   1       0.614   3.774  -0.059  0.00  0.00    -0.352 N 
ATOM     10  H   UNL d   1      -0.284   3.698  -0.518  0.00  0.00     0.163 HD
ATOM     11  O   UNL d   1       2.251   2.681   1.140  0.00  0.00    -0.268 OA
BRANCH   9  12
ATOM     12  C   UNL d   1       1.074   5.090   0.358  0.00  0.00     0.161 C 
BRANCH  12  13
ATOM     13  C   UNL d   1       1.265   6.152  -0.710  0.00  0.00    -0.038 A 
ATOM     14  C   UNL d   1       1.335   5.895  -2.089  0.00  0.00     0.048 A 
ATOM     15  C   UNL d   1       1.602   6.960  -2.941  0.00  0.00     0.105 A 
ATOM     16  O   UNL d   1       1.707   6.889  -4.301  0.00  0.00    -0.323 OA
ATOM     17  C   UNL d   1       1.809   8.237  -2.481  0.00  0.00     0.105 A 
ATOM     18  C   UNL d   1       1.994   8.266  -4.628  0.00  0.00     0.352 A 
ATOM     19  O   UNL d   1       2.072   9.127  -3.474  0.00  0.00    -0.323 OA
ATOM     20  C   UNL d   1       1.761   8.535  -1.137  0.00  0.00     0.040 A 
ATOM     21  C   UNL d   1       1.487   7.483  -0.258  0.00  0.00     0.012 A 
ENDBRANCH  12  13
ENDBRANCH   9  12
ENDBRANCH   2   8
BRANCH   1  22
ATOM     22  O   UNL d   1      -1.359   1.514   1.351  0.00  0.00    -0.293 OA
BRANCH  22  23
ATOM     23  C   UNL d   1      -2.199   0.739   2.136  0.00  0.00     0.077 A 
ATOM     24  C   UNL d   1      -1.717  -0.315   2.929  0.00  0.00     0.037 A 
ATOM     25  C   UNL d   1      -2.608  -1.142   3.617  0.00  0.00     0.003 A 
ATOM     26  C   UNL d   1      -3.978  -0.892   3.554  0.00  0.00     0.000 A 
ATOM     27  C   UNL d   1      -4.454   0.195   2.818  0.00  0.00     0.003 A 
ATOM     28  C   UNL d   1      -3.565   1.015   2.113  0.00  0.00     0.037 A 
ENDBRANCH  22  23
ENDBRANCH   1  22
TORSDOF 5
