REMARK  6 active torsions:
REMARK  status: ('A' for Active; 'I' for Inactive)
REMARK    1  A    between atoms: C_5  and  C_1 
REMARK    2  A    between atoms: C_7  and  C_2 
REMARK    3  A    between atoms: O_11  and  C_7 
REMARK    4  A    between atoms: N_9  and  O_11 
REMARK    5  A    between atoms: C_14  and  C_17 
REMARK    6  A    between atoms: C_20  and  C_15 
ROOT
ATOM      1  C   UNL d   1       0.912  -0.980  -0.979  0.00  0.00     0.087 A 
ATOM      2  C   UNL d   1      -0.282  -1.187  -0.196  0.00  0.00     0.102 A 
ATOM      3  N   UNL d   1       1.748  -2.019  -0.808  0.00  0.00    -0.259 N 
ATOM      4  HN  UNL d   1       2.633  -2.171  -1.293  1.00  0.00     0.195 HD
ATOM      5  O   UNL d   1       1.192  -2.833   0.137  0.00  0.00    -0.241 OA
ATOM      6  C   UNL d   1      -0.014  -2.347   0.510  0.00  0.00     0.091 A 
ATOM      7  C   UNL d   1      -0.674  -3.125   1.576  0.00  0.00     0.080 C 
ENDROOT
BRANCH   2   8
ATOM      8  C   UNL d   1      -1.476  -0.367  -0.066  0.00  0.00     0.320 C 
ATOM      9  O   UNL d   1      -1.440   0.854  -0.183  0.00  0.00    -0.257 OA
BRANCH   8  10
ATOM     10  O   UNL d   1      -2.621  -1.116   0.189  0.00  0.00    -0.195 OA
BRANCH  10  11
ATOM     11  N   UNL d   1      -3.651  -0.285   0.690  0.00  0.00    -0.262 N 
ATOM     12  C   UNL d   1      -4.823  -0.861   0.747  0.00  0.00     0.029 C 
ATOM     13  C   UNL d   1      -5.101  -2.256   0.236  0.00  0.00     0.070 C 
ATOM     14  HN  UNL d   1      -3.493   0.680   0.980  1.00  0.00     0.194 HD
BRANCH  12  15
ATOM     15  C   UNL d   1      -5.920  -0.039   1.370  0.00  0.00     0.027 C 
ATOM     16  C   UNL d   1      -7.164  -0.415   1.710  0.00  0.00     0.013 C 
BRANCH  16  17
ATOM     17  C   UNL d   1      -8.164   0.466   2.373  0.00  0.00    -0.036 A 
ATOM     18  C   UNL d   1      -7.996   1.854   2.501  0.00  0.00     0.011 A 
ATOM     19  C   UNL d   1      -8.953   2.644   3.153  0.00  0.00     0.001 A 
ATOM     20  C   UNL d   1     -10.102   2.062   3.676  0.00  0.00     0.000 A 
ATOM     21  C   UNL d   1     -10.300   0.692   3.542  0.00  0.00     0.001 A 
ATOM     22  C   UNL d   1      -9.337  -0.099   2.893  0.00  0.00     0.011 A 
ENDBRANCH  16  17
ENDBRANCH  12  15
ENDBRANCH  10  11
ENDBRANCH   8  10
ENDBRANCH   2   8
BRANCH   1  23
ATOM     23  C   UNL d   1       1.318   0.073  -1.925  0.00  0.00     0.037 A 
ATOM     24  C   UNL d   1       2.607   0.658  -1.846  0.00  0.00     0.048 A 
ATOM     25 CL   UNL d   1       3.706   0.369  -0.532  0.00  0.00    -0.083 Cl
ATOM     26  C   UNL d   1       3.081   1.528  -2.843  0.00  0.00     0.025 A 
ATOM     27  C   UNL d   1       2.273   1.871  -3.915  0.00  0.00     0.003 A 
ATOM     28  C   UNL d   1       0.989   1.338  -3.999  0.00  0.00     0.025 A 
ATOM     29  C   UNL d   1       0.520   0.433  -3.029  0.00  0.00     0.048 A 
ATOM     30 CL   UNL d   1      -1.034  -0.267  -3.339  0.00  0.00    -0.083 Cl
ENDBRANCH   1  23
TORSDOF 6
