REMARK  7 active torsions:
REMARK  status: ('A' for Active; 'I' for Inactive)
REMARK    1  A    between atoms: N_4  and  C_2 
REMARK    2  A    between atoms: S_18  and  C_11 
REMARK    3  A    between atoms: C_13  and  O_20 
REMARK       I    between atoms: N_15  and  C_13 
REMARK    4  A    between atoms: C_19  and  N_15 
REMARK    5  A    between atoms: C_27  and  S_18 
REMARK    6  A    between atoms: O_20  and  C_28 
REMARK    7  A    between atoms: C_28  and  C_27 
ROOT
ATOM      1  S   UNL d   1      -3.778   3.050  -1.480  0.00  0.00    -0.125 SA
ENDROOT
BRANCH   1   2
ATOM      2  C   UNL d   1      -3.721   1.307  -1.209  0.00  0.00     0.031 A 
ATOM      3  C   UNL d   1      -2.503   0.597  -1.056  0.00  0.00     0.104 A 
ATOM      4  C   UNL d   1      -2.466  -0.866  -0.916  0.00  0.00     0.119 A 
ATOM      5  N   UNL d   1      -1.240   1.046  -1.020  0.00  0.00    -0.238 N 
ATOM      6  C   UNL d   1      -3.659  -1.617  -0.936  0.00  0.00     0.133 A 
ATOM      7  N   UNL d   1      -1.182  -1.223  -0.792  0.00  0.00    -0.237 N 
ATOM      8  C   UNL d   1      -4.863  -0.899  -1.106  0.00  0.00     0.040 A 
ATOM      9  C   UNL d   1      -4.885   0.511  -1.241  0.00  0.00     0.023 A 
ATOM     10  O   UNL d   1      -0.439  -0.064  -0.861  0.00  0.00    -0.156 OA
ATOM     11  HN  UNL d   1      -0.822  -2.170  -0.671  1.00  0.00     0.197 HD
ATOM     12  HN  UNL d   1      -0.934   2.015  -1.095  1.00  0.00     0.197 HD
BRANCH   6  13
ATOM     13  N   UNL d   1      -3.651  -3.062  -0.802  0.00  0.00    -0.113 N 
ATOM     14  O   UNL d   1      -2.575  -3.645  -0.637  0.00  0.00    -0.532 OA
ATOM     15  O   UNL d   1      -4.752  -3.631  -0.859  0.00  0.00    -0.532 OA
ENDBRANCH   6  13
ENDBRANCH   1   2
BRANCH   1  16
ATOM     16  C   UNL d   1      -3.115   3.677   0.111  0.00  0.00     0.106 C 
BRANCH  16  17
ATOM     17  C   UNL d   1      -3.007   5.202   0.074  0.00  0.00     0.191 C 
BRANCH  17  18
ATOM     18  O   UNL d   1      -4.291   5.838  -0.068  0.00  0.00    -0.303 OA
BRANCH  18  19
ATOM     19  C   UNL d   1      -4.963   6.090   1.079  0.00  0.00     0.365 C 
ATOM     20  N   UNL d   1      -6.109   6.828   0.942  0.00  0.00    -0.303 N 
ATOM     21  H   UNL d   1      -6.467   7.115   1.844  0.00  0.00     0.171 HD
ATOM     22  O   UNL d   1      -4.576   5.747   2.191  0.00  0.00    -0.238 OA
BRANCH  20  23
ATOM     23  C   UNL d   1      -6.862   7.200  -0.186  0.00  0.00     0.037 A 
ATOM     24  C   UNL d   1      -6.657   6.707  -1.478  0.00  0.00     0.032 A 
ATOM     25  C   UNL d   1      -7.524   7.061  -2.517  0.00  0.00     0.044 A 
ATOM     26  C   UNL d   1      -8.590   7.917  -2.270  0.00  0.00     0.116 A 
ATOM     27  C   UNL d   1      -8.796   8.441  -1.002  0.00  0.00     0.044 A 
ATOM     28  F   UNL d   1      -9.434   8.229  -3.260  0.00  0.00    -0.206 F 
ATOM     29  C   UNL d   1      -7.933   8.083   0.037  0.00  0.00     0.032 A 
ENDBRANCH  20  23
ENDBRANCH  18  19
ENDBRANCH  17  18
ENDBRANCH  16  17
ENDBRANCH   1  16
TORSDOF 7
