REMARK  4 active torsions:
REMARK  status: ('A' for Active; 'I' for Inactive)
REMARK    1  A    between atoms: N_2  and  S_1 
REMARK    2  A    between atoms: C_6  and  S_1 
REMARK    3  A    between atoms: N_4  and  N_2 
REMARK    4  A    between atoms: C_5  and  N_4 
ROOT
ATOM      1  C   UNL d   1       2.962  -1.909   0.041  0.00  0.00     0.111 A 
ATOM      2  C   UNL d   1       2.034  -2.582   0.866  0.00  0.00     0.074 A 
ATOM      3  C   UNL d   1       3.174  -0.499   0.124  0.00  0.00     0.105 C 
ATOM      4  N   UNL d   1       3.247   0.656   0.203  0.00  0.00    -0.191 NA
ATOM      5  C   UNL d   1       3.731  -2.615  -0.893  0.00  0.00     0.139 A 
ATOM      6  F   UNL d   1       4.598  -1.964  -1.684  0.00  0.00    -0.204 F 
ATOM      7  C   UNL d   1       1.962  -3.987   0.718  0.00  0.00     0.033 A 
ATOM      8  C   UNL d   1       2.733  -4.681  -0.221  0.00  0.00     0.005 A 
ATOM      9  C   UNL d   1       3.618  -3.990  -1.035  0.00  0.00     0.044 A 
ENDROOT
BRANCH   2  10
ATOM     10  N   UNL d   1       1.165  -1.917   1.760  0.00  0.00    -0.286 N 
ATOM     11  C   UNL d   1       0.559  -2.653   2.878  0.00  0.00     0.178 C 
BRANCH  10  12
ATOM     12  N   UNL d   1       0.583  -0.563   1.506  0.00  0.00    -0.221 N 
ATOM     13  H   UNL d   1       1.107   0.146   0.981  0.00  0.00     0.200 HD
BRANCH  12  14
ATOM     14  S   UNL d   1      -1.087  -0.379   1.162  0.00  0.00     0.276 S 
ATOM     15  O   UNL d   1      -1.270   0.957   0.637  0.00  0.00    -0.199 OA
ATOM     16  O   UNL d   1      -1.863  -0.883   2.273  0.00  0.00    -0.199 OA
BRANCH  14  17
ATOM     17  C   UNL d   1      -1.293  -1.511  -0.202  0.00  0.00     0.082 A 
ATOM     18  C   UNL d   1      -1.761  -2.805   0.044  0.00  0.00     0.050 A 
ATOM     19  C   UNL d   1      -1.886  -3.708  -1.013  0.00  0.00     0.057 A 
ATOM     20 CL   UNL d   1      -2.404  -5.312  -0.634  0.00  0.00    -0.083 Cl
ATOM     21  C   UNL d   1      -1.581  -3.305  -2.319  0.00  0.00     0.055 A 
ATOM     22  C   UNL d   1      -1.153  -1.994  -2.562  0.00  0.00     0.027 A 
ATOM     23 CL   UNL d   1      -1.711  -4.374  -3.669  0.00  0.00    -0.083 Cl
ATOM     24  C   UNL d   1      -1.005  -1.093  -1.503  0.00  0.00     0.027 A 
ENDBRANCH  14  17
ENDBRANCH  12  14
ENDBRANCH  10  12
ENDBRANCH   2  10
TORSDOF 4
