REMARK  2 active torsions:
REMARK  status: ('A' for Active; 'I' for Inactive)
REMARK    1  A    between atoms: C_3  and  C_1 
REMARK    2  A    between atoms: C_2  and  C_3 
ROOT
ATOM      1  C   UNL d   1       0.036  -3.624  -0.095  0.00  0.00     0.192 C 
ATOM      2  O   UNL d   1      -1.022  -4.223  -0.249  0.00  0.00    -0.287 OA
ENDROOT
BRANCH   1   3
ATOM      3  C   UNL d   1       1.294  -4.404   0.053  0.00  0.00     0.018 A 
ATOM      4  C   UNL d   1       1.405  -5.636  -0.602  0.00  0.00     0.039 A 
ATOM      5  C   UNL d   1       2.569  -6.390  -0.458  0.00  0.00     0.036 A 
ATOM      6 CL   UNL d   1       2.712  -7.905  -1.262  0.00  0.00    -0.084 Cl
ATOM      7  C   UNL d   1       3.623  -5.931   0.329  0.00  0.00     0.047 A 
ATOM      8  C   UNL d   1       3.501  -4.710   0.985  0.00  0.00     0.036 A 
ATOM      9  C   UNL d   1       2.340  -3.950   0.865  0.00  0.00     0.039 A 
ATOM     10 CL   UNL d   1       4.795  -4.125   1.956  0.00  0.00    -0.084 Cl
ENDBRANCH   1   3
BRANCH   1  11
ATOM     11  C   UNL d   1       0.029  -2.138  -0.052  0.00  0.00     0.018 A 
ATOM     12  C   UNL d   1      -1.100  -1.487   0.459  0.00  0.00     0.039 A 
ATOM     13  C   UNL d   1      -1.134  -0.093   0.502  0.00  0.00     0.036 A 
ATOM     14 CL   UNL d   1      -2.521   0.709   1.128  0.00  0.00    -0.084 Cl
ATOM     15  C   UNL d   1      -0.055   0.660   0.044  0.00  0.00     0.047 A 
ATOM     16  C   UNL d   1       1.060   0.006  -0.474  0.00  0.00     0.036 A 
ATOM     17  C   UNL d   1       1.104  -1.385  -0.540  0.00  0.00     0.039 A 
ATOM     18 CL   UNL d   1       2.403   0.921  -1.038  0.00  0.00    -0.084 Cl
ENDBRANCH   1  11
TORSDOF 2
