REMARK  5 active torsions:
REMARK  status: ('A' for Active; 'I' for Inactive)
REMARK    1  A    between atoms: C_7  and  N_1 
REMARK    2  A    between atoms: C_11  and  C_8 
REMARK    3  A    between atoms: O_13  and  C_14 
REMARK    4  A    between atoms: C_15  and  O_13 
REMARK    5  A    between atoms: C_22  and  C_15 
ROOT
ATOM      1  N   UNL d   1      -1.276   0.899  -1.050  0.00  0.00    -0.220 N 
ATOM      2  C   UNL d   1      -0.021  -0.868  -0.440  0.00  0.00     0.058 A 
ATOM      3  C   UNL d   1      -1.393  -0.316  -0.363  0.00  0.00     0.279 A 
ATOM      4  N   UNL d   1       0.004   1.155  -1.541  0.00  0.00    -0.294 N 
ATOM      5  HN  UNL d   1       0.302   1.973  -2.073  1.00  0.00     0.187 HD
ATOM      6  C   UNL d   1       0.747   0.141  -1.185  0.00  0.00     0.038 A 
ATOM      7  C   UNL d   1       0.275  -2.048   0.114  0.00  0.00     0.030 C 
ATOM      8  O   UNL d   1      -2.337  -0.858   0.184  0.00  0.00    -0.265 OA
ATOM      9  C   UNL d   1       2.205   0.056  -1.495  0.00  0.00     0.071 C 
ENDROOT
BRANCH   7  10
ATOM     10  C   UNL d   1       1.586  -2.677   0.115  0.00  0.00    -0.035 A 
ATOM     11  C   UNL d   1       2.455  -2.477   1.191  0.00  0.00     0.014 A 
ATOM     12  C   UNL d   1       3.698  -3.110   1.209  0.00  0.00     0.037 A 
ATOM     13  C   UNL d   1       4.072  -3.953   0.162  0.00  0.00     0.069 A 
ATOM     14  C   UNL d   1       3.220  -4.117  -0.932  0.00  0.00     0.037 A 
ATOM     15  C   UNL d   1       1.972  -3.494  -0.949  0.00  0.00     0.014 A 
BRANCH  13  16
ATOM     16  O   UNL d   1       5.284  -4.574   0.312  0.00  0.00    -0.347 OA
BRANCH  16  17
ATOM     17  C   UNL d   1       5.445  -5.768  -0.458  0.00  0.00     0.214 C 
BRANCH  17  18
ATOM     18  C   UNL d   1       6.553  -6.629   0.094  0.00  0.00    -0.034 A 
ATOM     19  C   UNL d   1       6.423  -8.027   0.049  0.00  0.00     0.009 A 
ATOM     20  C   UNL d   1       7.448  -8.851   0.508  0.00  0.00     0.001 A 
ATOM     21  C   UNL d   1       8.620  -8.289   1.009  0.00  0.00     0.000 A 
ATOM     22  C   UNL d   1       8.766  -6.902   1.050  0.00  0.00     0.001 A 
ATOM     23  C   UNL d   1       7.740  -6.075   0.590  0.00  0.00     0.009 A 
ENDBRANCH  17  18
ENDBRANCH  16  17
ENDBRANCH  13  16
ENDBRANCH   7  10
BRANCH   1  24
ATOM     24  C   UNL d   1      -2.286   1.871  -1.251  0.00  0.00     0.061 A 
ATOM     25  C   UNL d   1      -3.545   1.757  -0.646  0.00  0.00     0.055 A 
ATOM     26  C   UNL d   1      -4.517   2.737  -0.847  0.00  0.00     0.036 A 
ATOM     27 CL   UNL d   1      -6.048   2.592  -0.071  0.00  0.00    -0.084 Cl
ATOM     28  C   UNL d   1      -4.261   3.837  -1.661  0.00  0.00     0.024 A 
ATOM     29  C   UNL d   1      -3.018   3.961  -2.274  0.00  0.00     0.004 A 
ATOM     30  C   UNL d   1      -2.037   2.988  -2.064  0.00  0.00     0.032 A 
ENDBRANCH   1  24
TORSDOF 5
