REMARK  3 active torsions:
REMARK  status: ('A' for Active; 'I' for Inactive)
REMARK       I    between atoms: N_2  and  C_1 
REMARK       I    between atoms: N_3  and  C_1 
REMARK    1  A    between atoms: C_7  and  N_2 
REMARK    2  A    between atoms: C_9  and  N_3 
REMARK    3  A    between atoms: C_8  and  C_9 
ROOT
ATOM      1  C   UNL d   1       0.959  -0.005   0.081  0.00  0.00     0.317 C 
ATOM      2  N   UNL d   1       0.332   0.997  -0.615  0.00  0.00    -0.335 N 
ATOM      3  N   UNL d   1       0.068  -0.849   0.687  0.00  0.00    -0.339 N 
ATOM      4  O   UNL d   1       2.170  -0.143   0.167  0.00  0.00    -0.247 OA
ATOM      5  H   UNL d   1      -0.667   1.077  -0.516  0.00  0.00     0.165 HD
ATOM      6  H   UNL d   1      -0.920  -0.689   0.579  0.00  0.00     0.164 HD
ENDROOT
BRANCH   3   7
ATOM      7  C   UNL d   1       0.497  -1.950   1.521  0.00  0.00     0.164 C 
BRANCH   7   8
ATOM      8  C   UNL d   1      -0.058  -1.812   2.909  0.00  0.00    -0.025 A 
ATOM      9  C   UNL d   1      -0.929  -2.756   3.438  0.00  0.00     0.096 A 
ATOM     10  N   UNL d   1      -1.484  -2.673   4.670  0.00  0.00    -0.375 N 
ATOM     11  C   UNL d   1      -1.145  -1.600   5.416  0.00  0.00     0.087 A 
ATOM     12  HN  UNL d   1      -2.127  -3.385   5.016  1.00  0.00     0.164 HD
ATOM     13  C   UNL d   1      -0.272  -0.613   4.993  0.00  0.00     0.018 A 
ATOM     14  C   UNL d   1       0.282  -0.725   3.722  0.00  0.00     0.011 A 
ENDBRANCH   7   8
ENDBRANCH   3   7
BRANCH   2  15
ATOM     15  C   UNL d   1       1.040   2.068  -1.336  0.00  0.00     0.023 C 
ATOM     16  C   UNL d   1       1.895   1.485  -2.473  0.00  0.00     0.037 C 
ATOM     17  C   UNL d   1      -0.003   3.017  -1.959  0.00  0.00     0.037 C 
ATOM     18  C   UNL d   1       1.918   2.891  -0.379  0.00  0.00     0.037 C 
ENDBRANCH   2  15
TORSDOF 3
