REMARK  6 active torsions:
REMARK  status: ('A' for Active; 'I' for Inactive)
REMARK    1  A    between atoms: C_11  and  C_1 
REMARK    2  A    between atoms: C_9  and  C_6 
REMARK    3  A    between atoms: C_7  and  O_12 
REMARK       I    between atoms: N_10  and  C_7 
REMARK    4  A    between atoms: C_8  and  N_10 
REMARK    5  A    between atoms: O_15  and  C_9 
REMARK    6  A    between atoms: O_12  and  C_11 
ROOT
ATOM      1  O   UNL d   1      -0.995   3.738   1.354  0.00  0.00    -0.307 OA
ENDROOT
BRANCH   1   2
ATOM      2  C   UNL d   1      -2.260   3.764   1.845  0.00  0.00     0.342 C 
ATOM      3  N   UNL d   1      -2.365   4.764   2.778  0.00  0.00    -0.203 NA
ATOM      4  H   UNL d   1      -1.647   4.626   3.492  0.00  0.00     0.139 HD
ATOM      5  O   UNL d   1      -3.097   2.897   1.648  0.00  0.00    -0.245 OA
BRANCH   3   6
ATOM      6  C   UNL d   1      -2.417   6.133   2.389  0.00  0.00     0.034 A 
ATOM      7  C   UNL d   1      -1.599   7.097   3.016  0.00  0.00     0.059 A 
ATOM      8  C   UNL d   1      -1.785   8.463   2.744  0.00  0.00     0.020 A 
ATOM      9  C   UNL d   1      -2.746   8.862   1.817  0.00  0.00     0.001 A 
ATOM     10  C   UNL d   1      -3.514   7.907   1.157  0.00  0.00     0.002 A 
ATOM     11  C   UNL d   1      -3.355   6.548   1.438  0.00  0.00     0.025 A 
BRANCH   7  12
ATOM     12  C   UNL d   1      -0.536   6.673   3.963  0.00  0.00     0.177 C 
ATOM     13  O   UNL d   1      -0.640   5.678   4.662  0.00  0.00    -0.646 OA
BRANCH  12  14
ATOM     14  O   UNL d   1       0.585   7.423   3.915  0.00  0.00    -0.773 OA
ATOM     15  H   UNL d   1       0.644   8.034   3.157  0.00  0.00     0.167 HD
ENDBRANCH  12  14
ENDBRANCH   7  12
ENDBRANCH   3   6
ENDBRANCH   1   2
BRANCH   1  16
ATOM     16  C   UNL d   1      -0.372   2.445   1.350  0.00  0.00     0.194 C 
BRANCH  16  17
ATOM     17  C   UNL d   1      -0.231   1.792  -0.031  0.00  0.00     0.078 C 
ATOM     18  C   UNL d   1       0.621   0.528   0.125  0.00  0.00    -0.036 A 
ATOM     19  C   UNL d   1       1.868   0.696  -0.516  0.00  0.00    -0.018 A 
ATOM     20  C   UNL d   1       0.330  -0.623   0.843  0.00  0.00     0.009 A 
ATOM     21  C   UNL d   1       2.848  -0.279  -0.417  0.00  0.00     0.013 A 
ATOM     22  C   UNL d   1       1.874   1.970  -1.202  0.00  0.00    -0.018 A 
ATOM     23  C   UNL d   1       2.568  -1.431   0.325  0.00  0.00     0.001 A 
ATOM     24  C   UNL d   1       1.318  -1.605   0.942  0.00  0.00     0.001 A 
ATOM     25  C   UNL d   1       0.637   2.616  -0.979  0.00  0.00    -0.036 A 
ATOM     26  C   UNL d   1       2.846   2.565  -1.988  0.00  0.00     0.013 A 
ATOM     27  C   UNL d   1       0.339   3.827  -1.583  0.00  0.00     0.009 A 
ATOM     28  C   UNL d   1       1.315   4.418  -2.388  0.00  0.00     0.001 A 
ATOM     29  C   UNL d   1       2.562   3.800  -2.578  0.00  0.00     0.001 A 
ENDBRANCH  16  17
ENDBRANCH   1  16
TORSDOF 6
