REMARK  2 active torsions:
REMARK  status: ('A' for Active; 'I' for Inactive)
REMARK    1  A    between atoms: C_8  and  N_1 
REMARK    2  A    between atoms: C_7  and  C_2 
ROOT
ATOM      1  N   UNL d   1      -0.156  -1.375  -0.107  0.00  0.00    -0.224 N 
ATOM      2  C   UNL d   1       1.078  -0.736  -0.004  0.00  0.00     0.148 C 
ATOM      3  N   UNL d   1      -1.087  -0.440  -0.408  0.00  0.00     0.001 NA
ATOM      4  N   UNL d   1      -0.479   0.730  -0.290  0.00  0.00    -0.007 NA
ATOM      5  N   UNL d   1       0.854   0.566  -0.031  0.00  0.00    -0.269 N 
ATOM      6  HN  UNL d   1       1.542   1.306   0.113  1.00  0.00     0.185 HD
ENDROOT
BRANCH   2   7
ATOM      7  C   UNL d   1       2.405  -1.356   0.018  0.00  0.00     0.012 A 
ATOM      8  C   UNL d   1       2.720  -2.441  -0.815  0.00  0.00     0.041 A 
ATOM      9  C   UNL d   1       3.981  -3.047  -0.759  0.00  0.00     0.056 A 
ATOM     10 CL   UNL d   1       4.252  -4.420  -1.772  0.00  0.00    -0.083 Cl
ATOM     11  C   UNL d   1       4.957  -2.545   0.105  0.00  0.00     0.055 A 
ATOM     12  C   UNL d   1       4.668  -1.433   0.901  0.00  0.00     0.026 A 
ATOM     13 CL   UNL d   1       6.529  -3.246   0.235  0.00  0.00    -0.083 Cl
ATOM     14  C   UNL d   1       3.401  -0.841   0.856  0.00  0.00     0.017 A 
ENDBRANCH   2   7
BRANCH   1  15
ATOM     15  C   UNL d   1      -0.513  -2.738   0.054  0.00  0.00     0.056 A 
ATOM     16  C   UNL d   1       0.239  -3.592   0.874  0.00  0.00     0.033 A 
ATOM     17  C   UNL d   1      -0.100  -4.946   0.972  0.00  0.00     0.026 A 
ATOM     18  C   UNL d   1      -1.190  -5.442   0.261  0.00  0.00     0.034 A 
ATOM     19  C   UNL d   1      -1.964  -4.592  -0.527  0.00  0.00     0.026 A 
ATOM     20 CL   UNL d   1      -1.584  -7.112   0.361  0.00  0.00    -0.084 Cl
ATOM     21  C   UNL d   1      -1.639  -3.235  -0.619  0.00  0.00     0.033 A 
ENDBRANCH   1  15
TORSDOF 2
