REMARK  5 active torsions:
REMARK  status: ('A' for Active; 'I' for Inactive)
REMARK    1  A    between atoms: O_11  and  N_1 
REMARK    2  A    between atoms: C_5  and  O_11 
REMARK    3  A    between atoms: C_9  and  C_5 
REMARK    4  A    between atoms: C_15  and  C_6 
REMARK    5  A    between atoms: N_18  and  C_6 
ROOT
ATOM      1  O   UNL d   1       0.273   0.342  -1.096  0.00  0.00    -0.193 OA
ENDROOT
BRANCH   1   2
ATOM      2  C   UNL d   1       1.017   1.141  -1.910  0.00  0.00     0.315 C 
ATOM      3  O   UNL d   1       1.649   2.135  -1.580  0.00  0.00    -0.257 OA
BRANCH   2   4
ATOM      4  C   UNL d   1       0.997   0.614  -3.306  0.00  0.00     0.042 A 
ATOM      5  C   UNL d   1       1.766   1.295  -4.265  0.00  0.00     0.038 A 
ATOM      6  C   UNL d   1       1.861   0.754  -5.559  0.00  0.00     0.033 A 
ATOM      7  S   UNL d   1       2.755   1.332  -6.915  0.00  0.00    -0.083 SA
ATOM      8  C   UNL d   1       1.202  -0.423  -5.920  0.00  0.00     0.049 A 
ATOM      9  C   UNL d   1       2.215  -0.009  -7.831  0.00  0.00     0.139 A 
ATOM     10  N   UNL d   1       1.407  -0.846  -7.222  0.00  0.00    -0.359 N 
ATOM     11  HN  UNL d   1       0.996  -1.679  -7.642  1.00  0.00     0.166 HD
ATOM     12  C   UNL d   1       0.410  -1.077  -4.955  0.00  0.00     0.032 A 
ATOM     13  C   UNL d   1       0.317  -0.558  -3.656  0.00  0.00     0.020 A 
ENDBRANCH   2   4
ENDBRANCH   1   2
BRANCH   1  14
ATOM     14  N   UNL d   1       0.988   0.098   0.095  0.00  0.00    -0.246 N 
ATOM     15  C   UNL d   1       0.242  -0.505   0.972  0.00  0.00     0.109 C 
ATOM     16  HN  UNL d   1       1.962   0.360   0.247  1.00  0.00     0.196 HD
BRANCH  15  17
ATOM     17  C   UNL d   1       0.888  -1.005   2.227  0.00  0.00     0.004 A 
ATOM     18  C   UNL d   1       2.041  -0.390   2.725  0.00  0.00     0.015 A 
ATOM     19  C   UNL d   1       2.640  -0.875   3.891  0.00  0.00     0.001 A 
ATOM     20  C   UNL d   1       2.098  -1.978   4.552  0.00  0.00     0.000 A 
ATOM     21  C   UNL d   1       0.958  -2.604   4.047  0.00  0.00     0.001 A 
ATOM     22  C   UNL d   1       0.353  -2.120   2.886  0.00  0.00     0.015 A 
ENDBRANCH  15  17
BRANCH  15  23
ATOM     23  N   UNL d   1      -1.113  -0.696   0.813  0.00  0.00    -0.286 NA
ATOM     24  H   UNL d   1      -1.496  -0.061   0.119  0.00  0.00     0.125 HD
ATOM     25  H   UNL d   1      -1.647  -0.661   1.675  0.00  0.00     0.125 HD
ENDBRANCH  15  23
ENDBRANCH   1  14
TORSDOF 5
