REMARK  4 active torsions:
REMARK  status: ('A' for Active; 'I' for Inactive)
REMARK    1  A    between atoms: C_4  and  C_1 
REMARK    2  A    between atoms: N_3  and  C_2 
REMARK       I    between atoms: N_6  and  C_4 
REMARK       I    between atoms: C_8  and  N_6 
REMARK       I    between atoms: N_13  and  C_8 
REMARK    3  A    between atoms: C_11  and  C_20 
REMARK    4  A    between atoms: C_20  and  N_13 
ROOT
ATOM      1  C   UNL d   1       2.451  -1.411  -0.176  0.00  0.00     0.260 C 
ATOM      2  N   UNL d   1       2.219  -2.781  -0.285  0.00  0.00    -0.275 N 
ATOM      3  C   UNL d   1       1.326  -3.810  -0.118  0.00  0.00     0.323 C 
ATOM      4  N   UNL d   1       0.114  -3.574   0.435  0.00  0.00    -0.337 N 
ATOM      5  O   UNL d   1       3.623  -1.060  -0.344  0.00  0.00    -0.267 OA
ATOM      6  O   UNL d   1       1.674  -4.928  -0.499  0.00  0.00    -0.247 OA
ATOM      7  H   UNL d   1       3.084  -3.196  -0.612  0.00  0.00     0.173 HD
ATOM      8  H   UNL d   1       0.054  -2.865   1.151  0.00  0.00     0.164 HD
ENDROOT
BRANCH   1   9
ATOM      9  C   UNL d   1       1.441  -0.401   0.122  0.00  0.00     0.042 A 
ATOM     10  C   UNL d   1       1.829   0.962   0.447  0.00  0.00     0.061 A 
ATOM     11  C   UNL d   1       0.757   1.794   0.659  0.00  0.00     0.144 A 
ATOM     12  S   UNL d   1      -0.725   0.992   0.485  0.00  0.00    -0.077 SA
ATOM     13  C   UNL d   1       0.063  -0.480   0.056  0.00  0.00     0.069 A 
BRANCH  11  14
ATOM     14  N   UNL d   1       0.814   3.200   0.956  0.00  0.00    -0.108 N 
ATOM     15  O   UNL d   1       1.870   3.780   0.669  0.00  0.00    -0.531 OA
ATOM     16  O   UNL d   1      -0.179   3.720   1.485  0.00  0.00    -0.531 OA
ENDBRANCH  11  14
ENDBRANCH   1   9
BRANCH   4  17
ATOM     17  C   UNL d   1      -0.764  -4.715   0.627  0.00  0.00     0.189 C 
BRANCH  17  18
ATOM     18  C   UNL d   1      -2.188  -4.327   0.783  0.00  0.00     0.070 A 
ATOM     19  O   UNL d   1      -2.492  -3.020   1.038  0.00  0.00    -0.325 OA
ATOM     20  C   UNL d   1      -3.847  -2.941   1.117  0.00  0.00     0.142 A 
ATOM     21  C   UNL d   1      -4.418  -4.179   0.936  0.00  0.00     0.027 A 
ATOM     22  C   UNL d   1      -3.348  -5.076   0.721  0.00  0.00     0.036 A 
ENDBRANCH  17  18
ENDBRANCH   4  17
TORSDOF 4
