REMARK  1 active torsions:
REMARK  status: ('A' for Active; 'I' for Inactive)
REMARK    1  A    between atoms: C_2  and  C_1 
REMARK       I    between atoms: N_3  and  C_1 
ROOT
ATOM      1  C   UNL d   1       0.790   0.213  -0.039  0.00  0.00     0.257 C 
ATOM      2  N   UNL d   1       0.154   0.250   1.198  0.00  0.00    -0.344 N 
ATOM      3  O   UNL d   1       1.829   0.829  -0.271  0.00  0.00    -0.267 OA
ATOM      4  O   UNL d   1      -0.337  -0.194   3.975  0.00  0.00    -0.388 OA
ATOM      5  C   UNL d   1       0.606   1.212   2.208  0.00  0.00     0.152 C 
ATOM      6  C   UNL d   1      -0.958  -0.601   1.640  0.00  0.00     0.152 C 
ATOM      7  C   UNL d   1       0.835   0.528   3.558  0.00  0.00     0.187 C 
ATOM      8  C   UNL d   1      -0.666  -1.209   3.017  0.00  0.00     0.187 C 
ENDROOT
BRANCH   1   9
ATOM      9  C   UNL d   1       0.176  -0.549  -1.148  0.00  0.00     0.070 A 
ATOM     10  C   UNL d   1       0.962  -1.391  -1.935  0.00  0.00     0.132 A 
ATOM     11  F   UNL d   1       2.263  -1.576  -1.671  0.00  0.00    -0.205 F 
ATOM     12  C   UNL d   1       0.401  -2.084  -3.007  0.00  0.00     0.043 A 
ATOM     13  C   UNL d   1      -0.958  -1.938  -3.296  0.00  0.00     0.003 A 
ATOM     14  C   UNL d   1      -1.746  -1.083  -2.526  0.00  0.00     0.001 A 
ATOM     15  C   UNL d   1      -1.177  -0.370  -1.468  0.00  0.00     0.020 A 
ENDBRANCH   1   9
TORSDOF 1
