REMARK  6 active torsions:
REMARK  status: ('A' for Active; 'I' for Inactive)
REMARK    1  A    between atoms: C_2  and  N_1 
REMARK    2  A    between atoms: C_14  and  C_8 
REMARK    3  A    between atoms: C_13  and  O_19 
REMARK       I    between atoms: N_18  and  C_13 
REMARK    4  A    between atoms: C_20  and  C_14 
REMARK    5  A    between atoms: O_19  and  N_16 
REMARK    6  A    between atoms: C_22  and  N_18 
ROOT
ATOM      1  N   UNL d   1       1.912   3.105  -0.427  0.00  0.00    -0.264 N 
ATOM      2  HN  UNL d   1       2.773   3.598  -0.664  1.00  0.00     0.194 HD
ATOM      3  C   UNL d   1       0.704   3.618  -0.435  0.00  0.00     0.014 C 
ATOM      4  C   UNL d   1      -0.557   2.826  -0.089  0.00  0.00     0.066 C 
ENDROOT
BRANCH   3   5
ATOM      5  C   UNL d   1       0.529   5.111  -0.682  0.00  0.00     0.133 C 
BRANCH   5   6
ATOM      6  C   UNL d   1      -0.553   5.428  -1.649  0.00  0.00     0.115 A 
ATOM      7  N   UNL d   1      -0.345   5.893  -2.886  0.00  0.00    -0.266 N 
ATOM      8  N   UNL d   1      -1.633   6.099  -3.317  0.00  0.00    -0.160 N 
ATOM      9  HN  UNL d   1       0.535   6.053  -3.377  1.00  0.00     0.190 HD
ATOM     10  N   UNL d   1      -2.558   5.736  -2.377  0.00  0.00     0.004 NA
ATOM     11  N   UNL d   1      -1.873   5.351  -1.313  0.00  0.00    -0.270 N 
ATOM     12  HN  UNL d   1      -2.258   5.053  -0.416  1.00  0.00     0.185 HD
BRANCH   8  13
ATOM     13  C   UNL d   1      -2.011   6.653  -4.574  0.00  0.00     0.165 A 
ATOM     14  N   UNL d   1      -1.081   7.062  -5.444  0.00  0.00    -0.242 N 
ATOM     15  O   UNL d   1      -1.797   7.583  -6.515  0.00  0.00    -0.241 OA
ATOM     16  HN  UNL d   1      -0.067   7.005  -5.343  1.00  0.00     0.196 HD
ATOM     17  C   UNL d   1      -3.132   7.468  -6.270  0.00  0.00     0.076 A 
ATOM     18  C   UNL d   1      -3.322   6.868  -5.048  0.00  0.00     0.087 A 
ATOM     19  C   UNL d   1      -4.037   7.998  -7.308  0.00  0.00     0.079 C 
ENDBRANCH   8  13
ENDBRANCH   5   6
ENDBRANCH   3   5
BRANCH   1  20
ATOM     20  O   UNL d   1       1.815   1.757  -0.035  0.00  0.00    -0.181 OA
BRANCH  20  21
ATOM     21  C   UNL d   1       2.973   1.010  -0.033  0.00  0.00     0.387 C 
ATOM     22  N   UNL d   1       4.117   1.652  -0.445  0.00  0.00    -0.301 N 
ATOM     23  H   UNL d   1       3.975   2.627  -0.682  0.00  0.00     0.171 HD
ATOM     24  O   UNL d   1       2.891  -0.164   0.321  0.00  0.00    -0.236 OA
BRANCH  22  25
ATOM     25  C   UNL d   1       5.383   1.051  -0.651  0.00  0.00     0.037 A 
ATOM     26  C   UNL d   1       5.649  -0.303  -0.396  0.00  0.00     0.031 A 
ATOM     27  C   UNL d   1       6.884  -0.878  -0.711  0.00  0.00     0.026 A 
ATOM     28  C   UNL d   1       7.885  -0.097  -1.274  0.00  0.00     0.034 A 
ATOM     29  C   UNL d   1       7.663   1.261  -1.494  0.00  0.00     0.026 A 
ATOM     30 CL   UNL d   1       9.383  -0.814  -1.717  0.00  0.00    -0.084 Cl
ATOM     31  C   UNL d   1       6.420   1.834  -1.178  0.00  0.00     0.031 A 
ENDBRANCH  22  25
ENDBRANCH  20  21
ENDBRANCH   1  20
TORSDOF 6
