REMARK  7 active torsions:
REMARK  status: ('A' for Active; 'I' for Inactive)
REMARK    1  A    between atoms: C_4  and  S_1 
REMARK    2  A    between atoms: N_8  and  S_1 
REMARK    3  A    between atoms: C_2  and  C_7 
REMARK    4  A    between atoms: C_3  and  C_6 
REMARK    5  A    between atoms: C_5  and  C_14 
REMARK    6  A    between atoms: C_26  and  N_8 
REMARK    7  A    between atoms: C_27  and  C_26 
ROOT
ATOM      1  S   UNL d   1       1.021  -0.056  -0.011  0.00  0.00     0.259 S 
ATOM      2  O   UNL d   1       0.348   0.858   0.878  0.00  0.00    -0.201 OA
ATOM      3  O   UNL d   1       2.467  -0.103  -0.114  0.00  0.00    -0.201 OA
ENDROOT
BRANCH   1   4
ATOM      4  C   UNL d   1       0.378   0.233  -1.650  0.00  0.00     0.081 A 
ATOM      5  C   UNL d   1      -0.890   0.810  -1.806  0.00  0.00     0.041 A 
ATOM      6  C   UNL d   1      -1.395   1.070  -3.091  0.00  0.00     0.050 A 
ATOM      7  C   UNL d   1      -0.587   0.784  -4.209  0.00  0.00     0.032 A 
ATOM      8  C   UNL d   1       0.715   0.272  -4.055  0.00  0.00     0.050 A 
ATOM      9  C   UNL d   1       1.181  -0.023  -2.765  0.00  0.00     0.041 A 
BRANCH   6  10
ATOM     10  C   UNL d   1      -2.778   1.657  -3.283  0.00  0.00     0.417 C 
ATOM     11  F   UNL d   1      -3.409   1.949  -2.113  0.00  0.00    -0.166 F 
ATOM     12  F   UNL d   1      -2.759   2.812  -4.001  0.00  0.00    -0.166 F 
ATOM     13  F   UNL d   1      -3.606   0.810  -3.953  0.00  0.00    -0.166 F 
ENDBRANCH   6  10
BRANCH   8  14
ATOM     14  C   UNL d   1       1.617   0.096  -5.258  0.00  0.00     0.417 C 
ATOM     15  F   UNL d   1       2.865  -0.340  -4.935  0.00  0.00    -0.166 F 
ATOM     16  F   UNL d   1       1.124  -0.801  -6.153  0.00  0.00    -0.166 F 
ATOM     17  F   UNL d   1       1.791   1.259  -5.942  0.00  0.00    -0.166 F 
ENDBRANCH   8  14
ENDBRANCH   1   4
BRANCH   1  18
ATOM     18  N   UNL d   1       0.469  -1.585   0.348  0.00  0.00    -0.311 N 
ATOM     19  H   UNL d   1      -0.408  -1.659   0.860  0.00  0.00     0.172 HD
BRANCH  18  20
ATOM     20  C   UNL d   1       1.040  -2.742  -0.318  0.00  0.00     0.170 C 
BRANCH  20  21
ATOM     21  C   UNL d   1       0.408  -4.044   0.121  0.00  0.00    -0.040 A 
ATOM     22  C   UNL d   1      -0.733  -4.516  -0.539  0.00  0.00     0.009 A 
ATOM     23  C   UNL d   1      -1.292  -5.751  -0.205  0.00  0.00     0.017 A 
ATOM     24  C   UNL d   1      -0.732  -6.541   0.809  0.00  0.00     0.047 A 
ATOM     25  C   UNL d   1       0.388  -6.051   1.500  0.00  0.00     0.017 A 
ATOM     26  C   UNL d   1       0.949  -4.811   1.163  0.00  0.00     0.009 A 
BRANCH  24  27
ATOM     27  C   UNL d   1      -1.311  -7.898   1.135  0.00  0.00     0.417 C 
ATOM     28  F   UNL d   1      -2.386  -8.226   0.364  0.00  0.00    -0.166 F 
ATOM     29  F   UNL d   1      -0.412  -8.905   0.962  0.00  0.00    -0.166 F 
ATOM     30  F   UNL d   1      -1.738  -7.992   2.425  0.00  0.00    -0.166 F 
ENDBRANCH  24  27
ENDBRANCH  20  21
ENDBRANCH  18  20
ENDBRANCH   1  18
TORSDOF 7
