REMARK  4 active torsions:
REMARK  status: ('A' for Active; 'I' for Inactive)
REMARK    1  A    between atoms: N_2  and  S_1 
REMARK    2  A    between atoms: C_6  and  S_1 
REMARK    3  A    between atoms: C_4  and  O_10 
REMARK    4  A    between atoms: O_10  and  C_17 
ROOT
ATOM      1  C   UNL d   1      -0.548   6.433   4.403  0.00  0.00     0.100 A 
ATOM      2  C   UNL d   1      -0.908   5.267   3.706  0.00  0.00     0.098 A 
ATOM      3  C   UNL d   1       0.322   6.357   5.543  0.00  0.00     0.104 C 
ATOM      4  N   UNL d   1       1.027   6.300   6.461  0.00  0.00    -0.191 NA
ATOM      5  C   UNL d   1      -1.041   7.666   3.950  0.00  0.00     0.057 A 
ATOM      6 CL   UNL d   1      -0.674   9.155   4.751  0.00  0.00    -0.083 Cl
ATOM      7  C   UNL d   1      -1.792   5.340   2.616  0.00  0.00     0.039 A 
ATOM      8  C   UNL d   1      -2.234   6.572   2.150  0.00  0.00     0.005 A 
ATOM      9  C   UNL d   1      -1.860   7.735   2.818  0.00  0.00     0.025 A 
ENDROOT
BRANCH   2  10
ATOM     10  O   UNL d   1      -0.405   4.053   4.135  0.00  0.00    -0.309 OA
BRANCH  10  11
ATOM     11  C   UNL d   1      -0.011   3.137   3.178  0.00  0.00     0.076 A 
ATOM     12  C   UNL d   1       0.560   3.506   1.953  0.00  0.00     0.039 A 
ATOM     13  C   UNL d   1       0.905   2.532   1.020  0.00  0.00     0.027 A 
ATOM     14  C   UNL d   1       0.736   1.184   1.340  0.00  0.00     0.074 A 
ATOM     15  C   UNL d   1       0.206   0.800   2.576  0.00  0.00     0.027 A 
ATOM     16  C   UNL d   1      -0.171   1.784   3.495  0.00  0.00     0.039 A 
BRANCH  14  17
ATOM     17  S   UNL d   1       1.327  -0.025   0.183  0.00  0.00     0.243 S 
ATOM     18  O   UNL d   1       2.660   0.386  -0.201  0.00  0.00    -0.206 OA
ATOM     19  O   UNL d   1       1.078  -1.339   0.732  0.00  0.00    -0.206 OA
BRANCH  17  20
ATOM     20  N   UNL d   1       0.298   0.203  -1.157  0.00  0.00    -0.202 NA
ATOM     21  C   UNL d   1      -1.124  -0.241  -1.001  0.00  0.00     0.134 C 
ATOM     22  C   UNL d   1      -1.277  -1.753  -1.227  0.00  0.00     0.183 C 
ATOM     23  O   UNL d   1      -0.736  -2.154  -2.494  0.00  0.00    -0.389 OA
ATOM     24  C   UNL d   1       0.656  -1.811  -2.587  0.00  0.00     0.183 C 
ATOM     25  C   UNL d   1       0.845  -0.298  -2.459  0.00  0.00     0.134 C 
ENDBRANCH  17  20
ENDBRANCH  14  17
ENDBRANCH  10  11
ENDBRANCH   2  10
TORSDOF 4
