REMARK  9 active torsions:
REMARK  status: ('A' for Active; 'I' for Inactive)
REMARK    1  A    between atoms: C_4  and  S_1 
REMARK    2  A    between atoms: C_13  and  S_1 
REMARK    3  A    between atoms: C_2  and  C_3 
REMARK    4  A    between atoms: C_6  and  C_4 
REMARK    5  A    between atoms: C_5  and  C_7 
REMARK    6  A    between atoms: N_18  and  C_6 
REMARK    7  A    between atoms: C_7  and  O_10 
REMARK    8  A    between atoms: O_10  and  N_8 
REMARK    9  A    between atoms: C_19  and  C_13 
ROOT
ATOM      1  C   UNL d   1       1.164   2.345   1.250  0.00  0.00     0.089 C 
ATOM      2  N   UNL d   1       2.128   1.759   1.893  0.00  0.00    -0.250 N 
ATOM      3  HN  UNL d   1       2.750   2.233   2.548  1.00  0.00     0.196 HD
ENDROOT
BRANCH   1   4
ATOM      4  C   UNL d   1       0.923   3.805   1.567  0.00  0.00     0.212 C 
BRANCH   4   5
ATOM      5  S   UNL d   1       1.061   4.811   0.113  0.00  0.00     0.154 S 
ATOM      6  O   UNL d   1       0.107   4.285  -0.851  0.00  0.00    -0.227 OA
ATOM      7  O   UNL d   1       2.462   4.936  -0.225  0.00  0.00    -0.227 OA
BRANCH   5   8
ATOM      8  C   UNL d   1       0.458   6.394   0.708  0.00  0.00     0.179 C 
BRANCH   8   9
ATOM      9  C   UNL d   1       0.560   7.470  -0.347  0.00  0.00    -0.044 A 
ATOM     10  C   UNL d   1      -0.146   7.385  -1.560  0.00  0.00     0.011 A 
ATOM     11  C   UNL d   1      -0.080   8.419  -2.498  0.00  0.00     0.043 A 
ATOM     12  C   UNL d   1       0.674   9.551  -2.221  0.00  0.00     0.116 A 
ATOM     13  C   UNL d   1       1.366   9.668  -1.024  0.00  0.00     0.043 A 
ATOM     14  F   UNL d   1       0.725  10.547  -3.114  0.00  0.00    -0.206 F 
ATOM     15  C   UNL d   1       1.310   8.631  -0.089  0.00  0.00     0.011 A 
ENDBRANCH   8   9
ENDBRANCH   5   8
ENDBRANCH   4   5
ENDBRANCH   1   4
BRANCH   1  16
ATOM     16  N   UNL d   1       0.322   1.710   0.364  0.00  0.00    -0.290 NA
ATOM     17  H   UNL d   1      -0.056   2.295  -0.387  0.00  0.00     0.125 HD
ATOM     18  H   UNL d   1       0.692   0.834   0.013  0.00  0.00     0.125 HD
ENDBRANCH   1  16
BRANCH   2  19
ATOM     19  O   UNL d   1       2.211   0.387   1.574  0.00  0.00    -0.194 OA
BRANCH  19  20
ATOM     20  C   UNL d   1       3.282  -0.176   2.212  0.00  0.00     0.316 C 
ATOM     21  O   UNL d   1       4.108   0.361   2.933  0.00  0.00    -0.257 OA
BRANCH  20  22
ATOM     22  C   UNL d   1       3.342  -1.626   1.893  0.00  0.00     0.056 A 
ATOM     23  C   UNL d   1       3.753  -2.567   2.857  0.00  0.00     0.064 A 
ATOM     24  C   UNL d   1       3.945  -3.905   2.453  0.00  0.00     0.017 A 
ATOM     25  C   UNL d   1       3.694  -4.306   1.141  0.00  0.00     0.001 A 
ATOM     26  C   UNL d   1       3.244  -3.378   0.207  0.00  0.00     0.001 A 
ATOM     27  C   UNL d   1       3.077  -2.043   0.575  0.00  0.00     0.018 A 
BRANCH  23  28
ATOM     28  C   UNL d   1       4.005  -2.212   4.304  0.00  0.00     0.418 C 
ATOM     29  F   UNL d   1       3.221  -1.213   4.787  0.00  0.00    -0.166 F 
ATOM     30  F   UNL d   1       3.745  -3.274   5.129  0.00  0.00    -0.166 F 
ATOM     31  F   UNL d   1       5.298  -1.877   4.553  0.00  0.00    -0.166 F 
ENDBRANCH  23  28
ENDBRANCH  20  22
ENDBRANCH  19  20
ENDBRANCH   2  19
TORSDOF 9
