REMARK  6 active torsions:
REMARK  status: ('A' for Active; 'I' for Inactive)
REMARK    1  A    between atoms: S_3  and  C_1 
REMARK    2  A    between atoms: N_7  and  C_2 
REMARK    3  A    between atoms: C_16  and  S_3 
REMARK    4  A    between atoms: C_8  and  C_4 
REMARK       I    between atoms: N_14  and  C_8 
REMARK    5  A    between atoms: N_11  and  N_14 
REMARK    6  A    between atoms: C_21  and  C_20 
ROOT
ATOM      1  C   UNL d   1       1.485  -0.643  -0.052  0.00  0.00     0.094 A 
ATOM      2  C   UNL d   1       1.443   0.815  -0.057  0.00  0.00     0.083 A 
ATOM      3  C   UNL d   1       0.117   1.281  -0.041  0.00  0.00     0.102 A 
ATOM      4  S   UNL d   1      -1.007  -0.017  -0.077  0.00  0.00    -0.092 SA
ATOM      5  C   UNL d   1       0.213  -1.183  -0.045  0.00  0.00     0.076 A 
ENDROOT
BRANCH   3   6
ATOM      6  C   UNL d   1      -0.394   2.649  -0.206  0.00  0.00     0.279 C 
ATOM      7  N   UNL d   1      -1.492   3.099   0.515  0.00  0.00    -0.266 N 
ATOM      8  H   UNL d   1      -1.785   4.045   0.294  0.00  0.00     0.190 HD
ATOM      9  O   UNL d   1       0.129   3.458  -0.978  0.00  0.00    -0.265 OA
BRANCH   7  10
ATOM     10  N   UNL d   1      -2.235   2.338   1.365  0.00  0.00    -0.308 N 
ATOM     11  C   UNL d   1      -3.303   2.894   1.843  0.00  0.00     0.118 C 
ATOM     12  HN  UNL d   1      -1.966   1.385   1.611  1.00  0.00     0.186 HD
BRANCH  11  13
ATOM     13  C   UNL d   1      -4.259   2.131   2.679  0.00  0.00    -0.019 A 
ATOM     14  C   UNL d   1      -4.065   0.765   2.902  0.00  0.00     0.013 A 
ATOM     15  C   UNL d   1      -4.999   0.039   3.640  0.00  0.00     0.001 A 
ATOM     16  C   UNL d   1      -6.126   0.678   4.159  0.00  0.00     0.000 A 
ATOM     17  C   UNL d   1      -6.319   2.043   3.941  0.00  0.00     0.001 A 
ATOM     18  C   UNL d   1      -5.387   2.774   3.197  0.00  0.00     0.013 A 
ENDBRANCH  11  13
ENDBRANCH   7  10
ENDBRANCH   3   6
BRANCH   2  19
ATOM     19  N   UNL d   1       2.575   1.711  -0.070  0.00  0.00    -0.330 N 
ATOM     20  C   UNL d   1       2.642   2.949   0.549  0.00  0.00     0.097 A 
ATOM     21  C   UNL d   1       3.890   3.500   0.360  0.00  0.00     0.019 A 
ATOM     22  C   UNL d   1       4.631   2.584  -0.405  0.00  0.00     0.019 A 
ATOM     23  C   UNL d   1       3.799   1.521  -0.678  0.00  0.00     0.097 A 
ENDBRANCH   2  19
BRANCH   1  24
ATOM     24  S   UNL d   1       2.849  -1.743  -0.005  0.00  0.00     0.181 S 
ATOM     25  O   UNL d   1       2.256  -3.044   0.240  0.00  0.00    -0.222 OA
ATOM     26  O   UNL d   1       3.560  -1.490  -1.239  0.00  0.00    -0.222 OA
BRANCH  24  27
ATOM     27  C   UNL d   1       3.856  -1.320   1.418  0.00  0.00     0.105 C 
ATOM     28  C   UNL d   1       3.096  -1.536   2.724  0.00  0.00     0.026 C 
ATOM     29  C   UNL d   1       5.125  -2.177   1.411  0.00  0.00     0.026 C 
ENDBRANCH  24  27
ENDBRANCH   1  24
TORSDOF 6
