REMARK  4 active torsions:
REMARK  status: ('A' for Active; 'I' for Inactive)
REMARK    1  A    between atoms: N_5  and  C_1 
REMARK    2  A    between atoms: C_2  and  C_8 
REMARK       I    between atoms: C_3  and  N_5 
REMARK       I    between atoms: N_7  and  C_3 
REMARK    3  A    between atoms: N_6  and  C_4 
REMARK    4  A    between atoms: C_9  and  N_7 
ROOT
ATOM      1  C   UNL d   1       2.086  -0.162  -0.078  0.00  0.00     0.063 A 
ATOM      2  C   UNL d   1       1.242  -1.241   0.294  0.00  0.00     0.057 A 
ATOM      3  C   UNL d   1       0.256   1.425   0.179  0.00  0.00     0.050 A 
ATOM      4  C   UNL d   1       1.593   1.150  -0.159  0.00  0.00     0.048 A 
ATOM      5  C   UNL d   1      -0.102  -0.950   0.557  0.00  0.00     0.032 A 
ATOM      6  C   UNL d   1      -0.589   0.358   0.508  0.00  0.00     0.018 A 
ENDROOT
BRANCH   1   7
ATOM      7  N   UNL d   1       3.425  -0.427  -0.434  0.00  0.00    -0.307 N 
ATOM      8  C   UNL d   1       4.297  -1.043   0.405  0.00  0.00     0.325 C 
ATOM      9  N   UNL d   1       5.283  -1.827  -0.100  0.00  0.00    -0.307 N 
ATOM     10  O   UNL d   1       4.219  -0.987   1.637  0.00  0.00    -0.247 OA
ATOM     11  H   UNL d   1       5.701  -2.287   0.709  0.00  0.00     0.170 HD
ATOM     12  H   UNL d   1       3.760  -0.088  -1.318  0.00  0.00     0.170 HD
BRANCH   9  13
ATOM     13  C   UNL d   1       5.626  -2.390  -1.350  0.00  0.00     0.058 A 
ATOM     14  C   UNL d   1       5.343  -1.941  -2.647  0.00  0.00     0.062 A 
ATOM     15  C   UNL d   1       5.691  -2.726  -3.767  0.00  0.00     0.050 A 
ATOM     16 CL   UNL d   1       4.673  -0.401  -3.040  0.00  0.00    -0.082 Cl
ATOM     17  C   UNL d   1       6.353  -3.940  -3.609  0.00  0.00     0.035 A 
ATOM     18  C   UNL d   1       6.697  -4.378  -2.343  0.00  0.00     0.026 A 
ATOM     19 CL   UNL d   1       6.758  -4.889  -4.978  0.00  0.00    -0.084 Cl
ATOM     20  C   UNL d   1       6.350  -3.602  -1.225  0.00  0.00     0.033 A 
ENDBRANCH   9  13
ENDBRANCH   1   7
BRANCH   2  21
ATOM     21  N   UNL d   1       1.744  -2.550   0.336  0.00  0.00    -0.375 N 
ATOM     22  C   UNL d   1       1.887  -3.207  -0.978  0.00  0.00     0.149 C 
ATOM     23  C   UNL d   1       2.671  -4.523  -0.808  0.00  0.00     0.187 C 
ATOM     24  O   UNL d   1       2.079  -5.384   0.179  0.00  0.00    -0.388 OA
ATOM     25  C   UNL d   1       2.038  -4.709   1.450  0.00  0.00     0.187 C 
ATOM     26  C   UNL d   1       1.182  -3.441   1.365  0.00  0.00     0.149 C 
ENDBRANCH   2  21
BRANCH   3  27
ATOM     27  C   UNL d   1      -0.296   2.829   0.211  0.00  0.00     0.417 C 
ATOM     28  F   UNL d   1       0.640   3.797   0.018  0.00  0.00    -0.166 F 
ATOM     29  F   UNL d   1      -1.249   3.034  -0.742  0.00  0.00    -0.166 F 
ATOM     30  F   UNL d   1      -0.898   3.126   1.399  0.00  0.00    -0.166 F 
ENDBRANCH   3  27
TORSDOF 4
