REMARK  3 active torsions:
REMARK  status: ('A' for Active; 'I' for Inactive)
REMARK    1  A    between atoms: C_2  and  C_1 
REMARK       I    between atoms: N_3  and  C_1 
REMARK    2  A    between atoms: C_6  and  N_3 
REMARK    3  A    between atoms: O_14  and  C_7 
ROOT
ATOM      1  C   UNL d   1       0.984  -0.075   0.005  0.00  0.00     0.259 C 
ATOM      2  N   UNL d   1       0.163   0.860   0.608  0.00  0.00    -0.323 N 
ATOM      3  O   UNL d   1       2.194  -0.207   0.206  0.00  0.00    -0.267 OA
ATOM      4  H   UNL d   1      -0.838   0.723   0.536  0.00  0.00     0.169 HD
ENDROOT
BRANCH   1   5
ATOM      5  C   UNL d   1       0.348  -1.076  -0.889  0.00  0.00     0.065 A 
ATOM      6  C   UNL d   1       0.919  -2.355  -0.999  0.00  0.00     0.081 A 
ATOM      7  C   UNL d   1       0.333  -3.330  -1.801  0.00  0.00     0.037 A 
ATOM      8  C   UNL d   1      -0.814  -3.025  -2.530  0.00  0.00     0.003 A 
ATOM      9  C   UNL d   1      -1.364  -1.743  -2.468  0.00  0.00     0.001 A 
ATOM     10  C   UNL d   1      -0.785  -0.766  -1.651  0.00  0.00     0.020 A 
BRANCH   6  11
ATOM     11  O   UNL d   1       2.065  -2.724  -0.343  0.00  0.00    -0.360 OA
ATOM     12  H   UNL d   1       2.481  -1.907   0.015  0.00  0.00     0.217 HD
ENDBRANCH   6  11
ENDBRANCH   1   5
BRANCH   2  13
ATOM     13  C   UNL d   1       0.603   1.915   1.443  0.00  0.00     0.036 A 
ATOM     14  C   UNL d   1       1.937   2.337   1.488  0.00  0.00     0.056 A 
ATOM     15  C   UNL d   1       2.311   3.433   2.268  0.00  0.00     0.074 A 
ATOM     16 CL   UNL d   1       3.951   3.957   2.252  0.00  0.00    -0.081 Cl
ATOM     17  C   UNL d   1       1.356   4.102   3.023  0.00  0.00     0.138 A 
ATOM     18  C   UNL d   1       0.031   3.677   3.018  0.00  0.00     0.046 A 
ATOM     19  F   UNL d   1       1.690   5.174   3.756  0.00  0.00    -0.204 F 
ATOM     20  C   UNL d   1      -0.348   2.588   2.225  0.00  0.00     0.032 A 
ENDBRANCH   2  13
TORSDOF 3
