REMARK  5 active torsions:
REMARK  status: ('A' for Active; 'I' for Inactive)
REMARK    1  A    between atoms: C_2  and  C_1 
REMARK       I    between atoms: N_6  and  C_1 
REMARK    2  A    between atoms: S_5  and  C_3 
REMARK    3  A    between atoms: C_4  and  C_7 
REMARK    4  A    between atoms: C_11  and  S_5 
REMARK    5  A    between atoms: C_16  and  N_6 
ROOT
ATOM      1  C   UNL d   1       0.085  -0.941  -0.652  0.00  0.00     0.066 A 
ATOM      2  C   UNL d   1      -0.747  -0.330  -1.603  0.00  0.00     0.090 A 
ATOM      3  N   UNL d   1      -1.271  -1.027  -2.649  0.00  0.00    -0.359 N 
ATOM      4  HN  UNL d   1      -1.884  -0.572  -3.325  1.00  0.00     0.166 HD
ATOM      5  C   UNL d   1       0.402  -2.300  -0.821  0.00  0.00     0.021 A 
ATOM      6  C   UNL d   1      -0.957  -2.335  -2.769  0.00  0.00     0.089 A 
ATOM      7  C   UNL d   1      -0.114  -3.003  -1.901  0.00  0.00     0.018 A 
ENDROOT
BRANCH   1   8
ATOM      8  C   UNL d   1       0.565  -0.238   0.562  0.00  0.00     0.259 C 
ATOM      9  N   UNL d   1       1.841  -0.563   0.993  0.00  0.00    -0.323 N 
ATOM     10  H   UNL d   1       2.437  -1.083   0.361  0.00  0.00     0.169 HD
ATOM     11  O   UNL d   1      -0.200   0.550   1.112  0.00  0.00    -0.267 OA
BRANCH   9  12
ATOM     12  C   UNL d   1       2.467  -0.084   2.170  0.00  0.00     0.035 A 
ATOM     13  C   UNL d   1       1.779   0.576   3.190  0.00  0.00     0.030 A 
ATOM     14  C   UNL d   1       2.467   1.137   4.269  0.00  0.00     0.009 A 
ATOM     15  C   UNL d   1       3.858   1.048   4.346  0.00  0.00    -0.062 A 
ATOM     16  C   UNL d   1       4.540   0.300   3.382  0.00  0.00     0.009 A 
ATOM     17  C   UNL d   1       4.592   1.737   5.458  0.00  0.00     0.048 C 
ATOM     18  C   UNL d   1       3.847  -0.267   2.304  0.00  0.00     0.030 A 
ENDBRANCH   9  12
ENDBRANCH   1   8
BRANCH   2  19
ATOM     19  S   UNL d   1      -0.938   1.436  -1.764  0.00  0.00    -0.072 SA
BRANCH  19  20
ATOM     20  C   UNL d   1      -2.516   1.821  -1.026  0.00  0.00     0.007 A 
ATOM     21  C   UNL d   1      -3.719   1.210  -1.398  0.00  0.00     0.035 A 
ATOM     22  C   UNL d   1      -4.952   1.690  -0.907  0.00  0.00     0.049 A 
ATOM     23  C   UNL d   1      -4.962   2.791  -0.035  0.00  0.00     0.016 A 
ATOM     24  C   UNL d   1      -3.768   3.394   0.349  0.00  0.00     0.002 A 
ATOM     25  C   UNL d   1      -2.556   2.909  -0.145  0.00  0.00     0.019 A 
BRANCH  22  26
ATOM     26  C   UNL d   1      -6.264   1.076  -1.325  0.00  0.00     0.417 C 
ATOM     27  F   UNL d   1      -6.139   0.008  -2.159  0.00  0.00    -0.166 F 
ATOM     28  F   UNL d   1      -6.996   0.633  -0.262  0.00  0.00    -0.166 F 
ATOM     29  F   UNL d   1      -7.069   1.964  -1.976  0.00  0.00    -0.166 F 
ENDBRANCH  22  26
ENDBRANCH  19  20
ENDBRANCH   2  19
TORSDOF 5
