REMARK  6 active torsions:
REMARK  status: ('A' for Active; 'I' for Inactive)
REMARK    1  A    between atoms: N_2  and  C_1 
REMARK    2  A    between atoms: C_3  and  C_1 
REMARK    3  A    between atoms: C_4  and  C_1 
REMARK    4  A    between atoms: N_6  and  C_1 
REMARK       I    between atoms: C_5  and  N_2 
REMARK    5  A    between atoms: C_8  and  C_5 
REMARK    6  A    between atoms: C_15  and  N_6 
ROOT
ATOM      1  C   UNL d   1       0.842   0.153  -0.033  0.00  0.00     0.426 C 
ENDROOT
BRANCH   1   2
ATOM      2  N   UNL d   1       0.460   0.530  -1.437  0.00  0.00    -0.307 N 
ATOM      3  C   UNL d   1       0.340  -0.377  -2.460  0.00  0.00     0.254 C 
ATOM      4  O   UNL d   1       0.651  -1.552  -2.349  0.00  0.00    -0.268 OA
ATOM      5  H   UNL d   1       0.290   1.510  -1.602  0.00  0.00     0.166 HD
BRANCH   3   6
ATOM      6  C   UNL d   1      -0.127   0.175  -3.768  0.00  0.00     0.032 A 
ATOM      7  C   UNL d   1       0.394  -0.381  -4.944  0.00  0.00     0.017 A 
ATOM      8  C   UNL d   1      -0.008   0.119  -6.179  0.00  0.00     0.001 A 
ATOM      9  C   UNL d   1      -0.931   1.161  -6.252  0.00  0.00     0.000 A 
ATOM     10  C   UNL d   1      -1.458   1.711  -5.076  0.00  0.00     0.001 A 
ATOM     11  C   UNL d   1      -1.056   1.216  -3.837  0.00  0.00     0.017 A 
ENDBRANCH   3   6
ENDBRANCH   1   2
BRANCH   1  12
ATOM     12  C   UNL d   1      -0.114  -0.993   0.521  0.00  0.00     0.452 C 
ATOM     13  F   UNL d   1      -1.277  -1.050  -0.183  0.00  0.00    -0.166 F 
ATOM     14  F   UNL d   1       0.462  -2.221   0.415  0.00  0.00    -0.166 F 
ATOM     15  F   UNL d   1      -0.458  -0.872   1.821  0.00  0.00    -0.166 F 
ENDBRANCH   1  12
BRANCH   1  16
ATOM     16  C   UNL d   1       0.592   1.404   0.899  0.00  0.00     0.452 C 
ATOM     17  F   UNL d   1       0.281   2.485   0.111  0.00  0.00    -0.166 F 
ATOM     18  F   UNL d   1      -0.421   1.310   1.778  0.00  0.00    -0.166 F 
ATOM     19  F   UNL d   1       1.689   1.776   1.599  0.00  0.00    -0.166 F 
ENDBRANCH   1  16
BRANCH   1  20
ATOM     20  N   UNL d   1       2.248  -0.354  -0.161  0.00  0.00     0.136 N 
ATOM     21  H   UNL d   1       2.216  -1.133  -0.829  0.00  0.00     0.320 HD
BRANCH  20  22
ATOM     22  C   UNL d   1       3.378   0.534  -0.428  0.00  0.00     0.224 C 
ATOM     23  C   UNL d   1       3.507   1.095  -1.857  0.00  0.00     0.036 C 
ATOM     24  C   UNL d   1       3.846   0.047  -2.919  0.00  0.00     0.002 C 
ATOM     25  C   UNL d   1       5.058  -0.800  -2.544  0.00  0.00     0.000 C 
ATOM     26  C   UNL d   1       4.947  -1.372  -1.135  0.00  0.00     0.002 C 
ATOM     27  C   UNL d   1       4.661  -0.271  -0.110  0.00  0.00     0.036 C 
ENDBRANCH  20  22
ENDBRANCH   1  20
TORSDOF 6
