REMARK  3 active torsions:
REMARK  status: ('A' for Active; 'I' for Inactive)
REMARK    1  A    between atoms: C_2  and  C_1 
REMARK    2  A    between atoms: C_9  and  C_2 
REMARK    3  A    between atoms: C_8  and  C_5 
ROOT
ATOM      1  C   UNL d   1       0.576   1.021   0.012  0.00  0.00     0.081 C 
ATOM      2  N   UNL d   1       1.160  -0.142   0.035  0.00  0.00    -0.321 N 
ATOM      3  HN  UNL d   1       2.160  -0.329  -0.043  1.00  0.00     0.180 HD
ATOM      4  C   UNL d   1      -0.922   1.018   0.091  0.00  0.00     0.088 C 
ATOM      5  N   UNL d   1       0.169  -1.052   0.185  0.00  0.00    -0.239 NA
ATOM      6  C   UNL d   1      -1.140  -0.483  -0.153  0.00  0.00     0.126 C 
ATOM      7  H   UNL d   1       0.359  -1.931  -0.298  0.00  0.00     0.146 HD
ENDROOT
BRANCH   1   8
ATOM      8  C   UNL d   1       1.329   2.302  -0.200  0.00  0.00     0.206 C 
ATOM      9  O   UNL d   1       0.802   3.175  -0.880  0.00  0.00    -0.285 OA
BRANCH   8  10
ATOM     10  C   UNL d   1       2.703   2.450   0.333  0.00  0.00     0.016 A 
ATOM     11  C   UNL d   1       3.627   3.220  -0.385  0.00  0.00     0.015 A 
ATOM     12  C   UNL d   1       4.942   3.339   0.070  0.00  0.00     0.001 A 
ATOM     13  C   UNL d   1       5.330   2.708   1.252  0.00  0.00     0.000 A 
ATOM     14  C   UNL d   1       4.406   1.960   1.982  0.00  0.00     0.001 A 
ATOM     15  C   UNL d   1       3.093   1.828   1.523  0.00  0.00     0.015 A 
ENDBRANCH   8  10
ENDBRANCH   1   8
BRANCH   4  16
ATOM     16  C   UNL d   1      -1.494   1.500   1.407  0.00  0.00    -0.047 A 
ATOM     17  C   UNL d   1      -2.358   2.605   1.422  0.00  0.00     0.008 A 
ATOM     18  C   UNL d   1      -3.006   2.988   2.599  0.00  0.00     0.001 A 
ATOM     19  C   UNL d   1      -2.791   2.279   3.779  0.00  0.00     0.000 A 
ATOM     20  C   UNL d   1      -1.905   1.205   3.789  0.00  0.00     0.001 A 
ATOM     21  C   UNL d   1      -1.253   0.825   2.615  0.00  0.00     0.008 A 
ENDBRANCH   4  16
TORSDOF 3
