REMARK  5 active torsions:
REMARK  status: ('A' for Active; 'I' for Inactive)
REMARK    1  A    between atoms: C_2  and  C_1 
REMARK    2  A    between atoms: C_3  and  C_1 
REMARK    3  A    between atoms: N_4  and  C_1 
REMARK    4  A    between atoms: N_5  and  C_1 
REMARK    5  A    between atoms: C_6  and  N_4 
REMARK       I    between atoms: C_7  and  N_5 
ROOT
ATOM      1  C   UNL d   1       1.111   0.188  -0.206  0.00  0.00     0.306 C 
ENDROOT
BRANCH   1   2
ATOM      2  C   UNL d   1       0.352   1.300   0.589  0.00  0.00     0.441 C 
ATOM      3  F   UNL d   1       0.311   2.510   0.004  0.00  0.00    -0.166 F 
ATOM      4  F   UNL d   1      -0.932   0.919   0.826  0.00  0.00    -0.166 F 
ATOM      5  F   UNL d   1       0.919   1.476   1.815  0.00  0.00    -0.166 F 
ENDBRANCH   1   2
BRANCH   1   6
ATOM      6  C   UNL d   1       0.462   0.273  -1.625  0.00  0.00     0.441 C 
ATOM      7  F   UNL d   1       0.391   1.513  -2.147  0.00  0.00    -0.166 F 
ATOM      8  F   UNL d   1       1.123  -0.488  -2.536  0.00  0.00    -0.166 F 
ATOM      9  F   UNL d   1      -0.814  -0.202  -1.592  0.00  0.00    -0.166 F 
ENDBRANCH   1   6
BRANCH   1  10
ATOM     10  N   UNL d   1       0.888  -1.143   0.477  0.00  0.00    -0.347 N 
ATOM     11  H   UNL d   1      -0.045  -1.196   0.904  0.00  0.00     0.162 HD
BRANCH  10  12
ATOM     12  C   UNL d   1       1.292  -2.408   0.043  0.00  0.00     0.052 A 
ATOM     13  C   UNL d   1       0.849  -3.555   0.746  0.00  0.00     0.060 A 
ATOM     14 CL   UNL d   1      -0.300  -3.399   2.036  0.00  0.00    -0.082 Cl
ATOM     15  C   UNL d   1       1.313  -4.838   0.439  0.00  0.00     0.026 A 
ATOM     16  C   UNL d   1       2.243  -5.012  -0.578  0.00  0.00     0.002 A 
ATOM     17  C   UNL d   1       2.709  -3.905  -1.277  0.00  0.00     0.002 A 
ATOM     18  C   UNL d   1       2.251  -2.620  -0.956  0.00  0.00     0.031 A 
ENDBRANCH  10  12
ENDBRANCH   1  10
BRANCH   1  19
ATOM     19  N   UNL d   1       2.571   0.288  -0.098  0.00  0.00    -0.320 N 
ATOM     20  C   UNL d   1       3.311   1.302  -0.625  0.00  0.00     0.216 C 
ATOM     21  O   UNL d   1       2.811   2.193  -1.292  0.00  0.00    -0.274 OA
ATOM     22  C   UNL d   1       4.785   1.184  -0.370  0.00  0.00     0.117 C 
ATOM     23  H   UNL d   1       2.976  -0.338   0.583  0.00  0.00     0.165 HD
ENDBRANCH   1  19
TORSDOF 5
