REMARK  2 active torsions:
REMARK  status: ('A' for Active; 'I' for Inactive)
REMARK    1  A    between atoms: C_8  and  N_1 
REMARK    2  A    between atoms: C_11  and  C_4 
ROOT
ATOM      1  N   UNL d   1      -0.388  -1.155  -0.052  0.00  0.00    -0.241 N 
ATOM      2  N   UNL d   1       0.887  -0.710  -0.181  0.00  0.00    -0.235 N 
ATOM      3  HN  UNL d   1       1.715  -1.304  -0.236  1.00  0.00     0.209 HD
ATOM      4  C   UNL d   1      -0.397   1.046  -0.127  0.00  0.00     0.119 A 
ATOM      5  C   UNL d   1      -1.242  -0.054  -0.007  0.00  0.00     0.064 A 
ATOM      6  N   UNL d   1       0.891   0.609  -0.224  0.00  0.00    -0.280 N 
ATOM      7  HN  UNL d   1       1.717   1.200  -0.315  1.00  0.00     0.188 HD
ATOM      8  C   UNL d   1      -2.709  -0.072   0.231  0.00  0.00     0.073 C 
ENDROOT
BRANCH   1   9
ATOM      9  C   UNL d   1      -0.636  -2.555   0.032  0.00  0.00     0.101 A 
ATOM     10  C   UNL d   1       0.226  -3.387   0.787  0.00  0.00     0.066 A 
ATOM     11  C   UNL d   1      -0.006  -4.768   0.879  0.00  0.00     0.050 A 
ATOM     12 CL   UNL d   1       1.559  -2.821   1.743  0.00  0.00    -0.082 Cl
ATOM     13  C   UNL d   1      -1.105  -5.333   0.252  0.00  0.00     0.037 A 
ATOM     14  C   UNL d   1      -1.951  -4.542  -0.513  0.00  0.00     0.050 A 
ATOM     15 CL   UNL d   1      -1.403  -7.020   0.394  0.00  0.00    -0.084 Cl
ATOM     16  C   UNL d   1      -1.697  -3.169  -0.658  0.00  0.00     0.066 A 
ATOM     17 CL   UNL d   1      -2.620  -2.401  -1.904  0.00  0.00    -0.082 Cl
ENDBRANCH   1   9
BRANCH   4  18
ATOM     18  C   UNL d   1      -0.741   2.465  -0.121  0.00  0.00     0.175 C 
ATOM     19  O   UNL d   1      -1.916   2.849  -0.145  0.00  0.00    -0.291 OA
ATOM     20  C   UNL d   1       0.374   3.481  -0.071  0.00  0.00     0.098 C 
ENDBRANCH   4  18
TORSDOF 2
