REMARK  6 active torsions:
REMARK  status: ('A' for Active; 'I' for Inactive)
REMARK    1  A    between atoms: C_7  and  N_3 
REMARK    2  A    between atoms: C_12  and  C_4 
REMARK    3  A    between atoms: C_8  and  C_10 
REMARK    4  A    between atoms: C_9  and  C_11 
REMARK    5  A    between atoms: O_23  and  C_12 
REMARK    6  A    between atoms: C_25  and  O_23 
ROOT
ATOM      1  C   UNL d   1       1.997   1.520  -0.095  0.00  0.00     0.058 A 
ATOM      2  C   UNL d   1       3.184   3.561   0.508  0.00  0.00     0.051 A 
ATOM      3  C   UNL d   1       4.241   1.913  -0.961  0.00  0.00     0.051 A 
ATOM      4  C   UNL d   1       3.109   1.090  -0.835  0.00  0.00     0.047 A 
ATOM      5  C   UNL d   1       2.057   2.730   0.608  0.00  0.00     0.047 A 
ATOM      6  C   UNL d   1       4.264   3.147  -0.289  0.00  0.00     0.032 A 
ENDROOT
BRANCH   1   7
ATOM      7  N   UNL d   1       0.814   0.729  -0.093  0.00  0.00    -0.260 N 
ATOM      8  N   UNL d   1       0.915  -0.616  -0.265  0.00  0.00    -0.288 N 
ATOM      9  C   UNL d   1      -0.322  -1.098  -0.051  0.00  0.00     0.126 C 
ATOM     10  HN  UNL d   1       1.752  -1.146  -0.506  1.00  0.00     0.188 HD
ATOM     11  C   UNL d   1      -1.244  -0.040   0.105  0.00  0.00     0.064 C 
ATOM     12  C   UNL d   1      -0.508   1.123   0.028  0.00  0.00     0.033 C 
ATOM     13  C   UNL d   1      -1.021   2.517  -0.012  0.00  0.00     0.070 C 
BRANCH   9  14
ATOM     14  C   UNL d   1      -0.641  -2.528   0.027  0.00  0.00     0.311 C 
ATOM     15  O   UNL d   1      -1.773  -2.943   0.255  0.00  0.00    -0.258 OA
BRANCH  14  16
ATOM     16  O   UNL d   1       0.462  -3.326  -0.086  0.00  0.00    -0.317 OA
BRANCH  16  17
ATOM     17  C   UNL d   1       0.300  -4.676   0.363  0.00  0.00     0.175 C 
ATOM     18  C   UNL d   1       0.574  -4.719   1.858  0.00  0.00     0.034 C 
ENDBRANCH  16  17
ENDBRANCH  14  16
ENDBRANCH   9  14
ENDBRANCH   1   7
BRANCH   3  19
ATOM     19  C   UNL d   1       5.396   1.516  -1.851  0.00  0.00     0.417 C 
ATOM     20  F   UNL d   1       5.245   0.302  -2.445  0.00  0.00    -0.166 F 
ATOM     21  F   UNL d   1       5.583   2.407  -2.866  0.00  0.00    -0.166 F 
ATOM     22  F   UNL d   1       6.577   1.465  -1.178  0.00  0.00    -0.166 F 
ENDBRANCH   3  19
BRANCH   2  23
ATOM     23  C   UNL d   1       3.224   4.899   1.209  0.00  0.00     0.417 C 
ATOM     24  F   UNL d   1       2.101   5.161   1.936  0.00  0.00    -0.166 F 
ATOM     25  F   UNL d   1       4.266   5.008   2.074  0.00  0.00    -0.166 F 
ATOM     26  F   UNL d   1       3.348   5.933   0.333  0.00  0.00    -0.166 F 
ENDBRANCH   2  23
TORSDOF 6
