REMARK  4 active torsions:
REMARK  status: ('A' for Active; 'I' for Inactive)
REMARK    1  A    between atoms: C_7  and  C_3 
REMARK    2  A    between atoms: C_12  and  C_4 
REMARK    3  A    between atoms: O_8  and  C_12 
REMARK    4  A    between atoms: C_9  and  O_8 
ROOT
ATOM      1  N   UNL d   1       0.259  -0.350  -0.958  0.00  0.00    -0.349 N 
ATOM      2  HN  UNL d   1       0.064  -0.632  -1.919  1.00  0.00     0.166 HD
ATOM      3  C   UNL d   1       0.489   0.962  -0.545  0.00  0.00     0.085 A 
ATOM      4  C   UNL d   1       0.329  -1.174   0.069  0.00  0.00     0.075 A 
ATOM      5  C   UNL d   1       0.716   1.099   0.812  0.00  0.00     0.084 A 
ATOM      6  S   UNL d   1       0.684  -0.428   1.581  0.00  0.00    -0.084 SA
ENDROOT
BRANCH   4   7
ATOM      7  C   UNL d   1       0.025  -2.644   0.021  0.00  0.00     0.240 C 
BRANCH   7   8
ATOM      8  O   UNL d   1       1.259  -3.356  -0.108  0.00  0.00    -0.343 OA
BRANCH   8   9
ATOM      9  C   UNL d   1       1.150  -4.727  -0.074  0.00  0.00     0.090 A 
ATOM     10  C   UNL d   1       2.037  -5.485  -0.855  0.00  0.00     0.067 A 
ATOM     11 CL   UNL d   1       3.200  -4.735  -1.890  0.00  0.00    -0.081 Cl
ATOM     12  C   UNL d   1       1.996  -6.883  -0.821  0.00  0.00     0.026 A 
ATOM     13  C   UNL d   1       1.076  -7.539  -0.001  0.00  0.00     0.002 A 
ATOM     14  C   UNL d   1       0.207  -6.794   0.790  0.00  0.00     0.003 A 
ATOM     15  C   UNL d   1       0.249  -5.398   0.759  0.00  0.00     0.038 A 
ENDBRANCH   8   9
ENDBRANCH   7   8
ENDBRANCH   4   7
BRANCH   3  16
ATOM     16  C   UNL d   1       0.467   2.094  -1.477  0.00  0.00     0.172 C 
ATOM     17  O   UNL d   1       0.619   3.251  -1.086  0.00  0.00    -0.291 OA
ATOM     18  C   UNL d   1       0.254   1.816  -2.945  0.00  0.00     0.098 C 
ENDBRANCH   3  16
TORSDOF 4
