REMARK  2 active torsions:
REMARK  status: ('A' for Active; 'I' for Inactive)
REMARK    1  A    between atoms: C_6  and  C_1 
REMARK    2  A    between atoms: N_13  and  C_4 
REMARK       I    between atoms: N_14  and  C_6 
ROOT
ATOM      1  C   UNL d   1      -0.227   1.006  -0.043  0.00  0.00     0.099 A 
ATOM      2  S   UNL d   1       1.361   0.354  -0.014  0.00  0.00    -0.081 SA
ATOM      3  C   UNL d   1       0.799  -1.266   0.034  0.00  0.00     0.025 A 
ATOM      4  C   UNL d   1      -1.165  -0.007  -0.021  0.00  0.00     0.050 A 
ATOM      5  C   UNL d   1      -0.583  -1.302   0.030  0.00  0.00     0.051 A 
ATOM      6  C   UNL d   1       1.720  -2.380   0.075  0.00  0.00     0.022 A 
ATOM      7  S   UNL d   1       1.281  -3.887   0.777  0.00  0.00    -0.101 SA
ATOM      8  C   UNL d   1       3.020  -2.424  -0.400  0.00  0.00     0.021 A 
ATOM      9  C   UNL d   1       2.812  -4.572   0.452  0.00  0.00     0.050 A 
ATOM     10  C   UNL d   1       3.648  -3.685  -0.184  0.00  0.00     0.008 A 
ENDROOT
BRANCH   1  11
ATOM     11  C   UNL d   1      -0.454   2.443  -0.086  0.00  0.00     0.258 C 
ATOM     12  O   UNL d   1      -1.564   2.975  -0.086  0.00  0.00    -0.267 OA
ATOM     13  N   UNL d   1       0.656   3.245  -0.138  0.00  0.00    -0.365 N 
ATOM     14  H   UNL d   1       1.589   2.861  -0.149  0.00  0.00     0.159 HD
ATOM     15  H   UNL d   1       0.520   4.244  -0.173  0.00  0.00     0.159 HD
ENDBRANCH   1  11
BRANCH   4  16
ATOM     16  N   UNL d   1      -2.497   0.187  -0.049  0.00  0.00    -0.398 N 
ATOM     17  H   UNL d   1      -2.894   1.128  -0.104  0.00  0.00     0.156 HD
ATOM     18  H   UNL d   1      -3.180  -0.562  -0.069  0.00  0.00     0.156 HD
ENDBRANCH   4  16
TORSDOF 2
