REMARK  4 active torsions:
REMARK  status: ('A' for Active; 'I' for Inactive)
REMARK    1  A    between atoms: S_8  and  C_2 
REMARK    2  A    between atoms: C_6  and  C_4 
REMARK    3  A    between atoms: O_12  and  C_6 
REMARK    4  A    between atoms: C_16  and  O_12 
ROOT
ATOM      1  C   UNL d   1       0.471   0.661  -0.072  0.00  0.00     0.041 A 
ATOM      2  C   UNL d   1       1.835   0.876  -0.104  0.00  0.00     0.056 A 
ATOM      3  C   UNL d   1       0.154  -0.754  -0.042  0.00  0.00    -0.019 A 
ATOM      4  C   UNL d   1       1.292  -1.548  -0.003  0.00  0.00     0.088 A 
ATOM      5  S   UNL d   1       2.706  -0.591  -0.129  0.00  0.00    -0.076 SA
ATOM      6  C   UNL d   1      -0.584   1.682  -0.041  0.00  0.00     0.162 C 
ATOM      7  O   UNL d   1      -0.380   2.880  -0.218  0.00  0.00    -0.292 OA
ATOM      8  C   UNL d   1      -1.271  -1.240   0.022  0.00  0.00     0.042 C 
ATOM      9  C   UNL d   1      -1.983   1.177   0.279  0.00  0.00     0.084 C 
ATOM     10  C   UNL d   1      -2.258  -0.153  -0.419  0.00  0.00     0.012 C 
ENDROOT
BRANCH   4  11
ATOM     11  C   UNL d   1       1.372  -2.992   0.190  0.00  0.00     0.300 C 
ATOM     12  O   UNL d   1       0.413  -3.728   0.382  0.00  0.00    -0.259 OA
BRANCH  11  13
ATOM     13  O   UNL d   1       2.673  -3.402   0.246  0.00  0.00    -0.317 OA
BRANCH  13  14
ATOM     14  C   UNL d   1       2.915  -4.639   0.926  0.00  0.00     0.174 C 
ATOM     15  C   UNL d   1       3.004  -4.353   2.415  0.00  0.00     0.034 C 
ENDBRANCH  13  14
ENDBRANCH  11  13
ENDBRANCH   4  11
BRANCH   2  16
ATOM     16  S   UNL d   1       2.717   2.398  -0.059  0.00  0.00    -0.126 SA
ATOM     17  C   UNL d   1       2.882   2.713  -1.829  0.00  0.00     0.096 C 
ENDBRANCH   2  16
TORSDOF 4
