REMARK  6 active torsions:
REMARK  status: ('A' for Active; 'I' for Inactive)
REMARK    1  A    between atoms: O_4  and  C_1 
REMARK    2  A    between atoms: C_3  and  C_2 
REMARK       I    between atoms: N_5  and  C_3 
REMARK    3  A    between atoms: C_12  and  O_4 
REMARK    4  A    between atoms: C_11  and  N_5 
REMARK    5  A    between atoms: C_8  and  C_11 
REMARK    6  A    between atoms: O_13  and  C_8 
ROOT
ATOM      1  C   UNL d   1      -0.342   0.594   0.195  0.00  0.00     0.163 A 
ATOM      2  C   UNL d   1       1.009   0.951   0.170  0.00  0.00     0.083 A 
ATOM      3  N   UNL d   1      -0.780  -0.659  -0.131  0.00  0.00    -0.346 N 
ATOM      4  HN  UNL d   1      -1.777  -0.868  -0.183  1.00  0.00     0.167 HD
ATOM      5  C   UNL d   1       1.932  -0.081  -0.063  0.00  0.00     0.023 A 
ATOM      6  C   UNL d   1       0.136  -1.608  -0.379  0.00  0.00     0.090 A 
ATOM      7  C   UNL d   1       1.494  -1.374  -0.341  0.00  0.00     0.018 A 
ENDROOT
BRANCH   2   8
ATOM      8  C   UNL d   1       1.481   2.329   0.477  0.00  0.00     0.256 C 
ATOM      9  N   UNL d   1       2.724   2.780   0.058  0.00  0.00    -0.347 N 
ATOM     10  H   UNL d   1       2.842   3.737   0.385  0.00  0.00     0.163 HD
ATOM     11  O   UNL d   1       0.817   3.096   1.165  0.00  0.00    -0.268 OA
BRANCH   9  12
ATOM     12  C   UNL d   1       3.321   2.531  -1.265  0.00  0.00     0.232 C 
BRANCH  12  13
ATOM     13  C   UNL d   1       4.743   1.978  -1.170  0.00  0.00     0.158 C 
ATOM     14  O   UNL d   1       5.432   1.694  -2.133  0.00  0.00    -0.649 OA
BRANCH  13  15
ATOM     15  O   UNL d   1       5.165   1.819   0.108  0.00  0.00    -0.775 OA
ATOM     16  H   UNL d   1       4.463   2.108   0.732  0.00  0.00     0.167 HD
ENDBRANCH  13  15
ENDBRANCH  12  13
ENDBRANCH   9  12
ENDBRANCH   2   8
BRANCH   1  17
ATOM     17  O   UNL d   1      -1.312   1.518   0.564  0.00  0.00    -0.293 OA
BRANCH  17  18
ATOM     18  C   UNL d   1      -2.473   1.003   1.114  0.00  0.00     0.077 A 
ATOM     19  C   UNL d   1      -2.459   0.083   2.170  0.00  0.00     0.037 A 
ATOM     20  C   UNL d   1      -3.654  -0.461   2.644  0.00  0.00     0.003 A 
ATOM     21  C   UNL d   1      -4.869  -0.054   2.095  0.00  0.00     0.000 A 
ATOM     22  C   UNL d   1      -4.889   0.909   1.086  0.00  0.00     0.003 A 
ATOM     23  C   UNL d   1      -3.693   1.445   0.599  0.00  0.00     0.037 A 
ENDBRANCH  17  18
ENDBRANCH   1  17
TORSDOF 6
