REMARK  4 active torsions:
REMARK  status: ('A' for Active; 'I' for Inactive)
REMARK    1  A    between atoms: S_2  and  N_1 
REMARK    2  A    between atoms: C_11  and  S_2 
REMARK    3  A    between atoms: O_8  and  C_6 
REMARK    4  A    between atoms: C_13  and  O_8 
ROOT
ATOM      1  N   UNL d   1      -0.069  -1.222   0.065  0.00  0.00    -0.179 N 
ATOM      2  C   UNL d   1       1.233  -0.783  -0.143  0.00  0.00     0.078 C 
ATOM      3  N   UNL d   1      -0.966  -0.194   0.118  0.00  0.00    -0.286 N 
ATOM      4  HN  UNL d   1      -1.983  -0.252   0.168  1.00  0.00     0.188 HD
ATOM      5  C   UNL d   1       1.165   0.589   0.017  0.00  0.00     0.124 C 
ATOM      6  C   UNL d   1      -0.209   0.906   0.089  0.00  0.00     0.059 C 
ATOM      7  C   UNL d   1       2.373  -1.687  -0.459  0.00  0.00     0.074 C 
ATOM      8  C   UNL d   1      -0.830   2.253   0.113  0.00  0.00     0.072 C 
ENDROOT
BRANCH   1   9
ATOM      9  S   UNL d   1      -0.522  -2.905   0.056  0.00  0.00     0.282 S 
ATOM     10  O   UNL d   1      -0.844  -3.214  -1.324  0.00  0.00    -0.198 OA
ATOM     11  O   UNL d   1       0.541  -3.593   0.772  0.00  0.00    -0.198 OA
BRANCH   9  12
ATOM     12  C   UNL d   1      -1.995  -3.010   1.033  0.00  0.00     0.081 A 
ATOM     13  C   UNL d   1      -3.163  -2.368   0.611  0.00  0.00     0.025 A 
ATOM     14  C   UNL d   1      -4.316  -2.457   1.392  0.00  0.00     0.002 A 
ATOM     15  C   UNL d   1      -4.307  -3.203   2.572  0.00  0.00     0.000 A 
ATOM     16  C   UNL d   1      -3.148  -3.866   2.975  0.00  0.00     0.002 A 
ATOM     17  C   UNL d   1      -1.988  -3.773   2.205  0.00  0.00     0.025 A 
ENDBRANCH   9  12
ENDBRANCH   1   9
BRANCH   5  18
ATOM     18  O   UNL d   1       2.164   1.499  -0.021  0.00  0.00    -0.307 OA
BRANCH  18  19
ATOM     19  C   UNL d   1       3.427   1.230   0.448  0.00  0.00     0.076 A 
ATOM     20  C   UNL d   1       4.490   1.772  -0.275  0.00  0.00     0.039 A 
ATOM     21  C   UNL d   1       5.805   1.502   0.109  0.00  0.00     0.026 A 
ATOM     22  C   UNL d   1       6.049   0.699   1.222  0.00  0.00     0.034 A 
ATOM     23  C   UNL d   1       4.990   0.197   1.978  0.00  0.00     0.026 A 
ATOM     24 CL   UNL d   1       7.667   0.319   1.664  0.00  0.00    -0.084 Cl
ATOM     25  C   UNL d   1       3.674   0.483   1.603  0.00  0.00     0.039 A 
ENDBRANCH  18  19
ENDBRANCH   5  18
TORSDOF 4
