REMARK  4 active torsions:
REMARK  status: ('A' for Active; 'I' for Inactive)
REMARK    1  A    between atoms: N_2  and  S_1 
REMARK    2  A    between atoms: C_3  and  S_1 
REMARK    3  A    between atoms: C_4  and  C_6 
REMARK    4  A    between atoms: C_7  and  N_5 
ROOT
ATOM      1  N   UNL d   1       0.279   1.297  -0.622  0.00  0.00    -0.203 NA
ATOM      2  N   UNL d   1      -0.897   2.783   1.533  0.00  0.00    -0.365 N 
ATOM      3  C   UNL d   1       0.806   2.659  -0.259  0.00  0.00     0.127 C 
ATOM      4  C   UNL d   1      -1.184   1.208  -0.314  0.00  0.00     0.127 C 
ATOM      5  C   UNL d   1       0.518   3.009   1.220  0.00  0.00     0.140 C 
ATOM      6  C   UNL d   1      -1.468   1.486   1.171  0.00  0.00     0.140 C 
ENDROOT
BRANCH   1   7
ATOM      7  S   UNL d   1       1.219  -0.029  -0.109  0.00  0.00     0.243 S 
ATOM      8  O   UNL d   1       0.372  -1.202  -0.061  0.00  0.00    -0.206 OA
ATOM      9  O   UNL d   1       2.012   0.369   1.029  0.00  0.00    -0.206 OA
BRANCH   7  10
ATOM     10  C   UNL d   1       2.322  -0.263  -1.481  0.00  0.00     0.077 A 
ATOM     11  C   UNL d   1       1.777  -0.632  -2.716  0.00  0.00     0.064 A 
ATOM     12  C   UNL d   1       2.631  -0.952  -3.765  0.00  0.00     0.103 A 
ATOM     13  O   UNL d   1       2.039  -1.367  -4.930  0.00  0.00    -0.346 OA
ATOM     14  C   UNL d   1       4.019  -0.864  -3.601  0.00  0.00     0.102 A 
ATOM     15  C   UNL d   1       2.973  -2.084  -5.745  0.00  0.00     0.202 C 
ATOM     16  C   UNL d   1       4.272  -1.306  -5.869  0.00  0.00     0.202 C 
ATOM     17  O   UNL d   1       4.913  -1.164  -4.595  0.00  0.00    -0.346 OA
ATOM     18  C   UNL d   1       4.556  -0.487  -2.369  0.00  0.00     0.041 A 
ATOM     19  C   UNL d   1       3.707  -0.192  -1.299  0.00  0.00     0.028 A 
ENDBRANCH   7  10
ENDBRANCH   1   7
BRANCH   2  20
ATOM     20  C   UNL d   1      -1.551   3.673   2.344  0.00  0.00     0.102 A 
ATOM     21  N   UNL d   1      -1.317   4.990   2.149  0.00  0.00    -0.352 N 
ATOM     22  C   UNL d   1      -2.026   5.889   2.867  0.00  0.00     0.106 A 
ATOM     23  HN  UNL d   1      -0.618   5.299   1.473  1.00  0.00     0.166 HD
ATOM     24  C   UNL d   1      -2.963   5.547   3.826  0.00  0.00     0.063 A 
ATOM     25  C   UNL d   1      -3.174   4.189   4.052  0.00  0.00     0.021 A 
ATOM     26  C   UNL d   1      -2.471   3.254   3.300  0.00  0.00     0.049 A 
BRANCH  24  27
ATOM     27  C   UNL d   1      -3.715   6.591   4.585  0.00  0.00     0.418 C 
ATOM     28  F   UNL d   1      -3.399   7.865   4.224  0.00  0.00    -0.166 F 
ATOM     29  F   UNL d   1      -5.062   6.481   4.420  0.00  0.00    -0.166 F 
ATOM     30  F   UNL d   1      -3.497   6.516   5.926  0.00  0.00    -0.166 F 
ENDBRANCH  24  27
ENDBRANCH   2  20
TORSDOF 4
