REMARK  3 active torsions:
REMARK  status: ('A' for Active; 'I' for Inactive)
REMARK    1  A    between atoms: C_14  and  N_1 
REMARK    2  A    between atoms: C_15  and  C_6 
REMARK    3  A    between atoms: C_8  and  C_14 
ROOT
ATOM      1  C   UNL d   1       2.761  -4.152   0.955  0.00  0.00     0.176 A 
ATOM      2  C   UNL d   1       1.029  -3.263   0.076  0.00  0.00     0.160 A 
ATOM      3  N   UNL d   1       2.864  -4.315  -0.349  0.00  0.00    -0.277 N 
ATOM      4  HN  UNL d   1       3.628  -4.775  -0.844  1.00  0.00     0.189 HD
ATOM      5  O   UNL d   1       1.602  -3.497   1.300  0.00  0.00    -0.276 OA
ATOM      6  N   UNL d   1       1.744  -3.746  -0.918  0.00  0.00    -0.280 N 
ATOM      7  HN  UNL d   1       1.515  -3.708  -1.911  1.00  0.00     0.189 HD
ENDROOT
BRANCH   2   8
ATOM      8  C   UNL d   1      -0.277  -2.579   0.043  0.00  0.00     0.234 C 
BRANCH   8   9
ATOM      9  N   UNL d   1      -0.094  -1.135   0.010  0.00  0.00    -0.288 N 
ATOM     10  N   UNL d   1      -0.094  -0.465   1.188  0.00  0.00    -0.301 N 
ATOM     11  C   UNL d   1       0.036   0.822   0.843  0.00  0.00     0.041 A 
ATOM     12  HN  UNL d   1      -0.175  -0.855   2.127  1.00  0.00     0.187 HD
ATOM     13  C   UNL d   1       0.088   1.873   1.887  0.00  0.00     0.071 C 
ATOM     14  C   UNL d   1       0.099   0.962  -0.555  0.00  0.00     0.058 A 
ATOM     15  C   UNL d   1       0.009  -0.305  -1.084  0.00  0.00     0.044 A 
ATOM     16 BR   UNL d   1       0.264   2.582  -1.481  0.00  0.00    -0.047 Br
ATOM     17  C   UNL d   1       0.024  -0.749  -2.501  0.00  0.00     0.071 C 
ENDBRANCH   8   9
ENDBRANCH   2   8
BRANCH   1  18
ATOM     18  C   UNL d   1       3.656  -4.525   2.046  0.00  0.00     0.038 A 
ATOM     19  C   UNL d   1       4.556  -5.602   1.962  0.00  0.00     0.048 A 
ATOM     20 CL   UNL d   1       4.655  -6.646   0.584  0.00  0.00    -0.083 Cl
ATOM     21  C   UNL d   1       5.414  -5.903   3.030  0.00  0.00     0.025 A 
ATOM     22  C   UNL d   1       5.391  -5.137   4.195  0.00  0.00     0.002 A 
ATOM     23  C   UNL d   1       4.505  -4.071   4.298  0.00  0.00     0.001 A 
ATOM     24  C   UNL d   1       3.646  -3.769   3.237  0.00  0.00     0.017 A 
ENDBRANCH   1  18
TORSDOF 3
