REMARK  8 active torsions:
REMARK  status: ('A' for Active; 'I' for Inactive)
REMARK    1  A    between atoms: C_2  and  S_1 
REMARK    2  A    between atoms: C_16  and  S_1 
REMARK    3  A    between atoms: C_3  and  C_2 
REMARK    4  A    between atoms: N_14  and  C_3 
REMARK    5  A    between atoms: C_4  and  O_7 
REMARK    6  A    between atoms: C_8  and  C_4 
REMARK    7  A    between atoms: O_7  and  N_5 
REMARK    8  A    between atoms: C_20  and  C_16 
ROOT
ATOM      1  C   UNL d   1       1.038   2.458   1.172  0.00  0.00     0.089 C 
ATOM      2  N   UNL d   1       1.880   1.966   2.028  0.00  0.00    -0.250 N 
ATOM      3  HN  UNL d   1       2.354   2.521   2.740  1.00  0.00     0.196 HD
ENDROOT
BRANCH   2   4
ATOM      4  O   UNL d   1       2.066   0.575   1.864  0.00  0.00    -0.194 OA
BRANCH   4   5
ATOM      5  C   UNL d   1       2.901   0.116   2.846  0.00  0.00     0.315 C 
ATOM      6  O   UNL d   1       3.470   0.780   3.704  0.00  0.00    -0.257 OA
BRANCH   5   7
ATOM      7  C   UNL d   1       3.047  -1.367   2.786  0.00  0.00     0.041 A 
ATOM      8  C   UNL d   1       3.876  -1.979   3.743  0.00  0.00     0.019 A 
ATOM      9  C   UNL d   1       4.041  -3.367   3.765  0.00  0.00     0.025 A 
ATOM     10  C   UNL d   1       3.377  -4.153   2.828  0.00  0.00     0.034 A 
ATOM     11  C   UNL d   1       2.555  -3.562   1.868  0.00  0.00     0.025 A 
ATOM     12 CL   UNL d   1       3.567  -5.862   2.860  0.00  0.00    -0.084 Cl
ATOM     13  C   UNL d   1       2.388  -2.170   1.845  0.00  0.00     0.019 A 
ENDBRANCH   5   7
ENDBRANCH   4   5
ENDBRANCH   2   4
BRANCH   1  14
ATOM     14  C   UNL d   1       0.704   3.925   1.328  0.00  0.00     0.211 C 
BRANCH  14  15
ATOM     15  S   UNL d   1       1.087   4.833  -0.146  0.00  0.00     0.150 S 
ATOM     16  O   UNL d   1       0.316   4.249  -1.231  0.00  0.00    -0.228 OA
ATOM     17  O   UNL d   1       2.526   4.970  -0.252  0.00  0.00    -0.228 OA
BRANCH  15  18
ATOM     18  C   UNL d   1       0.402   6.447   0.209  0.00  0.00     0.140 C 
BRANCH  18  19
ATOM     19  C   UNL d   1       0.636   7.431  -0.931  0.00  0.00     0.010 C 
ATOM     20  C   UNL d   1       0.043   8.796  -0.614  0.00  0.00     0.006 C 
ENDBRANCH  18  19
ENDBRANCH  15  18
ENDBRANCH  14  15
ENDBRANCH   1  14
BRANCH   1  21
ATOM     21  N   UNL d   1       0.396   1.725   0.200  0.00  0.00    -0.290 NA
ATOM     22  H   UNL d   1       0.131   2.242  -0.644  0.00  0.00     0.125 HD
ATOM     23  H   UNL d   1       0.865   0.854  -0.021  0.00  0.00     0.125 HD
ENDBRANCH   1  21
TORSDOF 8
