REMARK  3 active torsions:
REMARK  status: ('A' for Active; 'I' for Inactive)
REMARK    1  A    between atoms: C_2  and  C_1 
REMARK       I    between atoms: N_5  and  C_2 
REMARK    2  A    between atoms: N_10  and  C_3 
REMARK    3  A    between atoms: C_11  and  N_5 
ROOT
ATOM      1  C   UNL d   1       0.906  -0.070   0.054  0.00  0.00     0.127 C 
ATOM      2  C   UNL d   1       0.142  -1.044  -0.480  0.00  0.00     0.113 C 
ATOM      3  C   UNL d   1       0.347   1.008   0.789  0.00  0.00     0.106 C 
ATOM      4  N   UNL d   1      -0.037   1.919   1.397  0.00  0.00    -0.191 NA
ENDROOT
BRANCH   1   5
ATOM      5  C   UNL d   1       2.401  -0.201  -0.073  0.00  0.00     0.268 C 
ATOM      6  N   UNL d   1       3.137   0.864   0.425  0.00  0.00    -0.322 N 
ATOM      7  H   UNL d   1       2.639   1.656   0.819  0.00  0.00     0.169 HD
ATOM      8  O   UNL d   1       2.885  -1.199  -0.599  0.00  0.00    -0.266 OA
BRANCH   6   9
ATOM      9  C   UNL d   1       4.548   0.987   0.453  0.00  0.00     0.037 A 
ATOM     10  C   UNL d   1       5.428   0.018  -0.018  0.00  0.00     0.046 A 
ATOM     11  C   UNL d   1       6.791   0.258   0.076  0.00  0.00     0.090 A 
ATOM     12  N   UNL d   1       7.326   1.381   0.599  0.00  0.00    -0.375 N 
ATOM     13  C   UNL d   1       6.455   2.307   1.047  0.00  0.00     0.090 A 
ATOM     14  HN  UNL d   1       8.335   1.521   0.651  1.00  0.00     0.164 HD
ATOM     15  C   UNL d   1       5.079   2.159   0.997  0.00  0.00     0.046 A 
ENDBRANCH   6   9
ENDBRANCH   1   5
BRANCH   2  16
ATOM     16  N   UNL d   1      -1.240  -1.221  -0.538  0.00  0.00    -0.397 N 
ATOM     17  C   UNL d   1      -2.198  -0.133  -0.751  0.00  0.00     0.148 C 
ATOM     18  C   UNL d   1      -1.823  -2.558  -0.679  0.00  0.00     0.148 C 
ENDBRANCH   2  16
TORSDOF 3
