REMARK  4 active torsions:
REMARK  status: ('A' for Active; 'I' for Inactive)
REMARK    1  A    between atoms: C_2  and  N_1 
REMARK    2  A    between atoms: O_9  and  C_7 
REMARK    3  A    between atoms: C_11  and  O_9 
REMARK    4  A    between atoms: C_12  and  C_11 
ROOT
ATOM      1  C   UNL d   1       0.403  -0.452   1.193  0.00  0.00     0.111 A 
ATOM      2  C   UNL d   1      -0.687  -1.334   1.142  0.00  0.00     0.073 A 
ATOM      3  C   UNL d   1       0.827   0.141   2.394  0.00  0.00    -0.029 A 
ATOM      4  C   UNL d   1      -1.364  -1.656   2.317  0.00  0.00     0.071 A 
ATOM      5  C   UNL d   1       0.109  -0.175   3.555  0.00  0.00     0.012 A 
ATOM      6  C   UNL d   1      -0.981  -1.051   3.516  0.00  0.00     0.037 A 
ATOM      7  C   UNL d   1       1.997   1.073   2.527  0.00  0.00     0.050 C 
ENDROOT
BRANCH   4   8
ATOM      8  O   UNL d   1      -2.373  -2.573   2.185  0.00  0.00    -0.347 OA
BRANCH   8   9
ATOM      9  C   UNL d   1      -2.788  -3.209   3.399  0.00  0.00     0.214 C 
BRANCH   9  10
ATOM     10  C   UNL d   1      -3.545  -4.496   3.157  0.00  0.00    -0.034 A 
ATOM     11  C   UNL d   1      -3.952  -4.912   1.884  0.00  0.00     0.009 A 
ATOM     12  C   UNL d   1      -4.611  -6.132   1.716  0.00  0.00     0.001 A 
ATOM     13  C   UNL d   1      -4.880  -6.943   2.818  0.00  0.00     0.000 A 
ATOM     14  C   UNL d   1      -4.502  -6.530   4.093  0.00  0.00     0.001 A 
ATOM     15  C   UNL d   1      -3.843  -5.312   4.261  0.00  0.00     0.009 A 
ENDBRANCH   9  10
ENDBRANCH   8   9
ENDBRANCH   4   8
BRANCH   1  16
ATOM     16  N   UNL d   1       1.087  -0.179  -0.059  0.00  0.00    -0.115 N 
ATOM     17  O   UNL d   1       0.424   0.345  -0.964  0.00  0.00    -0.532 OA
ATOM     18  O   UNL d   1       2.279  -0.516  -0.138  0.00  0.00    -0.532 OA
ENDBRANCH   1  16
TORSDOF 4
