REMARK  4 active torsions:
REMARK  status: ('A' for Active; 'I' for Inactive)
REMARK    1  A    between atoms: N_3  and  C_1 
REMARK    2  A    between atoms: C_7  and  C_2 
REMARK    3  A    between atoms: N_12  and  C_7 
REMARK    4  A    between atoms: O_13  and  N_10 
ROOT
ATOM      1  C   UNL d   1       5.470   0.890   0.018  0.00  0.00     0.144 A 
ATOM      2  C   UNL d   1       3.898  -0.851  -0.014  0.00  0.00     0.013 A 
ATOM      3  C   UNL d   1       4.130   0.573  -0.048  0.00  0.00     0.059 A 
ATOM      4  S   UNL d   1       6.465  -0.479   0.102  0.00  0.00    -0.077 SA
ATOM      5  C   UNL d   1       5.110  -1.522   0.061  0.00  0.00     0.067 A 
ENDROOT
BRANCH   2   6
ATOM      6  C   UNL d   1       2.614  -1.548  -0.059  0.00  0.00     0.108 C 
ATOM      7  N   UNL d   1       2.594  -2.840   0.017  0.00  0.00    -0.258 N 
ATOM      8  HN  UNL d   1       3.422  -3.431   0.086  1.00  0.00     0.195 HD
BRANCH   7   9
ATOM      9  O   UNL d   1       1.272  -3.316  -0.011  0.00  0.00    -0.289 OA
ATOM     10  H   UNL d   1       1.402  -4.283   0.014  0.00  0.00     0.244 HD
ENDBRANCH   7   9
BRANCH   6  11
ATOM     11  N   UNL d   1       1.519  -0.740  -0.180  0.00  0.00    -0.286 NA
ATOM     12  H   UNL d   1       1.520   0.092   0.396  0.00  0.00     0.125 HD
ATOM     13  H   UNL d   1       0.678  -1.291  -0.038  0.00  0.00     0.125 HD
ENDBRANCH   6  11
ENDBRANCH   2   6
BRANCH   1  14
ATOM     14  N   UNL d   1       6.037   2.214   0.024  0.00  0.00    -0.108 N 
ATOM     15  O   UNL d   1       5.229   3.154   0.031  0.00  0.00    -0.531 OA
ATOM     16  O   UNL d   1       7.269   2.329   0.025  0.00  0.00    -0.531 OA
ENDBRANCH   1  14
TORSDOF 4
