REMARK  4 active torsions:
REMARK  status: ('A' for Active; 'I' for Inactive)
REMARK    1  A    between atoms: C_2  and  S_1 
REMARK    2  A    between atoms: N_3  and  S_1 
REMARK    3  A    between atoms: C_11  and  N_3 
REMARK    4  A    between atoms: C_12  and  N_3 
ROOT
ATOM      1  S   UNL d   1       1.093   0.126  -0.035  0.00  0.00     0.260 S 
ATOM      2  O   UNL d   1       0.686  -1.254   0.121  0.00  0.00    -0.200 OA
ATOM      3  O   UNL d   1       2.494   0.485  -0.128  0.00  0.00    -0.200 OA
ENDROOT
BRANCH   1   4
ATOM      4  C   UNL d   1       0.419   1.013   1.355  0.00  0.00     0.079 A 
ATOM      5  C   UNL d   1      -0.222   0.293   2.371  0.00  0.00     0.026 A 
ATOM      6  C   UNL d   1      -0.685   0.957   3.509  0.00  0.00     0.008 A 
ATOM      7  C   UNL d   1      -0.522   2.341   3.637  0.00  0.00    -0.062 A 
ATOM      8  C   UNL d   1       0.139   3.048   2.625  0.00  0.00     0.008 A 
ATOM      9  C   UNL d   1      -1.015   3.039   4.870  0.00  0.00     0.048 C 
ATOM     10  C   UNL d   1       0.622   2.385   1.493  0.00  0.00     0.026 A 
ENDBRANCH   1   4
BRANCH   1  11
ATOM     11  N   UNL d   1       0.275   0.779  -1.407  0.00  0.00    -0.307 N 
BRANCH  11  12
ATOM     12  C   UNL d   1       0.991   1.903  -2.083  0.00  0.00     0.131 C 
ATOM     13  C   UNL d   1       0.159   2.612  -3.141  0.00  0.00     0.027 C 
ENDBRANCH  11  12
BRANCH  11  14
ATOM     14  C   UNL d   1      -0.341  -0.237  -2.308  0.00  0.00     0.131 C 
ATOM     15  C   UNL d   1       0.688  -1.081  -3.046  0.00  0.00     0.027 C 
ENDBRANCH  11  14
ENDBRANCH   1  11
TORSDOF 4
