REMARK  4 active torsions:
REMARK  status: ('A' for Active; 'I' for Inactive)
REMARK    1  A    between atoms: N_2  and  S_1 
REMARK    2  A    between atoms: C_5  and  S_1 
REMARK    3  A    between atoms: C_9  and  N_2 
REMARK    4  A    between atoms: C_8  and  C_9 
ROOT
ATOM      1  N   UNL d   1       0.491  -0.618  -1.418  0.00  0.00    -0.211 NA
ATOM      2  H   UNL d   1      -0.499  -0.859  -1.405  0.00  0.00     0.140 HD
ENDROOT
BRANCH   1   3
ATOM      3  S   UNL d   1       0.959   0.117   0.026  0.00  0.00     0.241 S 
ATOM      4  O   UNL d   1       2.101   0.970  -0.238  0.00  0.00    -0.206 OA
ATOM      5  O   UNL d   1       1.006  -0.918   1.035  0.00  0.00    -0.206 OA
BRANCH   3   6
ATOM      6  C   UNL d   1      -0.431   1.156   0.403  0.00  0.00     0.074 A 
ATOM      7  C   UNL d   1      -1.472   0.646   1.186  0.00  0.00     0.025 A 
ATOM      8  C   UNL d   1      -2.509   1.490   1.588  0.00  0.00     0.002 A 
ATOM      9  C   UNL d   1      -2.501   2.834   1.215  0.00  0.00     0.000 A 
ATOM     10  C   UNL d   1      -1.463   3.338   0.427  0.00  0.00     0.002 A 
ATOM     11  C   UNL d   1      -0.424   2.500   0.018  0.00  0.00     0.025 A 
ENDBRANCH   3   6
ENDBRANCH   1   3
BRANCH   1  12
ATOM     12  C   UNL d   1       0.890   0.074  -2.658  0.00  0.00     0.144 C 
BRANCH  12  13
ATOM     13  C   UNL d   1       0.464  -0.674  -3.894  0.00  0.00    -0.029 A 
ATOM     14  C   UNL d   1       0.162   0.015  -5.065  0.00  0.00     0.096 A 
ATOM     15  N   UNL d   1      -0.170  -0.579  -6.234  0.00  0.00    -0.375 N 
ATOM     16  C   UNL d   1      -0.189  -1.929  -6.247  0.00  0.00     0.087 A 
ATOM     17  HN  UNL d   1      -0.396  -0.033  -7.066  1.00  0.00     0.164 HD
ATOM     18  C   UNL d   1       0.103  -2.711  -5.144  0.00  0.00     0.018 A 
ATOM     19  C   UNL d   1       0.440  -2.072  -3.954  0.00  0.00     0.011 A 
ENDBRANCH  12  13
ENDBRANCH   1  12
TORSDOF 4
