REMARK  4 active torsions:
REMARK  status: ('A' for Active; 'I' for Inactive)
REMARK    1  A    between atoms: C_2  and  C_1 
REMARK    2  A    between atoms: O_8  and  C_2 
REMARK    3  A    between atoms: C_7  and  C_3 
REMARK    4  A    between atoms: C_14  and  O_8 
ROOT
ATOM      1  C   UNL d   1       0.961   0.004   0.134  0.00  0.00     0.120 C 
ATOM      2  C   UNL d   1       0.286  -0.349  -0.977  0.00  0.00     0.040 C 
ATOM      3  C   UNL d   1       0.319   0.390   1.342  0.00  0.00     0.105 C 
ATOM      4  N   UNL d   1      -0.214   0.696   2.330  0.00  0.00    -0.191 NA
ENDROOT
BRANCH   1   5
ATOM      5  C   UNL d   1       2.443  -0.111   0.079  0.00  0.00     0.303 C 
ATOM      6  O   UNL d   1       3.064  -0.513  -0.895  0.00  0.00    -0.258 OA
BRANCH   5   7
ATOM      7  O   UNL d   1       2.987   0.199   1.282  0.00  0.00    -0.317 OA
BRANCH   7   8
ATOM      8  C   UNL d   1       4.333  -0.258   1.497  0.00  0.00     0.174 C 
ATOM      9  C   UNL d   1       4.264  -1.672   2.046  0.00  0.00     0.034 C 
ENDBRANCH   7   8
ENDBRANCH   5   7
ENDBRANCH   1   5
BRANCH   2  10
ATOM     10  C   UNL d   1      -1.174  -0.397  -1.085  0.00  0.00    -0.035 A 
ATOM     11  C   UNL d   1      -1.885   0.718  -1.534  0.00  0.00     0.012 A 
ATOM     12  C   UNL d   1      -3.276   0.661  -1.649  0.00  0.00     0.007 A 
ATOM     13  C   UNL d   1      -3.973  -0.506  -1.315  0.00  0.00    -0.062 A 
ATOM     14  C   UNL d   1      -3.257  -1.617  -0.856  0.00  0.00     0.007 A 
ATOM     15  C   UNL d   1      -5.465  -0.559  -1.472  0.00  0.00     0.048 C 
ATOM     16  C   UNL d   1      -1.865  -1.563  -0.740  0.00  0.00     0.012 A 
ENDBRANCH   2  10
TORSDOF 4
