REMARK  2 active torsions:
REMARK  status: ('A' for Active; 'I' for Inactive)
REMARK    1  A    between atoms: C_4  and  C_1 
REMARK    2  A    between atoms: C_13  and  C_7 
ROOT
ATOM      1  N   UNL d   1       1.932  -3.443  -0.963  0.00  0.00    -0.345 N 
ATOM      2  HN  UNL d   1       1.195  -3.501  -1.666  1.00  0.00     0.167 HD
ATOM      3  C   UNL d   1       2.054  -2.476  -0.073  0.00  0.00     0.102 A 
ATOM      4  C   UNL d   1       2.955  -4.376  -0.803  0.00  0.00     0.085 A 
ATOM      5  S   UNL d   1       3.365  -2.649   1.024  0.00  0.00    -0.080 SA
ATOM      6  C   UNL d   1       3.786  -4.129   0.277  0.00  0.00     0.085 A 
ENDROOT
BRANCH   3   7
ATOM      7  C   UNL d   1       1.128  -1.289  -0.044  0.00  0.00     0.073 A 
ATOM      8  N   UNL d   1       1.323  -0.214   0.811  0.00  0.00    -0.352 N 
ATOM      9  C   UNL d   1       0.418   0.712   0.579  0.00  0.00     0.047 A 
ATOM     10  HN  UNL d   1       2.058  -0.152   1.516  1.00  0.00     0.166 HD
ATOM     11  C   UNL d   1       0.384   2.040   1.248  0.00  0.00     0.076 C 
ATOM     12  S   UNL d   1      -0.760   0.315  -0.609  0.00  0.00    -0.087 SA
ATOM     13  C   UNL d   1       0.039  -1.176  -0.885  0.00  0.00     0.083 A 
ENDBRANCH   3   7
BRANCH   4  14
ATOM     14  C   UNL d   1       3.142  -5.505  -1.719  0.00  0.00     0.172 C 
ATOM     15  O   UNL d   1       4.057  -6.311  -1.565  0.00  0.00    -0.291 OA
ATOM     16  C   UNL d   1       2.208  -5.643  -2.897  0.00  0.00     0.098 C 
ENDBRANCH   4  14
TORSDOF 2
