REMARK  3 active torsions:
REMARK  status: ('A' for Active; 'I' for Inactive)
REMARK    1  A    between atoms: C_8  and  N_3 
REMARK    2  A    between atoms: C_7  and  C_8 
REMARK    3  A    between atoms: N_17  and  C_9 
ROOT
ATOM      1  S   UNL d   1      -1.022  -1.424   0.089  0.00  0.00     0.270 S 
ATOM      2  C   UNL d   1      -2.253  -0.281   0.476  0.00  0.00     0.145 C 
ATOM      3  N   UNL d   1      -1.540  -1.878  -1.463  0.00  0.00    -0.266 N 
ATOM      4  C   UNL d   1      -1.841  -0.798  -2.384  0.00  0.00     0.061 A 
ATOM      5  C   UNL d   1      -2.289   0.836  -0.470  0.00  0.00     0.209 C 
ATOM      6  C   UNL d   1      -2.208   0.488  -1.917  0.00  0.00     0.043 A 
ATOM      7  C   UNL d   1      -3.216  -0.591   1.359  0.00  0.00     0.114 C 
ATOM      8  O   UNL d   1       0.248  -0.740  -0.087  0.00  0.00    -0.200 OA
ATOM      9  O   UNL d   1      -1.089  -2.588   0.950  0.00  0.00    -0.200 OA
ATOM     10  C   UNL d   1      -1.861  -1.027  -3.767  0.00  0.00     0.055 A 
ATOM     11  C   UNL d   1      -2.567   1.502  -2.821  0.00  0.00     0.019 A 
ATOM     12  O   UNL d   1      -2.406   2.002  -0.108  0.00  0.00    -0.286 OA
ATOM     13  C   UNL d   1      -2.219  -0.007  -4.655  0.00  0.00     0.036 A 
ATOM     14  C   UNL d   1      -2.575   1.253  -4.189  0.00  0.00     0.025 A 
ATOM     15 CL   UNL d   1      -2.228  -0.319  -6.347  0.00  0.00    -0.084 Cl
ENDROOT
BRANCH   3  16
ATOM     16  C   UNL d   1      -1.343  -3.284  -1.865  0.00  0.00     0.185 C 
BRANCH  16  17
ATOM     17  C   UNL d   1      -2.621  -4.038  -2.185  0.00  0.00     0.021 A 
ATOM     18  C   UNL d   1      -3.800  -3.792  -1.466  0.00  0.00     0.126 A 
ATOM     19  F   UNL d   1      -3.836  -2.844  -0.521  0.00  0.00    -0.205 F 
ATOM     20  C   UNL d   1      -4.974  -4.513  -1.684  0.00  0.00     0.043 A 
ATOM     21  C   UNL d   1      -4.994  -5.530  -2.630  0.00  0.00     0.005 A 
ATOM     22  C   UNL d   1      -3.835  -5.813  -3.349  0.00  0.00     0.024 A 
ATOM     23  C   UNL d   1      -2.659  -5.080  -3.125  0.00  0.00     0.045 A 
ATOM     24 CL   UNL d   1      -1.268  -5.536  -4.045  0.00  0.00    -0.084 Cl
ENDBRANCH  16  17
ENDBRANCH   3  16
BRANCH   7  25
ATOM     25  N   UNL d   1      -4.460  -0.030   1.659  0.00  0.00    -0.397 N 
ATOM     26  C   UNL d   1      -5.016   1.155   1.006  0.00  0.00     0.148 C 
ATOM     27  C   UNL d   1      -5.232  -0.476   2.822  0.00  0.00     0.148 C 
ENDBRANCH   7  25
TORSDOF 3
