REMARK  5 active torsions:
REMARK  status: ('A' for Active; 'I' for Inactive)
REMARK    1  A    between atoms: C_2  and  S_1 
REMARK    2  A    between atoms: C_4  and  S_1 
REMARK    3  A    between atoms: C_3  and  C_2 
REMARK    4  A    between atoms: N_11  and  C_3 
REMARK    5  A    between atoms: O_13  and  N_7 
ROOT
ATOM      1  S   UNL d   1       1.365  -4.355  -3.273  0.00  0.00     0.182 S 
ATOM      2  O   UNL d   1       2.809  -4.273  -3.146  0.00  0.00    -0.222 OA
ATOM      3  O   UNL d   1       0.695  -3.598  -4.317  0.00  0.00    -0.222 OA
ENDROOT
BRANCH   1   4
ATOM      4  C   UNL d   1       0.638  -3.883  -1.737  0.00  0.00     0.223 C 
BRANCH   4   5
ATOM      5  C   UNL d   1       1.105  -4.752  -0.606  0.00  0.00     0.109 C 
ATOM      6  N   UNL d   1       0.404  -5.815  -0.337  0.00  0.00    -0.257 N 
ATOM      7  HN  UNL d   1      -0.418  -6.116  -0.861  1.00  0.00     0.195 HD
BRANCH   6   8
ATOM      8  O   UNL d   1       0.936  -6.489   0.774  0.00  0.00    -0.288 OA
ATOM      9  H   UNL d   1       0.358  -7.273   0.840  0.00  0.00     0.244 HD
ENDBRANCH   6   8
BRANCH   5  10
ATOM     10  N   UNL d   1       2.205  -4.378   0.119  0.00  0.00    -0.387 N 
ATOM     11  H   UNL d   1       2.500  -3.409   0.142  0.00  0.00     0.157 HD
ATOM     12  H   UNL d   1       2.304  -4.886   0.994  0.00  0.00     0.157 HD
ENDBRANCH   5  10
ENDBRANCH   4   5
ENDBRANCH   1   4
BRANCH   1  13
ATOM     13  C   UNL d   1       0.933  -6.056  -3.559  0.00  0.00     0.059 A 
ATOM     14  C   UNL d   1      -0.413  -6.398  -3.733  0.00  0.00     0.025 A 
ATOM     15  C   UNL d   1      -0.754  -7.720  -4.030  0.00  0.00     0.025 A 
ATOM     16  C   UNL d   1       0.248  -8.681  -4.166  0.00  0.00     0.034 A 
ATOM     17  C   UNL d   1       1.590  -8.337  -4.001  0.00  0.00     0.025 A 
ATOM     18 CL   UNL d   1      -0.175 -10.303  -4.557  0.00  0.00    -0.084 Cl
ATOM     19  C   UNL d   1       1.938  -7.018  -3.696  0.00  0.00     0.025 A 
ENDBRANCH   1  13
TORSDOF 5
