REMARK  7 active torsions:
REMARK  status: ('A' for Active; 'I' for Inactive)
REMARK    1  A    between atoms: C_2  and  C_1 
REMARK    2  A    between atoms: C_5  and  C_1 
REMARK    3  A    between atoms: C_6  and  C_1 
REMARK    4  A    between atoms: O_18  and  C_1 
REMARK       I    between atoms: C_3  and  N_4 
REMARK    5  A    between atoms: C_7  and  C_3 
REMARK    6  A    between atoms: N_4  and  C_8 
REMARK    7  A    between atoms: O_21  and  C_5 
ROOT
ATOM      1  C   UNL d   1       0.519   0.618  -1.135  0.00  0.00    -0.005 A 
ATOM      2  C   UNL d   1      -0.221   2.019  -3.548  0.00  0.00     0.037 A 
ATOM      3  C   UNL d   1      -0.194  -0.017  -2.160  0.00  0.00     0.013 A 
ATOM      4  C   UNL d   1       0.844   1.964  -1.336  0.00  0.00     0.013 A 
ATOM      5  C   UNL d   1      -0.563   0.673  -3.330  0.00  0.00     0.030 A 
ATOM      6  C   UNL d   1       0.485   2.642  -2.513  0.00  0.00     0.030 A 
ENDROOT
BRANCH   1   7
ATOM      7  C   UNL d   1       0.918  -0.123   0.149  0.00  0.00     0.271 C 
BRANCH   7   8
ATOM      8  C   UNL d   1       1.800  -1.375  -0.093  0.00  0.00     0.432 C 
ATOM      9  F   UNL d   1       1.209  -2.533   0.288  0.00  0.00    -0.167 F 
ATOM     10  F   UNL d   1       2.177  -1.538  -1.381  0.00  0.00    -0.167 F 
ATOM     11  F   UNL d   1       2.948  -1.290   0.635  0.00  0.00    -0.167 F 
ENDBRANCH   7   8
BRANCH   7  12
ATOM     12  C   UNL d   1      -0.316  -0.643   0.909  0.00  0.00     0.307 C 
ATOM     13  O   UNL d   1      -1.356  -1.042   0.403  0.00  0.00    -0.261 OA
BRANCH  12  14
ATOM     14  O   UNL d   1      -0.083  -0.639   2.260  0.00  0.00    -0.324 OA
ATOM     15  C   UNL d   1      -1.210  -1.050   3.037  0.00  0.00     0.213 C 
ENDBRANCH  12  14
ENDBRANCH   7  12
BRANCH   7  16
ATOM     16  O   UNL d   1       1.605   0.831   1.014  0.00  0.00    -0.368 OA
ATOM     17  H   UNL d   1       1.870   0.339   1.815  0.00  0.00     0.212 HD
ENDBRANCH   7  16
ENDBRANCH   1   7
BRANCH   2  18
ATOM     18  N   UNL d   1      -0.561   2.692  -4.797  0.00  0.00    -0.318 N 
ATOM     19  C   UNL d   1      -0.441   4.094  -4.952  0.00  0.00     0.258 C 
ATOM     20  O   UNL d   1      -0.066   4.885  -4.087  0.00  0.00    -0.267 OA
ATOM     21  C   UNL d   1      -0.998   1.823  -5.896  0.00  0.00     0.159 C 
BRANCH  19  22
ATOM     22  C   UNL d   1      -0.757   4.757  -6.254  0.00  0.00     0.032 A 
ATOM     23  C   UNL d   1      -1.941   4.535  -6.961  0.00  0.00     0.017 A 
ATOM     24  C   UNL d   1      -2.167   5.195  -8.175  0.00  0.00     0.007 A 
ATOM     25  C   UNL d   1      -1.247   6.136  -8.660  0.00  0.00    -0.062 A 
ATOM     26  C   UNL d   1      -0.095   6.405  -7.917  0.00  0.00     0.007 A 
ATOM     27  C   UNL d   1      -1.490   6.821  -9.973  0.00  0.00     0.048 C 
ATOM     28  C   UNL d   1       0.149   5.721  -6.723  0.00  0.00     0.017 A 
ENDBRANCH  19  22
ENDBRANCH   2  18
TORSDOF 7
