REMARK  5 active torsions:
REMARK  status: ('A' for Active; 'I' for Inactive)
REMARK    1  A    between atoms: C_8  and  N_1 
REMARK    2  A    between atoms: C_2  and  C_3 
REMARK       I    between atoms: N_7  and  C_2 
REMARK    3  A    between atoms: C_4  and  C_10 
REMARK       I    between atoms: N_5  and  C_4 
REMARK    4  A    between atoms: C_6  and  N_5 
REMARK    5  A    between atoms: C_19  and  N_7 
ROOT
ATOM      1  C   UNL d   1      -3.117  -3.887   1.731  0.00  0.00     0.058 A 
ATOM      2  C   UNL d   1      -3.800  -3.386   2.866  0.00  0.00     0.050 A 
ATOM      3  C   UNL d   1      -3.847  -4.080   0.539  0.00  0.00     0.019 A 
ATOM      4  C   UNL d   1      -5.183  -3.133   2.784  0.00  0.00     0.030 A 
ATOM      5  C   UNL d   1      -5.210  -3.774   0.464  0.00  0.00     0.001 A 
ATOM      6  C   UNL d   1      -5.877  -3.304   1.588  0.00  0.00     0.002 A 
ENDROOT
BRANCH   2   7
ATOM      7  N   UNL d   1      -3.221  -3.128   4.136  0.00  0.00    -0.322 N 
ATOM      8  C   UNL d   1      -2.298  -2.103   4.283  0.00  0.00     0.256 C 
ATOM      9  O   UNL d   1      -1.895  -1.424   3.339  0.00  0.00    -0.267 OA
ATOM     10  H   UNL d   1      -3.855  -3.214   4.919  0.00  0.00     0.169 HD
BRANCH   8  11
ATOM     11  C   UNL d   1      -1.759  -1.832   5.646  0.00  0.00     0.032 A 
ATOM     12  C   UNL d   1      -2.093  -2.590   6.776  0.00  0.00     0.019 A 
ATOM     13  C   UNL d   1      -1.522  -2.285   8.018  0.00  0.00     0.037 A 
ATOM     14  C   UNL d   1      -0.600  -1.234   8.125  0.00  0.00     0.102 A 
ATOM     15  C   UNL d   1      -0.238  -0.490   6.999  0.00  0.00     0.037 A 
ATOM     16  C   UNL d   1      -0.824  -0.788   5.769  0.00  0.00     0.019 A 
BRANCH  14  17
ATOM     17  N   UNL d   1      -0.008  -0.908   9.428  0.00  0.00    -0.116 N 
ATOM     18  O   UNL d   1       0.801   0.028   9.478  0.00  0.00    -0.532 OA
ATOM     19  O   UNL d   1      -0.367  -1.580  10.407  0.00  0.00    -0.532 OA
ENDBRANCH  14  17
ENDBRANCH   8  11
ENDBRANCH   2   7
BRANCH   1  20
ATOM     20  C   UNL d   1      -1.686  -4.364   1.685  0.00  0.00     0.254 C 
ATOM     21  N   UNL d   1      -0.762  -3.621   2.377  0.00  0.00    -0.351 N 
ATOM     22  H   UNL d   1      -1.077  -2.668   2.549  0.00  0.00     0.163 HD
ATOM     23  O   UNL d   1      -1.381  -5.328   0.996  0.00  0.00    -0.268 OA
BRANCH  21  24
ATOM     24  C   UNL d   1       0.687  -3.776   2.261  0.00  0.00     0.094 C 
ATOM     25  C   UNL d   1       1.226  -5.083   2.848  0.00  0.00     0.036 C 
ATOM     26  C   UNL d   1       1.243  -4.949   4.361  0.00  0.00     0.076 C 
ATOM     27  S   UNL d   1       1.796  -3.256   4.678  0.00  0.00    -0.167 SA
ATOM     28  C   UNL d   1       1.424  -2.647   3.003  0.00  0.00     0.099 C 
ENDBRANCH  21  24
ENDBRANCH   1  20
TORSDOF 5
