REMARK  3 active torsions:
REMARK  status: ('A' for Active; 'I' for Inactive)
REMARK    1  A    between atoms: C_7  and  C_3 
REMARK    2  A    between atoms: N_17  and  C_4 
REMARK    3  A    between atoms: C_10  and  C_6 
ROOT
ATOM      1  C   UNL d   1      -0.444   1.367  -0.080  0.00  0.00     0.068 A 
ATOM      2  C   UNL d   1      -0.856  -1.125  -0.081  0.00  0.00     0.083 A 
ATOM      3  C   UNL d   1       0.880   1.106  -0.009  0.00  0.00     0.077 A 
ATOM      4  C   UNL d   1       0.479  -1.289  -0.008  0.00  0.00     0.138 A 
ATOM      5  O   UNL d   1       1.342  -0.205   0.083  0.00  0.00    -0.300 OA
ATOM      6  C   UNL d   1      -1.483   0.260  -0.057  0.00  0.00     0.137 A 
ATOM      7  C   UNL d   1      -0.899   2.715  -0.210  0.00  0.00     0.099 C 
ATOM      8  C   UNL d   1      -1.725  -2.254  -0.183  0.00  0.00     0.100 C 
ATOM      9  N   UNL d   1      -1.266   3.811  -0.320  0.00  0.00    -0.192 NA
ATOM     10  N   UNL d   1      -2.422  -3.174  -0.284  0.00  0.00    -0.191 NA
ENDROOT
BRANCH   3  11
ATOM     11  C   UNL d   1       1.923   2.158  -0.065  0.00  0.00     0.044 A 
ATOM     12  C   UNL d   1       3.222   2.020   0.684  0.00  0.00     0.012 A 
ATOM     13  C   UNL d   1       2.181   2.982   1.175  0.00  0.00     0.012 A 
ENDBRANCH   3  11
BRANCH   6  14
ATOM     14  C   UNL d   1      -2.541   0.439  -1.114  0.00  0.00     0.067 A 
ATOM     15  O   UNL d   1      -2.137   0.315  -2.411  0.00  0.00    -0.326 OA
ATOM     16  C   UNL d   1      -3.233   0.516  -3.185  0.00  0.00     0.142 A 
ATOM     17  C   UNL d   1      -4.336   0.770  -2.403  0.00  0.00     0.027 A 
ATOM     18  C   UNL d   1      -3.890   0.721  -1.061  0.00  0.00     0.036 A 
ENDBRANCH   6  14
BRANCH   4  19
ATOM     19  N   UNL d   1       1.139  -2.496  -0.016  0.00  0.00    -0.282 NA
ATOM     20  H   UNL d   1       0.644  -3.263  -0.469  0.00  0.00     0.126 HD
ATOM     21  H   UNL d   1       2.099  -2.403  -0.341  0.00  0.00     0.126 HD
ENDBRANCH   4  19
TORSDOF 3
