REMARK  5 active torsions:
REMARK  status: ('A' for Active; 'I' for Inactive)
REMARK    1  A    between atoms: C_13  and  N_1 
REMARK    2  A    between atoms: C_8  and  C_2 
REMARK    3  A    between atoms: C_12  and  C_8 
REMARK    4  A    between atoms: O_19  and  C_10 
REMARK    5  A    between atoms: C_14  and  C_13 
ROOT
ATOM      1  N   UNL d   1       0.420  -0.302  -0.904  0.00  0.00    -0.307 N 
ATOM      2  C   UNL d   1       0.882   0.558   0.035  0.00  0.00     0.104 A 
ATOM      3  C   UNL d   1      -0.735  -0.824  -0.371  0.00  0.00     0.194 A 
ATOM      4  N   UNL d   1       0.143   0.635   1.108  0.00  0.00    -0.286 N 
ATOM      5  HN  UNL d   1       0.301   1.209   1.936  1.00  0.00     0.188 HD
ATOM      6  N   UNL d   1      -0.885  -0.226   0.871  0.00  0.00    -0.275 N 
ATOM      7  S   UNL d   1      -1.794  -1.941  -0.983  0.00  0.00    -0.039 SA
ATOM      8  H   UNL d   1      -1.637  -0.371   1.534  0.00  0.00     0.189 HD
ENDROOT
BRANCH   2   9
ATOM      9  C   UNL d   1       2.125   1.391  -0.136  0.00  0.00     0.116 C 
BRANCH   9  10
ATOM     10  C   UNL d   1       3.461   0.700   0.037  0.00  0.00    -0.049 A 
ATOM     11  C   UNL d   1       4.619   1.496  -0.039  0.00  0.00     0.034 A 
ATOM     12  C   UNL d   1       5.891   0.929   0.079  0.00  0.00     0.067 A 
ATOM     13 CL   UNL d   1       7.269   1.966  -0.007  0.00  0.00    -0.081 Cl
ATOM     14  C   UNL d   1       6.023  -0.446   0.265  0.00  0.00     0.087 A 
ATOM     15  C   UNL d   1       4.888  -1.252   0.339  0.00  0.00     0.039 A 
ATOM     16  C   UNL d   1       3.615  -0.678   0.240  0.00  0.00     0.010 A 
BRANCH  14  17
ATOM     17  O   UNL d   1       7.264  -1.008   0.379  0.00  0.00    -0.359 OA
ATOM     18  H   UNL d   1       7.174  -1.943   0.624  0.00  0.00     0.217 HD
ENDBRANCH  14  17
ENDBRANCH   9  10
ENDBRANCH   2   9
BRANCH   1  19
ATOM     19  C   UNL d   1       1.041  -0.675  -2.168  0.00  0.00     0.159 C 
BRANCH  19  20
ATOM     20  C   UNL d   1       0.550   0.128  -3.340  0.00  0.00    -0.017 C 
ATOM     21  C   UNL d   1      -0.344   1.127  -3.359  0.00  0.00     0.008 C 
ENDBRANCH  19  20
ENDBRANCH   1  19
TORSDOF 5
