REMARK  4 active torsions:
REMARK  status: ('A' for Active; 'I' for Inactive)
REMARK    1  A    between atoms: N_2  and  C_1 
REMARK    2  A    between atoms: O_8  and  C_5 
REMARK    3  A    between atoms: C_6  and  O_8 
REMARK    4  A    between atoms: C_7  and  C_6 
ROOT
ATOM      1  C   UNL d   1      -0.988   1.214   0.011  0.00  0.00     0.208 A 
ATOM      2  N   UNL d   1       0.385   1.219   0.069  0.00  0.00    -0.339 N 
ATOM      3  HN  UNL d   1       0.892   2.086   0.249  1.00  0.00     0.167 HD
ATOM      4  C   UNL d   1      -1.711   0.032  -0.216  0.00  0.00     0.129 A 
ATOM      5  C   UNL d   1      -0.994  -1.147  -0.431  0.00  0.00     0.043 A 
ATOM      6  C   UNL d   1       1.052   0.060  -0.115  0.00  0.00     0.007 A 
ATOM      7  C   UNL d   1       0.399  -1.132  -0.383  0.00  0.00     0.027 A 
ATOM      8  C   UNL d   1       2.545   0.091   0.032  0.00  0.00     0.068 C 
ENDROOT
BRANCH   4   9
ATOM      9  O   UNL d   1      -3.131   0.031  -0.137  0.00  0.00    -0.270 OA
BRANCH   9  10
ATOM     10  C   UNL d   1      -4.029  -1.014  -0.418  0.00  0.00     0.305 C 
ATOM     11  O   UNL d   1      -3.700  -2.098  -0.881  0.00  0.00    -0.258 OA
BRANCH  10  12
ATOM     12  C   UNL d   1      -5.375  -0.616  -0.041  0.00  0.00     0.080 A 
ATOM     13  S   UNL d   1      -6.637  -1.777  -0.112  0.00  0.00    -0.096 SA
ATOM     14  C   UNL d   1      -7.797  -0.663   0.464  0.00  0.00     0.050 A 
ATOM     15  C   UNL d   1      -7.248   0.577   0.695  0.00  0.00     0.009 A 
ATOM     16  C   UNL d   1      -5.853   0.606   0.402  0.00  0.00     0.025 A 
ENDBRANCH  10  12
ENDBRANCH   9  10
ENDBRANCH   4   9
BRANCH   1  17
ATOM     17  N   UNL d   1      -1.718   2.501   0.202  0.00  0.00    -0.095 N 
ATOM     18  O   UNL d   1      -2.929   2.559  -0.058  0.00  0.00    -0.530 OA
ATOM     19  O   UNL d   1      -1.055   3.469   0.603  0.00  0.00    -0.530 OA
ENDBRANCH   1  17
TORSDOF 4
