REMARK  5 active torsions:
REMARK  status: ('A' for Active; 'I' for Inactive)
REMARK    1  A    between atoms: S_2  and  C_1 
REMARK    2  A    between atoms: C_4  and  C_3 
REMARK    3  A    between atoms: C_16  and  C_8 
REMARK    4  A    between atoms: C_13  and  O_15 
REMARK    5  A    between atoms: O_15  and  C_16 
ROOT
ATOM      1  C   UNL d   1       0.836   1.855  -0.025  0.00  0.00     0.141 C 
ATOM      2  C   UNL d   1       0.238   0.825   0.603  0.00  0.00     0.072 C 
ATOM      3  C   UNL d   1       0.162   2.957  -0.612  0.00  0.00     0.111 C 
ATOM      4  N   UNL d   1      -0.405   3.859  -1.071  0.00  0.00    -0.191 NA
ENDROOT
BRANCH   1   5
ATOM      5  S   UNL d   1       2.563   1.806  -0.220  0.00  0.00     0.181 S 
ATOM      6  O   UNL d   1       3.036   0.440  -0.055  0.00  0.00    -0.222 OA
ATOM      7  O   UNL d   1       2.948   2.557  -1.396  0.00  0.00    -0.222 OA
ATOM      8  C   UNL d   1       3.146   2.711   1.190  0.00  0.00     0.168 C 
ENDBRANCH   1   5
BRANCH   2   9
ATOM      9  C   UNL d   1      -1.174   0.719   0.734  0.00  0.00     0.077 A 
ATOM     10  O   UNL d   1      -2.029   1.794   0.699  0.00  0.00    -0.313 OA
ATOM     11  C   UNL d   1      -3.308   1.342   0.767  0.00  0.00     0.078 A 
ATOM     12  C   UNL d   1      -3.311  -0.027   0.884  0.00  0.00     0.038 A 
ATOM     13  C   UNL d   1      -1.951  -0.422   0.891  0.00  0.00     0.040 A 
BRANCH  11  14
ATOM     14  C   UNL d   1      -4.381   2.364   0.696  0.00  0.00     0.243 C 
BRANCH  14  15
ATOM     15  O   UNL d   1      -4.246   3.243   1.821  0.00  0.00    -0.315 OA
BRANCH  15  16
ATOM     16  C   UNL d   1      -4.793   2.792   2.978  0.00  0.00     0.255 C 
ATOM     17  O   UNL d   1      -5.388   1.733   3.121  0.00  0.00    -0.266 OA
ATOM     18  C   UNL d   1      -4.564   3.774   4.087  0.00  0.00     0.126 C 
ENDBRANCH  15  16
ENDBRANCH  14  15
ENDBRANCH  11  14
ENDBRANCH   2   9
TORSDOF 5
