REMARK  5 active torsions:
REMARK  status: ('A' for Active; 'I' for Inactive)
REMARK    1  A    between atoms: C_8  and  C_1 
REMARK    2  A    between atoms: C_9  and  C_2 
REMARK       I    between atoms: C_7  and  N_3 
REMARK    3  A    between atoms: C_10  and  C_7 
REMARK    4  A    between atoms: O_20  and  C_9 
REMARK    5  A    between atoms: C_21  and  O_20 
ROOT
ATOM      1  C   UNL d   1       0.984  -0.693  -0.002  0.00  0.00     0.150 A 
ATOM      2  C   UNL d   1      -0.350  -1.186   0.022  0.00  0.00     0.090 A 
ATOM      3  N   UNL d   1      -0.304   1.040   0.100  0.00  0.00    -0.228 N 
ATOM      4  N   UNL d   1       0.997   0.656   0.029  0.00  0.00    -0.286 N 
ATOM      5  HN  UNL d   1       1.816   1.264   0.005  1.00  0.00     0.187 HD
ATOM      6  C   UNL d   1      -1.138  -0.056   0.121  0.00  0.00     0.140 A 
ATOM      7  C   UNL d   1      -0.678   2.408   0.172  0.00  0.00     0.300 C 
ATOM      8  O   UNL d   1      -1.885   2.618   0.305  0.00  0.00    -0.263 OA
ENDROOT
BRANCH   7   9
ATOM      9  C   UNL d   1       0.309   3.469   0.111  0.00  0.00     0.144 A 
ATOM     10  O   UNL d   1      -0.000   4.660   0.716  0.00  0.00    -0.317 OA
ATOM     11  C   UNL d   1       1.074   5.476   0.583  0.00  0.00     0.143 A 
ATOM     12  C   UNL d   1       2.066   4.853  -0.131  0.00  0.00     0.027 A 
ATOM     13  C   UNL d   1       1.571   3.566  -0.446  0.00  0.00     0.045 A 
ENDBRANCH   7   9
BRANCH   1  14
ATOM     14  C   UNL d   1       2.275  -1.480  -0.033  0.00  0.00     0.435 C 
ATOM     15  F   UNL d   1       2.116  -2.805   0.189  0.00  0.00    -0.165 F 
ATOM     16  F   UNL d   1       2.919  -1.346  -1.224  0.00  0.00    -0.165 F 
ATOM     17  F   UNL d   1       3.140  -1.046   0.927  0.00  0.00    -0.165 F 
ENDBRANCH   1  14
BRANCH   2  18
ATOM     18  C   UNL d   1      -0.834  -2.547  -0.081  0.00  0.00     0.297 C 
ATOM     19  O   UNL d   1      -0.219  -3.431  -0.656  0.00  0.00    -0.259 OA
BRANCH  18  20
ATOM     20  O   UNL d   1      -2.080  -2.676   0.453  0.00  0.00    -0.318 OA
BRANCH  20  21
ATOM     21  C   UNL d   1      -2.791  -3.870   0.102  0.00  0.00     0.174 C 
ATOM     22  C   UNL d   1      -3.577  -3.588  -1.164  0.00  0.00     0.034 C 
ENDBRANCH  20  21
ENDBRANCH  18  20
ENDBRANCH   2  18
TORSDOF 5
