REMARK  6 active torsions:
REMARK  status: ('A' for Active; 'I' for Inactive)
REMARK    1  A    between atoms: C_5  and  C_3 
REMARK    2  A    between atoms: C_9  and  C_4 
REMARK    3  A    between atoms: C_6  and  C_16 
REMARK    4  A    between atoms: O_18  and  N_10 
REMARK    5  A    between atoms: C_12  and  O_18 
REMARK    6  A    between atoms: C_19  and  C_12 
ROOT
ATOM      1  C   UNL d   1       2.481   1.709  -0.020  0.00  0.00     0.056 C 
ATOM      2  N   UNL d   1       2.404   3.007  -0.035  0.00  0.00    -0.260 N 
ATOM      3  HN  UNL d   1       3.216   3.623  -0.023  1.00  0.00     0.194 HD
ATOM      4  C   UNL d   1       1.272   0.804  -0.027  0.00  0.00     0.072 C 
ENDROOT
BRANCH   2   5
ATOM      5  O   UNL d   1       1.069   3.470  -0.070  0.00  0.00    -0.195 OA
BRANCH   5   6
ATOM      6  C   UNL d   1       1.054   4.839  -0.058  0.00  0.00     0.315 C 
ATOM      7  O   UNL d   1       2.022   5.587   0.000  0.00  0.00    -0.257 OA
BRANCH   6   8
ATOM      8  C   UNL d   1      -0.344   5.361  -0.118  0.00  0.00     0.042 A 
ATOM      9  C   UNL d   1      -0.532   6.753  -0.041  0.00  0.00     0.034 A 
ATOM     10  C   UNL d   1      -1.819   7.316  -0.076  0.00  0.00     0.048 A 
ATOM     11  C   UNL d   1      -2.925   6.463  -0.208  0.00  0.00     0.016 A 
ATOM     12  C   UNL d   1      -2.748   5.081  -0.292  0.00  0.00     0.002 A 
ATOM     13  C   UNL d   1      -1.464   4.529  -0.244  0.00  0.00     0.018 A 
BRANCH  10  14
ATOM     14  C   UNL d   1      -2.031   8.808   0.039  0.00  0.00     0.417 C 
ATOM     15  F   UNL d   1      -0.878   9.517   0.176  0.00  0.00    -0.166 F 
ATOM     16  F   UNL d   1      -2.665   9.329  -1.048  0.00  0.00    -0.166 F 
ATOM     17  F   UNL d   1      -2.802   9.137   1.112  0.00  0.00    -0.166 F 
ENDBRANCH  10  14
ENDBRANCH   6   8
ENDBRANCH   5   6
ENDBRANCH   2   5
BRANCH   1  18
ATOM     18  C   UNL d   1       3.826   1.122   0.006  0.00  0.00     0.064 A 
ATOM     19  N   UNL d   1       4.022  -0.262   0.011  0.00  0.00    -0.346 N 
ATOM     20  C   UNL d   1       5.310  -0.546   0.036  0.00  0.00     0.111 A 
ATOM     21  HN  UNL d   1       3.273  -0.955  -0.003  1.00  0.00     0.167 HD
ATOM     22  S   UNL d   1       6.360   0.811   0.054  0.00  0.00    -0.079 SA
ATOM     23  C   UNL d   1       5.003   1.853   0.024  0.00  0.00     0.083 A 
BRANCH  20  24
ATOM     24  C   UNL d   1       5.806  -1.893   0.046  0.00  0.00     0.134 A 
ATOM     25  O   UNL d   1       7.139  -2.212   0.125  0.00  0.00    -0.236 OA
ATOM     26  N   UNL d   1       7.303  -3.587   0.114  0.00  0.00    -0.272 N 
ATOM     27  C   UNL d   1       6.072  -4.088   0.026  0.00  0.00     0.117 A 
ATOM     28  HN  UNL d   1       8.180  -4.106   0.163  1.00  0.00     0.194 HD
ATOM     29  C   UNL d   1       5.098  -3.078  -0.019  0.00  0.00     0.061 A 
ENDBRANCH  20  24
ENDBRANCH   1  18
TORSDOF 6
