REMARK  6 active torsions:
REMARK  status: ('A' for Active; 'I' for Inactive)
REMARK       I    between atoms: C_4  and  N_1 
REMARK    1  A    between atoms: O_5  and  N_1 
REMARK    2  A    between atoms: C_7  and  N_1 
REMARK    3  A    between atoms: C_2  and  O_5 
REMARK    4  A    between atoms: C_3  and  C_2 
REMARK    5  A    between atoms: C_10  and  C_4 
REMARK    6  A    between atoms: C_13  and  C_14 
ROOT
ATOM      1  N   UNL d   1       1.016  -0.069  -0.244  0.00  0.00    -0.107 NA
ATOM      2  C   UNL d   1       0.392   0.141  -1.488  0.00  0.00     0.257 C 
ATOM      3  O   UNL d   1       0.955   0.615  -2.471  0.00  0.00    -0.272 OA
ENDROOT
BRANCH   1   4
ATOM      4  O   UNL d   1       0.500  -1.231   0.430  0.00  0.00    -0.212 OA
BRANCH   4   5
ATOM      5  C   UNL d   1       0.037  -0.973   1.697  0.00  0.00     0.312 C 
ATOM      6  O   UNL d   1      -0.201   0.139   2.133  0.00  0.00    -0.258 OA
BRANCH   5   7
ATOM      7  C   UNL d   1       0.020  -2.229   2.512  0.00  0.00     0.062 A 
ATOM      8  C   UNL d   1      -0.484  -2.244   3.825  0.00  0.00     0.051 A 
ATOM      9  C   UNL d   1      -0.294  -3.367   4.647  0.00  0.00     0.048 A 
ATOM     10 CL   UNL d   1      -1.381  -0.945   4.533  0.00  0.00    -0.083 Cl
ATOM     11  C   UNL d   1       0.374  -4.485   4.160  0.00  0.00     0.035 A 
ATOM     12  C   UNL d   1       0.821  -4.516   2.844  0.00  0.00     0.025 A 
ATOM     13 CL   UNL d   1       0.658  -5.830   5.191  0.00  0.00    -0.084 Cl
ATOM     14  C   UNL d   1       0.640  -3.397   2.023  0.00  0.00     0.021 A 
ENDBRANCH   5   7
ENDBRANCH   4   5
ENDBRANCH   1   4
BRANCH   1  15
ATOM     15  C   UNL d   1       2.512  -0.019  -0.079  0.00  0.00     0.037 C 
ATOM     16  C   UNL d   1       3.196   1.076  -0.927  0.00  0.00     0.034 C 
ATOM     17  C   UNL d   1       2.863   0.314   1.390  0.00  0.00     0.034 C 
ATOM     18  C   UNL d   1       3.150  -1.372  -0.454  0.00  0.00     0.034 C 
ENDBRANCH   1  15
BRANCH   2  19
ATOM     19  C   UNL d   1      -1.056  -0.183  -1.661  0.00  0.00     0.028 A 
ATOM     20  C   UNL d   1      -1.992  -0.020  -0.646  0.00  0.00     0.017 A 
ATOM     21  C   UNL d   1      -3.319  -0.417  -0.838  0.00  0.00     0.009 A 
ATOM     22  C   UNL d   1      -3.773  -0.920  -2.071  0.00  0.00    -0.051 A 
ATOM     23  C   UNL d   1      -2.842  -0.972  -3.120  0.00  0.00     0.009 A 
ATOM     24  C   UNL d   1      -1.501  -0.612  -2.918  0.00  0.00     0.017 A 
BRANCH  22  25
ATOM     25  C   UNL d   1      -5.217  -1.432  -2.208  0.00  0.00    -0.024 C 
ATOM     26  C   UNL d   1      -5.640  -1.753  -3.659  0.00  0.00     0.019 C 
ATOM     27  C   UNL d   1      -5.342  -2.736  -1.389  0.00  0.00     0.019 C 
ATOM     28  C   UNL d   1      -6.229  -0.395  -1.670  0.00  0.00     0.019 C 
ENDBRANCH  22  25
ENDBRANCH   2  19
TORSDOF 6
