REMARK  5 active torsions:
REMARK  status: ('A' for Active; 'I' for Inactive)
REMARK    1  A    between atoms: C_7  and  C_1 
REMARK    2  A    between atoms: N_2  and  C_10 
REMARK    3  A    between atoms: C_12  and  C_3 
REMARK    4  A    between atoms: C_6  and  C_5 
REMARK    5  A    between atoms: O_18  and  C_7 
ROOT
ATOM      1  C   UNL d   1      -0.951   0.816  -0.882  0.00  0.00     0.120 C 
ATOM      2  C   UNL d   1       0.371   0.617  -1.045  0.00  0.00     0.067 C 
ATOM      3  C   UNL d   1      -1.764   1.496  -1.825  0.00  0.00     0.106 C 
ATOM      4  N   UNL d   1      -2.524   2.014  -2.530  0.00  0.00    -0.191 NA
ENDROOT
BRANCH   1   5
ATOM      5  C   UNL d   1      -1.577   0.253   0.339  0.00  0.00     0.187 C 
ATOM      6  O   UNL d   1      -0.946  -0.358   1.189  0.00  0.00    -0.645 OA
BRANCH   5   7
ATOM      7  O   UNL d   1      -2.908   0.456   0.466  0.00  0.00    -0.772 OA
ATOM      8  H   UNL d   1      -3.386   0.951  -0.230  0.00  0.00     0.167 HD
ENDBRANCH   5   7
ENDBRANCH   1   5
BRANCH   2   9
ATOM      9  C   UNL d   1       1.089   1.133  -2.160  0.00  0.00     0.077 A 
ATOM     10  O   UNL d   1       0.747   2.296  -2.808  0.00  0.00    -0.310 OA
ATOM     11  C   UNL d   1       1.627   2.518  -3.821  0.00  0.00     0.086 A 
ATOM     12  C   UNL d   1       2.555   1.502  -3.848  0.00  0.00     0.041 A 
ATOM     13  C   UNL d   1       2.222   0.627  -2.784  0.00  0.00     0.040 A 
BRANCH  11  14
ATOM     14  C   UNL d   1       1.426   3.740  -4.589  0.00  0.00     0.000 A 
ATOM     15  C   UNL d   1       2.519   4.351  -5.217  0.00  0.00     0.050 A 
ATOM     16  C   UNL d   1       2.341   5.541  -5.938  0.00  0.00     0.103 A 
ATOM     17  C   UNL d   1       1.075   6.125  -6.055  0.00  0.00     0.036 A 
ATOM     18  C   UNL d   1      -0.017   5.514  -5.439  0.00  0.00     0.003 A 
ATOM     19  C   UNL d   1       0.160   4.334  -4.708  0.00  0.00     0.014 A 
BRANCH  16  20
ATOM     20  N   UNL d   1       3.504   6.181  -6.561  0.00  0.00    -0.116 N 
ATOM     21  O   UNL d   1       4.608   5.639  -6.416  0.00  0.00    -0.532 OA
ATOM     22  O   UNL d   1       3.313   7.229  -7.197  0.00  0.00    -0.532 OA
ENDBRANCH  16  20
ENDBRANCH  11  14
ENDBRANCH   2   9
TORSDOF 5
