REMARK  7 active torsions:
REMARK  status: ('A' for Active; 'I' for Inactive)
REMARK    1  A    between atoms: C_2  and  C_1 
REMARK    2  A    between atoms: C_3  and  C_1 
REMARK    3  A    between atoms: C_6  and  C_3 
REMARK    4  A    between atoms: N_7  and  N_4 
REMARK    5  A    between atoms: O_13  and  C_6 
REMARK    6  A    between atoms: C_12  and  N_7 
REMARK    7  A    between atoms: C_14  and  O_13 
ROOT
ATOM      1  C   UNL d   1       0.935  -0.119   0.008  0.00  0.00     0.118 C 
ATOM      2  N   UNL d   1       2.237  -0.024   0.021  0.00  0.00    -0.299 N 
ATOM      3  HN  UNL d   1       2.709   0.751   0.488  1.00  0.00     0.186 HD
ENDROOT
BRANCH   1   4
ATOM      4  C   UNL d   1       0.124  -1.225  -0.637  0.00  0.00     0.430 C 
ATOM      5  F   UNL d   1      -1.219  -1.028  -0.545  0.00  0.00    -0.165 F 
ATOM      6  F   UNL d   1       0.413  -1.380  -1.959  0.00  0.00    -0.165 F 
ATOM      7  F   UNL d   1       0.361  -2.435  -0.058  0.00  0.00    -0.165 F 
ENDBRANCH   1   4
BRANCH   1   8
ATOM      8  C   UNL d   1       0.151   0.966   0.702  0.00  0.00     0.174 C 
BRANCH   8   9
ATOM      9  C   UNL d   1      -0.572   1.838  -0.280  0.00  0.00     0.264 C 
ATOM     10  O   UNL d   1      -0.571   1.664  -1.490  0.00  0.00    -0.265 OA
BRANCH   9  11
ATOM     11  O   UNL d   1      -1.204   2.847   0.379  0.00  0.00    -0.322 OA
BRANCH  11  12
ATOM     12  C   UNL d   1      -1.815   3.850  -0.448  0.00  0.00     0.174 C 
ATOM     13  C   UNL d   1      -0.797   4.934  -0.748  0.00  0.00     0.034 C 
ENDBRANCH  11  12
ENDBRANCH   9  11
ENDBRANCH   8   9
ENDBRANCH   1   8
BRANCH   2  14
ATOM     14  N   UNL d   1       2.938  -1.000  -0.615  0.00  0.00    -0.301 N 
ATOM     15  H   UNL d   1       2.547  -1.464  -1.438  0.00  0.00     0.187 HD
BRANCH  14  16
ATOM     16  C   UNL d   1       4.342  -0.851  -0.729  0.00  0.00     0.048 A 
ATOM     17  C   UNL d   1       5.065   0.104  -0.005  0.00  0.00     0.031 A 
ATOM     18  C   UNL d   1       6.460   0.174  -0.098  0.00  0.00     0.002 A 
ATOM     19  C   UNL d   1       7.151  -0.733  -0.900  0.00  0.00     0.000 A 
ATOM     20  C   UNL d   1       6.452  -1.710  -1.601  0.00  0.00     0.002 A 
ATOM     21  C   UNL d   1       5.059  -1.774  -1.507  0.00  0.00     0.031 A 
ENDBRANCH  14  16
ENDBRANCH   2  14
TORSDOF 7
