REMARK  3 active torsions:
REMARK  status: ('A' for Active; 'I' for Inactive)
REMARK    1  A    between atoms: C_2  and  C_1 
REMARK       I    between atoms: N_4  and  C_2 
REMARK    2  A    between atoms: N_5  and  N_4 
REMARK    3  A    between atoms: C_8  and  N_5 
ROOT
ATOM      1  C   UNL d   1       2.455  -2.141   0.643  0.00  0.00     0.269 C 
ATOM      2  N   UNL d   1       2.533  -3.355  -0.017  0.00  0.00    -0.283 N 
ATOM      3  O   UNL d   1       1.479  -1.800   1.311  0.00  0.00    -0.266 OA
ATOM      4  H   UNL d   1       3.242  -3.510  -0.725  0.00  0.00     0.184 HD
ENDROOT
BRANCH   2   5
ATOM      5  N   UNL d   1       1.370  -4.154  -0.068  0.00  0.00    -0.203 NA
ATOM      6  H   UNL d   1       0.764  -3.925   0.727  0.00  0.00     0.153 HD
BRANCH   5   7
ATOM      7  C   UNL d   1       1.601  -5.551  -0.210  0.00  0.00     0.033 A 
ATOM      8  C   UNL d   1       0.688  -6.503   0.303  0.00  0.00    -0.038 A 
ATOM      9  C   UNL d   1       0.912  -7.881   0.078  0.00  0.00     0.032 A 
ATOM     10  C   UNL d   1      -0.525  -6.159   1.127  0.00  0.00     0.050 C 
ATOM     11  C   UNL d   1       1.986  -8.317  -0.689  0.00  0.00     0.034 A 
ATOM     12  C   UNL d   1       2.854  -7.393  -1.248  0.00  0.00     0.026 A 
ATOM     13 CL   UNL d   1       2.222  -9.997  -0.969  0.00  0.00    -0.084 Cl
ATOM     14  C   UNL d   1       2.652  -6.028  -1.022  0.00  0.00     0.027 A 
ENDBRANCH   5   7
ENDBRANCH   2   5
BRANCH   1  15
ATOM     15  C   UNL d   1       3.649  -1.256   0.554  0.00  0.00     0.072 A 
ATOM     16  C   UNL d   1       4.612  -1.387  -0.453  0.00  0.00     0.135 A 
ATOM     17  C   UNL d   1       5.742  -0.572  -0.484  0.00  0.00     0.085 A 
ATOM     18  F   UNL d   1       4.473  -2.310  -1.418  0.00  0.00    -0.205 F 
ATOM     19  C   UNL d   1       5.912   0.383   0.509  0.00  0.00     0.119 A 
ATOM     20  C   UNL d   1       4.968   0.543   1.518  0.00  0.00     0.043 A 
ATOM     21  F   UNL d   1       7.003   1.157   0.498  0.00  0.00    -0.206 F 
ATOM     22  C   UNL d   1       3.830  -0.270   1.537  0.00  0.00     0.023 A 
ENDBRANCH   1  15
TORSDOF 3
