REMARK  7 active torsions:
REMARK  status: ('A' for Active; 'I' for Inactive)
REMARK    1  A    between atoms: N_7  and  S_1 
REMARK    2  A    between atoms: C_12  and  S_1 
REMARK    3  A    between atoms: C_2  and  C_8 
REMARK    4  A    between atoms: C_10  and  N_7 
REMARK    5  A    between atoms: C_22  and  N_7 
REMARK    6  A    between atoms: C_15  and  C_11 
REMARK    7  A    between atoms: C_20  and  C_22 
ROOT
ATOM      1  C   UNL d   1      -1.595  -0.843  -1.140  0.00  0.00     0.043 A 
ATOM      2  C   UNL d   1      -2.507  -1.914  -1.012  0.00  0.00     0.060 A 
ATOM      3  C   UNL d   1      -0.732  -0.795  -2.256  0.00  0.00     0.018 A 
ATOM      4  C   UNL d   1      -2.558  -2.874  -2.036  0.00  0.00     0.031 A 
ATOM      5  C   UNL d   1      -0.802  -1.756  -3.261  0.00  0.00     0.001 A 
ATOM      6  C   UNL d   1      -1.727  -2.786  -3.157  0.00  0.00     0.002 A 
ENDROOT
BRANCH   1   7
ATOM      7  C   UNL d   1      -1.514   0.347  -0.269  0.00  0.00     0.165 A 
ATOM      8  N   UNL d   1      -1.133   1.525  -0.667  0.00  0.00    -0.331 N 
ATOM      9  C   UNL d   1      -1.214   2.282   0.468  0.00  0.00     0.111 A 
ATOM     10  HN  UNL d   1      -0.843   1.814  -1.601  1.00  0.00     0.168 HD
ATOM     11  C   UNL d   1      -1.023   3.602   0.617  0.00  0.00     0.048 C 
ATOM     12  C   UNL d   1      -1.639   1.425   1.614  0.00  0.00     0.316 A 
ATOM     13  O   UNL d   1      -1.829   0.203   1.035  0.00  0.00    -0.255 OA
ATOM     14  O   UNL d   1      -1.810   1.736   2.775  0.00  0.00    -0.257 OA
BRANCH  11  15
ATOM     15  C   UNL d   1      -0.704   4.626  -0.407  0.00  0.00    -0.028 A 
ATOM     16  C   UNL d   1       0.026   5.792  -0.071  0.00  0.00    -0.052 A 
ATOM     17  C   UNL d   1       0.592   6.020   1.306  0.00  0.00     0.049 C 
ATOM     18  C   UNL d   1       0.175   6.823  -1.020  0.00  0.00     0.007 A 
ATOM     19  C   UNL d   1      -0.391   6.716  -2.288  0.00  0.00     0.001 A 
ATOM     20  C   UNL d   1      -1.098   5.570  -2.629  0.00  0.00     0.001 A 
ATOM     21  C   UNL d   1      -1.248   4.535  -1.699  0.00  0.00     0.012 A 
ENDBRANCH  11  15
ENDBRANCH   1   7
BRANCH   2  22
ATOM     22  N   UNL d   1      -3.487  -2.017   0.040  0.00  0.00    -0.267 N 
BRANCH  22  23
ATOM     23  S   UNL d   1      -3.120  -2.871   1.469  0.00  0.00     0.265 S 
ATOM     24  O   UNL d   1      -3.764  -2.177   2.575  0.00  0.00    -0.200 OA
ATOM     25  O   UNL d   1      -1.702  -3.156   1.499  0.00  0.00    -0.200 OA
BRANCH  23  26
ATOM     26  C   UNL d   1      -3.975  -4.435   1.298  0.00  0.00     0.080 C 
ATOM     27  C   UNL d   1      -3.309  -5.545   0.773  0.00  0.00     0.026 C 
ATOM     28  C   UNL d   1      -4.030  -6.712   0.492  0.00  0.00     0.008 C 
ATOM     29  C   UNL d   1      -5.409  -6.777   0.741  0.00  0.00    -0.062 C 
ATOM     30  C   UNL d   1      -6.029  -5.716   1.412  0.00  0.00     0.008 C 
ATOM     31  C   UNL d   1      -6.206  -7.946   0.234  0.00  0.00     0.048 C 
ATOM     32  C   UNL d   1      -5.309  -4.552   1.707  0.00  0.00     0.026 C 
ENDBRANCH  23  26
ENDBRANCH  22  23
BRANCH  22  33
ATOM     33  C   UNL d   1      -4.850  -1.508  -0.189  0.00  0.00     0.168 C 
BRANCH  33  34
ATOM     34  C   UNL d   1      -5.685  -2.484  -0.971  0.00  0.00    -0.016 C 
ATOM     35  C   UNL d   1      -6.310  -2.230  -2.129  0.00  0.00     0.008 C 
ENDBRANCH  33  34
ENDBRANCH  22  33
ENDBRANCH   2  22
TORSDOF 7
