REMARK  8 active torsions:
REMARK  status: ('A' for Active; 'I' for Inactive)
REMARK    1  A    between atoms: C_9  and  C_5 
REMARK    2  A    between atoms: C_10  and  C_5 
REMARK    3  A    between atoms: C_12  and  C_7 
REMARK    4  A    between atoms: C_8  and  N_11 
REMARK    5  A    between atoms: O_16  and  C_9 
REMARK    6  A    between atoms: O_15  and  C_10 
REMARK    7  A    between atoms: C_22  and  O_15 
REMARK    8  A    between atoms: C_21  and  O_16 
ROOT
ATOM      1  N   UNL d   1       1.321   0.638  -0.054  0.00  0.00    -0.301 N 
ATOM      2  HN  UNL d   1       2.152   1.225  -0.127  1.00  0.00     0.187 HD
ATOM      3  C   UNL d   1      -0.022  -1.206   0.045  0.00  0.00     0.123 A 
ATOM      4  C   UNL d   1      -0.820  -0.084   0.120  0.00  0.00     0.077 A 
ATOM      5  N   UNL d   1       1.262  -0.713  -0.042  0.00  0.00    -0.281 N 
ATOM      6  C   UNL d   1       0.045   1.034   0.051  0.00  0.00     0.037 A 
ATOM      7  N   UNL d   1      -0.335  -2.530   0.056  0.00  0.00    -0.350 N 
ATOM      8  C   UNL d   1       2.513  -1.429  -0.090  0.00  0.00     0.179 C 
ATOM      9  H   UNL d   1       0.389  -3.245  -0.075  0.00  0.00     0.166 HD
ENDROOT
BRANCH   7  10
ATOM     10  C   UNL d   1      -1.607  -3.071   0.177  0.00  0.00     0.113 C 
ATOM     11  C   UNL d   1      -2.012  -4.353   0.192  0.00  0.00     0.129 C 
BRANCH  11  12
ATOM     12  C   UNL d   1      -1.022  -5.437   0.066  0.00  0.00     0.300 C 
ATOM     13  O   UNL d   1       0.099  -5.283  -0.397  0.00  0.00    -0.259 OA
BRANCH  12  14
ATOM     14  O   UNL d   1      -1.518  -6.619   0.512  0.00  0.00    -0.318 OA
BRANCH  14  15
ATOM     15  C   UNL d   1      -0.902  -7.802  -0.010  0.00  0.00     0.174 C 
ATOM     16  C   UNL d   1      -1.528  -8.120  -1.359  0.00  0.00     0.034 C 
ENDBRANCH  14  15
ENDBRANCH  12  14
ENDBRANCH  11  12
BRANCH  11  17
ATOM     17  C   UNL d   1      -3.469  -4.581   0.362  0.00  0.00     0.300 C 
ATOM     18  O   UNL d   1      -4.239  -3.767   0.845  0.00  0.00    -0.259 OA
BRANCH  17  19
ATOM     19  O   UNL d   1      -3.825  -5.818  -0.074  0.00  0.00    -0.318 OA
BRANCH  19  20
ATOM     20  C   UNL d   1      -5.060  -6.332   0.443  0.00  0.00     0.174 C 
ATOM     21  C   UNL d   1      -4.803  -6.940   1.812  0.00  0.00     0.034 C 
ENDBRANCH  19  20
ENDBRANCH  17  19
ENDBRANCH  11  17
ENDBRANCH   7  10
BRANCH   6  22
ATOM     22  C   UNL d   1      -0.304   2.514   0.085  0.00  0.00    -0.007 C 
ATOM     23  C   UNL d   1      -1.820   2.736   0.275  0.00  0.00     0.021 C 
ATOM     24  C   UNL d   1       0.425   3.209   1.253  0.00  0.00     0.021 C 
ATOM     25  C   UNL d   1       0.111   3.192  -1.236  0.00  0.00     0.021 C 
ENDBRANCH   6  22
TORSDOF 8
