REMARK  4 active torsions:
REMARK  status: ('A' for Active; 'I' for Inactive)
REMARK    1  A    between atoms: N_3  and  S_1 
REMARK    2  A    between atoms: C_9  and  S_1 
REMARK    3  A    between atoms: N_2  and  C_4 
REMARK    4  A    between atoms: C_6  and  N_5 
ROOT
ATOM      1  N   UNL d   1       0.499  -0.562   1.372  0.00  0.00    -0.203 NA
ATOM      2  N   UNL d   1       2.196  -2.508   2.655  0.00  0.00    -0.365 N 
ATOM      3  C   UNL d   1       1.415  -0.144   2.488  0.00  0.00     0.127 C 
ATOM      4  C   UNL d   1       0.105  -1.995   1.511  0.00  0.00     0.127 C 
ATOM      5  C   UNL d   1       1.337  -2.912   1.541  0.00  0.00     0.140 C 
ATOM      6  C   UNL d   1       2.621  -1.098   2.668  0.00  0.00     0.140 C 
ENDROOT
BRANCH   1   7
ATOM      7  S   UNL d   1       0.927  -0.071  -0.196  0.00  0.00     0.243 S 
ATOM      8  O   UNL d   1       0.133  -0.813  -1.148  0.00  0.00    -0.206 OA
ATOM      9  O   UNL d   1       2.372  -0.037  -0.281  0.00  0.00    -0.206 OA
BRANCH   7  10
ATOM     10  C   UNL d   1       0.320   1.597  -0.226  0.00  0.00     0.074 A 
ATOM     11  C   UNL d   1       1.178   2.659  -0.522  0.00  0.00     0.026 A 
ATOM     12  C   UNL d   1       0.666   3.958  -0.563  0.00  0.00     0.025 A 
ATOM     13  C   UNL d   1      -0.690   4.182  -0.309  0.00  0.00     0.034 A 
ATOM     14  C   UNL d   1      -1.544   3.119  -0.015  0.00  0.00     0.025 A 
ATOM     15 CL   UNL d   1      -1.313   5.785  -0.362  0.00  0.00    -0.084 Cl
ATOM     16  C   UNL d   1      -1.040   1.819   0.024  0.00  0.00     0.026 A 
ENDBRANCH   7  10
ENDBRANCH   1   7
BRANCH   2  17
ATOM     17  C   UNL d   1       2.925  -3.413   3.389  0.00  0.00     0.103 A 
ATOM     18  N   UNL d   1       3.267  -3.057   4.649  0.00  0.00    -0.350 N 
ATOM     19  C   UNL d   1       3.854  -3.977   5.457  0.00  0.00     0.125 A 
ATOM     20  HN  UNL d   1       3.087  -2.111   4.986  1.00  0.00     0.166 HD
ATOM     21  C   UNL d   1       4.154  -5.261   5.046  0.00  0.00     0.118 A 
ATOM     22  C   UNL d   1       3.859  -5.625   3.737  0.00  0.00     0.041 A 
ATOM     23  C   UNL d   1       3.234  -4.689   2.910  0.00  0.00     0.051 A 
BRANCH  21  24
ATOM     24  N   UNL d   1       4.747  -6.208   5.976  0.00  0.00    -0.114 N 
ATOM     25  O   UNL d   1       4.946  -5.828   7.138  0.00  0.00    -0.532 OA
ATOM     26  O   UNL d   1       5.012  -7.341   5.551  0.00  0.00    -0.532 OA
ENDBRANCH  21  24
ENDBRANCH   2  17
TORSDOF 4
