REMARK  2 active torsions:
REMARK  status: ('A' for Active; 'I' for Inactive)
REMARK    1  A    between atoms: C_2  and  S_1 
REMARK    2  A    between atoms: C_9  and  S_1 
ROOT
ATOM      1  C   UNL d   1       0.413  -1.044   1.220  0.00  0.00     0.088 A 
ATOM      2  C   UNL d   1       0.610  -0.812   2.614  0.00  0.00     0.062 A 
ATOM      3  S   UNL d   1      -0.747  -2.993   2.438  0.00  0.00    -0.110 SA
ATOM      4  C   UNL d   1      -0.316  -2.194   0.990  0.00  0.00     0.074 A 
ATOM      5  C   UNL d   1       0.028  -1.799   3.383  0.00  0.00     0.075 A 
ATOM      6 CL   UNL d   1       1.448   0.510   3.307  0.00  0.00    -0.082 Cl
ENDROOT
BRANCH   1   7
ATOM      7  S   UNL d   1       0.955  -0.011  -0.065  0.00  0.00     0.181 S 
ATOM      8  O   UNL d   1       0.414   1.285   0.285  0.00  0.00    -0.222 OA
ATOM      9  O   UNL d   1       0.553  -0.697  -1.277  0.00  0.00    -0.222 OA
BRANCH   7  10
ATOM     10  C   UNL d   1       2.748   0.025   0.026  0.00  0.00     0.105 C 
ATOM     11  C   UNL d   1       3.356  -1.361  -0.156  0.00  0.00     0.026 C 
ATOM     12  C   UNL d   1       3.296   0.992  -1.021  0.00  0.00     0.026 C 
ENDBRANCH   7  10
ENDBRANCH   1   7
TORSDOF 2
