REMARK  4 active torsions:
REMARK  status: ('A' for Active; 'I' for Inactive)
REMARK    1  A    between atoms: C_2  and  C_1 
REMARK    2  A    between atoms: N_5  and  C_7 
REMARK    3  A    between atoms: N_15  and  C_10 
REMARK    4  A    between atoms: C_18  and  C_11 
ROOT
ATOM      1  C   UNL d   1       1.171  -0.769  -0.087  0.00  0.00     0.073 A 
ATOM      2  N   UNL d   1       1.249   0.585  -0.142  0.00  0.00    -0.190 N 
ATOM      3  HN  UNL d   1       2.148   1.050  -0.269  1.00  0.00     0.184 HD
ATOM      4  C   UNL d   1       0.124   1.297  -0.028  0.00  0.00     0.683 A 
ATOM      5  N   UNL d   1      -1.094   0.779   0.079  0.00  0.00    -0.201 N 
ATOM      6  HN  UNL d   1      -1.929   1.362   0.133  1.00  0.00     0.183 HD
ATOM      7  C   UNL d   1      -0.057  -1.419   0.068  0.00  0.00    -0.014 A 
ATOM      8  C   UNL d   1      -1.154  -0.563   0.112  0.00  0.00     0.115 A 
ENDROOT
BRANCH   1   9
ATOM      9  C   UNL d   1       2.507  -1.398  -0.206  0.00  0.00     0.069 A 
ATOM     10  C   UNL d   1       3.630  -0.825   0.423  0.00  0.00     0.132 A 
ATOM     11  F   UNL d   1       3.497   0.249   1.221  0.00  0.00    -0.205 F 
ATOM     12  C   UNL d   1       4.927  -1.325   0.261  0.00  0.00     0.043 A 
ATOM     13  C   UNL d   1       5.143  -2.451  -0.523  0.00  0.00     0.006 A 
ATOM     14  C   UNL d   1       4.059  -3.056  -1.147  0.00  0.00     0.043 A 
ATOM     15  C   UNL d   1       2.773  -2.519  -1.005  0.00  0.00     0.132 A 
ATOM     16  F   UNL d   1       1.794  -3.111  -1.703  0.00  0.00    -0.205 F 
ENDBRANCH   1   9
BRANCH   7  17
ATOM     17  C   UNL d   1      -0.249  -2.912   0.108  0.00  0.00     0.038 C 
ATOM     18  C   UNL d   1      -1.451  -3.435   0.893  0.00  0.00     0.010 C 
ENDBRANCH   7  17
BRANCH   4  19
ATOM     19  N   UNL d   1       0.198   2.687  -0.064  0.00  0.00    -0.188 N 
ATOM     20  C   UNL d   1       1.237   3.232   0.469  0.00  0.00     0.195 C 
ATOM     21  HN  UNL d   1      -0.537   3.249  -0.493  1.00  0.00     0.185 HD
BRANCH  20  22
ATOM     22  N   UNL d   1       1.505   4.583   0.535  0.00  0.00    -0.385 N 
ATOM     23  C   UNL d   1       0.585   5.569  -0.006  0.00  0.00     0.149 C 
ATOM     24  C   UNL d   1       2.708   5.101   1.160  0.00  0.00     0.149 C 
ENDBRANCH  20  22
ENDBRANCH   4  19
TORSDOF 4
