REMARK  1 active torsions:
REMARK  status: ('A' for Active; 'I' for Inactive)
REMARK    1  A    between atoms: C_9  and  C_3 
ROOT
ATOM      1  C   UNL d   1       0.249   0.773   0.008  0.00  0.00     0.056 A 
ATOM      2  C   UNL d   1       0.225  -0.604   0.007  0.00  0.00     0.181 A 
ATOM      3  C   UNL d   1      -1.022   1.414   0.008  0.00  0.00     0.070 A 
ATOM      4  N   UNL d   1       1.523  -1.014   0.006  0.00  0.00    -0.274 N 
ATOM      5  N   UNL d   1       2.392   0.013   0.006  0.00  0.00    -0.300 N 
ATOM      6  HN  UNL d   1       3.411  -0.034   0.006  1.00  0.00     0.187 HD
ATOM      7  C   UNL d   1       1.623   1.115   0.006  0.00  0.00     0.037 A 
ATOM      8  O   UNL d   1      -0.810  -1.429   0.004  0.00  0.00    -0.256 OA
ATOM      9  C   UNL d   1      -2.040  -0.846   0.000  0.00  0.00     0.290 A 
ATOM     10  C   UNL d   1      -2.124   0.636   0.003  0.00  0.00     0.099 A 
ATOM     11  O   UNL d   1      -3.075  -1.506  -0.004  0.00  0.00    -0.260 OA
ATOM     12  C   UNL d   1       2.029  -2.365   0.002  0.00  0.00     0.180 C 
ATOM     13  C   UNL d   1       2.303   2.434   0.001  0.00  0.00     0.070 C 
ENDROOT
BRANCH   3  14
ATOM     14  C   UNL d   1      -1.163   2.902   0.013  0.00  0.00     0.418 C 
ATOM     15  F   UNL d   1      -0.011   3.607   0.001  0.00  0.00    -0.166 F 
ATOM     16  F   UNL d   1      -1.877   3.324  -1.066  0.00  0.00    -0.166 F 
ATOM     17  F   UNL d   1      -1.852   3.319   1.109  0.00  0.00    -0.166 F 
ENDBRANCH   3  14
TORSDOF 1
