REMARK  2 active torsions:
REMARK  status: ('A' for Active; 'I' for Inactive)
REMARK    1  A    between atoms: C_2  and  N_1 
REMARK    2  A    between atoms: C_3  and  C_4 
ROOT
ATOM      1  C   UNL d   1      -1.302   1.414  -1.028  0.00  0.00     0.089 A 
ATOM      2  O   UNL d   1      -2.634   1.722  -0.995  0.00  0.00    -0.299 OA
ATOM      3  C   UNL d   1      -0.565   2.516  -0.631  0.00  0.00     0.041 A 
ATOM      4  C   UNL d   1      -2.736   3.003  -0.547  0.00  0.00     0.155 A 
ATOM      5  N   UNL d   1      -5.091   4.024  -0.299  0.00  0.00    -0.189 NA
ATOM      6  C   UNL d   1      -4.034   3.553  -0.411  0.00  0.00     0.125 C 
ATOM      7  C   UNL d   1      -1.492   3.537  -0.307  0.00  0.00     0.051 A 
ENDROOT
BRANCH   1   8
ATOM      8  C   UNL d   1      -0.967   0.060  -1.467  0.00  0.00     0.031 A 
ATOM      9  C   UNL d   1       0.151  -0.653  -1.002  0.00  0.00     0.117 A 
ATOM     10  C   UNL d   1       0.524  -1.901  -1.522  0.00  0.00     0.060 A 
ATOM     11  C   UNL d   1      -0.259  -2.470  -2.517  0.00  0.00     0.036 A 
ATOM     12  C   UNL d   1      -1.404  -1.817  -2.972  0.00  0.00     0.025 A 
ATOM     13 CL   UNL d   1       0.187  -3.987  -3.189  0.00  0.00    -0.084 Cl
ATOM     14  C   UNL d   1      -1.754  -0.564  -2.451  0.00  0.00     0.018 A 
BRANCH   9  15
ATOM     15  N   UNL d   1       0.962  -0.135   0.082  0.00  0.00    -0.115 N 
ATOM     16  O   UNL d   1       0.411   0.025   1.178  0.00  0.00    -0.532 OA
ATOM     17  O   UNL d   1       2.150   0.098  -0.172  0.00  0.00    -0.532 OA
ENDBRANCH   9  15
ENDBRANCH   1   8
TORSDOF 2
