REMARK  3 active torsions:
REMARK  status: ('A' for Active; 'I' for Inactive)
REMARK       I    between atoms: C_3  and  N_1 
REMARK       I    between atoms: C_2  and  N_4 
REMARK    1  A    between atoms: O_5  and  C_2 
REMARK    2  A    between atoms: N_4  and  C_12 
REMARK    3  A    between atoms: C_13  and  O_5 
ROOT
ATOM      1  C   UNL d   1      -1.413  -0.457  -3.076  0.00  0.00     0.366 C 
ATOM      2  N   UNL d   1      -1.831  -0.230  -1.799  0.00  0.00    -0.332 N 
ATOM      3  O   UNL d   1      -2.252  -0.586  -3.964  0.00  0.00    -0.238 OA
ATOM      4  H   UNL d   1      -2.843  -0.197  -1.763  0.00  0.00     0.165 HD
ENDROOT
BRANCH   2   5
ATOM      5  C   UNL d   1      -1.134  -0.141  -0.516  0.00  0.00     0.089 C 
ATOM      6  C   UNL d   1      -0.234   1.092  -0.338  0.00  0.00     0.045 C 
ATOM      7  C   UNL d   1       1.233   0.842  -0.662  0.00  0.00     0.127 C 
ATOM      8  N   UNL d   1       1.690  -0.377  -0.004  0.00  0.00    -0.352 N 
ATOM      9  C   UNL d   1       2.580  -0.269   1.053  0.00  0.00     0.215 C 
ATOM     10  C   UNL d   1       0.983  -1.580  -0.424  0.00  0.00     0.127 C 
ATOM     11  O   UNL d   1       3.108   0.804   1.357  0.00  0.00    -0.274 OA
ATOM     12  C   UNL d   1       2.928  -1.500   1.851  0.00  0.00     0.117 C 
ATOM     13  C   UNL d   1      -0.495  -1.465  -0.070  0.00  0.00     0.045 C 
ENDBRANCH   2   5
BRANCH   1  14
ATOM     14  O   UNL d   1      -0.039  -0.506  -3.246  0.00  0.00    -0.262 OA
BRANCH  14  15
ATOM     15  C   UNL d   1       0.515  -0.644  -4.537  0.00  0.00     0.081 A 
ATOM     16  C   UNL d   1      -0.017  -1.483  -5.519  0.00  0.00     0.039 A 
ATOM     17  C   UNL d   1       0.586  -1.546  -6.777  0.00  0.00     0.026 A 
ATOM     18  C   UNL d   1       1.732  -0.796  -7.040  0.00  0.00     0.034 A 
ATOM     19  C   UNL d   1       2.293   0.006  -6.046  0.00  0.00     0.026 A 
ATOM     20 CL   UNL d   1       2.460  -0.860  -8.598  0.00  0.00    -0.084 Cl
ATOM     21  C   UNL d   1       1.685   0.078  -4.789  0.00  0.00     0.039 A 
ENDBRANCH  14  15
ENDBRANCH   1  14
TORSDOF 3
