REMARK  4 active torsions:
REMARK  status: ('A' for Active; 'I' for Inactive)
REMARK    1  A    between atoms: C_4  and  C_1 
REMARK       I    between atoms: N_8  and  C_4 
REMARK    2  A    between atoms: C_7  and  N_10 
REMARK    3  A    between atoms: S_13  and  C_7 
REMARK    4  A    between atoms: N_10  and  N_8 
ROOT
ATOM      1  C   UNL d   1      -2.711  -1.506   0.013  0.00  0.00     0.288 C 
ATOM      2  N   UNL d   1      -3.857  -0.734   0.012  0.00  0.00    -0.263 N 
ATOM      3  O   UNL d   1      -2.740  -2.736   0.010  0.00  0.00    -0.264 OA
ATOM      4  H   UNL d   1      -3.804   0.285   0.025  0.00  0.00     0.190 HD
ENDROOT
BRANCH   1   5
ATOM      5  C   UNL d   1      -1.463  -0.744   0.015  0.00  0.00     0.126 A 
ATOM      6  N   UNL d   1      -1.444   0.602   0.015  0.00  0.00    -0.256 N 
ATOM      7  O   UNL d   1      -0.107   0.964   0.010  0.00  0.00    -0.242 OA
ATOM      8  HN  UNL d   1      -2.249   1.228   0.017  1.00  0.00     0.195 HD
ATOM      9  C   UNL d   1       0.667  -0.154   0.007  0.00  0.00     0.075 A 
ATOM     10  C   UNL d   1      -0.142  -1.261   0.011  0.00  0.00     0.071 A 
ATOM     11  C   UNL d   1       2.127   0.052  -0.001  0.00  0.00     0.079 C 
ENDBRANCH   1   5
BRANCH   2  12
ATOM     12  N   UNL d   1      -5.114  -1.352   0.001  0.00  0.00    -0.282 N 
ATOM     13  H   UNL d   1      -5.129  -2.372   0.030  0.00  0.00     0.188 HD
BRANCH  12  14
ATOM     14  C   UNL d   1      -6.290  -0.636   0.022  0.00  0.00     0.152 C 
ATOM     15  S   UNL d   1      -6.380   1.034   0.049  0.00  0.00    -0.051 SA
BRANCH  14  16
ATOM     16  S   UNL d   1      -7.638  -1.758   0.080  0.00  0.00    -0.104 SA
ATOM     17  C   UNL d   1      -8.951  -0.859  -0.776  0.00  0.00     0.098 C 
ENDBRANCH  14  16
ENDBRANCH  12  14
ENDBRANCH   2  12
TORSDOF 4
