REMARK  3 active torsions:
REMARK  status: ('A' for Active; 'I' for Inactive)
REMARK    1  A    between atoms: C_7  and  C_1 
REMARK       I    between atoms: C_2  and  N_4 
REMARK    2  A    between atoms: C_3  and  C_2 
REMARK    3  A    between atoms: N_4  and  C_18 
ROOT
ATOM      1  C   UNL d   1       0.094  -6.534  -0.090  0.00  0.00     0.256 C 
ATOM      2  N   UNL d   1      -0.602  -5.368   0.180  0.00  0.00    -0.323 N 
ATOM      3  O   UNL d   1      -0.331  -7.679   0.021  0.00  0.00    -0.267 OA
ATOM      4  H   UNL d   1      -0.132  -4.492   0.001  0.00  0.00     0.169 HD
ENDROOT
BRANCH   2   5
ATOM      5  C   UNL d   1      -1.924  -5.260   0.665  0.00  0.00     0.035 A 
ATOM      6  C   UNL d   1      -2.773  -6.350   0.862  0.00  0.00     0.030 A 
ATOM      7  C   UNL d   1      -4.060  -6.168   1.380  0.00  0.00     0.018 A 
ATOM      8  C   UNL d   1      -4.524  -4.890   1.718  0.00  0.00     0.048 A 
ATOM      9  C   UNL d   1      -3.680  -3.794   1.496  0.00  0.00     0.018 A 
ATOM     10  C   UNL d   1      -2.397  -3.977   0.969  0.00  0.00     0.030 A 
BRANCH   8  11
ATOM     11  C   UNL d   1      -5.896  -4.725   2.323  0.00  0.00     0.417 C 
ATOM     12  F   UNL d   1      -6.210  -3.432   2.616  0.00  0.00    -0.166 F 
ATOM     13  F   UNL d   1      -6.036  -5.414   3.490  0.00  0.00    -0.166 F 
ATOM     14  F   UNL d   1      -6.887  -5.172   1.503  0.00  0.00    -0.166 F 
ENDBRANCH   8  11
ENDBRANCH   2   5
BRANCH   1  15
ATOM     15  C   UNL d   1       1.488  -6.357  -0.595  0.00  0.00     0.033 A 
ATOM     16  C   UNL d   1       1.996  -7.341  -1.460  0.00  0.00     0.027 A 
ATOM     17  C   UNL d   1       3.276  -7.186  -1.961  0.00  0.00    -0.022 A 
ATOM     18  C   UNL d   1       4.015  -8.021  -2.931  0.00  0.00     0.068 C 
ATOM     19  C   UNL d   1       4.041  -6.084  -1.622  0.00  0.00     0.075 A 
ATOM     20  C   UNL d   1       5.397  -7.375  -2.813  0.00  0.00     0.180 C 
ATOM     21  O   UNL d   1       5.267  -6.055  -2.232  0.00  0.00    -0.350 OA
ATOM     22  C   UNL d   1       3.580  -5.111  -0.758  0.00  0.00     0.038 A 
ATOM     23  C   UNL d   1       2.293  -5.256  -0.227  0.00  0.00     0.020 A 
ENDBRANCH   1  15
TORSDOF 3
