REMARK  4 active torsions:
REMARK  status: ('A' for Active; 'I' for Inactive)
REMARK    1  A    between atoms: C_9  and  C_1 
REMARK    2  A    between atoms: S_18  and  C_2 
REMARK    3  A    between atoms: C_6  and  C_3 
REMARK    4  A    between atoms: S_20  and  C_13 
ROOT
ATOM      1  C   UNL d   1       0.604   1.298  -0.096  0.00  0.00     0.022 A 
ATOM      2  C   UNL d   1      -0.781   1.267  -0.208  0.00  0.00     0.054 A 
ATOM      3  C   UNL d   1       0.179  -1.032  -0.059  0.00  0.00     0.046 A 
ATOM      4  C   UNL d   1       1.171  -0.052  -0.015  0.00  0.00    -0.028 A 
ATOM      5  S   UNL d   1      -1.376  -0.330  -0.199  0.00  0.00    -0.079 SA
ATOM      6  C   UNL d   1       2.647  -0.320   0.089  0.00  0.00     0.050 C 
ENDROOT
BRANCH   1   7
ATOM      7  C   UNL d   1       1.353   2.564  -0.077  0.00  0.00     0.048 A 
ATOM      8  N   UNL d   1       0.923   3.497   0.796  0.00  0.00    -0.336 N 
ATOM      9  C   UNL d   1       1.577   4.667   0.793  0.00  0.00     0.141 A 
ATOM     10  HN  UNL d   1       0.141   3.322   1.427  1.00  0.00     0.168 HD
ATOM     11  N   UNL d   1       2.652   4.952   0.043  0.00  0.00    -0.347 N 
ATOM     12  C   UNL d   1       3.063   3.985  -0.793  0.00  0.00     0.092 A 
ATOM     13  HN  UNL d   1       3.130   5.852   0.105  1.00  0.00     0.167 HD
ATOM     14  C   UNL d   1       2.433   2.768  -0.910  0.00  0.00     0.047 A 
BRANCH   9  15
ATOM     15  S   UNL d   1       0.922   5.948   1.817  0.00  0.00    -0.107 SA
ATOM     16  H   UNL d   1      -0.213   5.283   2.058  0.00  0.00     0.110 HD
ENDBRANCH   9  15
ENDBRANCH   1   7
BRANCH   2  17
ATOM     17  S   UNL d   1      -1.887   2.636  -0.442  0.00  0.00    -0.126 SA
ATOM     18  C   UNL d   1      -3.242   2.227   0.684  0.00  0.00     0.096 C 
ENDBRANCH   2  17
BRANCH   3  19
ATOM     19  C   UNL d   1       0.325  -2.475   0.018  0.00  0.00     0.092 A 
ATOM     20  N   UNL d   1       1.325  -3.052   0.656  0.00  0.00    -0.353 N 
ATOM     21  C   UNL d   1       1.239  -4.430   0.572  0.00  0.00     0.012 A 
ATOM     22  HN  UNL d   1       2.064  -2.548   1.147  1.00  0.00     0.166 HD
ATOM     23  C   UNL d   1       2.283  -5.259   1.225  0.00  0.00     0.068 C 
ATOM     24  C   UNL d   1       0.149  -4.893  -0.138  0.00  0.00     0.076 A 
ATOM     25  S   UNL d   1      -0.772  -3.583  -0.724  0.00  0.00    -0.081 SA
ENDBRANCH   3  19
TORSDOF 4
