REMARK  6 active torsions:
REMARK  status: ('A' for Active; 'I' for Inactive)
REMARK    1  A    between atoms: O_2  and  S_1 
REMARK    2  A    between atoms: C_3  and  S_1 
REMARK    3  A    between atoms: C_8  and  O_2 
REMARK    4  A    between atoms: O_9  and  C_10 
REMARK    5  A    between atoms: C_12  and  O_9 
REMARK    6  A    between atoms: C_20  and  C_12 
ROOT
ATOM      1  C   UNL d   1       0.705  -1.657  -2.028  0.00  0.00     0.089 A 
ATOM      2  C   UNL d   1       1.516  -2.358  -4.620  0.00  0.00     0.069 A 
ATOM      3  C   UNL d   1       2.042  -1.524  -2.408  0.00  0.00     0.041 A 
ATOM      4  C   UNL d   1      -0.206  -2.223  -2.919  0.00  0.00     0.041 A 
ATOM      5  C   UNL d   1       0.200  -2.566  -4.210  0.00  0.00     0.039 A 
ATOM      6  C   UNL d   1       2.448  -1.870  -3.703  0.00  0.00     0.039 A 
ENDROOT
BRANCH   1   7
ATOM      7  O   UNL d   1       0.380  -1.203  -0.772  0.00  0.00    -0.229 OA
BRANCH   7   8
ATOM      8  S   UNL d   1      -1.152  -0.749  -0.424  0.00  0.00     0.303 S 
ATOM      9  O   UNL d   1      -1.906  -1.928  -0.035  0.00  0.00    -0.193 OA
ATOM     10  O   UNL d   1      -1.647   0.132  -1.464  0.00  0.00    -0.193 OA
BRANCH   8  11
ATOM     11  C   UNL d   1      -0.981   0.263   1.035  0.00  0.00     0.086 A 
ATOM     12  C   UNL d   1      -0.720   1.631   0.888  0.00  0.00     0.027 A 
ATOM     13  C   UNL d   1      -0.704   2.454   2.016  0.00  0.00     0.025 A 
ATOM     14  C   UNL d   1      -0.955   1.909   3.276  0.00  0.00     0.034 A 
ATOM     15  C   UNL d   1      -1.216   0.546   3.421  0.00  0.00     0.025 A 
ATOM     16 CL   UNL d   1      -0.961   2.931   4.660  0.00  0.00    -0.084 Cl
ATOM     17  C   UNL d   1      -1.234  -0.284   2.297  0.00  0.00     0.027 A 
ENDBRANCH   8  11
ENDBRANCH   7   8
ENDBRANCH   1   7
BRANCH   2  18
ATOM     18  O   UNL d   1       1.787  -2.708  -5.913  0.00  0.00    -0.347 OA
BRANCH  18  19
ATOM     19  C   UNL d   1       2.807  -1.944  -6.562  0.00  0.00     0.214 C 
BRANCH  19  20
ATOM     20  C   UNL d   1       2.951  -2.377  -8.005  0.00  0.00    -0.034 A 
ATOM     21  C   UNL d   1       3.366  -1.455  -8.978  0.00  0.00     0.009 A 
ATOM     22  C   UNL d   1       3.592  -1.864 -10.295  0.00  0.00     0.001 A 
ATOM     23  C   UNL d   1       3.414  -3.199 -10.652  0.00  0.00     0.000 A 
ATOM     24  C   UNL d   1       3.002  -4.125  -9.696  0.00  0.00     0.001 A 
ATOM     25  C   UNL d   1       2.776  -3.717  -8.380  0.00  0.00     0.009 A 
ENDBRANCH  19  20
ENDBRANCH  18  19
ENDBRANCH   2  18
TORSDOF 6
