REMARK  4 active torsions:
REMARK  status: ('A' for Active; 'I' for Inactive)
REMARK    1  A    between atoms: N_6  and  C_1 
REMARK    2  A    between atoms: C_9  and  C_2 
REMARK    3  A    between atoms: N_16  and  C_5 
REMARK    4  A    between atoms: C_14  and  N_10 
ROOT
ATOM      1  C   UNL d   1       0.062  -1.242   0.180  0.00  0.00     0.117 A 
ATOM      2  C   UNL d   1      -1.270  -0.792   0.040  0.00  0.00     0.061 A 
ATOM      3  N   UNL d   1      -1.346   0.544  -0.035  0.00  0.00    -0.300 N 
ATOM      4  HN  UNL d   1      -2.178   1.127  -0.123  1.00  0.00     0.186 HD
ATOM      5  C   UNL d   1       0.836  -0.102   0.139  0.00  0.00     0.144 A 
ATOM      6  N   UNL d   1      -0.057   0.931   0.033  0.00  0.00    -0.284 N 
ATOM      7  H   UNL d   1       0.149   1.920  -0.002  0.00  0.00     0.188 HD
ENDROOT
BRANCH   1   8
ATOM      8  N   UNL d   1       0.475  -2.580   0.271  0.00  0.00    -0.295 N 
ATOM      9  N   UNL d   1       1.496  -2.729   0.978  0.00  0.00    -0.299 N 
ATOM     10  HN  UNL d   1       1.957  -1.962   1.467  1.00  0.00     0.187 HD
ATOM     11  HN  UNL d   1      -0.006  -3.351  -0.193  1.00  0.00     0.187 HD
BRANCH   9  12
ATOM     12  C   UNL d   1       1.943  -4.068   1.031  0.00  0.00     0.069 A 
ATOM     13  C   UNL d   1       3.318  -4.343   1.153  0.00  0.00     0.062 A 
ATOM     14 CL   UNL d   1       4.486  -3.066   1.207  0.00  0.00    -0.082 Cl
ATOM     15  C   UNL d   1       3.788  -5.660   1.234  0.00  0.00     0.026 A 
ATOM     16  C   UNL d   1       2.890  -6.725   1.201  0.00  0.00     0.002 A 
ATOM     17  C   UNL d   1       1.524  -6.475   1.097  0.00  0.00     0.002 A 
ATOM     18  C   UNL d   1       1.057  -5.159   1.022  0.00  0.00     0.033 A 
ENDBRANCH   9  12
ENDBRANCH   1   8
BRANCH   2  19
ATOM     19  C   UNL d   1      -2.497  -1.696  -0.027  0.00  0.00     0.040 A 
ATOM     20  C   UNL d   1      -3.692  -1.233  -0.842  0.00  0.00     0.011 A 
ATOM     21  C   UNL d   1      -3.776  -1.232   0.644  0.00  0.00     0.011 A 
ENDBRANCH   2  19
BRANCH   5  22
ATOM     22  N   UNL d   1       2.169   0.108   0.185  0.00  0.00    -0.382 N 
ATOM     23  H   UNL d   1       2.798  -0.696   0.189  0.00  0.00     0.157 HD
ATOM     24  H   UNL d   1       2.616   0.985  -0.059  0.00  0.00     0.157 HD
ENDBRANCH   5  22
TORSDOF 4
