REMARK  3 active torsions:
REMARK  status: ('A' for Active; 'I' for Inactive)
REMARK       I    between atoms: N_2  and  C_1 
REMARK       I    between atoms: N_3  and  C_1 
REMARK    1  A    between atoms: C_6  and  N_3 
REMARK    2  A    between atoms: C_16  and  N_4 
REMARK    3  A    between atoms: C_15  and  C_16 
ROOT
ATOM      1  C   UNL d   1       0.951  -0.094  -0.180  0.00  0.00     0.323 C 
ATOM      2  N   UNL d   1       0.389   1.086  -0.632  0.00  0.00    -0.331 N 
ATOM      3  N   UNL d   1       0.500  -0.561   1.027  0.00  0.00    -0.309 N 
ATOM      4  N   UNL d   1      -0.242   3.829  -1.516  0.00  0.00     0.095 N 
ATOM      5  O   UNL d   1       1.823  -0.660  -0.850  0.00  0.00    -0.247 OA
ATOM      6  C   UNL d   1       0.837   1.584  -1.940  0.00  0.00     0.158 C 
ATOM      7  C   UNL d   1      -0.745   1.809  -0.039  0.00  0.00     0.158 C 
ATOM      8  C   UNL d   1       0.982   3.112  -1.940  0.00  0.00     0.292 C 
ATOM      9  C   UNL d   1      -0.594   3.342  -0.162  0.00  0.00     0.292 C 
ATOM     10  H   UNL d   1      -0.370  -0.202   1.379  0.00  0.00     0.170 HD
ENDROOT
BRANCH   3  11
ATOM     11  C   UNL d   1       1.090  -1.587   1.797  0.00  0.00     0.037 A 
ATOM     12  C   UNL d   1       2.392  -2.036   1.573  0.00  0.00     0.036 A 
ATOM     13  C   UNL d   1       2.995  -2.959   2.431  0.00  0.00    -0.059 A 
ATOM     14  C   UNL d   1       4.423  -3.359   2.204  0.00  0.00     0.048 C 
ATOM     15  C   UNL d   1       2.268  -3.456   3.516  0.00  0.00     0.013 A 
ATOM     16  C   UNL d   1       0.950  -3.039   3.745  0.00  0.00    -0.059 A 
ATOM     17  C   UNL d   1       0.365  -2.106   2.876  0.00  0.00     0.036 A 
ATOM     18  C   UNL d   1       0.203  -3.559   4.938  0.00  0.00     0.048 C 
ENDBRANCH   3  11
BRANCH   4  19
ATOM     19  C   UNL d   1      -1.379   3.634  -2.435  0.00  0.00     0.311 C 
BRANCH  19  20
ATOM     20  C   UNL d   1      -1.130   4.069  -3.863  0.00  0.00    -0.027 A 
ATOM     21  C   UNL d   1      -1.259   3.141  -4.912  0.00  0.00     0.048 A 
ATOM     22  C   UNL d   1      -1.066   3.584  -6.202  0.00  0.00     0.105 A 
ATOM     23  O   UNL d   1      -1.153   2.821  -7.324  0.00  0.00    -0.323 OA
ATOM     24  C   UNL d   1      -0.762   4.895  -6.479  0.00  0.00     0.105 A 
ATOM     25  C   UNL d   1      -0.867   3.804  -8.341  0.00  0.00     0.352 A 
ATOM     26  O   UNL d   1      -0.626   5.125  -7.813  0.00  0.00    -0.323 OA
ATOM     27  C   UNL d   1      -0.625   5.834  -5.480  0.00  0.00     0.040 A 
ATOM     28  C   UNL d   1      -0.806   5.412  -4.159  0.00  0.00     0.012 A 
ENDBRANCH  19  20
ENDBRANCH   4  19
TORSDOF 3
