REMARK  3 active torsions:
REMARK  status: ('A' for Active; 'I' for Inactive)
REMARK    1  A    between atoms: C_6  and  C_7 
REMARK    2  A    between atoms: C_7  and  O_11 
REMARK    3  A    between atoms: O_11  and  N_9 
ROOT
ATOM      1  C   UNL d   1      -0.714   0.496   0.164  0.00  0.00     0.024 A 
ATOM      2  C   UNL d   1      -1.136  -0.820   0.041  0.00  0.00     0.025 A 
ATOM      3  N   UNL d   1      -0.027  -1.623  -0.012  0.00  0.00    -0.353 N 
ATOM      4  C   UNL d   1       0.712   0.487   0.175  0.00  0.00     0.005 A 
ATOM      5  C   UNL d   1       1.117  -0.848   0.050  0.00  0.00     0.045 A 
ATOM      6  C   UNL d   1      -1.700   1.569   0.250  0.00  0.00     0.045 C 
ATOM      7  N   UNL d   1      -1.336   2.727   0.708  0.00  0.00    -0.261 N 
ATOM      8  HN  UNL d   1      -0.382   2.960   0.983  1.00  0.00     0.194 HD
ATOM      9  C   UNL d   1      -2.554  -1.282  -0.033  0.00  0.00     0.058 C 
ATOM     10  C   UNL d   1      -0.012  -3.066  -0.123  0.00  0.00     0.156 C 
ATOM     11  C   UNL d   1       1.707   1.484   0.257  0.00  0.00     0.014 A 
ATOM     12  C   UNL d   1       2.473  -1.217   0.005  0.00  0.00     0.030 A 
ATOM     13  C   UNL d   1      -3.111   1.198  -0.205  0.00  0.00     0.060 C 
ATOM     14  C   UNL d   1      -3.507  -0.155   0.396  0.00  0.00     0.012 C 
ATOM     15  C   UNL d   1       3.060   1.125   0.204  0.00  0.00     0.001 A 
ATOM     16  C   UNL d   1       3.436  -0.208   0.079  0.00  0.00     0.002 A 
ENDROOT
BRANCH   7  17
ATOM     17  O   UNL d   1      -2.423   3.622   0.778  0.00  0.00    -0.195 OA
BRANCH  17  18
ATOM     18  C   UNL d   1      -2.051   4.777   1.401  0.00  0.00     0.318 C 
ATOM     19  O   UNL d   1      -0.977   5.061   1.909  0.00  0.00    -0.257 OA
BRANCH  18  20
ATOM     20  C   UNL d   1      -3.204   5.696   1.415  0.00  0.00     0.084 A 
ATOM     21  C   UNL d   1      -3.783   6.144   0.218  0.00  0.00     0.052 A 
ATOM     22 CL   UNL d   1      -3.252   5.617  -1.341  0.00  0.00    -0.083 Cl
ATOM     23  C   UNL d   1      -4.824   7.082   0.244  0.00  0.00     0.025 A 
ATOM     24  C   UNL d   1      -5.285   7.589   1.457  0.00  0.00     0.003 A 
ATOM     25  C   UNL d   1      -4.718   7.146   2.649  0.00  0.00     0.025 A 
ATOM     26  C   UNL d   1      -3.685   6.199   2.634  0.00  0.00     0.052 A 
ATOM     27 CL   UNL d   1      -3.090   5.672   4.169  0.00  0.00    -0.083 Cl
ENDBRANCH  18  20
ENDBRANCH  17  18
ENDBRANCH   7  17
TORSDOF 3
