REMARK  3 active torsions:
REMARK  status: ('A' for Active; 'I' for Inactive)
REMARK    1  A    between atoms: S_8  and  C_3 
REMARK    2  A    between atoms: C_10  and  S_8 
REMARK    3  A    between atoms: C_11  and  C_10 
ROOT
ATOM      1  N   UNL d   1       0.593   0.785  -0.608  0.00  0.00    -0.349 N 
ATOM      2  HN  UNL d   1       1.447   1.132  -1.045  1.00  0.00     0.167 HD
ATOM      3  C   UNL d   1      -0.894  -1.045  -0.079  0.00  0.00     0.038 A 
ATOM      4  C   UNL d   1       0.275  -0.538  -0.643  0.00  0.00     0.025 A 
ATOM      5  N   UNL d   1      -1.377   1.234   0.628  0.00  0.00    -0.355 N 
ATOM      6  HN  UNL d   1      -1.988   1.895   1.108  1.00  0.00     0.166 HD
ATOM      7  C   UNL d   1      -0.252   1.621   0.018  0.00  0.00     0.077 A 
ATOM      8  C   UNL d   1      -1.655  -0.082   0.570  0.00  0.00     0.110 A 
ATOM      9  C   UNL d   1       1.309  -1.376  -1.340  0.00  0.00     0.070 C 
ATOM     10  C   UNL d   1       0.085   3.079   0.042  0.00  0.00     0.089 C 
ENDROOT
BRANCH   3  11
ATOM     11  S   UNL d   1      -1.375  -2.773  -0.122  0.00  0.00    -0.122 SA
BRANCH  11  12
ATOM     12  C   UNL d   1      -3.193  -2.669   0.010  0.00  0.00     0.118 C 
BRANCH  12  13
ATOM     13  C   UNL d   1      -3.895  -4.010   0.010  0.00  0.00    -0.043 A 
ATOM     14  C   UNL d   1      -4.295  -4.680  -1.164  0.00  0.00    -0.055 A 
ATOM     15  C   UNL d   1      -4.000  -4.184  -2.552  0.00  0.00     0.049 C 
ATOM     16  C   UNL d   1      -5.050  -5.864  -1.050  0.00  0.00     0.007 A 
ATOM     17  C   UNL d   1      -5.392  -6.388   0.193  0.00  0.00     0.001 A 
ATOM     18  C   UNL d   1      -4.973  -5.747   1.352  0.00  0.00     0.001 A 
ATOM     19  C   UNL d   1      -4.223  -4.575   1.260  0.00  0.00     0.008 A 
ENDBRANCH  12  13
ENDBRANCH  11  12
ENDBRANCH   3  11
TORSDOF 3
