REMARK  4 active torsions:
REMARK  status: ('A' for Active; 'I' for Inactive)
REMARK    1  A    between atoms: C_9  and  N_1 
REMARK    2  A    between atoms: S_6  and  C_8 
REMARK    3  A    between atoms: C_12  and  S_6 
REMARK    4  A    between atoms: C_8  and  C_9 
ROOT
ATOM      1  C   UNL d   1       0.944  -3.416   0.000  0.00  0.00     0.167 C 
ENDROOT
BRANCH   1   2
ATOM      2  S   UNL d   1       0.590  -5.149  -0.021  0.00  0.00     0.177 S 
ATOM      3  O   UNL d   1      -0.165  -5.470   1.175  0.00  0.00    -0.223 OA
ATOM      4  O   UNL d   1       0.059  -5.475  -1.333  0.00  0.00    -0.223 OA
BRANCH   2   5
ATOM      5  C   UNL d   1       2.179  -5.943   0.125  0.00  0.00     0.059 A 
ATOM      6  C   UNL d   1       2.677  -6.264   1.392  0.00  0.00     0.023 A 
ATOM      7  C   UNL d   1       3.880  -6.962   1.502  0.00  0.00     0.002 A 
ATOM      8  C   UNL d   1       4.578  -7.344   0.355  0.00  0.00     0.000 A 
ATOM      9  C   UNL d   1       4.073  -7.026  -0.908  0.00  0.00     0.002 A 
ATOM     10  C   UNL d   1       2.870  -6.330  -1.028  0.00  0.00     0.023 A 
ENDBRANCH   2   5
ENDBRANCH   1   2
BRANCH   1  11
ATOM     11  C   UNL d   1      -0.358  -2.626  -0.044  0.00  0.00     0.164 C 
BRANCH  11  12
ATOM     12  N   UNL d   1      -0.158  -1.184  -0.028  0.00  0.00    -0.294 N 
ATOM     13  N   UNL d   1       0.938  -0.699   0.594  0.00  0.00    -0.302 N 
ATOM     14  C   UNL d   1       0.841   0.630   0.464  0.00  0.00     0.041 A 
ATOM     15  HN  UNL d   1       1.676  -1.227   1.059  1.00  0.00     0.187 HD
ATOM     16  C   UNL d   1       1.890   1.513   1.027  0.00  0.00     0.071 C 
ATOM     17  C   UNL d   1      -0.328   0.979  -0.233  0.00  0.00     0.058 A 
ATOM     18  C   UNL d   1      -0.975  -0.198  -0.533  0.00  0.00     0.044 A 
ATOM     19 BR   UNL d   1      -0.872   2.725  -0.640  0.00  0.00    -0.047 Br
ATOM     20  C   UNL d   1      -2.267  -0.415  -1.233  0.00  0.00     0.071 C 
ENDBRANCH  11  12
ENDBRANCH   1  11
TORSDOF 4
