REMARK  4 active torsions:
REMARK  status: ('A' for Active; 'I' for Inactive)
REMARK    1  A    between atoms: C_3  and  N_1 
REMARK    2  A    between atoms: C_2  and  C_6 
REMARK    3  A    between atoms: O_12  and  C_8 
REMARK    4  A    between atoms: C_14  and  O_12 
ROOT
ATOM      1  O   UNL d   1      -2.236   3.507   2.706  0.00  0.00    -0.294 OA
ENDROOT
BRANCH   1   2
ATOM      2  C   UNL d   1      -1.644   2.748   1.700  0.00  0.00     0.148 A 
ATOM      3  C   UNL d   1      -2.296   1.581   1.329  0.00  0.00     0.059 A 
ATOM      4  C   UNL d   1      -1.770   0.836   0.272  0.00  0.00     0.041 A 
ATOM      5  C   UNL d   1      -0.611   1.292  -0.364  0.00  0.00     0.118 A 
ATOM      6  C   UNL d   1      -0.002   2.446   0.093  0.00  0.00     0.126 A 
ATOM      7  N   UNL d   1      -0.490   3.173   1.126  0.00  0.00    -0.344 N 
ATOM      8  HN  UNL d   1      -0.009   4.008   1.460  1.00  0.00     0.167 HD
BRANCH   5   9
ATOM      9  N   UNL d   1      -0.048   0.586  -1.503  0.00  0.00    -0.114 N 
ATOM     10  O   UNL d   1       0.952   1.073  -2.050  0.00  0.00    -0.532 OA
ATOM     11  O   UNL d   1      -0.606  -0.460  -1.864  0.00  0.00    -0.532 OA
ENDBRANCH   5   9
ENDBRANCH   1   2
BRANCH   1  12
ATOM     12  C   UNL d   1      -1.948   4.855   2.726  0.00  0.00     0.078 A 
ATOM     13  C   UNL d   1      -1.897   5.636   1.566  0.00  0.00     0.053 A 
ATOM     14  C   UNL d   1      -1.520   6.983   1.628  0.00  0.00     0.050 A 
ATOM     15  C   UNL d   1      -1.289   7.563   2.885  0.00  0.00     0.016 A 
ATOM     16  C   UNL d   1      -1.414   6.802   4.049  0.00  0.00     0.004 A 
ATOM     17  C   UNL d   1      -1.741   5.447   3.970  0.00  0.00     0.037 A 
BRANCH  14  18
ATOM     18  C   UNL d   1      -1.326   7.781   0.364  0.00  0.00     0.417 C 
ATOM     19  F   UNL d   1      -1.528   7.059  -0.776  0.00  0.00    -0.166 F 
ATOM     20  F   UNL d   1      -2.170   8.847   0.283  0.00  0.00    -0.166 F 
ATOM     21  F   UNL d   1      -0.067   8.292   0.259  0.00  0.00    -0.166 F 
ENDBRANCH  14  18
ENDBRANCH   1  12
TORSDOF 4
