REMARK  5 active torsions:
REMARK  status: ('A' for Active; 'I' for Inactive)
REMARK    1  A    between atoms: O_10  and  C_1 
REMARK    2  A    between atoms: C_16  and  N_2 
REMARK    3  A    between atoms: N_4  and  C_3 
REMARK    4  A    between atoms: C_8  and  C_13 
REMARK    5  A    between atoms: C_9  and  O_10 
ROOT
ATOM      1  O   UNL d   1      -0.808  -2.354   0.013  0.00  0.00    -0.289 OA
ENDROOT
BRANCH   1   2
ATOM      2  C   UNL d   1      -1.896  -2.723  -0.742  0.00  0.00     0.111 A 
ATOM      3  C   UNL d   1      -2.602  -3.885  -0.435  0.00  0.00     0.137 A 
ATOM      4  C   UNL d   1      -3.696  -4.314  -1.203  0.00  0.00     0.055 A 
ATOM      5  C   UNL d   1      -4.090  -3.565  -2.323  0.00  0.00     0.050 A 
ATOM      6  C   UNL d   1      -3.383  -2.395  -2.639  0.00  0.00     0.019 A 
ATOM      7  C   UNL d   1      -2.288  -1.992  -1.872  0.00  0.00     0.041 A 
BRANCH   3   8
ATOM      8  N   UNL d   1      -2.215  -4.695   0.701  0.00  0.00    -0.113 N 
ATOM      9  O   UNL d   1      -1.070  -5.171   0.701  0.00  0.00    -0.532 OA
ATOM     10  O   UNL d   1      -3.078  -4.895   1.571  0.00  0.00    -0.532 OA
ENDBRANCH   3   8
BRANCH   5  11
ATOM     11  C   UNL d   1      -5.235  -3.996  -3.208  0.00  0.00     0.417 C 
ATOM     12  F   UNL d   1      -5.782  -5.187  -2.843  0.00  0.00    -0.166 F 
ATOM     13  F   UNL d   1      -6.253  -3.094  -3.212  0.00  0.00    -0.166 F 
ATOM     14  F   UNL d   1      -4.852  -4.138  -4.505  0.00  0.00    -0.166 F 
ENDBRANCH   5  11
ENDBRANCH   1   2
BRANCH   1  15
ATOM     15  C   UNL d   1      -0.458  -1.069   0.134  0.00  0.00     0.171 C 
ATOM     16  N   UNL d   1       0.872  -0.661   0.215  0.00  0.00    -0.234 N 
ATOM     17  N   UNL d   1       0.961   0.691   0.373  0.00  0.00    -0.296 N 
ATOM     18  C   UNL d   1      -0.293   1.136   0.288  0.00  0.00     0.026 C 
ATOM     19  HN  UNL d   1       1.806   1.243   0.524  1.00  0.00     0.187 HD
ATOM     20  C   UNL d   1      -1.216   0.078   0.250  0.00  0.00     0.084 C 
ATOM     21  C   UNL d   1      -0.581   2.588   0.211  0.00  0.00     0.070 C 
BRANCH  16  22
ATOM     22  C   UNL d   1       2.057  -1.434   0.068  0.00  0.00     0.059 A 
ATOM     23  C   UNL d   1       2.070  -2.618  -0.681  0.00  0.00     0.031 A 
ATOM     24  C   UNL d   1       3.258  -3.339  -0.830  0.00  0.00     0.002 A 
ATOM     25  C   UNL d   1       4.428  -2.899  -0.212  0.00  0.00     0.000 A 
ATOM     26  C   UNL d   1       4.421  -1.723   0.535  0.00  0.00     0.002 A 
ATOM     27  C   UNL d   1       3.246  -0.979   0.658  0.00  0.00     0.031 A 
ENDBRANCH  16  22
ENDBRANCH   1  15
TORSDOF 5
