REMARK  5 active torsions:
REMARK  status: ('A' for Active; 'I' for Inactive)
REMARK    1  A    between atoms: C_6  and  C_1 
REMARK    2  A    between atoms: N_14  and  N_4 
REMARK    3  A    between atoms: C_15  and  C_6 
REMARK    4  A    between atoms: C_8  and  C_11 
REMARK    5  A    between atoms: C_20  and  N_14 
ROOT
ATOM      1  C   UNL d   1       3.240   1.627   0.578  0.00  0.00     0.175 C 
ATOM      2  N   UNL d   1       2.512   2.050   1.572  0.00  0.00    -0.304 N 
ATOM      3  HN  UNL d   1       2.927   2.623   2.307  1.00  0.00     0.182 HD
ATOM      4  C   UNL d   1       2.626   0.842  -0.467  0.00  0.00     0.123 C 
ATOM      5  N   UNL d   1       2.137   0.181  -1.289  0.00  0.00    -0.190 NA
ENDROOT
BRANCH   1   6
ATOM      6  C   UNL d   1       4.692   2.010   0.531  0.00  0.00     0.220 C 
ATOM      7  O   UNL d   1       5.191   2.256  -0.561  0.00  0.00    -0.284 OA
BRANCH   6   8
ATOM      8  C   UNL d   1       5.487   2.132   1.780  0.00  0.00     0.017 A 
ATOM      9  C   UNL d   1       5.168   1.426   2.944  0.00  0.00     0.017 A 
ATOM     10  C   UNL d   1       5.932   1.604   4.105  0.00  0.00     0.025 A 
ATOM     11  C   UNL d   1       7.015   2.482   4.097  0.00  0.00     0.034 A 
ATOM     12  C   UNL d   1       7.352   3.174   2.936  0.00  0.00     0.025 A 
ATOM     13 CL   UNL d   1       7.937   2.712   5.530  0.00  0.00    -0.084 Cl
ATOM     14  C   UNL d   1       6.595   2.996   1.776  0.00  0.00     0.017 A 
ENDBRANCH   6   8
ENDBRANCH   1   6
BRANCH   2  15
ATOM     15  N   UNL d   1       1.187   1.719   1.622  0.00  0.00    -0.205 NA
ATOM     16  H   UNL d   1       0.971   0.762   1.918  0.00  0.00     0.153 HD
BRANCH  15  17
ATOM     17  C   UNL d   1       0.371   2.643   2.330  0.00  0.00     0.028 A 
ATOM     18  C   UNL d   1      -0.795   2.206   2.981  0.00  0.00     0.038 A 
ATOM     19  C   UNL d   1      -1.669   3.105   3.627  0.00  0.00    -0.008 A 
ATOM     20  C   UNL d   1      -1.328   4.471   3.605  0.00  0.00     0.014 A 
ATOM     21  C   UNL d   1      -0.193   4.925   2.934  0.00  0.00     0.003 A 
ATOM     22  C   UNL d   1       0.640   4.016   2.290  0.00  0.00     0.025 A 
BRANCH  19  23
ATOM     23  C   UNL d   1      -2.912   2.627   4.275  0.00  0.00     0.045 A 
ATOM     24  N   UNL d   1      -2.881   1.375   4.787  0.00  0.00    -0.345 N 
ATOM     25  C   UNL d   1      -4.008   0.916   5.367  0.00  0.00     0.077 A 
ATOM     26  HN  UNL d   1      -2.039   0.801   4.735  1.00  0.00     0.167 HD
ATOM     27  C   UNL d   1      -3.999  -0.469   5.936  0.00  0.00     0.089 C 
ATOM     28  N   UNL d   1      -5.157   1.606   5.466  0.00  0.00    -0.356 N 
ATOM     29  C   UNL d   1      -5.154   2.839   4.938  0.00  0.00     0.091 A 
ATOM     30  HN  UNL d   1      -5.984   1.214   5.917  1.00  0.00     0.166 HD
ATOM     31  C   UNL d   1      -4.059   3.401   4.330  0.00  0.00     0.047 A 
ENDBRANCH  19  23
ENDBRANCH  15  17
ENDBRANCH   2  15
TORSDOF 5
