REMARK  3 active torsions:
REMARK  status: ('A' for Active; 'I' for Inactive)
REMARK    1  A    between atoms: C_9  and  C_3 
REMARK       I    between atoms: C_4  and  N_8 
REMARK    2  A    between atoms: C_10  and  C_4 
REMARK    3  A    between atoms: N_8  and  C_16 
ROOT
ATOM      1  C   UNL d   1       1.976  -2.347   0.141  0.00  0.00    -0.009 A 
ATOM      2  C   UNL d   1       1.684  -3.375  -0.767  0.00  0.00     0.016 A 
ATOM      3  C   UNL d   1       3.105  -2.493   0.954  0.00  0.00     0.016 A 
ATOM      4  C   UNL d   1       3.681  -4.599  -0.116  0.00  0.00     0.035 A 
ATOM      5  C   UNL d   1       3.950  -3.603   0.823  0.00  0.00     0.030 A 
ATOM      6  C   UNL d   1       2.524  -4.489  -0.893  0.00  0.00     0.030 A 
ENDROOT
BRANCH   4   7
ATOM      7  N   UNL d   1       4.516  -5.714  -0.342  0.00  0.00    -0.323 N 
ATOM      8  C   UNL d   1       5.736  -5.971   0.262  0.00  0.00     0.256 C 
ATOM      9  O   UNL d   1       6.294  -5.290   1.112  0.00  0.00    -0.267 OA
ATOM     10  H   UNL d   1       4.167  -6.394  -1.003  0.00  0.00     0.169 HD
BRANCH   8  11
ATOM     11  C   UNL d   1       6.400  -7.238  -0.154  0.00  0.00     0.032 A 
ATOM     12  C   UNL d   1       6.330  -7.730  -1.463  0.00  0.00     0.018 A 
ATOM     13  C   UNL d   1       6.949  -8.943  -1.783  0.00  0.00     0.025 A 
ATOM     14  C   UNL d   1       7.643  -9.652  -0.802  0.00  0.00     0.034 A 
ATOM     15  C   UNL d   1       7.747  -9.150   0.493  0.00  0.00     0.025 A 
ATOM     16 CL   UNL d   1       8.377 -11.158  -1.193  0.00  0.00    -0.084 Cl
ATOM     17  C   UNL d   1       7.132  -7.939   0.816  0.00  0.00     0.018 A 
ENDBRANCH   8  11
ENDBRANCH   4   7
BRANCH   1  18
ATOM     18  C   UNL d   1       1.127  -1.155   0.178  0.00  0.00     0.049 A 
ATOM     19  N   UNL d   1       0.014  -1.050  -0.648  0.00  0.00    -0.353 N 
ATOM     20  C   UNL d   1      -0.557   0.125  -0.499  0.00  0.00     0.047 A 
ATOM     21  HN  UNL d   1      -0.313  -1.780  -1.280  1.00  0.00     0.166 HD
ATOM     22  S   UNL d   1       0.178   1.165   0.651  0.00  0.00    -0.087 SA
ATOM     23  C   UNL d   1      -1.751   0.580  -1.260  0.00  0.00     0.076 C 
ATOM     24  C   UNL d   1       1.361  -0.038   0.959  0.00  0.00     0.081 A 
ENDBRANCH   1  18
TORSDOF 3
