REMARK  3 active torsions:
REMARK  status: ('A' for Active; 'I' for Inactive)
REMARK    1  A    between atoms: O_4  and  N_1 
REMARK       I    between atoms: N_11  and  C_6 
REMARK       I    between atoms: N_12  and  C_6 
REMARK    2  A    between atoms: N_9  and  N_7 
REMARK    3  A    between atoms: C_14  and  C_13 
ROOT
ATOM      1  N   UNL d   1       3.438  -1.403  -0.453  0.00  0.00     0.002 N 
ATOM      2  O   UNL d   1       2.952  -1.353  -1.574  0.00  0.00    -0.511 OA
ATOM      3  O   UNL d   1       2.952  -1.590   0.658  0.00  0.00    -0.511 OA
ENDROOT
BRANCH   1   4
ATOM      4  O   UNL d   1       4.811  -1.244  -0.465  0.00  0.00    -0.231 OA
ATOM      5  H   UNL d   1       4.853  -1.149  -1.429  0.00  0.00     0.251 HD
ENDBRANCH   1   4
TORSDOF 3
