REMARK  5 active torsions:
REMARK  status: ('A' for Active; 'I' for Inactive)
REMARK    1  A    between atoms: S_12  and  C_3 
REMARK    2  A    between atoms: C_8  and  C_4 
REMARK    3  A    between atoms: O_16  and  C_8 
REMARK    4  A    between atoms: N_15  and  C_9 
REMARK    5  A    between atoms: C_20  and  O_16 
ROOT
ATOM      1  C   UNL d   1       0.407   0.655   0.068  0.00  0.00     0.046 C 
ATOM      2  C   UNL d   1       0.179  -0.778  -0.060  0.00  0.00    -0.018 C 
ATOM      3  C   UNL d   1       1.762   0.933   0.031  0.00  0.00     0.056 C 
ATOM      4  C   UNL d   1       1.342  -1.520   0.043  0.00  0.00     0.088 C 
ATOM      5  S   UNL d   1       2.708  -0.495   0.037  0.00  0.00    -0.076 SA
ATOM      6  C   UNL d   1      -0.697   1.622   0.217  0.00  0.00     0.192 C 
ATOM      7  C   UNL d   1      -2.039   0.934   0.230  0.00  0.00     0.008 C 
ATOM      8  C   UNL d   1      -2.977   1.373   1.086  0.00  0.00     0.095 C 
ATOM      9  C   UNL d   1      -1.209  -1.336  -0.207  0.00  0.00     0.046 C 
ATOM     10  C   UNL d   1      -2.149  -0.241  -0.699  0.00  0.00     0.049 C 
ATOM     11  O   UNL d   1      -0.571   2.825   0.400  0.00  0.00    -0.287 OA
ENDROOT
BRANCH   4  12
ATOM     12  C   UNL d   1       1.444  -2.966   0.192  0.00  0.00     0.300 C 
ATOM     13  O   UNL d   1       0.491  -3.725   0.299  0.00  0.00    -0.259 OA
BRANCH  12  14
ATOM     14  O   UNL d   1       2.746  -3.356   0.320  0.00  0.00    -0.317 OA
BRANCH  14  15
ATOM     15  C   UNL d   1       2.952  -4.619   0.960  0.00  0.00     0.174 C 
ATOM     16  C   UNL d   1       2.957  -4.389   2.462  0.00  0.00     0.034 C 
ENDBRANCH  14  15
ENDBRANCH  12  14
ENDBRANCH   4  12
BRANCH   3  17
ATOM     17  S   UNL d   1       2.567   2.497  -0.068  0.00  0.00    -0.126 SA
ATOM     18  C   UNL d   1       2.854   2.841   1.680  0.00  0.00     0.096 C 
ENDBRANCH   3  17
BRANCH   8  19
ATOM     19  N   UNL d   1      -4.214   0.840   1.436  0.00  0.00    -0.398 N 
ATOM     20  C   UNL d   1      -4.531  -0.589   1.424  0.00  0.00     0.148 C 
ATOM     21  C   UNL d   1      -5.240   1.659   2.083  0.00  0.00     0.148 C 
ENDBRANCH   8  19
TORSDOF 5
