REMARK  6 active torsions:
REMARK  status: ('A' for Active; 'I' for Inactive)
REMARK    1  A    between atoms: C_2  and  C_1 
REMARK    2  A    between atoms: C_4  and  C_3 
REMARK    3  A    between atoms: C_5  and  C_10 
REMARK    4  A    between atoms: S_11  and  C_7 
REMARK    5  A    between atoms: C_23  and  S_11 
REMARK    6  A    between atoms: C_24  and  C_23 
ROOT
ATOM      1  C   UNL d   1      -0.565  -0.045  -0.591  0.00  0.00     0.082 A 
ATOM      2  C   UNL d   1       1.722  -0.449   0.173  0.00  0.00     0.064 A 
ATOM      3  C   UNL d   1       0.550  -0.899  -0.439  0.00  0.00     0.036 A 
ATOM      4  C   UNL d   1      -0.449   1.261  -0.121  0.00  0.00     0.085 A 
ATOM      5  N   UNL d   1       0.684   1.701   0.482  0.00  0.00    -0.359 N 
ATOM      6  HN  UNL d   1       0.746   2.659   0.827  1.00  0.00     0.166 HD
ATOM      7  C   UNL d   1       1.729   0.855   0.620  0.00  0.00     0.105 A 
ENDROOT
BRANCH   4   8
ATOM      8  S   UNL d   1      -1.768   2.469  -0.218  0.00  0.00    -0.107 SA
BRANCH   8   9
ATOM      9  C   UNL d   1      -0.800   4.011  -0.104  0.00  0.00     0.119 C 
BRANCH   9  10
ATOM     10  C   UNL d   1      -1.655   5.255  -0.001  0.00  0.00    -0.048 A 
ATOM     11  C   UNL d   1      -1.951   5.809   1.256  0.00  0.00     0.024 A 
ATOM     12  C   UNL d   1      -2.681   7.004   1.373  0.00  0.00     0.048 A 
ATOM     13  C   UNL d   1      -3.129   7.639   0.205  0.00  0.00     0.016 A 
ATOM     14  C   UNL d   1      -2.856   7.089  -1.046  0.00  0.00     0.001 A 
ATOM     15  C   UNL d   1      -2.128   5.902  -1.150  0.00  0.00     0.008 A 
BRANCH  12  16
ATOM     16  C   UNL d   1      -2.974   7.614   2.722  0.00  0.00     0.417 C 
ATOM     17  F   UNL d   1      -2.470   6.899   3.767  0.00  0.00    -0.166 F 
ATOM     18  F   UNL d   1      -2.458   8.867   2.849  0.00  0.00    -0.166 F 
ATOM     19  F   UNL d   1      -4.309   7.733   2.961  0.00  0.00    -0.166 F 
ENDBRANCH  12  16
ENDBRANCH   9  10
ENDBRANCH   8   9
ENDBRANCH   4   8
BRANCH   1  20
ATOM     20  C   UNL d   1      -1.812  -0.558  -1.250  0.00  0.00     0.420 C 
ATOM     21  F   UNL d   1      -1.690  -1.859  -1.655  0.00  0.00    -0.166 F 
ATOM     22  F   UNL d   1      -2.901  -0.544  -0.435  0.00  0.00    -0.166 F 
ATOM     23  F   UNL d   1      -2.150   0.129  -2.374  0.00  0.00    -0.166 F 
ENDBRANCH   1  20
BRANCH   2  24
ATOM     24  C   UNL d   1       2.940  -1.303   0.353  0.00  0.00     0.418 C 
ATOM     25  F   UNL d   1       2.796  -2.561  -0.146  0.00  0.00    -0.166 F 
ATOM     26  F   UNL d   1       4.034  -0.779  -0.263  0.00  0.00    -0.166 F 
ATOM     27  F   UNL d   1       3.282  -1.454   1.661  0.00  0.00    -0.166 F 
ENDBRANCH   2  24
TORSDOF 6
