REMARK  3 active torsions:
REMARK  status: ('A' for Active; 'I' for Inactive)
REMARK    1  A    between atoms: O_2  and  C_1 
REMARK    2  A    between atoms: C_3  and  O_2 
REMARK    3  A    between atoms: N_12  and  C_8 
ROOT
ATOM      1  C   UNL d   1       0.370  -1.040  -0.094  0.00  0.00     0.169 A 
ATOM      2  N   UNL d   1      -0.785  -1.114   0.614  0.00  0.00    -0.345 N 
ATOM      3  HN  UNL d   1      -1.125  -2.000   0.989  1.00  0.00     0.167 HD
ATOM      4  C   UNL d   1       0.887   0.154  -0.637  0.00  0.00     0.058 A 
ATOM      5  C   UNL d   1      -1.466   0.035   0.799  0.00  0.00     0.090 A 
ATOM      6  C   UNL d   1       0.122   1.309  -0.435  0.00  0.00     0.029 A 
ATOM      7  C   UNL d   1      -1.058   1.258   0.302  0.00  0.00     0.019 A 
ENDROOT
BRANCH   1   8
ATOM      8  O   UNL d   1       0.920  -2.276  -0.353  0.00  0.00    -0.289 OA
BRANCH   8   9
ATOM      9  C   UNL d   1       2.238  -2.523  -0.052  0.00  0.00     0.116 A 
ATOM     10  C   UNL d   1       3.005  -1.868   0.916  0.00  0.00     0.153 A 
ATOM     11  C   UNL d   1       4.353  -2.173   1.081  0.00  0.00     0.087 A 
ATOM     12  F   UNL d   1       2.479  -0.913   1.696  0.00  0.00    -0.203 F 
ATOM     13  C   UNL d   1       4.928  -3.165   0.294  0.00  0.00     0.119 A 
ATOM     14  C   UNL d   1       4.172  -3.863  -0.642  0.00  0.00     0.045 A 
ATOM     15  F   UNL d   1       6.227  -3.451   0.437  0.00  0.00    -0.206 F 
ATOM     16  C   UNL d   1       2.827  -3.544  -0.811  0.00  0.00     0.043 A 
ENDBRANCH   8   9
ENDBRANCH   1   8
BRANCH   4  17
ATOM     17  N   UNL d   1       1.950   0.221  -1.560  0.00  0.00    -0.299 NA
ATOM     18  H   UNL d   1       2.604  -0.551  -1.500  0.00  0.00     0.124 HD
ATOM     19  H   UNL d   1       2.424   1.120  -1.560  0.00  0.00     0.124 HD
ENDBRANCH   4  17
TORSDOF 3
