REMARK  6 active torsions:
REMARK  status: ('A' for Active; 'I' for Inactive)
REMARK    1  A    between atoms: C_1  and  C_3 
REMARK    2  A    between atoms: C_4  and  N_10 
REMARK    3  A    between atoms: N_9  and  C_16 
REMARK    4  A    between atoms: C_14  and  O_30 
REMARK    5  A    between atoms: C_18  and  N_25 
REMARK    6  A    between atoms: C_19  and  O_28 
ROOT
ATOM      1  C   UNL d   1       1.199   1.446  -0.041  0.00  0.00     0.024 A 
ATOM      2  C   UNL d   1      -0.072   0.689  -0.012  0.00  0.00    -0.006 A 
ATOM      3  C   UNL d   1       2.389   0.777  -0.143  0.00  0.00     0.100 A 
ATOM      4  C   UNL d   1      -0.056  -0.701   0.043  0.00  0.00     0.046 A 
ATOM      5  C   UNL d   1      -1.321   1.338  -0.071  0.00  0.00     0.016 A 
ATOM      6  N   UNL d   1       2.411  -0.631  -0.086  0.00  0.00    -0.268 N 
ATOM      7  C   UNL d   1       1.236  -1.406   0.056  0.00  0.00     0.264 A 
ATOM      8  C   UNL d   1      -1.247  -1.446   0.051  0.00  0.00     0.054 A 
ATOM      9  C   UNL d   1      -2.516   0.612  -0.077  0.00  0.00     0.037 A 
ATOM     10  O   UNL d   1       1.197  -2.630   0.137  0.00  0.00    -0.267 OA
ATOM     11  C   UNL d   1      -2.475  -0.783  -0.012  0.00  0.00     0.103 A 
ENDROOT
BRANCH   1  12
ATOM     12  C   UNL d   1       1.227   2.929   0.036  0.00  0.00    -0.019 A 
ATOM     13  C   UNL d   1       1.234   3.695  -1.133  0.00  0.00     0.052 A 
ATOM     14  C   UNL d   1       1.342   5.088  -1.066  0.00  0.00     0.102 A 
ATOM     15  C   UNL d   1       1.408   5.724   0.192  0.00  0.00     0.101 A 
ATOM     16  C   UNL d   1       1.358   4.952   1.359  0.00  0.00     0.040 A 
ATOM     17  C   UNL d   1       1.276   3.562   1.282  0.00  0.00     0.015 A 
BRANCH  14  18
ATOM     18  O   UNL d   1       1.409   5.904  -2.170  0.00  0.00    -0.353 OA
ATOM     19  C   UNL d   1       1.390   5.280  -3.448  0.00  0.00     0.210 C 
ENDBRANCH  14  18
BRANCH  15  20
ATOM     20  O   UNL d   1       1.533   7.090   0.177  0.00  0.00    -0.353 OA
ATOM     21  C   UNL d   1       1.619   7.758   1.428  0.00  0.00     0.210 C 
ENDBRANCH  15  20
ENDBRANCH   1  12
BRANCH   3  22
ATOM     22  N   UNL d   1       3.587   1.485  -0.249  0.00  0.00    -0.287 NA
ATOM     23  H   UNL d   1       3.565   2.422   0.143  0.00  0.00     0.125 HD
ATOM     24  H   UNL d   1       4.392   0.960   0.079  0.00  0.00     0.125 HD
ENDBRANCH   3  22
BRANCH   6  25
ATOM     25  C   UNL d   1       3.637  -1.386  -0.167  0.00  0.00     0.043 A 
ATOM     26  C   UNL d   1       4.515  -1.215  -1.246  0.00  0.00     0.030 A 
ATOM     27  C   UNL d   1       5.656  -2.014  -1.361  0.00  0.00     0.002 A 
ATOM     28  C   UNL d   1       5.938  -2.976  -0.392  0.00  0.00     0.000 A 
ATOM     29  C   UNL d   1       5.091  -3.131   0.703  0.00  0.00     0.002 A 
ATOM     30  C   UNL d   1       3.946  -2.342   0.812  0.00  0.00     0.030 A 
ENDBRANCH   6  25
BRANCH  11  31
ATOM     31  N   UNL d   1      -3.726  -1.550  -0.019  0.00  0.00    -0.116 N 
ATOM     32  O   UNL d   1      -3.648  -2.784   0.044  0.00  0.00    -0.532 OA
ATOM     33  O   UNL d   1      -4.788  -0.915  -0.087  0.00  0.00    -0.532 OA
ENDBRANCH  11  31
TORSDOF 6
