REMARK  3 active torsions:
REMARK  status: ('A' for Active; 'I' for Inactive)
REMARK       I    between atoms: C_6  and  N_1 
REMARK    1  A    between atoms: C_8  and  C_4 
REMARK    2  A    between atoms: C_10  and  C_6 
REMARK    3  A    between atoms: C_9  and  C_8 
ROOT
ATOM      1  N   UNL d   1      -0.231  -1.060  -0.102  0.00  0.00    -0.223 N 
ATOM      2  N   UNL d   1       1.082  -0.704  -0.182  0.00  0.00    -0.295 N 
ATOM      3  HN  UNL d   1       1.882  -1.325  -0.306  1.00  0.00     0.187 HD
ATOM      4  C   UNL d   1      -0.202   1.171   0.029  0.00  0.00    -0.006 A 
ATOM      5  C   UNL d   1      -1.044   0.067   0.015  0.00  0.00     0.042 A 
ATOM      6  C   UNL d   1      -0.584  -2.442  -0.141  0.00  0.00     0.283 C 
ATOM      7  C   UNL d   1       1.103   0.622  -0.067  0.00  0.00     0.031 A 
ATOM      8  O   UNL d   1      -1.743  -2.720   0.173  0.00  0.00    -0.265 OA
ATOM      9  C   UNL d   1      -2.529  -0.013   0.058  0.00  0.00     0.071 C 
ATOM     10  C   UNL d   1       2.409   1.333  -0.061  0.00  0.00     0.070 C 
ENDROOT
BRANCH   4  11
ATOM     11  C   UNL d   1      -0.554   2.624   0.056  0.00  0.00     0.086 C 
BRANCH  11  12
ATOM     12  C   UNL d   1      -0.941   3.057   1.452  0.00  0.00     0.006 A 
ATOM     13  C   UNL d   1      -0.236   2.649   2.596  0.00  0.00     0.124 A 
ATOM     14  F   UNL d   1       0.811   1.819   2.502  0.00  0.00    -0.205 F 
ATOM     15  C   UNL d   1      -0.551   3.108   3.876  0.00  0.00     0.043 A 
ATOM     16  C   UNL d   1      -1.575   4.027   4.050  0.00  0.00     0.005 A 
ATOM     17  C   UNL d   1      -2.270   4.488   2.937  0.00  0.00     0.024 A 
ATOM     18  C   UNL d   1      -1.955   4.016   1.654  0.00  0.00     0.043 A 
ATOM     19 CL   UNL d   1      -2.844   4.712   0.341  0.00  0.00    -0.084 Cl
ENDBRANCH  11  12
ENDBRANCH   4  11
BRANCH   6  20
ATOM     20  C   UNL d   1       0.381  -3.463  -0.556  0.00  0.00     0.074 A 
ATOM     21  S   UNL d   1       0.268  -5.046   0.094  0.00  0.00    -0.097 SA
ATOM     22  C   UNL d   1       1.614  -5.588  -0.813  0.00  0.00     0.050 A 
ATOM     23  C   UNL d   1       2.128  -4.600  -1.617  0.00  0.00     0.009 A 
ATOM     24  C   UNL d   1       1.418  -3.373  -1.470  0.00  0.00     0.025 A 
ENDBRANCH   6  20
TORSDOF 3
