REMARK  0 active torsions:
REMARK  status: ('A' for Active; 'I' for Inactive)
ROOT
ATOM      1  C   UNL d   1       1.263   0.693  -0.001  0.00  0.00     0.071 A 
ATOM      2  C   UNL d   1       1.265  -0.704  -0.002  0.00  0.00     0.071 A 
ATOM      3  C   UNL d   1      -0.011   1.437  -0.001  0.00  0.00     0.197 A 
ATOM      4  C   UNL d   1      -0.012  -1.450  -0.003  0.00  0.00     0.197 A 
ATOM      5  C   UNL d   1      -1.282   0.691  -0.001  0.00  0.00     0.029 A 
ATOM      6  C   UNL d   1      -1.285  -0.701  -0.001  0.00  0.00     0.029 A 
ATOM      7  C   UNL d   1       2.480   1.385   0.000  0.00  0.00     0.131 A 
ATOM      8  C   UNL d   1       2.489  -1.384  -0.003  0.00  0.00     0.131 A 
ATOM      9  O   UNL d   1      -0.035   2.661  -0.002  0.00  0.00    -0.286 OA
ATOM     10  O   UNL d   1      -0.036  -2.674  -0.005  0.00  0.00    -0.286 OA
ATOM     11  C   UNL d   1       3.694   0.702   0.000  0.00  0.00     0.046 A 
ATOM     12  C   UNL d   1       3.698  -0.689  -0.001  0.00  0.00     0.046 A 
ATOM     13  F   UNL d   1       2.527   2.723   0.002  0.00  0.00    -0.205 F 
ATOM     14  F   UNL d   1       2.548  -2.722  -0.004  0.00  0.00    -0.205 F 
ATOM     15  C   UNL d   1      -2.493   1.397   0.001  0.00  0.00     0.016 A 
ATOM     16  C   UNL d   1      -2.505  -1.392  -0.001  0.00  0.00     0.016 A 
ATOM     17  C   UNL d   1      -3.705   0.707   0.001  0.00  0.00     0.001 A 
ATOM     18  C   UNL d   1      -3.711  -0.686   0.001  0.00  0.00     0.001 A 
ENDROOT
TORSDOF 0
