REMARK  6 active torsions:
REMARK  status: ('A' for Active; 'I' for Inactive)
REMARK    1  A    between atoms: C_2  and  C_1 
REMARK       I    between atoms: N_3  and  C_2 
REMARK       I    between atoms: C_4  and  N_3 
REMARK       I    between atoms: N_8  and  C_4 
REMARK    2  A    between atoms: O_18  and  C_5 
REMARK    3  A    between atoms: O_19  and  C_6 
REMARK    4  A    between atoms: C_7  and  N_8 
REMARK    5  A    between atoms: O_20  and  C_13 
REMARK    6  A    between atoms: O_21  and  C_14 
ROOT
ATOM      1  C   UNL d   1       0.779  -3.360   1.294  0.00  0.00     0.244 C 
ATOM      2  N   UNL d   1      -0.336  -3.837   1.940  0.00  0.00    -0.175 NA
ATOM      3  C   UNL d   1      -1.337  -4.289   1.120  0.00  0.00     0.305 C 
ATOM      4  N   UNL d   1      -2.291  -3.348   0.823  0.00  0.00    -0.308 N 
ATOM      5  O   UNL d   1       1.593  -4.102   0.749  0.00  0.00    -0.273 OA
ATOM      6  O   UNL d   1      -1.403  -5.492   0.859  0.00  0.00    -0.253 OA
ATOM      7  H   UNL d   1       0.001  -4.740   2.266  0.00  0.00     0.141 HD
ATOM      8  H   UNL d   1      -2.441  -2.688   1.574  0.00  0.00     0.170 HD
ENDROOT
BRANCH   1   9
ATOM      9  C   UNL d   1       1.193  -1.966   1.551  0.00  0.00     0.096 A 
ATOM     10  C   UNL d   1       2.208  -1.734   2.503  0.00  0.00     0.103 A 
ATOM     11  C   UNL d   1       2.822  -0.475   2.558  0.00  0.00     0.047 A 
ATOM     12 BR   UNL d   1       4.069   0.013   3.906  0.00  0.00    -0.048 Br
ATOM     13  C   UNL d   1       2.506   0.499   1.611  0.00  0.00     0.048 A 
ATOM     14  C   UNL d   1       1.492   0.269   0.681  0.00  0.00     0.069 A 
ATOM     15  C   UNL d   1       0.775  -0.937   0.693  0.00  0.00     0.108 A 
ATOM     16 CL   UNL d   1       1.209   1.506  -0.493  0.00  0.00    -0.081 Cl
BRANCH  10  17
ATOM     17  O   UNL d   1       2.454  -2.690   3.460  0.00  0.00    -0.353 OA
ATOM     18  C   UNL d   1       3.677  -3.397   3.239  0.00  0.00     0.210 C 
ENDBRANCH  10  17
BRANCH  15  19
ATOM     19  O   UNL d   1      -0.302  -1.161  -0.126  0.00  0.00    -0.353 OA
ATOM     20  C   UNL d   1      -1.369  -0.232   0.110  0.00  0.00     0.210 C 
ENDBRANCH  15  19
ENDBRANCH   1   9
BRANCH   4  21
ATOM     21  C   UNL d   1      -3.454  -3.632   0.059  0.00  0.00     0.103 A 
ATOM     22  C   UNL d   1      -4.678  -3.128   0.531  0.00  0.00     0.097 A 
ATOM     23  C   UNL d   1      -5.876  -3.445  -0.119  0.00  0.00     0.039 A 
ATOM     24  C   UNL d   1      -5.863  -4.279  -1.238  0.00  0.00     0.006 A 
ATOM     25  C   UNL d   1      -4.650  -4.744  -1.745  0.00  0.00     0.039 A 
ATOM     26  C   UNL d   1      -3.448  -4.385  -1.124  0.00  0.00     0.097 A 
BRANCH  22  27
ATOM     27  O   UNL d   1      -4.629  -2.276   1.613  0.00  0.00    -0.354 OA
ATOM     28  C   UNL d   1      -5.570  -2.597   2.635  0.00  0.00     0.210 C 
ENDBRANCH  22  27
BRANCH  26  29
ATOM     29  O   UNL d   1      -2.300  -4.769  -1.769  0.00  0.00    -0.354 OA
ATOM     30  C   UNL d   1      -1.706  -3.650  -2.430  0.00  0.00     0.210 C 
ENDBRANCH  26  29
ENDBRANCH   4  21
TORSDOF 6
