REMARK  6 active torsions:
REMARK  status: ('A' for Active; 'I' for Inactive)
REMARK    1  A    between atoms: N_8  and  C_1 
REMARK       I    between atoms: C_9  and  N_8 
REMARK    2  A    between atoms: C_15  and  C_9 
REMARK    3  A    between atoms: C_11  and  O_17 
REMARK    4  A    between atoms: O_25  and  C_13 
REMARK    5  A    between atoms: O_26  and  C_14 
REMARK    6  A    between atoms: O_17  and  C_24 
ROOT
ATOM      1  C   UNL d   1       2.340   0.624   0.346  0.00  0.00     0.155 C 
ATOM      2  S   UNL d   1       2.407  -0.927   1.118  0.00  0.00    -0.011 SA
ATOM      3  C   UNL d   1      -0.085  -0.840   0.076  0.00  0.00     0.051 A 
ATOM      4  C   UNL d   1       1.131  -1.640   0.195  0.00  0.00     0.229 C 
ATOM      5  N   UNL d   1       1.258   1.214  -0.049  0.00  0.00    -0.336 N 
ATOM      6  HN  UNL d   1       1.305   2.158  -0.431  1.00  0.00     0.168 HD
ATOM      7  C   UNL d   1       0.016   0.553   0.046  0.00  0.00     0.051 A 
ATOM      8  C   UNL d   1      -1.313  -1.502   0.052  0.00  0.00     0.058 A 
ATOM      9  C   UNL d   1      -1.179   1.275   0.032  0.00  0.00     0.070 A 
ATOM     10  C   UNL d   1      -2.503  -0.779   0.074  0.00  0.00     0.102 A 
ATOM     11  C   UNL d   1      -2.430   0.627   0.087  0.00  0.00     0.103 A 
ATOM     12  O   UNL d   1       1.188  -2.787  -0.228  0.00  0.00    -0.279 OA
ENDROOT
BRANCH   1  13
ATOM     13  N   UNL d   1       3.529   1.287   0.122  0.00  0.00    -0.303 N 
ATOM     14  C   UNL d   1       4.842   0.886   0.365  0.00  0.00     0.257 C 
ATOM     15  O   UNL d   1       5.189  -0.109   0.992  0.00  0.00    -0.267 OA
ATOM     16  H   UNL d   1       3.381   2.181  -0.323  0.00  0.00     0.171 HD
BRANCH  14  17
ATOM     17  C   UNL d   1       5.906   1.800  -0.118  0.00  0.00     0.032 A 
ATOM     18  C   UNL d   1       7.082   1.871   0.635  0.00  0.00     0.020 A 
ATOM     19  C   UNL d   1       8.103   2.736   0.252  0.00  0.00     0.038 A 
ATOM     20  C   UNL d   1       7.982   3.523  -0.897  0.00  0.00     0.078 A 
ATOM     21  C   UNL d   1       6.815   3.442  -1.658  0.00  0.00     0.038 A 
ATOM     22  C   UNL d   1       5.784   2.566  -1.282  0.00  0.00     0.020 A 
BRANCH  20  23
ATOM     23  O   UNL d   1       9.064   4.315  -1.123  0.00  0.00    -0.255 OA
BRANCH  23  24
ATOM     24  C   UNL d   1       9.296   4.875  -2.403  0.00  0.00     0.530 C 
ATOM     25  F   UNL d   1       8.719   4.181  -3.406  0.00  0.00    -0.144 F 
ATOM     26  F   UNL d   1       8.854   6.150  -2.433  0.00  0.00    -0.144 F 
ATOM     27  F   UNL d   1      10.630   4.883  -2.622  0.00  0.00    -0.144 F 
ENDBRANCH  23  24
ENDBRANCH  20  23
ENDBRANCH  14  17
ENDBRANCH   1  13
BRANCH  11  28
ATOM     28  O   UNL d   1      -3.501   1.491   0.102  0.00  0.00    -0.353 OA
ATOM     29  C   UNL d   1      -4.638   1.071   0.851  0.00  0.00     0.210 C 
ENDBRANCH  11  28
BRANCH  10  30
ATOM     30  O   UNL d   1      -3.732  -1.381   0.073  0.00  0.00    -0.353 OA
ATOM     31  C   UNL d   1      -3.776  -2.805   0.092  0.00  0.00     0.210 C 
ENDBRANCH  10  30
TORSDOF 6
