REMARK  3 active torsions:
REMARK  status: ('A' for Active; 'I' for Inactive)
REMARK    1  A    between atoms: C_9  and  C_2 
REMARK    2  A    between atoms: C_10  and  C_7 
REMARK    3  A    between atoms: O_12  and  C_9 
ROOT
ATOM      1  C   UNL d   1       0.077  -0.924   0.032  0.00  0.00     0.039 A 
ATOM      2  C   UNL d   1      -1.151  -1.662   0.030  0.00  0.00     0.070 A 
ATOM      3  C   UNL d   1      -0.091   0.427   0.002  0.00  0.00     0.024 A 
ATOM      4  S   UNL d   1       1.762  -1.356   0.039  0.00  0.00    -0.092 SA
ATOM      5  C   UNL d   1      -2.238  -0.802  -0.015  0.00  0.00    -0.003 A 
ATOM      6  S   UNL d   1      -1.777   0.862  -0.033  0.00  0.00    -0.093 SA
ATOM      7  C   UNL d   1       2.239   0.300   0.015  0.00  0.00    -0.008 A 
ATOM      8  C   UNL d   1       1.145   1.150   0.005  0.00  0.00     0.035 A 
ATOM      9  C   UNL d   1      -3.704  -1.105  -0.006  0.00  0.00     0.057 C 
ENDROOT
BRANCH   2  10
ATOM     10  C   UNL d   1      -1.117  -3.113   0.080  0.00  0.00     0.295 C 
ATOM     11  O   UNL d   1      -0.218  -3.746   0.629  0.00  0.00    -0.259 OA
BRANCH  10  12
ATOM     12  O   UNL d   1      -2.148  -3.712  -0.584  0.00  0.00    -0.322 OA
ATOM     13  C   UNL d   1      -2.030  -5.135  -0.610  0.00  0.00     0.213 C 
ENDBRANCH  10  12
ENDBRANCH   2  10
BRANCH   7  14
ATOM     14  C   UNL d   1       3.740   0.630  -0.002  0.00  0.00    -0.018 C 
ATOM     15  C   UNL d   1       4.395   0.053  -1.276  0.00  0.00     0.020 C 
ATOM     16  C   UNL d   1       3.981   2.153   0.009  0.00  0.00     0.020 C 
ATOM     17  C   UNL d   1       4.441   0.037   1.239  0.00  0.00     0.020 C 
ENDBRANCH   7  14
TORSDOF 3
