REMARK  3 active torsions:
REMARK  status: ('A' for Active; 'I' for Inactive)
REMARK    1  A    between atoms: C_7  and  C_2 
REMARK    2  A    between atoms: C_9  and  N_5 
REMARK    3  A    between atoms: N_11  and  C_8 
ROOT
ATOM      1  C   UNL d   1      -0.567  -1.062  -0.031  0.00  0.00     0.082 A 
ATOM      2  C   UNL d   1      -1.229   0.237  -0.216  0.00  0.00     0.150 A 
ATOM      3  N   UNL d   1      -0.431   1.093  -0.819  0.00  0.00    -0.286 N 
ATOM      4  HN  UNL d   1      -0.654   2.057  -1.066  1.00  0.00     0.187 HD
ATOM      5  N   UNL d   1       0.769   0.439  -1.055  0.00  0.00    -0.220 N 
ATOM      6  C   UNL d   1       0.807  -0.871  -0.559  0.00  0.00     0.280 A 
ATOM      7  C   UNL d   1      -0.932  -2.262   0.432  0.00  0.00     0.104 C 
ATOM      8  O   UNL d   1       1.688  -1.715  -0.567  0.00  0.00    -0.265 OA
ENDROOT
BRANCH   5   9
ATOM      9  C   UNL d   1       1.692   1.055  -1.935  0.00  0.00     0.060 A 
ATOM     10  C   UNL d   1       2.766   0.348  -2.490  0.00  0.00     0.031 A 
ATOM     11  C   UNL d   1       3.569   0.927  -3.478  0.00  0.00     0.002 A 
ATOM     12  C   UNL d   1       3.328   2.231  -3.904  0.00  0.00     0.000 A 
ATOM     13  C   UNL d   1       2.300   2.967  -3.325  0.00  0.00     0.002 A 
ATOM     14  C   UNL d   1       1.491   2.383  -2.346  0.00  0.00     0.031 A 
ENDBRANCH   5   9
BRANCH   2  15
ATOM     15  C   UNL d   1      -2.624   0.610   0.202  0.00  0.00     0.435 C 
ATOM     16  F   UNL d   1      -3.307  -0.313   0.919  0.00  0.00    -0.165 F 
ATOM     17  F   UNL d   1      -2.628   1.740   0.969  0.00  0.00    -0.165 F 
ATOM     18  F   UNL d   1      -3.403   0.900  -0.880  0.00  0.00    -0.165 F 
ENDBRANCH   2  15
BRANCH   7  19
ATOM     19  N   UNL d   1      -2.160  -2.759   0.847  0.00  0.00    -0.398 N 
ATOM     20  C   UNL d   1      -3.239  -2.954  -0.139  0.00  0.00     0.148 C 
ATOM     21  C   UNL d   1      -2.199  -3.753   1.930  0.00  0.00     0.148 C 
ENDBRANCH   7  19
TORSDOF 3
