REMARK  2 active torsions:
REMARK  status: ('A' for Active; 'I' for Inactive)
REMARK    1  A    between atoms: S_11  and  C_2 
REMARK    2  A    between atoms: O_13  and  N_9 
ROOT
ATOM      1  C   UNL d   1      -2.328   1.113   0.360  0.00  0.00     0.020 A 
ATOM      2  C   UNL d   1      -3.638   1.506   0.107  0.00  0.00     0.055 A 
ATOM      3  S   UNL d   1      -4.779   0.432   0.820  0.00  0.00    -0.071 SA
ATOM      4  C   UNL d   1      -2.313  -0.190   1.034  0.00  0.00    -0.016 A 
ATOM      5  C   UNL d   1      -3.581  -0.649   1.336  0.00  0.00     0.093 A 
ATOM      6  C   UNL d   1      -1.038   1.722  -0.029  0.00  0.00     0.044 C 
ATOM      7  C   UNL d   1      -3.890  -1.893   1.975  0.00  0.00     0.107 C 
ATOM      8  N   UNL d   1      -4.114  -2.907   2.489  0.00  0.00    -0.191 NA
ATOM      9  N   UNL d   1      -0.745   2.970  -0.242  0.00  0.00    -0.273 N 
ATOM     10  HN  UNL d   1       0.158   3.265  -0.615  1.00  0.00     0.194 HD
ATOM     11  C   UNL d   1      -1.038  -0.952   1.298  0.00  0.00     0.042 C 
ATOM     12  C   UNL d   1       0.144   0.756  -0.114  0.00  0.00     0.060 C 
ATOM     13  C   UNL d   1       0.201  -0.068   1.171  0.00  0.00     0.011 C 
ENDROOT
BRANCH   2  14
ATOM     14  S   UNL d   1      -4.267   2.814  -0.903  0.00  0.00    -0.126 SA
ATOM     15  C   UNL d   1      -5.146   3.798   0.340  0.00  0.00     0.096 C 
ENDBRANCH   2  14
BRANCH   9  16
ATOM     16  O   UNL d   1      -1.750   3.871   0.075  0.00  0.00    -0.290 OA
ATOM     17  H   UNL d   1      -1.460   4.679  -0.388  0.00  0.00     0.244 HD
ENDBRANCH   9  16
TORSDOF 2
