REMARK  8 active torsions:
REMARK  status: ('A' for Active; 'I' for Inactive)
REMARK       I    between atoms: N_8  and  C_1 
REMARK    1  A    between atoms: O_9  and  C_1 
REMARK    2  A    between atoms: C_14  and  C_2 
REMARK    3  A    between atoms: N_15  and  C_2 
REMARK    4  A    between atoms: C_3  and  C_10 
REMARK    5  A    between atoms: N_4  and  O_9 
REMARK    6  A    between atoms: C_20  and  N_8 
REMARK    7  A    between atoms: O_16  and  C_14 
REMARK    8  A    between atoms: C_17  and  O_16 
ROOT
ATOM      1  C   UNL d   1      -1.618  -2.126  -0.431  0.00  0.00     0.120 C 
ATOM      2  N   UNL d   1      -1.331  -1.017  -1.075  0.00  0.00    -0.242 N 
ATOM      3  HN  UNL d   1      -1.816  -0.127  -0.958  1.00  0.00     0.196 HD
ENDROOT
BRANCH   1   4
ATOM      4  C   UNL d   1      -0.869  -3.468  -0.620  0.00  0.00     0.253 C 
BRANCH   4   5
ATOM      5  O   UNL d   1       0.537  -3.443  -0.452  0.00  0.00    -0.344 OA
BRANCH   5   6
ATOM      6  C   UNL d   1       1.056  -3.738   0.775  0.00  0.00     0.069 A 
ATOM      7  C   UNL d   1       2.366  -4.216   0.751  0.00  0.00     0.037 A 
ATOM      8  C   UNL d   1       3.059  -4.470   1.937  0.00  0.00     0.012 A 
ATOM      9  C   UNL d   1       2.457  -4.231   3.182  0.00  0.00    -0.035 A 
ATOM     10  C   UNL d   1       1.123  -3.788   3.194  0.00  0.00     0.012 A 
ATOM     11  C   UNL d   1       0.429  -3.537   2.001  0.00  0.00     0.037 A 
BRANCH   9  12
ATOM     12  C   UNL d   1       3.291  -4.346   4.442  0.00  0.00     0.141 C 
ATOM     13  S   UNL d   1       2.583  -5.450   5.705  0.00  0.00    -0.148 SA
ATOM     14  C   UNL d   1       3.059  -4.438   7.131  0.00  0.00     0.085 C 
ATOM     15  C   UNL d   1       2.781  -2.998   6.753  0.00  0.00     0.085 C 
ATOM     16  S   UNL d   1       3.606  -2.695   5.171  0.00  0.00    -0.148 SA
ENDBRANCH   9  12
ENDBRANCH   5   6
ENDBRANCH   4   5
ENDBRANCH   1   4
BRANCH   1  17
ATOM     17  N   UNL d   1      -2.680  -2.114   0.438  0.00  0.00    -0.386 N 
ATOM     18  H   UNL d   1      -3.003  -1.193   0.718  0.00  0.00     0.157 HD
ATOM     19  H   UNL d   1      -2.752  -2.838   1.145  0.00  0.00     0.157 HD
ENDBRANCH   1  17
BRANCH   2  20
ATOM     20  O   UNL d   1      -0.249  -1.244  -1.956  0.00  0.00    -0.180 OA
BRANCH  20  21
ATOM     21  C   UNL d   1       0.058  -0.169  -2.762  0.00  0.00     0.383 C 
ATOM     22  N   UNL d   1      -0.714   0.959  -2.589  0.00  0.00    -0.331 N 
ATOM     23  H   UNL d   1      -1.350   0.907  -1.802  0.00  0.00     0.165 HD
ATOM     24  O   UNL d   1       0.970  -0.236  -3.585  0.00  0.00    -0.236 OA
BRANCH  22  25
ATOM     25  C   UNL d   1      -0.443   2.192  -3.311  0.00  0.00     0.078 C 
ATOM     26  C   UNL d   1      -1.706   3.031  -3.476  0.00  0.00     0.032 C 
ATOM     27  C   UNL d   1       0.658   3.009  -2.637  0.00  0.00     0.032 C 
ENDBRANCH  22  25
ENDBRANCH  20  21
ENDBRANCH   2  20
TORSDOF 8
