REMARK  3 active torsions:
REMARK  status: ('A' for Active; 'I' for Inactive)
REMARK    1  A    between atoms: C_2  and  C_1 
REMARK       I    between atoms: N_3  and  C_2 
REMARK    2  A    between atoms: N_4  and  N_3 
REMARK    3  A    between atoms: C_5  and  N_4 
ROOT
ATOM      1  C   UNL d   1       0.279   2.094   0.531  0.00  0.00     0.271 C 
ATOM      2  N   UNL d   1       1.379   2.884   0.218  0.00  0.00    -0.282 N 
ATOM      3  O   UNL d   1       0.325   0.875   0.370  0.00  0.00    -0.266 OA
ATOM      4  H   UNL d   1       1.347   3.899   0.160  0.00  0.00     0.184 HD
ENDROOT
BRANCH   2   5
ATOM      5  N   UNL d   1       2.448   2.247  -0.420  0.00  0.00    -0.203 NA
ATOM      6  H   UNL d   1       2.404   1.234  -0.242  0.00  0.00     0.153 HD
BRANCH   5   7
ATOM      7  C   UNL d   1       3.754   2.731  -0.147  0.00  0.00     0.033 A 
ATOM      8  C   UNL d   1       4.217   3.312   1.050  0.00  0.00    -0.038 A 
ATOM      9  C   UNL d   1       5.571   3.719   1.135  0.00  0.00     0.032 A 
ATOM     10  C   UNL d   1       3.377   3.563   2.272  0.00  0.00     0.050 C 
ATOM     11  C   UNL d   1       6.465   3.486   0.094  0.00  0.00     0.034 A 
ATOM     12  C   UNL d   1       6.036   2.846  -1.057  0.00  0.00     0.026 A 
ATOM     13 CL   UNL d   1       8.107   3.975   0.244  0.00  0.00    -0.084 Cl
ATOM     14  C   UNL d   1       4.695   2.470  -1.168  0.00  0.00     0.027 A 
ENDBRANCH   5   7
ENDBRANCH   2   5
BRANCH   1  15
ATOM     15  C   UNL d   1      -0.932   2.776   1.093  0.00  0.00     0.093 A 
ATOM     16  C   UNL d   1      -2.142   2.098   1.342  0.00  0.00     0.052 A 
ATOM     17 CL   UNL d   1      -2.437   0.437   0.958  0.00  0.00    -0.083 Cl
ATOM     18  C   UNL d   1      -3.228   2.772   1.931  0.00  0.00     0.025 A 
ATOM     19  C   UNL d   1      -3.135   4.116   2.277  0.00  0.00     0.005 A 
ATOM     20  C   UNL d   1      -1.954   4.801   2.023  0.00  0.00     0.043 A 
ATOM     21  C   UNL d   1      -0.876   4.135   1.439  0.00  0.00     0.133 A 
ATOM     22  F   UNL d   1       0.236   4.859   1.224  0.00  0.00    -0.205 F 
ENDBRANCH   1  15
TORSDOF 3
