REMARK  2 active torsions:
REMARK  status: ('A' for Active; 'I' for Inactive)
REMARK    1  A    between atoms: C_3  and  C_1 
REMARK    2  A    between atoms: O_9  and  C_3 
ROOT
ATOM      1  C   UNL d   1       2.347  -0.870   0.010  0.00  0.00     0.040 C 
ATOM      2  C   UNL d   1       1.195  -1.545   0.143  0.00  0.00     0.030 C 
ATOM      3  O   UNL d   1       1.177   1.320   0.122  0.00  0.00    -0.346 OA
ATOM      4  C   UNL d   1      -0.045  -0.779   0.044  0.00  0.00    -0.002 A 
ATOM      5  C   UNL d   1       2.360   0.606  -0.279  0.00  0.00     0.221 C 
ATOM      6  C   UNL d   1       0.005   0.620   0.039  0.00  0.00     0.079 A 
ATOM      7  C   UNL d   1      -1.287  -1.419  -0.011  0.00  0.00     0.014 A 
ATOM      8  C   UNL d   1      -1.169   1.371   0.000  0.00  0.00     0.037 A 
ATOM      9  C   UNL d   1      -2.464  -0.667  -0.070  0.00  0.00     0.001 A 
ATOM     10  C   UNL d   1      -2.405   0.727  -0.061  0.00  0.00     0.003 A 
ENDROOT
BRANCH   1  11
ATOM     11  C   UNL d   1       3.687  -1.498   0.038  0.00  0.00     0.174 C 
ATOM     12  O   UNL d   1       4.662  -0.987  -0.486  0.00  0.00    -0.646 OA
BRANCH  11  13
ATOM     13  O   UNL d   1       3.755  -2.661   0.715  0.00  0.00    -0.773 OA
ATOM     14  H   UNL d   1       2.960  -2.889   1.228  0.00  0.00     0.167 HD
ENDBRANCH  11  13
ENDBRANCH   1  11
TORSDOF 2
