REMARK  3 active torsions:
REMARK  status: ('A' for Active; 'I' for Inactive)
REMARK    1  A    between atoms: N_2  and  S_1 
REMARK    2  A    between atoms: C_5  and  S_1 
REMARK       I    between atoms: C_4  and  N_2 
REMARK       I    between atoms: N_6  and  C_4 
REMARK    3  A    between atoms: C_11  and  N_6 
ROOT
ATOM      1  N   UNL d   1       0.723   0.123  -1.375  0.00  0.00    -0.265 N 
ATOM      2  HN  UNL d   1       0.016  -0.489  -1.784  1.00  0.00     0.180 HD
ATOM      3  C   UNL d   1       1.133   1.232  -2.112  0.00  0.00     0.332 C 
ATOM      4  N   UNL d   1       0.841   2.451  -1.544  0.00  0.00    -0.308 N 
ATOM      5  O   UNL d   1       1.696   1.095  -3.192  0.00  0.00    -0.246 OA
ATOM      6  H   UNL d   1       0.598   2.386  -0.563  0.00  0.00     0.170 HD
ENDROOT
BRANCH   1   7
ATOM      7  S   UNL d   1       1.266  -0.231   0.005  0.00  0.00     0.056 S 
ATOM      8  O   UNL d   1       1.211   0.687   1.126  0.00  0.00    -0.245 OA
ATOM      9  C   UNL d   1       2.934  -0.836  -0.121  0.00  0.00     0.142 C 
BRANCH   7  10
ATOM     10  C   UNL d   1       0.449  -1.742   0.516  0.00  0.00     0.038 A 
ATOM     11  C   UNL d   1       0.079  -2.683  -0.453  0.00  0.00     0.023 A 
ATOM     12  C   UNL d   1      -0.274  -3.972  -0.054  0.00  0.00     0.025 A 
ATOM     13  C   UNL d   1      -0.265  -4.305   1.301  0.00  0.00     0.034 A 
ATOM     14  C   UNL d   1       0.037  -3.344   2.269  0.00  0.00     0.025 A 
ATOM     15 CL   UNL d   1      -0.574  -5.928   1.781  0.00  0.00    -0.084 Cl
ATOM     16  C   UNL d   1       0.387  -2.050   1.878  0.00  0.00     0.023 A 
ENDBRANCH   7  10
ENDBRANCH   1   7
BRANCH   4  17
ATOM     17  C   UNL d   1       0.711   3.697  -2.170  0.00  0.00     0.036 A 
ATOM     18  C   UNL d   1       0.645   3.864  -3.557  0.00  0.00     0.031 A 
ATOM     19  C   UNL d   1       0.332   5.114  -4.108  0.00  0.00     0.026 A 
ATOM     20  C   UNL d   1       0.111   6.208  -3.276  0.00  0.00     0.034 A 
ATOM     21  C   UNL d   1       0.226   6.069  -1.895  0.00  0.00     0.026 A 
ATOM     22 CL   UNL d   1      -0.335   7.727  -3.950  0.00  0.00    -0.084 Cl
ATOM     23  C   UNL d   1       0.521   4.816  -1.345  0.00  0.00     0.031 A 
ENDBRANCH   4  17
TORSDOF 3
