REMARK  4 active torsions:
REMARK  status: ('A' for Active; 'I' for Inactive)
REMARK    1  A    between atoms: C_3  and  C_6 
REMARK       I    between atoms: N_7  and  C_3 
REMARK    2  A    between atoms: N_4  and  N_7 
REMARK    3  A    between atoms: C_14  and  C_8 
REMARK    4  A    between atoms: C_13  and  C_12 
ROOT
ATOM      1  N   UNL d   1       6.220   1.275   4.184  0.00  0.00    -0.197 NA
ATOM      2  C   UNL d   1       5.700   2.262   4.506  0.00  0.00     0.068 C 
ATOM      3  C   UNL d   1       4.984   3.471   4.888  0.00  0.00     0.228 C 
ENDROOT
BRANCH   3   4
ATOM      4  C   UNL d   1       3.490   3.417   4.652  0.00  0.00     0.249 C 
ATOM      5  N   UNL d   1       2.960   2.257   4.099  0.00  0.00    -0.270 N 
ATOM      6  H   UNL d   1       3.529   1.457   3.833  0.00  0.00     0.190 HD
ATOM      7  O   UNL d   1       2.808   4.399   4.960  0.00  0.00    -0.271 OA
BRANCH   5   8
ATOM      8  N   UNL d   1       1.611   2.188   3.913  0.00  0.00    -0.308 N 
ATOM      9  C   UNL d   1       1.136   1.108   3.379  0.00  0.00     0.118 C 
ATOM     10  HN  UNL d   1       0.999   2.958   4.183  1.00  0.00     0.186 HD
BRANCH   9  11
ATOM     11  C   UNL d   1      -0.319   0.960   3.146  0.00  0.00    -0.019 A 
ATOM     12  C   UNL d   1      -1.199   1.964   3.555  0.00  0.00     0.013 A 
ATOM     13  C   UNL d   1      -2.570   1.834   3.323  0.00  0.00     0.008 A 
ATOM     14  C   UNL d   1      -3.086   0.700   2.679  0.00  0.00    -0.055 A 
ATOM     15  C   UNL d   1      -2.190  -0.306   2.277  0.00  0.00     0.008 A 
ATOM     16  C   UNL d   1      -0.813  -0.180   2.509  0.00  0.00     0.013 A 
BRANCH  14  17
ATOM     17  C   UNL d   1      -4.577   0.555   2.409  0.00  0.00     0.010 C 
ATOM     18  C   UNL d   1      -5.397   0.578   3.703  0.00  0.00     0.015 C 
ATOM     19  C   UNL d   1      -5.082   1.629   1.440  0.00  0.00     0.015 C 
ENDBRANCH  14  17
ENDBRANCH   9  11
ENDBRANCH   5   8
ENDBRANCH   3   4
TORSDOF 4
