REMARK  5 active torsions:
REMARK  status: ('A' for Active; 'I' for Inactive)
REMARK    1  A    between atoms: C_9  and  C_3 
REMARK    2  A    between atoms: C_8  and  C_6 
REMARK    3  A    between atoms: N_7  and  C_10 
REMARK    4  A    between atoms: C_11  and  C_8 
REMARK    5  A    between atoms: O_19  and  C_11 
ROOT
ATOM      1  N   UNL d   1      -0.512  -1.121  -0.553  0.00  0.00    -0.320 N 
ATOM      2  HN  UNL d   1      -1.001  -1.891  -1.009  1.00  0.00     0.169 HD
ATOM      3  C   UNL d   1       0.612  -1.257   0.067  0.00  0.00     0.083 A 
ATOM      4  C   UNL d   1      -0.983   0.175  -0.535  0.00  0.00     0.237 A 
ATOM      5  S   UNL d   1       1.327   0.188   0.730  0.00  0.00    -0.096 SA
ATOM      6  C   UNL d   1      -0.140   1.156   0.267  0.00  0.00     0.156 A 
ATOM      7  O   UNL d   1      -1.997   0.528  -1.128  0.00  0.00    -0.272 OA
ENDROOT
BRANCH   3   8
ATOM      8  C   UNL d   1       1.318  -2.548   0.210  0.00  0.00    -0.000 A 
ATOM      9  C   UNL d   1       2.124  -2.809   1.328  0.00  0.00     0.044 A 
ATOM     10  C   UNL d   1       2.791  -4.035   1.465  0.00  0.00     0.039 A 
ATOM     11  C   UNL d   1       2.643  -4.997   0.456  0.00  0.00     0.030 A 
ATOM     12  C   UNL d   1       1.828  -4.744  -0.653  0.00  0.00     0.003 A 
ATOM     13  C   UNL d   1       1.158  -3.526  -0.774  0.00  0.00     0.014 A 
BRANCH  10  14
ATOM     14  N   UNL d   1       3.593  -4.292   2.623  0.00  0.00    -0.333 N 
ATOM     15  C   UNL d   1       4.341  -5.427   2.877  0.00  0.00     0.096 A 
ATOM     16  C   UNL d   1       4.962  -5.304   4.101  0.00  0.00     0.019 A 
ATOM     17  C   UNL d   1       4.596  -4.053   4.630  0.00  0.00     0.019 A 
ATOM     18  C   UNL d   1       3.764  -3.452   3.710  0.00  0.00     0.096 A 
ENDBRANCH  10  14
ENDBRANCH   3   8
BRANCH   6  19
ATOM     19  C   UNL d   1       0.209   2.362  -0.594  0.00  0.00     0.135 C 
BRANCH  19  20
ATOM     20  C   UNL d   1       1.016   3.378   0.167  0.00  0.00     0.141 C 
ATOM     21  O   UNL d   1       0.942   3.559   1.372  0.00  0.00    -0.650 OA
BRANCH  20  22
ATOM     22  O   UNL d   1       1.814   4.124  -0.628  0.00  0.00    -0.776 OA
ATOM     23  H   UNL d   1       1.768   3.906  -1.579  0.00  0.00     0.167 HD
ENDBRANCH  20  22
ENDBRANCH  19  20
ENDBRANCH   6  19
TORSDOF 5
