REMARK  2 active torsions:
REMARK  status: ('A' for Active; 'I' for Inactive)
REMARK    1  A    between atoms: C_2  and  C_1 
REMARK       I    between atoms: N_6  and  C_1 
REMARK    2  A    between atoms: C_7  and  N_6 
ROOT
ATOM      1  C   UNL d   1       2.269   0.506   0.682  0.00  0.00     0.258 C 
ATOM      2  N   UNL d   1       1.198   0.849  -0.135  0.00  0.00    -0.352 N 
ATOM      3  O   UNL d   1       2.268   0.707   1.889  0.00  0.00    -0.267 OA
ATOM      4  H   UNL d   1       1.282   0.660  -1.125  0.00  0.00     0.163 HD
ENDROOT
BRANCH   2   5
ATOM      5  C   UNL d   1      -0.144   0.915   0.454  0.00  0.00     0.088 C 
ATOM      6  C   UNL d   1      -0.602  -0.491   0.904  0.00  0.00     0.061 C 
ATOM      7  C   UNL d   1      -1.343  -1.276  -0.193  0.00  0.00     0.225 C 
ATOM      8  C   UNL d   1      -0.547  -1.375  -1.503  0.00  0.00     0.038 C 
ATOM      9  N   UNL d   1      -2.513  -0.549  -0.685  0.00  0.00     0.093 N 
ATOM     10  C   UNL d   1      -0.999  -0.156  -2.324  0.00  0.00     0.038 C 
ATOM     11  C   UNL d   1      -1.945   0.601  -1.388  0.00  0.00     0.225 C 
ATOM     12  C   UNL d   1      -1.185   1.579  -0.468  0.00  0.00     0.061 C 
ATOM     13  C   UNL d   1      -3.566  -0.297   0.275  0.00  0.00     0.310 C 
ENDBRANCH   2   5
BRANCH   1  14
ATOM     14  C   UNL d   1       3.375  -0.246   0.054  0.00  0.00     0.108 A 
ATOM     15  C   UNL d   1       3.794  -0.021  -1.254  0.00  0.00     0.135 A 
ATOM     16  F   UNL d   1       3.206   0.916  -2.012  0.00  0.00    -0.205 F 
ATOM     17  C   UNL d   1       4.821  -0.782  -1.821  0.00  0.00     0.043 A 
ATOM     18  C   UNL d   1       5.438  -1.789  -1.081  0.00  0.00     0.006 A 
ATOM     19  C   UNL d   1       5.016  -2.034   0.227  0.00  0.00     0.043 A 
ATOM     20  C   UNL d   1       3.994  -1.264   0.784  0.00  0.00     0.135 A 
ATOM     21  F   UNL d   1       3.588  -1.581   2.023  0.00  0.00    -0.205 F 
ENDBRANCH   1  14
TORSDOF 2
