REMARK  4 active torsions:
REMARK  status: ('A' for Active; 'I' for Inactive)
REMARK    1  A    between atoms: N_4  and  C_1 
REMARK    2  A    between atoms: N_3  and  C_2 
REMARK       I    between atoms: C_10  and  N_4 
REMARK    3  A    between atoms: C_9  and  C_11 
REMARK    4  A    between atoms: C_13  and  C_10 
ROOT
ATOM      1  N   UNL d   1      -2.242  -1.695  -0.060  0.00  0.00    -0.299 N 
ATOM      2  C   UNL d   1      -2.459  -3.050   0.118  0.00  0.00     0.257 C 
ATOM      3  O   UNL d   1      -3.560  -3.577   0.232  0.00  0.00    -0.267 OA
ATOM      4  H   UNL d   1      -1.304  -1.309  -0.073  0.00  0.00     0.171 HD
ENDROOT
BRANCH   1   5
ATOM      5  C   UNL d   1      -3.295  -0.796  -0.092  0.00  0.00     0.208 A 
ATOM      6  C   UNL d   1      -3.344   0.581  -0.162  0.00  0.00     0.179 A 
ATOM      7  C   UNL d   1      -4.720   0.909  -0.077  0.00  0.00     0.066 A 
ATOM      8  C   UNL d   1      -5.393   2.228  -0.028  0.00  0.00     0.073 C 
ATOM      9  N   UNL d   1      -5.466  -0.200  -0.021  0.00  0.00    -0.261 N 
ATOM     10  O   UNL d   1      -4.578  -1.256  -0.030  0.00  0.00    -0.217 OA
ATOM     11  HN  UNL d   1      -6.484  -0.254   0.019  1.00  0.00     0.194 HD
BRANCH   6  12
ATOM     12  N   UNL d   1      -2.221   1.444  -0.273  0.00  0.00    -0.109 N 
ATOM     13  O   UNL d   1      -1.099   0.914  -0.260  0.00  0.00    -0.532 OA
ATOM     14  O   UNL d   1      -2.444   2.656  -0.383  0.00  0.00    -0.532 OA
ENDBRANCH   6  12
ENDBRANCH   1   5
BRANCH   2  15
ATOM     15  C   UNL d   1      -1.262  -3.938   0.195  0.00  0.00     0.032 A 
ATOM     16  C   UNL d   1      -1.440  -5.191   0.802  0.00  0.00     0.018 A 
ATOM     17  C   UNL d   1      -0.406  -6.127   0.836  0.00  0.00     0.017 A 
ATOM     18  C   UNL d   1       0.834  -5.830   0.258  0.00  0.00     0.048 A 
ATOM     19  C   UNL d   1       1.024  -4.562  -0.321  0.00  0.00     0.017 A 
ATOM     20  C   UNL d   1      -0.016  -3.620  -0.357  0.00  0.00     0.018 A 
BRANCH  18  21
ATOM     21  C   UNL d   1       1.935  -6.864   0.218  0.00  0.00     0.417 C 
ATOM     22  F   UNL d   1       1.586  -8.054   0.781  0.00  0.00    -0.166 F 
ATOM     23  F   UNL d   1       2.323  -7.154  -1.055  0.00  0.00    -0.166 F 
ATOM     24  F   UNL d   1       3.058  -6.456   0.869  0.00  0.00    -0.166 F 
ENDBRANCH  18  21
ENDBRANCH   2  15
TORSDOF 4
