REMARK  4 active torsions:
REMARK  status: ('A' for Active; 'I' for Inactive)
REMARK    1  A    between atoms: C_14  and  C_3 
REMARK    2  A    between atoms: C_8  and  C_17 
REMARK    3  A    between atoms: S_12  and  C_14 
REMARK    4  A    between atoms: C_17  and  S_12 
ROOT
ATOM      1  S   UNL d   1       0.875  -3.930  -0.061  0.00  0.00    -0.158 SA
ENDROOT
BRANCH   1   2
ATOM      2  C   UNL d   1       2.047  -2.527  -0.068  0.00  0.00     0.131 C 
BRANCH   2   3
ATOM      3  C   UNL d   1       2.892  -2.505  -1.298  0.00  0.00     0.025 A 
ATOM      4  N   UNL d   1       4.130  -3.131  -1.261  0.00  0.00    -0.356 N 
ATOM      5  C   UNL d   1       4.721  -3.043  -2.432  0.00  0.00     0.047 A 
ATOM      6  HN  UNL d   1       4.524  -3.595  -0.443  1.00  0.00     0.166 HD
ATOM      7  S   UNL d   1       3.846  -2.190  -3.638  0.00  0.00    -0.087 SA
ATOM      8  C   UNL d   1       6.051  -3.633  -2.739  0.00  0.00     0.076 C 
ATOM      9  C   UNL d   1       2.580  -1.920  -2.514  0.00  0.00     0.077 A 
ENDBRANCH   2   3
ENDBRANCH   1   2
BRANCH   1  10
ATOM     10  C   UNL d   1       2.047  -5.334  -0.074  0.00  0.00     0.114 C 
BRANCH  10  11
ATOM     11  C   UNL d   1       1.310  -6.664  -0.038  0.00  0.00    -0.027 A 
ATOM     12  C   UNL d   1       0.972  -7.307   1.167  0.00  0.00     0.042 A 
ATOM     13  C   UNL d   1       0.281  -8.523   1.160  0.00  0.00     0.048 A 
ATOM     14 CL   UNL d   1       1.392  -6.648   2.709  0.00  0.00    -0.084 Cl
ATOM     15  C   UNL d   1      -0.086  -9.107  -0.049  0.00  0.00     0.035 A 
ATOM     16  C   UNL d   1       0.235  -8.489  -1.254  0.00  0.00     0.024 A 
ATOM     17 CL   UNL d   1      -0.936 -10.602  -0.053  0.00  0.00    -0.084 Cl
ATOM     18  C   UNL d   1       0.927  -7.273  -1.246  0.00  0.00     0.011 A 
ENDBRANCH  10  11
ENDBRANCH   1  10
TORSDOF 4
