REMARK  4 active torsions:
REMARK  status: ('A' for Active; 'I' for Inactive)
REMARK       I    between atoms: N_3  and  C_1 
REMARK       I    between atoms: N_5  and  C_1 
REMARK    1  A    between atoms: C_2  and  N_3 
REMARK    2  A    between atoms: C_10  and  N_5 
REMARK    3  A    between atoms: O_16  and  C_6 
REMARK    4  A    between atoms: O_19  and  C_9 
ROOT
ATOM      1  C   UNL d   1       0.975   0.054  -0.029  0.00  0.00     0.325 C 
ATOM      2  N   UNL d   1       0.298  -1.152  -0.165  0.00  0.00    -0.306 N 
ATOM      3  N   UNL d   1       0.063   1.086   0.113  0.00  0.00    -0.309 N 
ATOM      4  O   UNL d   1       2.189   0.175  -0.085  0.00  0.00    -0.247 OA
ATOM      5  H   UNL d   1      -0.651  -1.085  -0.495  0.00  0.00     0.171 HD
ATOM      6  H   UNL d   1      -0.865   0.814   0.396  0.00  0.00     0.170 HD
ENDROOT
BRANCH   2   7
ATOM      7  C   UNL d   1       0.947  -2.373  -0.458  0.00  0.00     0.072 A 
ATOM      8  C   UNL d   1       2.105  -2.741   0.244  0.00  0.00     0.069 A 
ATOM      9  C   UNL d   1       2.687  -3.994   0.047  0.00  0.00     0.070 A 
ATOM     10  C   UNL d   1       2.132  -4.862  -0.896  0.00  0.00     0.039 A 
ATOM     11  C   UNL d   1       0.986  -4.500  -1.609  0.00  0.00     0.042 A 
ATOM     12  C   UNL d   1       0.385  -3.259  -1.392  0.00  0.00     0.095 A 
BRANCH   9  13
ATOM     13  O   UNL d   1       3.771  -4.490   0.718  0.00  0.00    -0.356 OA
ATOM     14  C   UNL d   1       4.259  -3.714   1.808  0.00  0.00     0.210 C 
ENDBRANCH   9  13
BRANCH  12  15
ATOM     15  O   UNL d   1      -0.771  -3.031  -2.095  0.00  0.00    -0.354 OA
ATOM     16  C   UNL d   1      -0.815  -1.810  -2.834  0.00  0.00     0.210 C 
ENDBRANCH  12  15
ENDBRANCH   2   7
BRANCH   3  17
ATOM     17  C   UNL d   1       0.317   2.470   0.038  0.00  0.00     0.036 A 
ATOM     18  C   UNL d   1       1.558   3.019  -0.304  0.00  0.00     0.032 A 
ATOM     19  C   UNL d   1       1.721   4.407  -0.378  0.00  0.00     0.044 A 
ATOM     20  C   UNL d   1       0.641   5.241  -0.116  0.00  0.00     0.116 A 
ATOM     21  C   UNL d   1      -0.600   4.714   0.213  0.00  0.00     0.044 A 
ATOM     22  F   UNL d   1       0.797   6.568  -0.190  0.00  0.00    -0.206 F 
ATOM     23  C   UNL d   1      -0.762   3.329   0.290  0.00  0.00     0.032 A 
ENDBRANCH   3  17
TORSDOF 4
