REMARK  7 active torsions:
REMARK  status: ('A' for Active; 'I' for Inactive)
REMARK    1  A    between atoms: C_12  and  C_9 
REMARK    2  A    between atoms: C_13  and  C_12 
REMARK    3  A    between atoms: C_17  and  C_13 
REMARK    4  A    between atoms: C_14  and  C_15 
REMARK    5  A    between atoms: C_15  and  C_16 
REMARK    6  A    between atoms: C_16  and  C_18 
REMARK    7  A    between atoms: C_18  and  C_17 
ROOT
ATOM      1  C   UNL d   1       1.272   0.312  -1.072  0.00  0.00    -0.042 A 
ATOM      2  C   UNL d   1       0.662  -0.422  -0.034  0.00  0.00    -0.019 A 
ATOM      3  C   UNL d   1      -0.753  -0.538  -0.315  0.00  0.00    -0.019 A 
ATOM      4  C   UNL d   1      -1.029   0.124  -1.532  0.00  0.00    -0.043 A 
ATOM      5  C   UNL d   1       0.244   0.707  -2.112  0.00  0.00     0.078 A 
ATOM      6  C   UNL d   1       1.411  -0.887   1.031  0.00  0.00     0.013 A 
ATOM      7  C   UNL d   1       2.629   0.591  -1.062  0.00  0.00     0.015 A 
ATOM      8  C   UNL d   1       2.781  -0.605   1.054  0.00  0.00     0.008 A 
ATOM      9  C   UNL d   1       3.399   0.126   0.015  0.00  0.00    -0.058 A 
ATOM     10  C   UNL d   1      -1.768  -1.149   0.400  0.00  0.00     0.013 A 
ATOM     11  C   UNL d   1      -2.313   0.187  -2.045  0.00  0.00     0.008 A 
ATOM     12  C   UNL d   1      -3.067  -1.090  -0.112  0.00  0.00     0.001 A 
ATOM     13  C   UNL d   1      -3.337  -0.428  -1.322  0.00  0.00     0.001 A 
ENDROOT
BRANCH   9  14
ATOM     14  C   UNL d   1       4.881   0.416   0.058  0.00  0.00     0.038 C 
BRANCH  14  15
ATOM     15  C   UNL d   1       5.763  -0.834   0.104  0.00  0.00     0.005 C 
BRANCH  15  16
ATOM     16  C   UNL d   1       5.589  -1.738  -1.119  0.00  0.00     0.000 C 
BRANCH  16  17
ATOM     17  C   UNL d   1       6.504  -2.956  -1.015  0.00  0.00     0.000 C 
BRANCH  17  18
ATOM     18  C   UNL d   1       6.336  -3.884  -2.215  0.00  0.00     0.000 C 
BRANCH  18  19
ATOM     19  C   UNL d   1       7.254  -5.098  -2.091  0.00  0.00    -0.000 C 
BRANCH  19  20
ATOM     20  C   UNL d   1       7.099  -6.034  -3.287  0.00  0.00    -0.005 C 
ATOM     21  C   UNL d   1       8.014  -7.239  -3.164  0.00  0.00     0.005 C 
ENDBRANCH  19  20
ENDBRANCH  18  19
ENDBRANCH  17  18
ENDBRANCH  16  17
ENDBRANCH  15  16
ENDBRANCH  14  15
ENDBRANCH   9  14
TORSDOF 7
