REMARK  2 active torsions:
REMARK  status: ('A' for Active; 'I' for Inactive)
REMARK    1  A    between atoms: C_4  and  C_1 
REMARK    2  A    between atoms: O_8  and  C_1 
ROOT
ATOM      1  C   UNL d   1      -1.895   1.000   0.033  0.00  0.00     0.267 A 
ATOM      2  C   UNL d   1      -2.470  -0.439   0.024  0.00  0.00     0.271 A 
ATOM      3  N   UNL d   1      -1.402  -1.325  -0.059  0.00  0.00    -0.323 N 
ATOM      4  C   UNL d   1      -0.411   0.726   0.001  0.00  0.00     0.021 A 
ATOM      5  C   UNL d   1      -0.188  -0.648  -0.055  0.00  0.00     0.044 A 
ATOM      6  O   UNL d   1      -3.644  -0.753   0.143  0.00  0.00    -0.269 OA
ATOM      7  C   UNL d   1       0.657   1.608   0.042  0.00  0.00     0.013 A 
ATOM      8  C   UNL d   1       1.077  -1.196  -0.068  0.00  0.00     0.030 A 
ATOM      9  C   UNL d   1       1.949   1.080   0.021  0.00  0.00     0.001 A 
ATOM     10  C   UNL d   1       2.158  -0.311  -0.033  0.00  0.00     0.002 A 
ATOM     11  H   UNL d   1      -1.513  -2.328  -0.047  0.00  0.00     0.169 HD
ENDROOT
BRANCH   1  12
ATOM     12  C   UNL d   1      -2.445   1.743  -1.196  0.00  0.00     0.432 C 
ATOM     13  F   UNL d   1      -3.104   0.949  -2.068  0.00  0.00    -0.167 F 
ATOM     14  F   UNL d   1      -3.322   2.709  -0.808  0.00  0.00    -0.167 F 
ATOM     15  F   UNL d   1      -1.476   2.374  -1.904  0.00  0.00    -0.167 F 
ENDBRANCH   1  12
BRANCH   1  16
ATOM     16  O   UNL d   1      -2.207   1.630   1.287  0.00  0.00    -0.368 OA
ATOM     17  H   UNL d   1      -3.181   1.692   1.324  0.00  0.00     0.212 HD
ENDBRANCH   1  16
TORSDOF 2
