REMARK  3 active torsions:
REMARK  status: ('A' for Active; 'I' for Inactive)
REMARK    1  A    between atoms: C_7  and  C_1 
REMARK    2  A    between atoms: C_6  and  N_3 
REMARK    3  A    between atoms: O_12  and  C_7 
ROOT
ATOM      1  C   UNL d   1      -0.397   1.189   0.025  0.00  0.00     0.061 A 
ATOM      2  C   UNL d   1       0.921   0.728   0.035  0.00  0.00     0.025 A 
ATOM      3  N   UNL d   1       0.901  -0.659   0.004  0.00  0.00    -0.349 N 
ATOM      4  C   UNL d   1      -0.403  -1.104  -0.019  0.00  0.00     0.009 A 
ATOM      5  C   UNL d   1      -1.211   0.019  -0.008  0.00  0.00     0.045 A 
ATOM      6  C   UNL d   1       2.203   1.502   0.029  0.00  0.00     0.069 C 
ATOM      7  C   UNL d   1      -0.854  -2.519  -0.009  0.00  0.00     0.068 C 
ENDROOT
BRANCH   1   8
ATOM      8  C   UNL d   1      -0.820   2.597   0.036  0.00  0.00     0.178 C 
ATOM      9  O   UNL d   1      -0.054   3.552   0.061  0.00  0.00    -0.646 OA
BRANCH   8  10
ATOM     10  O   UNL d   1      -2.164   2.801   0.017  0.00  0.00    -0.773 OA
ATOM     11  H   UNL d   1      -2.676   1.976  -0.004  0.00  0.00     0.167 HD
ENDBRANCH   8  10
ENDBRANCH   1   8
BRANCH   3  12
ATOM     12  C   UNL d   1       2.129  -1.450  -0.041  0.00  0.00     0.090 A 
ATOM     13  C   UNL d   1       2.383  -2.418  -1.181  0.00  0.00     0.028 A 
ATOM     14  C   UNL d   1       2.290  -2.931   0.216  0.00  0.00     0.028 A 
ENDBRANCH   3  12
TORSDOF 3
