REMARK  5 active torsions:
REMARK  status: ('A' for Active; 'I' for Inactive)
REMARK    1  A    between atoms: C_4  and  N_1 
REMARK    2  A    between atoms: N_5  and  C_3 
REMARK    3  A    between atoms: C_7  and  N_5 
REMARK    4  A    between atoms: C_8  and  C_6 
REMARK    5  A    between atoms: O_15  and  C_8 
ROOT
ATOM      1  N   UNL d   1       0.545   1.659   4.492  0.00  0.00    -0.354 N 
ATOM      2  H   UNL d   1       0.660   1.240   5.420  0.00  0.00     0.166 HD
ENDROOT
BRANCH   1   3
ATOM      3  C   UNL d   1       0.114   0.769   3.478  0.00  0.00     0.047 A 
ATOM      4  C   UNL d   1       0.797   0.707   2.236  0.00  0.00    -0.002 A 
ATOM      5  C   UNL d   1       0.269  -0.126   1.229  0.00  0.00     0.111 A 
ATOM      6  C   UNL d   1       2.066   1.494   2.014  0.00  0.00     0.053 C 
ATOM      7  C   UNL d   1      -0.851  -0.935   1.430  0.00  0.00     0.037 A 
ATOM      8  C   UNL d   1      -1.487  -0.905   2.665  0.00  0.00     0.011 A 
ATOM      9  C   UNL d   1      -1.022  -0.059   3.690  0.00  0.00    -0.035 A 
ATOM     10  C   UNL d   1      -1.798  -0.045   4.983  0.00  0.00     0.050 C 
BRANCH   5  11
ATOM     11  N   UNL d   1       0.871  -0.171  -0.094  0.00  0.00    -0.115 N 
ATOM     12  O   UNL d   1       0.923   0.894  -0.729  0.00  0.00    -0.532 OA
ATOM     13  O   UNL d   1       1.265  -1.271  -0.499  0.00  0.00    -0.532 OA
ENDBRANCH   5  11
ENDBRANCH   1   3
BRANCH   1  14
ATOM     14  C   UNL d   1       0.686   3.071   4.474  0.00  0.00     0.049 A 
ATOM     15  C   UNL d   1       1.425   3.763   5.464  0.00  0.00     0.064 A 
ATOM     16  C   UNL d   1       1.538   5.167   5.423  0.00  0.00     0.020 A 
ATOM     17  C   UNL d   1       0.999   5.888   4.361  0.00  0.00     0.001 A 
ATOM     18  C   UNL d   1       0.327   5.217   3.348  0.00  0.00     0.002 A 
ATOM     19  C   UNL d   1       0.161   3.830   3.413  0.00  0.00     0.030 A 
BRANCH  15  20
ATOM     20  C   UNL d   1       2.062   3.019   6.580  0.00  0.00     0.178 C 
ATOM     21  O   UNL d   1       1.605   1.972   7.019  0.00  0.00    -0.646 OA
BRANCH  20  22
ATOM     22  O   UNL d   1       3.204   3.571   7.050  0.00  0.00    -0.773 OA
ATOM     23  H   UNL d   1       3.570   4.303   6.521  0.00  0.00     0.167 HD
ENDBRANCH  20  22
ENDBRANCH  15  20
ENDBRANCH   1  14
TORSDOF 5
