REMARK  3 active torsions:
REMARK  status: ('A' for Active; 'I' for Inactive)
REMARK    1  A    between atoms: C_3  and  C_1 
REMARK    2  A    between atoms: S_16  and  C_2 
REMARK       I    between atoms: C_10  and  N_4 
REMARK    3  A    between atoms: C_15  and  C_10 
ROOT
ATOM      1  C   UNL d   1      -0.129  -1.272  -0.089  0.00  0.00     0.024 A 
ATOM      2  C   UNL d   1      -0.829  -0.324  -0.822  0.00  0.00     0.055 A 
ATOM      3  S   UNL d   1      -0.111   1.224  -0.717  0.00  0.00    -0.071 SA
ATOM      4  C   UNL d   1       1.018  -0.687   0.598  0.00  0.00    -0.020 A 
ATOM      5  C   UNL d   1       1.117   0.671   0.321  0.00  0.00     0.093 A 
ATOM      6  C   UNL d   1       2.124   1.549   0.834  0.00  0.00     0.107 C 
ATOM      7  N   UNL d   1       2.957   2.234   1.274  0.00  0.00    -0.191 NA
ATOM      8  C   UNL d   1       1.998  -1.396   1.490  0.00  0.00     0.051 C 
ENDROOT
BRANCH   1   9
ATOM      9  C   UNL d   1      -0.479  -2.706   0.004  0.00  0.00     0.062 C 
ATOM     10  N   UNL d   1      -0.818  -3.454  -1.052  0.00  0.00    -0.291 N 
ATOM     11  N   UNL d   1      -1.080  -4.689  -0.539  0.00  0.00    -0.231 N 
ATOM     12  HN  UNL d   1      -0.868  -3.163  -2.029  1.00  0.00     0.187 HD
ATOM     13  C   UNL d   1      -1.638  -5.719  -1.340  0.00  0.00     0.276 C 
ATOM     14  C   UNL d   1      -0.732  -4.747   0.797  0.00  0.00     0.122 C 
ATOM     15  O   UNL d   1      -1.632  -5.587  -2.562  0.00  0.00    -0.265 OA
ATOM     16  C   UNL d   1      -0.452  -3.464   1.191  0.00  0.00     0.051 C 
BRANCH  13  17
ATOM     17  C   UNL d   1      -2.239  -6.962  -0.773  0.00  0.00     0.034 A 
ATOM     18  C   UNL d   1      -2.993  -6.932   0.410  0.00  0.00     0.019 A 
ATOM     19  C   UNL d   1      -3.564  -8.105   0.912  0.00  0.00     0.025 A 
ATOM     20  C   UNL d   1      -3.407  -9.304   0.220  0.00  0.00     0.034 A 
ATOM     21  C   UNL d   1      -2.683  -9.341  -0.971  0.00  0.00     0.025 A 
ATOM     22 CL   UNL d   1      -4.130 -10.740   0.831  0.00  0.00    -0.084 Cl
ATOM     23  C   UNL d   1      -2.101  -8.170  -1.471  0.00  0.00     0.019 A 
ENDBRANCH  13  17
ENDBRANCH   1   9
BRANCH   2  24
ATOM     24  S   UNL d   1      -2.337  -0.518  -1.719  0.00  0.00    -0.126 SA
ATOM     25  C   UNL d   1      -1.695  -0.661  -3.404  0.00  0.00     0.096 C 
ENDBRANCH   2  24
TORSDOF 3
