REMARK  4 active torsions:
REMARK  status: ('A' for Active; 'I' for Inactive)
REMARK    1  A    between atoms: C_6  and  C_1 
REMARK    2  A    between atoms: S_12  and  C_2 
REMARK    3  A    between atoms: C_7  and  C_4 
REMARK    4  A    between atoms: O_16  and  C_7 
ROOT
ATOM      1  C   UNL d   1       0.668   1.300   0.008  0.00  0.00     0.023 A 
ATOM      2  C   UNL d   1      -0.714   1.257  -0.055  0.00  0.00     0.054 A 
ATOM      3  C   UNL d   1       1.258  -0.027   0.106  0.00  0.00    -0.024 A 
ATOM      4  C   UNL d   1       0.274  -1.019   0.053  0.00  0.00     0.088 A 
ATOM      5  S   UNL d   1      -1.298  -0.343  -0.029  0.00  0.00    -0.076 SA
ATOM      6  C   UNL d   1       2.727  -0.308   0.254  0.00  0.00     0.050 C 
ENDROOT
BRANCH   1   7
ATOM      7  C   UNL d   1       1.472   2.539  -0.018  0.00  0.00     0.062 A 
ATOM      8  N   UNL d   1       1.202   3.607   0.741  0.00  0.00    -0.300 N 
ATOM      9  N   UNL d   1       2.126   4.509   0.377  0.00  0.00    -0.311 N 
ATOM     10  HN  UNL d   1       0.464   3.712   1.437  1.00  0.00     0.187 HD
ATOM     11  C   UNL d   1       3.019   4.032  -0.536  0.00  0.00     0.109 A 
ATOM     12  H   UNL d   1       2.090   5.431   0.798  0.00  0.00     0.186 HD
ATOM     13  C   UNL d   1       2.605   2.756  -0.835  0.00  0.00     0.050 A 
ENDBRANCH   1   7
BRANCH   2  14
ATOM     14  S   UNL d   1      -1.853   2.596  -0.216  0.00  0.00    -0.126 SA
ATOM     15  C   UNL d   1      -2.103   3.000   1.530  0.00  0.00     0.096 C 
ENDBRANCH   2  14
BRANCH   4  16
ATOM     16  C   UNL d   1       0.364  -2.478   0.062  0.00  0.00     0.300 C 
ATOM     17  O   UNL d   1      -0.572  -3.260   0.158  0.00  0.00    -0.259 OA
BRANCH  16  18
ATOM     18  O   UNL d   1       1.663  -2.879  -0.071  0.00  0.00    -0.322 OA
ATOM     19  C   UNL d   1       1.849  -4.294  -0.060  0.00  0.00     0.213 C 
ENDBRANCH  16  18
ENDBRANCH   4  16
TORSDOF 4
