REMARK  4 active torsions:
REMARK  status: ('A' for Active; 'I' for Inactive)
REMARK    1  A    between atoms: S_10  and  C_2 
REMARK    2  A    between atoms: S_17  and  C_5 
REMARK    3  A    between atoms: C_8  and  S_10 
REMARK    4  A    between atoms: C_16  and  C_12 
ROOT
ATOM      1  C   UNL d   1       1.895   3.376  -0.199  0.00  0.00    -0.011 C 
ATOM      2  C   UNL d   1       2.360   4.140   0.802  0.00  0.00     0.064 C 
ATOM      3  C   UNL d   1       3.802   4.460   0.894  0.00  0.00     0.151 C 
ATOM      4  C   UNL d   1       4.248   2.552  -0.708  0.00  0.00     0.030 C 
ATOM      5  C   UNL d   1       2.809   2.757  -1.235  0.00  0.00     0.056 C 
ATOM      6  C   UNL d   1       4.748   3.888  -0.134  0.00  0.00     0.092 C 
ATOM      7  O   UNL d   1       4.184   5.247   1.760  0.00  0.00    -0.293 OA
ENDROOT
BRANCH   1   8
ATOM      8  S   UNL d   1       0.195   2.983  -0.254  0.00  0.00    -0.068 SA
BRANCH   8   9
ATOM      9  C   UNL d   1      -0.329   4.168  -1.433  0.00  0.00     0.133 A 
ATOM     10  S   UNL d   1      -1.974   4.325  -1.895  0.00  0.00    -0.037 SA
ATOM     11  C   UNL d   1      -1.474   5.575  -2.954  0.00  0.00     0.128 A 
ATOM     12  N   UNL d   1      -0.182   5.823  -2.931  0.00  0.00    -0.287 N 
ATOM     13  N   UNL d   1       0.486   5.002  -2.045  0.00  0.00    -0.286 N 
ATOM     14  HN  UNL d   1       0.272   6.537  -3.500  1.00  0.00     0.188 HD
ATOM     15  HN  UNL d   1       1.493   5.038  -1.882  1.00  0.00     0.188 HD
BRANCH  11  16
ATOM     16  S   UNL d   1      -2.587   6.442  -3.986  0.00  0.00    -0.108 SA
ATOM     17  C   UNL d   1      -1.445   7.547  -4.846  0.00  0.00     0.097 C 
ENDBRANCH  11  16
ENDBRANCH   8   9
ENDBRANCH   1   8
BRANCH   4  18
ATOM     18  C   UNL d   1       4.456   1.363   0.237  0.00  0.00    -0.053 A 
ATOM     19  C   UNL d   1       3.421   0.495   0.622  0.00  0.00     0.007 A 
ATOM     20  C   UNL d   1       3.670  -0.622   1.425  0.00  0.00     0.001 A 
ATOM     21  C   UNL d   1       4.960  -0.897   1.862  0.00  0.00     0.000 A 
ATOM     22  C   UNL d   1       6.002  -0.052   1.499  0.00  0.00     0.001 A 
ATOM     23  C   UNL d   1       5.754   1.062   0.691  0.00  0.00     0.007 A 
ENDBRANCH   4  18
TORSDOF 4
