REMARK  6 active torsions:
REMARK  status: ('A' for Active; 'I' for Inactive)
REMARK    1  A    between atoms: N_4  and  S_1 
REMARK    2  A    between atoms: C_9  and  S_1 
REMARK    3  A    between atoms: C_5  and  C_2 
REMARK    4  A    between atoms: N_11  and  C_3 
REMARK    5  A    between atoms: C_12  and  N_4 
REMARK    6  A    between atoms: O_15  and  C_5 
ROOT
ATOM      1  C   UNL d   1       2.442   0.638  -4.258  0.00  0.00     0.066 A 
ATOM      2  C   UNL d   1       1.525   0.535  -5.341  0.00  0.00     0.046 A 
ATOM      3  C   UNL d   1       2.135   0.141  -2.977  0.00  0.00     0.050 A 
ATOM      4  C   UNL d   1       0.259   0.008  -5.033  0.00  0.00     0.033 A 
ATOM      5  C   UNL d   1       0.896  -0.436  -2.736  0.00  0.00     0.043 A 
ATOM      6  C   UNL d   1      -0.055  -0.467  -3.751  0.00  0.00     0.032 A 
ENDROOT
BRANCH   5   7
ATOM      7  N   UNL d   1       0.587  -0.982  -1.462  0.00  0.00    -0.281 N 
ATOM      8  H   UNL d   1       0.126  -1.889  -1.427  0.00  0.00     0.179 HD
BRANCH   7   9
ATOM      9  S   UNL d   1       0.139   0.020  -0.184  0.00  0.00     0.263 S 
ATOM     10  O   UNL d   1       1.173   1.000   0.045  0.00  0.00    -0.200 OA
ATOM     11  O   UNL d   1      -0.321  -0.860   0.874  0.00  0.00    -0.200 OA
BRANCH   9  12
ATOM     12  C   UNL d   1      -1.290   0.866  -0.826  0.00  0.00     0.079 A 
ATOM     13  C   UNL d   1      -2.559   0.296  -0.678  0.00  0.00     0.025 A 
ATOM     14  C   UNL d   1      -3.670   0.956  -1.202  0.00  0.00     0.002 A 
ATOM     15  C   UNL d   1      -3.512   2.178  -1.858  0.00  0.00     0.000 A 
ATOM     16  C   UNL d   1      -2.246   2.755  -1.978  0.00  0.00     0.002 A 
ATOM     17  C   UNL d   1      -1.133   2.105  -1.455  0.00  0.00     0.025 A 
ENDBRANCH   9  12
ENDBRANCH   7   9
ENDBRANCH   5   7
BRANCH   1  18
ATOM     18  C   UNL d   1       3.755   1.330  -4.377  0.00  0.00     0.178 C 
ATOM     19  O   UNL d   1       4.740   1.012  -3.741  0.00  0.00    -0.646 OA
BRANCH  18  20
ATOM     20  O   UNL d   1       3.716   2.400  -5.205  0.00  0.00    -0.773 OA
ATOM     21  H   UNL d   1       2.886   2.407  -5.737  0.00  0.00     0.167 HD
ENDBRANCH  18  20
ENDBRANCH   1  18
BRANCH   2  22
ATOM     22  N   UNL d   1       1.862   0.976  -6.638  0.00  0.00    -0.389 N 
ATOM     23  C   UNL d   1       0.801   1.212  -7.629  0.00  0.00     0.149 C 
ATOM     24  C   UNL d   1       3.057   0.318  -7.228  0.00  0.00     0.149 C 
ENDBRANCH   2  22
TORSDOF 6
