REMARK  6 active torsions:
REMARK  status: ('A' for Active; 'I' for Inactive)
REMARK       I    between atoms: N_5  and  C_1 
REMARK       I    between atoms: N_6  and  C_1 
REMARK    1  A    between atoms: C_2  and  S_8 
REMARK    2  A    between atoms: C_14  and  N_5 
REMARK    3  A    between atoms: C_15  and  N_6 
REMARK    4  A    between atoms: S_9  and  C_7 
REMARK    5  A    between atoms: S_8  and  C_16 
REMARK    6  A    between atoms: C_17  and  S_9 
ROOT
ATOM      1  C   UNL d   1       1.143   0.023  -0.032  0.00  0.00     0.325 C 
ATOM      2  N   UNL d   1       0.589  -0.296  -1.262  0.00  0.00    -0.307 N 
ATOM      3  N   UNL d   1       0.267   0.749   0.758  0.00  0.00    -0.309 N 
ATOM      4  O   UNL d   1       2.279  -0.287   0.299  0.00  0.00    -0.247 OA
ATOM      5  H   UNL d   1      -0.291   0.135  -1.500  0.00  0.00     0.170 HD
ATOM      6  H   UNL d   1      -0.702   0.762   0.479  0.00  0.00     0.170 HD
ENDROOT
BRANCH   2   7
ATOM      7  C   UNL d   1       1.248  -1.013  -2.291  0.00  0.00     0.051 A 
ATOM      8  C   UNL d   1       2.470  -1.669  -2.149  0.00  0.00     0.118 A 
ATOM      9  N   UNL d   1       3.107  -2.337  -3.144  0.00  0.00    -0.358 N 
ATOM     10  C   UNL d   1       2.512  -2.365  -4.353  0.00  0.00     0.074 A 
ATOM     11  HN  UNL d   1       4.002  -2.800  -2.984  1.00  0.00     0.166 HD
ATOM     12  C   UNL d   1       1.286  -1.758  -4.592  0.00  0.00     0.039 A 
ATOM     13  C   UNL d   1       0.648  -1.078  -3.549  0.00  0.00     0.034 A 
BRANCH  10  14
ATOM     14  S   UNL d   1       3.323  -3.309  -5.622  0.00  0.00    -0.073 SA
BRANCH  14  15
ATOM     15  C   UNL d   1       4.437  -2.119  -6.346  0.00  0.00     0.007 A 
ATOM     16  C   UNL d   1       5.339  -1.367  -5.587  0.00  0.00     0.020 A 
ATOM     17  C   UNL d   1       6.234  -0.488  -6.210  0.00  0.00     0.025 A 
ATOM     18  C   UNL d   1       6.231  -0.367  -7.599  0.00  0.00     0.034 A 
ATOM     19  C   UNL d   1       5.344  -1.117  -8.367  0.00  0.00     0.025 A 
ATOM     20 CL   UNL d   1       7.336   0.701  -8.371  0.00  0.00    -0.084 Cl
ATOM     21  C   UNL d   1       4.453  -1.992  -7.741  0.00  0.00     0.020 A 
ENDBRANCH  14  15
ENDBRANCH  10  14
ENDBRANCH   2   7
BRANCH   3  22
ATOM     22  C   UNL d   1       0.571   1.351   2.003  0.00  0.00     0.036 A 
ATOM     23  C   UNL d   1       1.861   1.416   2.538  0.00  0.00     0.031 A 
ATOM     24  C   UNL d   1       2.102   2.034   3.770  0.00  0.00     0.021 A 
ATOM     25  C   UNL d   1       1.053   2.594   4.497  0.00  0.00     0.009 A 
ATOM     26  C   UNL d   1      -0.235   2.560   3.955  0.00  0.00     0.021 A 
ATOM     27  C   UNL d   1      -0.475   1.939   2.721  0.00  0.00     0.031 A 
BRANCH  25  28
ATOM     28  S   UNL d   1       1.333   3.416   6.048  0.00  0.00    -0.016 SA
BRANCH  28  29
ATOM     29  C   UNL d   1       1.960   2.063   7.060  0.00  0.00     0.448 C 
ATOM     30  F   UNL d   1       2.054   0.883   6.406  0.00  0.00    -0.160 F 
ATOM     31  F   UNL d   1       3.194   2.354   7.539  0.00  0.00    -0.160 F 
ATOM     32  F   UNL d   1       1.155   1.860   8.132  0.00  0.00    -0.160 F 
ENDBRANCH  28  29
ENDBRANCH  25  28
ENDBRANCH   3  22
TORSDOF 6
