REMARK  4 active torsions:
REMARK  status: ('A' for Active; 'I' for Inactive)
REMARK    1  A    between atoms: N_10  and  C_4 
REMARK    2  A    between atoms: C_6  and  C_5 
REMARK    3  A    between atoms: C_16  and  N_10 
REMARK    4  A    between atoms: O_22  and  C_17 
ROOT
ATOM      1  C   UNL d   1       0.733   1.169  -0.378  0.00  0.00     0.071 C 
ATOM      2  C   UNL d   1       1.479  -0.098  -0.177  0.00  0.00     0.165 C 
ATOM      3  C   UNL d   1      -0.722   1.252  -0.097  0.00  0.00     0.165 C 
ATOM      4  C   UNL d   1       1.308   2.220  -0.980  0.00  0.00     0.107 C 
ATOM      5  C   UNL d   1      -0.727  -1.225   0.415  0.00  0.00     0.040 C 
ATOM      6  C   UNL d   1      -1.496  -0.038  -0.166  0.00  0.00     0.094 C 
ATOM      7  C   UNL d   1       0.676  -1.375  -0.177  0.00  0.00     0.094 C 
ATOM      8  O   UNL d   1      -1.287   2.327   0.085  0.00  0.00    -0.292 OA
ATOM      9  O   UNL d   1       2.709  -0.118  -0.117  0.00  0.00    -0.292 OA
ENDROOT
BRANCH   4  10
ATOM     10  N   UNL d   1       2.597   2.351  -1.434  0.00  0.00    -0.365 N 
ATOM     11  H   UNL d   1       3.236   1.594  -1.178  0.00  0.00     0.165 HD
BRANCH  10  12
ATOM     12  C   UNL d   1       3.110   3.356  -2.268  0.00  0.00     0.032 A 
ATOM     13  C   UNL d   1       4.495   3.544  -2.329  0.00  0.00     0.032 A 
ATOM     14  C   UNL d   1       5.052   4.606  -3.054  0.00  0.00     0.039 A 
ATOM     15  C   UNL d   1       4.226   5.503  -3.729  0.00  0.00     0.068 A 
ATOM     16  C   UNL d   1       2.847   5.304  -3.703  0.00  0.00     0.039 A 
ATOM     17  C   UNL d   1       2.296   4.246  -2.977  0.00  0.00     0.032 A 
BRANCH  15  18
ATOM     18  O   UNL d   1       4.631   6.600  -4.435  0.00  0.00    -0.356 OA
ATOM     19  C   UNL d   1       6.015   6.914  -4.384  0.00  0.00     0.210 C 
ENDBRANCH  15  18
ENDBRANCH  10  12
ENDBRANCH   4  10
BRANCH   5  20
ATOM     20  C   UNL d   1      -0.710  -1.215   1.931  0.00  0.00    -0.013 A 
ATOM     21  S   UNL d   1      -1.433  -2.529   2.776  0.00  0.00    -0.106 SA
ATOM     22  C   UNL d   1      -1.062  -1.850   4.296  0.00  0.00     0.050 A 
ATOM     23  C   UNL d   1      -0.400  -0.651   4.178  0.00  0.00     0.008 A 
ATOM     24  C   UNL d   1      -0.194  -0.284   2.815  0.00  0.00     0.015 A 
ENDBRANCH   5  20
TORSDOF 4
