REMARK  3 active torsions:
REMARK  status: ('A' for Active; 'I' for Inactive)
REMARK    1  A    between atoms: N_13  and  C_10 
REMARK    2  A    between atoms: C_11  and  C_16 
REMARK       I    between atoms: C_12  and  N_13 
REMARK       I    between atoms: N_15  and  C_12 
REMARK    3  A    between atoms: C_24  and  N_15 
ROOT
ATOM      1  C   UNL d   1      -4.226  -0.511  -0.228  0.00  0.00     0.325 C 
ATOM      2  N   UNL d   1      -3.329  -1.287   0.481  0.00  0.00    -0.306 N 
ATOM      3  N   UNL d   1      -5.459  -1.134  -0.283  0.00  0.00    -0.309 N 
ATOM      4  O   UNL d   1      -3.947   0.571  -0.729  0.00  0.00    -0.247 OA
ATOM      5  H   UNL d   1      -3.728  -1.901   1.179  0.00  0.00     0.171 HD
ATOM      6  H   UNL d   1      -5.444  -2.134  -0.147  0.00  0.00     0.170 HD
ENDROOT
BRANCH   2   7
ATOM      7  C   UNL d   1      -1.939  -1.044   0.603  0.00  0.00     0.074 A 
ATOM      8  C   UNL d   1      -1.239  -1.623   1.666  0.00  0.00     0.078 A 
ATOM      9  C   UNL d   1       0.139  -1.410   1.808  0.00  0.00     0.057 A 
ATOM     10 CL   UNL d   1      -1.996  -2.610   2.846  0.00  0.00    -0.081 Cl
ATOM     11  C   UNL d   1       0.745  -0.667   0.803  0.00  0.00     0.136 A 
ATOM     12  C   UNL d   1       1.196  -1.712   2.712  0.00  0.00     0.038 A 
ATOM     13  N   UNL d   1       2.081  -0.655   1.102  0.00  0.00    -0.280 N 
ATOM     14  N   UNL d   1       0.148  -0.090  -0.259  0.00  0.00    -0.348 N 
ATOM     15  C   UNL d   1       3.144  -0.115   0.291  0.00  0.00     0.179 C 
ATOM     16  N   UNL d   1       2.380  -1.264   2.268  0.00  0.00    -0.301 N 
ATOM     17  HN  UNL d   1       3.295  -1.361   2.710  1.00  0.00     0.187 HD
ATOM     18  C   UNL d   1      -1.196  -0.287  -0.299  0.00  0.00     0.121 A 
ATOM     19  HN  UNL d   1       0.657   0.442  -0.965  1.00  0.00     0.167 HD
ATOM     20  C   UNL d   1       1.120  -2.401   4.025  0.00  0.00     0.070 C 
ENDBRANCH   2   7
BRANCH   3  21
ATOM     21  C   UNL d   1      -6.657  -0.591  -0.789  0.00  0.00     0.036 A 
ATOM     22  C   UNL d   1      -6.849   0.773  -1.016  0.00  0.00     0.030 A 
ATOM     23  C   UNL d   1      -8.061   1.244  -1.534  0.00  0.00     0.018 A 
ATOM     24  C   UNL d   1      -9.103   0.358  -1.834  0.00  0.00     0.048 A 
ATOM     25  C   UNL d   1      -8.918  -1.008  -1.575  0.00  0.00     0.018 A 
ATOM     26  C   UNL d   1      -7.708  -1.476  -1.051  0.00  0.00     0.030 A 
BRANCH  24  27
ATOM     27  C   UNL d   1     -10.402   0.847  -2.426  0.00  0.00     0.417 C 
ATOM     28  F   UNL d   1     -10.412   2.181  -2.701  0.00  0.00    -0.166 F 
ATOM     29  F   UNL d   1     -10.704   0.223  -3.599  0.00  0.00    -0.166 F 
ATOM     30  F   UNL d   1     -11.464   0.626  -1.603  0.00  0.00    -0.166 F 
ENDBRANCH  24  27
ENDBRANCH   3  21
TORSDOF 3
