REMARK  3 active torsions:
REMARK  status: ('A' for Active; 'I' for Inactive)
REMARK    1  A    between atoms: C_2  and  C_1 
REMARK    2  A    between atoms: C_17  and  N_3 
REMARK    3  A    between atoms: C_9  and  C_4 
ROOT
ATOM      1  C   UNL d   1      -0.406  -2.698  -0.061  0.00  0.00     0.065 A 
ATOM      2  C   UNL d   1      -1.211  -3.290  -1.009  0.00  0.00     0.127 A 
ATOM      3  N   UNL d   1      -0.483  -4.931   0.359  0.00  0.00    -0.271 N 
ATOM      4  HN  UNL d   1      -0.324  -5.848   0.776  1.00  0.00     0.194 HD
ATOM      5  O   UNL d   1      -1.253  -4.634  -0.755  0.00  0.00    -0.236 OA
ATOM      6  C   UNL d   1       0.007  -3.760   0.769  0.00  0.00     0.132 A 
ENDROOT
BRANCH   1   7
ATOM      7  C   UNL d   1      -0.081  -1.258   0.063  0.00  0.00     0.153 C 
ATOM      8  N   UNL d   1       1.044  -0.683   0.630  0.00  0.00    -0.224 N 
ATOM      9  N   UNL d   1       0.786   0.628   0.836  0.00  0.00     0.001 NA
ATOM     10  N   UNL d   1      -0.358   0.870   0.212  0.00  0.00    -0.007 NA
ATOM     11  N   UNL d   1      -0.896  -0.284  -0.291  0.00  0.00    -0.269 N 
ATOM     12  HN  UNL d   1      -1.756  -0.373  -0.833  1.00  0.00     0.185 HD
BRANCH   8  13
ATOM     13  C   UNL d   1       2.328  -1.230   0.858  0.00  0.00     0.056 A 
ATOM     14  C   UNL d   1       2.795  -2.306   0.087  0.00  0.00     0.031 A 
ATOM     15  C   UNL d   1       4.054  -2.851   0.342  0.00  0.00     0.002 A 
ATOM     16  C   UNL d   1       4.849  -2.321   1.353  0.00  0.00     0.000 A 
ATOM     17  C   UNL d   1       4.404  -1.226   2.095  0.00  0.00     0.002 A 
ATOM     18  C   UNL d   1       3.151  -0.666   1.839  0.00  0.00     0.031 A 
ENDBRANCH   8  13
ENDBRANCH   1   7
BRANCH   2  19
ATOM     19  C   UNL d   1      -1.910  -2.854  -2.210  0.00  0.00     0.040 A 
ATOM     20  C   UNL d   1      -3.098  -3.470  -2.632  0.00  0.00     0.132 A 
ATOM     21  C   UNL d   1      -3.778  -3.038  -3.768  0.00  0.00     0.085 A 
ATOM     22  F   UNL d   1      -3.621  -4.491  -1.937  0.00  0.00    -0.205 F 
ATOM     23  C   UNL d   1      -3.268  -1.975  -4.496  0.00  0.00     0.119 A 
ATOM     24  C   UNL d   1      -2.087  -1.353  -4.122  0.00  0.00     0.043 A 
ATOM     25  F   UNL d   1      -3.924  -1.542  -5.581  0.00  0.00    -0.206 F 
ATOM     26  C   UNL d   1      -1.403  -1.798  -2.988  0.00  0.00     0.020 A 
ENDBRANCH   2  19
TORSDOF 3
