REMARK  3 active torsions:
REMARK  status: ('A' for Active; 'I' for Inactive)
REMARK    1  A    between atoms: C_8  and  C_1 
REMARK    2  A    between atoms: C_7  and  C_3 
REMARK    3  A    between atoms: O_14  and  C_8 
ROOT
ATOM      1  C   UNL d   1      -0.117  -1.079  -0.017  0.00  0.00     0.102 A 
ATOM      2  S   UNL d   1       1.410  -0.300  -0.025  0.00  0.00    -0.061 SA
ATOM      3  C   UNL d   1       0.644   1.240   0.002  0.00  0.00     0.103 A 
ATOM      4  N   UNL d   1      -0.675   1.190   0.014  0.00  0.00    -0.351 N 
ATOM      5  HN  UNL d   1      -1.284   2.008   0.030  1.00  0.00     0.166 HD
ATOM      6  C   UNL d   1      -1.121  -0.124   0.002  0.00  0.00     0.030 A 
ATOM      7  C   UNL d   1      -2.591  -0.362   0.008  0.00  0.00     0.070 C 
ENDROOT
BRANCH   3   8
ATOM      8  C   UNL d   1       1.433   2.477   0.006  0.00  0.00     0.081 A 
ATOM      9  N   UNL d   1       2.791   2.370  -0.015  0.00  0.00    -0.361 N 
ATOM     10  C   UNL d   1       3.474   3.538  -0.015  0.00  0.00     0.105 A 
ATOM     11  HN  UNL d   1       3.263   1.466  -0.029  1.00  0.00     0.165 HD
ATOM     12  C   UNL d   1       2.844   4.770   0.004  0.00  0.00     0.104 A 
ATOM     13  N   UNL d   1       1.499   4.893   0.027  0.00  0.00    -0.372 N 
ATOM     14  C   UNL d   1       0.811   3.721   0.028  0.00  0.00     0.120 A 
ATOM     15  HN  UNL d   1       1.033   5.800   0.043  1.00  0.00     0.164 HD
ENDBRANCH   3   8
BRANCH   1  16
ATOM     16  C   UNL d   1      -0.248  -2.520  -0.028  0.00  0.00     0.185 C 
ATOM     17  O   UNL d   1      -1.304  -3.136  -0.000  0.00  0.00    -0.646 OA
BRANCH  16  18
ATOM     18  O   UNL d   1       0.946  -3.168  -0.076  0.00  0.00    -0.772 OA
ATOM     19  H   UNL d   1       1.702  -2.549  -0.095  0.00  0.00     0.167 HD
ENDBRANCH  16  18
ENDBRANCH   1  16
TORSDOF 3
