REMARK  6 active torsions:
REMARK  status: ('A' for Active; 'I' for Inactive)
REMARK    1  A    between atoms: C_3  and  S_1 
REMARK    2  A    between atoms: N_5  and  S_1 
REMARK    3  A    between atoms: C_4  and  O_10 
REMARK    4  A    between atoms: C_21  and  N_5 
REMARK    5  A    between atoms: O_10  and  C_17 
REMARK    6  A    between atoms: C_22  and  C_21 
ROOT
ATOM      1  C   UNL d   1       1.468  -7.539  -0.852  0.00  0.00     0.100 A 
ATOM      2  C   UNL d   1       1.427  -6.257  -1.424  0.00  0.00     0.098 A 
ATOM      3  C   UNL d   1       1.528  -7.697   0.575  0.00  0.00     0.104 C 
ATOM      4  N   UNL d   1       1.563  -7.831   1.727  0.00  0.00    -0.191 NA
ATOM      5  C   UNL d   1       1.421  -8.657  -1.695  0.00  0.00     0.057 A 
ATOM      6 CL   UNL d   1       1.512 -10.278  -1.091  0.00  0.00    -0.083 Cl
ATOM      7  C   UNL d   1       1.377  -6.113  -2.821  0.00  0.00     0.039 A 
ATOM      8  C   UNL d   1       1.273  -7.230  -3.643  0.00  0.00     0.005 A 
ATOM      9  C   UNL d   1       1.302  -8.503  -3.083  0.00  0.00     0.025 A 
ENDROOT
BRANCH   2  10
ATOM     10  O   UNL d   1       1.479  -5.152  -0.592  0.00  0.00    -0.309 OA
BRANCH  10  11
ATOM     11  C   UNL d   1       0.711  -4.049  -0.911  0.00  0.00     0.077 A 
ATOM     12  C   UNL d   1       1.220  -2.793  -0.567  0.00  0.00     0.062 A 
ATOM     13  C   UNL d   1       0.469  -1.643  -0.853  0.00  0.00     0.082 A 
ATOM     14  C   UNL d   1      -0.770  -1.748  -1.491  0.00  0.00     0.025 A 
ATOM     15  C   UNL d   1      -1.272  -3.002  -1.832  0.00  0.00     0.004 A 
ATOM     16  C   UNL d   1      -0.554  -4.149  -1.504  0.00  0.00     0.037 A 
BRANCH  13  17
ATOM     17  S   UNL d   1       1.027  -0.050  -0.271  0.00  0.00     0.259 S 
ATOM     18  O   UNL d   1       2.311  -0.253   0.354  0.00  0.00    -0.201 OA
ATOM     19  O   UNL d   1      -0.083   0.568   0.425  0.00  0.00    -0.201 OA
BRANCH  17  20
ATOM     20  N   UNL d   1       1.321   0.818  -1.665  0.00  0.00    -0.311 N 
ATOM     21  H   UNL d   1       2.046   0.424  -2.263  0.00  0.00     0.172 HD
BRANCH  20  22
ATOM     22  C   UNL d   1       0.235   1.547  -2.320  0.00  0.00     0.170 C 
BRANCH  22  23
ATOM     23  C   UNL d   1       0.717   2.045  -3.661  0.00  0.00    -0.037 A 
ATOM     24  C   UNL d   1       0.603   1.204  -4.778  0.00  0.00     0.048 A 
ATOM     25  C   UNL d   1       1.292   1.556  -5.913  0.00  0.00     0.105 A 
ATOM     26  O   UNL d   1       1.418   0.787  -7.029  0.00  0.00    -0.323 OA
ATOM     27  C   UNL d   1       2.029   2.716  -5.990  0.00  0.00     0.105 A 
ATOM     28  C   UNL d   1       2.526   1.461  -7.660  0.00  0.00     0.352 C 
ATOM     29  O   UNL d   1       2.717   2.802  -7.162  0.00  0.00    -0.323 OA
ATOM     30  C   UNL d   1       2.091   3.610  -4.945  0.00  0.00     0.040 A 
ATOM     31  C   UNL d   1       1.440   3.258  -3.758  0.00  0.00     0.012 A 
ENDBRANCH  22  23
ENDBRANCH  20  22
ENDBRANCH  17  20
ENDBRANCH  13  17
ENDBRANCH  10  11
ENDBRANCH   2  10
TORSDOF 6
