REMARK  2 active torsions:
REMARK  status: ('A' for Active; 'I' for Inactive)
REMARK    1  A    between atoms: S_3  and  C_1 
REMARK    2  A    between atoms: C_4  and  S_3 
ROOT
ATOM      1  C   UNL d   1       0.201  -1.268  -0.062  0.00  0.00     0.113 A 
ATOM      2  C   UNL d   1      -0.498  -0.061  -0.059  0.00  0.00     0.148 A 
ATOM      3  C   UNL d   1      -1.930   0.001  -0.042  0.00  0.00     0.120 C 
ATOM      4  N   UNL d   1      -3.091   0.045  -0.028  0.00  0.00    -0.190 NA
ATOM      5  N   UNL d   1       1.564  -1.283  -0.060  0.00  0.00    -0.357 N 
ATOM      6  HN  UNL d   1       2.091  -2.157  -0.068  1.00  0.00     0.166 HD
ATOM      7  N   UNL d   1       0.133   1.152  -0.055  0.00  0.00    -0.354 N 
ATOM      8  HN  UNL d   1      -0.383   2.032  -0.061  1.00  0.00     0.166 HD
ATOM      9  C   UNL d   1       1.483   1.112  -0.043  0.00  0.00     0.106 A 
ATOM     10  C   UNL d   1       2.183  -0.080  -0.048  0.00  0.00     0.106 A 
ENDROOT
BRANCH   1  11
ATOM     11  S   UNL d   1      -0.579  -2.865   0.029  0.00  0.00    -0.062 SA
BRANCH  11  12
ATOM     12  C   UNL d   1      -0.766  -3.229  -1.682  0.00  0.00     0.047 A 
ATOM     13  S   UNL d   1      -2.136  -4.103  -2.230  0.00  0.00    -0.095 SA
ATOM     14  C   UNL d   1      -1.570  -4.118  -3.842  0.00  0.00     0.051 A 
ATOM     15  C   UNL d   1      -0.366  -3.462  -3.970  0.00  0.00     0.009 A 
ATOM     16  C   UNL d   1       0.099  -2.950  -2.721  0.00  0.00     0.027 A 
ENDBRANCH  11  12
ENDBRANCH   1  11
TORSDOF 2
