REMARK  6 active torsions:
REMARK  status: ('A' for Active; 'I' for Inactive)
REMARK    1  A    between atoms: N_6  and  C_1 
REMARK    2  A    between atoms: C_8  and  C_2 
REMARK    3  A    between atoms: C_11  and  C_3 
REMARK       I    between atoms: C_7  and  N_6 
REMARK    4  A    between atoms: C_9  and  C_7 
REMARK    5  A    between atoms: O_17  and  C_8 
REMARK    6  A    between atoms: C_21  and  O_17 
ROOT
ATOM      1  C   UNL d   1      -1.644  -0.012  -0.045  0.00  0.00     0.094 C 
ATOM      2  C   UNL d   1      -1.331  -1.350  -0.297  0.00  0.00     0.085 C 
ATOM      3  C   UNL d   1       0.123  -1.569  -0.176  0.00  0.00     0.006 C 
ATOM      4  S   UNL d   1      -0.261   0.962  -0.040  0.00  0.00    -0.075 SA
ATOM      5  C   UNL d   1       0.803  -0.359  -0.050  0.00  0.00    -0.007 C 
ATOM      6  C   UNL d   1       2.260  -0.035   0.099  0.00  0.00     0.057 C 
ENDROOT
BRANCH   1   7
ATOM      7  N   UNL d   1      -2.891   0.590   0.117  0.00  0.00    -0.316 N 
ATOM      8  C   UNL d   1      -3.135   1.875   0.596  0.00  0.00     0.263 C 
ATOM      9  O   UNL d   1      -2.267   2.683   0.919  0.00  0.00    -0.267 OA
ATOM     10  H   UNL d   1      -3.699  -0.022   0.018  0.00  0.00     0.169 HD
BRANCH   8  11
ATOM     11  C   UNL d   1      -4.540   2.244   0.750  0.00  0.00     0.072 A 
ATOM     12  S   UNL d   1      -5.843   1.210   0.349  0.00  0.00    -0.097 SA
ATOM     13  C   UNL d   1      -7.004   2.370   0.844  0.00  0.00     0.050 A 
ATOM     14  C   UNL d   1      -6.419   3.526   1.301  0.00  0.00     0.009 A 
ATOM     15  C   UNL d   1      -4.999   3.456   1.243  0.00  0.00     0.025 A 
ENDBRANCH   8  11
ENDBRANCH   1   7
BRANCH   2  16
ATOM     16  C   UNL d   1      -2.334  -2.381  -0.626  0.00  0.00     0.297 C 
ATOM     17  O   UNL d   1      -2.064  -3.444  -1.164  0.00  0.00    -0.259 OA
BRANCH  16  18
ATOM     18  O   UNL d   1      -3.620  -1.990  -0.342  0.00  0.00    -0.318 OA
BRANCH  18  19
ATOM     19  C   UNL d   1      -4.671  -2.736  -0.978  0.00  0.00     0.174 C 
ATOM     20  C   UNL d   1      -5.325  -3.723  -0.031  0.00  0.00     0.034 C 
ENDBRANCH  18  19
ENDBRANCH  16  18
ENDBRANCH   2  16
BRANCH   3  21
ATOM     21  C   UNL d   1       0.837  -2.860  -0.069  0.00  0.00    -0.024 A 
ATOM     22  C   UNL d   1       2.098  -3.064  -0.651  0.00  0.00     0.012 A 
ATOM     23  C   UNL d   1       2.841  -4.220  -0.386  0.00  0.00     0.001 A 
ATOM     24  C   UNL d   1       2.305  -5.226   0.410  0.00  0.00     0.000 A 
ATOM     25  C   UNL d   1       1.026  -5.076   0.939  0.00  0.00     0.001 A 
ATOM     26  C   UNL d   1       0.307  -3.895   0.717  0.00  0.00     0.012 A 
ENDBRANCH   3  21
TORSDOF 6
