REMARK  4 active torsions:
REMARK  status: ('A' for Active; 'I' for Inactive)
REMARK    1  A    between atoms: C_4  and  S_1 
REMARK    2  A    between atoms: C_9  and  S_1 
REMARK    3  A    between atoms: N_2  and  C_5 
REMARK    4  A    between atoms: C_3  and  C_4 
ROOT
ATOM      1  C   UNL d   1       0.474  -0.799  -1.382  0.00  0.00     0.186 C 
ENDROOT
BRANCH   1   2
ATOM      2  C   UNL d   1       0.876   0.024  -2.590  0.00  0.00    -0.011 A 
ATOM      3  C   UNL d   1       0.125   1.102  -3.110  0.00  0.00     0.110 A 
ATOM      4  C   UNL d   1       0.588   1.877  -4.185  0.00  0.00     0.037 A 
ATOM      5  C   UNL d   1       1.812   1.575  -4.775  0.00  0.00     0.002 A 
ATOM      6  C   UNL d   1       2.567   0.508  -4.292  0.00  0.00     0.001 A 
ATOM      7  C   UNL d   1       2.109  -0.253  -3.210  0.00  0.00     0.010 A 
BRANCH   3   8
ATOM      8  N   UNL d   1      -1.202   1.427  -2.599  0.00  0.00    -0.115 N 
ATOM      9  O   UNL d   1      -2.025   0.503  -2.548  0.00  0.00    -0.532 OA
ATOM     10  O   UNL d   1      -1.429   2.606  -2.301  0.00  0.00    -0.532 OA
ENDBRANCH   3   8
ENDBRANCH   1   2
BRANCH   1  11
ATOM     11  S   UNL d   1       1.119  -0.015   0.093  0.00  0.00     0.179 S 
ATOM     12  O   UNL d   1       0.557   1.320   0.195  0.00  0.00    -0.222 OA
ATOM     13  O   UNL d   1       2.555  -0.222   0.121  0.00  0.00    -0.222 OA
BRANCH  11  14
ATOM     14  C   UNL d   1       0.421  -0.954   1.436  0.00  0.00     0.059 A 
ATOM     15  C   UNL d   1       1.259  -1.675   2.292  0.00  0.00     0.023 A 
ATOM     16  C   UNL d   1       0.710  -2.345   3.386  0.00  0.00     0.002 A 
ATOM     17  C   UNL d   1      -0.665  -2.296   3.619  0.00  0.00     0.000 A 
ATOM     18  C   UNL d   1      -1.497  -1.575   2.761  0.00  0.00     0.002 A 
ATOM     19  C   UNL d   1      -0.956  -0.895   1.668  0.00  0.00     0.023 A 
ENDBRANCH  11  14
ENDBRANCH   1  11
TORSDOF 4
