REMARK  8 active torsions:
REMARK  status: ('A' for Active; 'I' for Inactive)
REMARK    1  A    between atoms: C_9  and  C_1 
REMARK    2  A    between atoms: O_19  and  C_2 
REMARK    3  A    between atoms: C_17  and  N_3 
REMARK    4  A    between atoms: C_8  and  C_4 
REMARK    5  A    between atoms: S_7  and  C_8 
REMARK    6  A    between atoms: C_11  and  S_7 
REMARK    7  A    between atoms: C_22  and  C_9 
REMARK    8  A    between atoms: C_10  and  C_12 
ROOT
ATOM      1  C   UNL d   1      -0.084  -1.377   0.088  0.00  0.00     0.092 C 
ATOM      2  C   UNL d   1       1.156  -0.805  -0.164  0.00  0.00     0.178 C 
ATOM      3  N   UNL d   1       0.984   0.571  -0.054  0.00  0.00    -0.233 N 
ATOM      4  C   UNL d   1      -0.983  -0.273   0.084  0.00  0.00     0.059 C 
ATOM      5  N   UNL d   1      -0.322   0.893   0.125  0.00  0.00    -0.294 N 
ATOM      6  HN  UNL d   1      -0.717   1.824   0.262  1.00  0.00     0.187 HD
ENDROOT
BRANCH   4   7
ATOM      7  C   UNL d   1      -2.466  -0.275  -0.106  0.00  0.00     0.207 C 
BRANCH   7   8
ATOM      8  S   UNL d   1      -3.448  -0.323   1.377  0.00  0.00     0.196 S 
ATOM      9  O   UNL d   1      -3.290  -1.615   2.023  0.00  0.00    -0.221 OA
ATOM     10  O   UNL d   1      -3.269   0.905   2.134  0.00  0.00    -0.221 OA
BRANCH   8  11
ATOM     11  C   UNL d   1      -5.132  -0.267   0.754  0.00  0.00     0.128 A 
ATOM     12  N   UNL d   1      -5.241  -0.123  -0.593  0.00  0.00    -0.356 N 
ATOM     13  C   UNL d   1      -6.499  -0.040  -1.087  0.00  0.00     0.105 A 
ATOM     14  HN  UNL d   1      -4.421  -0.079  -1.198  1.00  0.00     0.166 HD
ATOM     15  C   UNL d   1      -7.647  -0.095  -0.307  0.00  0.00     0.063 A 
ATOM     16  C   UNL d   1      -7.485  -0.251   1.079  0.00  0.00     0.020 A 
ATOM     17  C   UNL d   1      -6.205  -0.338   1.627  0.00  0.00     0.042 A 
BRANCH  15  18
ATOM     18  C   UNL d   1      -9.005   0.010  -0.937  0.00  0.00     0.418 C 
ATOM     19  F   UNL d   1      -8.966   0.172  -2.289  0.00  0.00    -0.166 F 
ATOM     20  F   UNL d   1      -9.768  -1.095  -0.718  0.00  0.00    -0.166 F 
ATOM     21  F   UNL d   1      -9.723   1.062  -0.457  0.00  0.00    -0.166 F 
ENDBRANCH  15  18
ENDBRANCH   8  11
ENDBRANCH   7   8
ENDBRANCH   4   7
BRANCH   1  22
ATOM     22  C   UNL d   1      -0.389  -2.799   0.192  0.00  0.00     0.198 C 
ATOM     23  O   UNL d   1      -1.435  -3.261  -0.246  0.00  0.00    -0.286 OA
BRANCH  22  24
ATOM     24  C   UNL d   1       0.627  -3.714   0.805  0.00  0.00     0.015 A 
ATOM     25  C   UNL d   1       0.735  -5.021   0.316  0.00  0.00     0.015 A 
ATOM     26  C   UNL d   1       1.745  -5.866   0.787  0.00  0.00     0.001 A 
ATOM     27  C   UNL d   1       2.648  -5.411   1.748  0.00  0.00     0.000 A 
ATOM     28  C   UNL d   1       2.526  -4.122   2.264  0.00  0.00     0.001 A 
ATOM     29  C   UNL d   1       1.507  -3.282   1.810  0.00  0.00     0.015 A 
ENDBRANCH  22  24
ENDBRANCH   1  22
BRANCH   2  30
ATOM     30  O   UNL d   1       2.351  -1.348  -0.411  0.00  0.00    -0.344 OA
ATOM     31  H   UNL d   1       2.260  -2.304  -0.570  0.00  0.00     0.219 HD
ENDBRANCH   2  30
BRANCH   3  32
ATOM     32  C   UNL d   1       1.988   1.577  -0.110  0.00  0.00     0.059 A 
ATOM     33  C   UNL d   1       3.157   1.383  -0.860  0.00  0.00     0.031 A 
ATOM     34  C   UNL d   1       4.172   2.340  -0.842  0.00  0.00     0.002 A 
ATOM     35  C   UNL d   1       4.033   3.485  -0.063  0.00  0.00     0.000 A 
ATOM     36  C   UNL d   1       2.863   3.694   0.669  0.00  0.00     0.002 A 
ATOM     37  C   UNL d   1       1.827   2.756   0.630  0.00  0.00     0.031 A 
ENDBRANCH   3  32
TORSDOF 8
