REMARK  2 active torsions:
REMARK  status: ('A' for Active; 'I' for Inactive)
REMARK    1  A    between atoms: C_10  and  N_2 
REMARK    2  A    between atoms: C_12  and  C_7 
ROOT
ATOM      1  N   UNL d   1       6.336  -5.377   0.027  0.00  0.00    -0.191 NA
ATOM      2  C   UNL d   1       5.341  -4.780   0.034  0.00  0.00     0.099 C 
ATOM      3  C   UNL d   1       1.641  -2.719   0.058  0.00  0.00    -0.035 A 
ATOM      4  C   UNL d   1       4.104  -4.054   0.041  0.00  0.00     0.044 A 
ATOM      5  C   UNL d   1       2.288  -3.015   1.262  0.00  0.00     0.013 A 
ATOM      6  C   UNL d   1       2.242  -3.070  -1.157  0.00  0.00     0.013 A 
ATOM      7  C   UNL d   1       3.518  -3.680   1.254  0.00  0.00     0.023 A 
ATOM      8  C   UNL d   1       3.470  -3.736  -1.165  0.00  0.00     0.023 A 
ENDROOT
BRANCH   3   9
ATOM      9  C   UNL d   1       0.323  -2.098   0.070  0.00  0.00     0.030 C 
ATOM     10  C   UNL d   1       0.060  -0.787   0.027  0.00  0.00     0.058 A 
ATOM     11  C   UNL d   1      -1.337  -0.279   0.043  0.00  0.00     0.279 A 
ATOM     12  C   UNL d   1       0.894   0.419  -0.046  0.00  0.00     0.038 A 
ATOM     13  N   UNL d   1      -1.158   1.107  -0.051  0.00  0.00    -0.220 N 
ATOM     14  O   UNL d   1      -2.331  -0.977   0.129  0.00  0.00    -0.265 OA
ATOM     15  N   UNL d   1       0.177   1.508  -0.106  0.00  0.00    -0.294 N 
ATOM     16  HN  UNL d   1       0.524   2.464  -0.180  1.00  0.00     0.187 HD
ATOM     17  C   UNL d   1       2.385   0.438  -0.018  0.00  0.00     0.071 C 
BRANCH  13  18
ATOM     18  C   UNL d   1      -2.155   2.111   0.001  0.00  0.00     0.060 A 
ATOM     19  C   UNL d   1      -3.500   1.805   0.250  0.00  0.00     0.031 A 
ATOM     20  C   UNL d   1      -4.458   2.819   0.351  0.00  0.00     0.002 A 
ATOM     21  C   UNL d   1      -4.091   4.152   0.189  0.00  0.00     0.000 A 
ATOM     22  C   UNL d   1      -2.764   4.473  -0.080  0.00  0.00     0.002 A 
ATOM     23  C   UNL d   1      -1.805   3.460  -0.170  0.00  0.00     0.031 A 
ENDBRANCH  13  18
ENDBRANCH   3   9
TORSDOF 2
