REMARK  2 active torsions:
REMARK  status: ('A' for Active; 'I' for Inactive)
REMARK    1  A    between atoms: C_2  and  S_1 
REMARK    2  A    between atoms: N_7  and  S_1 
ROOT
ATOM      1  C   UNL d   1       0.380  -1.734   0.371  0.00  0.00     0.075 A 
ATOM      2  C   UNL d   1      -0.758  -1.942   1.152  0.00  0.00     0.043 A 
ATOM      3  C   UNL d   1      -1.159  -3.248   1.458  0.00  0.00     0.013 A 
ATOM      4  C   UNL d   1      -0.421  -4.355   0.996  0.00  0.00    -0.045 A 
ATOM      5  C   UNL d   1       1.124  -2.817  -0.100  0.00  0.00     0.025 A 
ATOM      6  C   UNL d   1       0.724  -4.117   0.214  0.00  0.00     0.009 A 
ATOM      7  I   UNL d   1      -2.893  -3.456   2.626  0.00  0.00    -0.044 I 
ATOM      8  C   UNL d   1      -0.800  -5.779   1.301  0.00  0.00     0.049 C 
ENDROOT
BRANCH   1   9
ATOM      9  S   UNL d   1       0.931  -0.080   0.056  0.00  0.00     0.241 S 
ATOM     10  O   UNL d   1       2.043  -0.125  -0.868  0.00  0.00    -0.206 OA
ATOM     11  O   UNL d   1       1.034   0.584   1.340  0.00  0.00    -0.206 OA
BRANCH   9  12
ATOM     12  N   UNL d   1      -0.369   0.645  -0.734  0.00  0.00    -0.220 NA
ATOM     13  C   UNL d   1      -0.421   0.544  -2.191  0.00  0.00     0.126 C 
ATOM     14  H   UNL d   1      -0.541   1.571  -0.339  0.00  0.00     0.139 HD
ENDBRANCH   9  12
ENDBRANCH   1   9
TORSDOF 2
