REMARK  13 active torsions:
REMARK  status: ('A' for Active; 'I' for Inactive)
REMARK    1  A    between atoms: N_2  and  C_1 
REMARK    2  A    between atoms: C_4  and  C_1 
REMARK    3  A    between atoms: C_5  and  C_1 
REMARK    4  A    between atoms: N_9  and  C_1 
REMARK       I    between atoms: C_6  and  N_2 
REMARK    5  A    between atoms: C_3  and  C_11 
REMARK    6  A    between atoms: C_7  and  C_3 
REMARK    7  A    between atoms: C_10  and  C_3 
REMARK    8  A    between atoms: O_24  and  C_3 
REMARK    9  A    between atoms: C_8  and  C_6 
REMARK   10  A    between atoms: C_25  and  N_9 
REMARK   11  A    between atoms: O_28  and  C_10 
REMARK   12  A    between atoms: O_32  and  C_13 
REMARK   13  A    between atoms: C_34  and  O_32 
ROOT
ATOM      1  C   UNL d   1       0.971  -0.498   0.042  0.00  0.00     0.306 C 
ENDROOT
BRANCH   1   2
ATOM      2  N   UNL d   1       0.390   0.698   0.675  0.00  0.00    -0.315 N 
ATOM      3  C   UNL d   1      -0.910   0.676   1.140  0.00  0.00     0.256 C 
ATOM      4  O   UNL d   1      -1.565  -0.356   1.097  0.00  0.00    -0.267 OA
ATOM      5  H   UNL d   1       0.920   1.551   0.581  0.00  0.00     0.165 HD
BRANCH   3   6
ATOM      6  C   UNL d   1      -1.468   1.921   1.746  0.00  0.00     0.065 A 
ATOM      7  C   UNL d   1      -2.853   2.193   1.718  0.00  0.00     0.084 A 
ATOM      8  C   UNL d   1      -3.343   3.321   2.391  0.00  0.00     0.038 A 
ATOM      9  C   UNL d   1      -2.480   4.158   3.098  0.00  0.00     0.003 A 
ATOM     10  C   UNL d   1      -1.114   3.891   3.125  0.00  0.00     0.001 A 
ATOM     11  C   UNL d   1      -0.607   2.778   2.455  0.00  0.00     0.020 A 
BRANCH   7  12
ATOM     12  O   UNL d   1      -3.657   1.386   0.957  0.00  0.00    -0.350 OA
BRANCH  12  13
ATOM     13  C   UNL d   1      -5.024   1.229   1.347  0.00  0.00     0.171 C 
ATOM     14  C   UNL d   1      -5.925   2.007   0.403  0.00  0.00     0.034 C 
ENDBRANCH  12  13
ENDBRANCH   7  12
ENDBRANCH   3   6
ENDBRANCH   1   2
BRANCH   1  15
ATOM     15  C   UNL d   1       0.270  -0.910  -1.306  0.00  0.00     0.441 C 
ATOM     16  F   UNL d   1      -1.010  -1.302  -1.238  0.00  0.00    -0.166 F 
ATOM     17  F   UNL d   1       0.312   0.136  -2.184  0.00  0.00    -0.166 F 
ATOM     18  F   UNL d   1       0.972  -1.908  -1.912  0.00  0.00    -0.166 F 
ENDBRANCH   1  15
BRANCH   1  19
ATOM     19  C   UNL d   1       0.931  -1.817   0.874  0.00  0.00     0.441 C 
ATOM     20  F   UNL d   1       1.070  -1.572   2.204  0.00  0.00    -0.166 F 
ATOM     21  F   UNL d   1      -0.193  -2.549   0.718  0.00  0.00    -0.166 F 
ATOM     22  F   UNL d   1       1.958  -2.641   0.531  0.00  0.00    -0.166 F 
ENDBRANCH   1  19
BRANCH   1  23
ATOM     23  N   UNL d   1       2.369  -0.037  -0.342  0.00  0.00    -0.349 N 
ATOM     24  H   UNL d   1       2.599  -0.487  -1.234  0.00  0.00     0.162 HD
BRANCH  23  25
ATOM     25  C   UNL d   1       3.528   0.036   0.415  0.00  0.00     0.030 A 
ATOM     26  C   UNL d   1       4.740  -0.154  -0.271  0.00  0.00     0.030 A 
ATOM     27  C   UNL d   1       5.989   0.079   0.313  0.00  0.00     0.013 A 
ATOM     28  C   UNL d   1       6.095   0.591   1.607  0.00  0.00    -0.005 A 
ATOM     29  C   UNL d   1       4.884   0.720   2.325  0.00  0.00     0.013 A 
ATOM     30  C   UNL d   1       3.622   0.444   1.740  0.00  0.00     0.030 A 
BRANCH  28  31
ATOM     31  C   UNL d   1       7.457   0.972   2.218  0.00  0.00     0.271 C 
BRANCH  31  32
ATOM     32  C   UNL d   1       8.196  -0.237   2.849  0.00  0.00     0.432 C 
ATOM     33  F   UNL d   1       9.524  -0.251   2.574  0.00  0.00    -0.167 F 
ATOM     34  F   UNL d   1       8.104  -0.198   4.205  0.00  0.00    -0.167 F 
ATOM     35  F   UNL d   1       7.707  -1.434   2.456  0.00  0.00    -0.167 F 
ENDBRANCH  31  32
BRANCH  31  36
ATOM     36  C   UNL d   1       8.483   1.559   1.217  0.00  0.00     0.307 C 
ATOM     37  O   UNL d   1       8.614   1.273   0.039  0.00  0.00    -0.261 OA
BRANCH  36  38
ATOM     38  O   UNL d   1       9.324   2.436   1.871  0.00  0.00    -0.324 OA
ATOM     39  C   UNL d   1      10.372   2.957   1.042  0.00  0.00     0.213 C 
ENDBRANCH  36  38
ENDBRANCH  31  36
BRANCH  31  40
ATOM     40  O   UNL d   1       7.190   2.019   3.201  0.00  0.00    -0.368 OA
ATOM     41  H   UNL d   1       8.057   2.279   3.569  0.00  0.00     0.212 HD
ENDBRANCH  31  40
ENDBRANCH  28  31
ENDBRANCH  23  25
ENDBRANCH   1  23
TORSDOF 13
