REMARK  4 active torsions:
REMARK  status: ('A' for Active; 'I' for Inactive)
REMARK    1  A    between atoms: C_5  and  C_1 
REMARK    2  A    between atoms: N_9  and  C_2 
REMARK    3  A    between atoms: C_8  and  C_10 
REMARK       I    between atoms: C_11  and  N_9 
REMARK       I    between atoms: C_10  and  N_12 
REMARK       I    between atoms: N_13  and  C_11 
REMARK    4  A    between atoms: N_12  and  N_13 
ROOT
ATOM      1  N   UNL d   1       0.558  -2.251  -0.124  0.00  0.00    -0.303 N 
ATOM      2  C   UNL d   1       1.736  -2.662   0.458  0.00  0.00     0.339 C 
ATOM      3  N   UNL d   1       2.071  -3.935   0.015  0.00  0.00    -0.248 N 
ATOM      4  O   UNL d   1       2.457  -2.012   1.204  0.00  0.00    -0.245 OA
ATOM      5  H   UNL d   1       0.276  -2.774  -0.943  0.00  0.00     0.171 HD
ATOM      6  H   UNL d   1       1.351  -4.591  -0.281  0.00  0.00     0.192 HD
ENDROOT
BRANCH   1   7
ATOM      7  C   UNL d   1      -0.156  -1.090   0.135  0.00  0.00     0.097 A 
ATOM      8  C   UNL d   1      -1.166  -0.508  -0.709  0.00  0.00     0.097 A 
ATOM      9  N   UNL d   1      -1.678   0.588  -0.129  0.00  0.00    -0.258 N 
ATOM     10  O   UNL d   1      -1.028   0.738   1.067  0.00  0.00    -0.240 OA
ATOM     11  HN  UNL d   1      -2.409   1.191  -0.505  1.00  0.00     0.195 HD
ATOM     12  C   UNL d   1      -0.146  -0.281   1.256  0.00  0.00     0.101 A 
ATOM     13  C   UNL d   1       0.497  -0.298   2.582  0.00  0.00     0.081 C 
BRANCH   8  14
ATOM     14  C   UNL d   1      -1.663  -0.945  -2.022  0.00  0.00     0.038 A 
ATOM     15  C   UNL d   1      -2.159  -2.248  -2.232  0.00  0.00     0.048 A 
ATOM     16 CL   UNL d   1      -2.232  -3.450  -0.979  0.00  0.00    -0.083 Cl
ATOM     17  C   UNL d   1      -2.657  -2.647  -3.478  0.00  0.00     0.025 A 
ATOM     18  C   UNL d   1      -2.704  -1.748  -4.538  0.00  0.00     0.003 A 
ATOM     19  C   UNL d   1      -2.231  -0.454  -4.356  0.00  0.00     0.025 A 
ATOM     20  C   UNL d   1      -1.701  -0.057  -3.120  0.00  0.00     0.048 A 
ATOM     21 CL   UNL d   1      -1.068   1.559  -3.057  0.00  0.00    -0.083 Cl
ENDBRANCH   8  14
ENDBRANCH   1   7
BRANCH   3  22
ATOM     22  N   UNL d   1       3.266  -4.529   0.439  0.00  0.00    -0.262 N 
ATOM     23  C   UNL d   1       3.567  -5.756  -0.127  0.00  0.00     0.273 C 
ATOM     24  O   UNL d   1       2.761  -6.390  -0.804  0.00  0.00    -0.266 OA
ATOM     25  H   UNL d   1       3.961  -3.908   0.854  0.00  0.00     0.190 HD
BRANCH  23  26
ATOM     26  C   UNL d   1       4.927  -6.285   0.103  0.00  0.00     0.077 A 
ATOM     27  C   UNL d   1       5.092  -7.562   0.661  0.00  0.00     0.051 A 
ATOM     28 CL   UNL d   1       3.767  -8.516   1.235  0.00  0.00    -0.083 Cl
ATOM     29  C   UNL d   1       6.373  -8.108   0.809  0.00  0.00     0.025 A 
ATOM     30  C   UNL d   1       7.496  -7.389   0.407  0.00  0.00     0.003 A 
ATOM     31  C   UNL d   1       7.339  -6.120  -0.149  0.00  0.00     0.025 A 
ATOM     32  C   UNL d   1       6.061  -5.569  -0.308  0.00  0.00     0.051 A 
ATOM     33 CL   UNL d   1       5.969  -4.016  -1.062  0.00  0.00    -0.083 Cl
ENDBRANCH  23  26
ENDBRANCH   3  22
TORSDOF 4
