REMARK  2 active torsions:
REMARK  status: ('A' for Active; 'I' for Inactive)
REMARK       I    between atoms: N_2  and  C_1 
REMARK    1  A    between atoms: C_9  and  C_1 
REMARK    2  A    between atoms: C_6  and  N_2 
ROOT
ATOM      1  C   UNL d   1       2.668  -4.143   0.978  0.00  0.00     0.104 A 
ATOM      2  C   UNL d   1       2.021  -2.909   1.009  0.00  0.00     0.069 A 
ATOM      3  C   UNL d   1       2.288  -5.116   0.053  0.00  0.00     0.102 A 
ATOM      4  C   UNL d   1       1.030  -2.608   0.071  0.00  0.00     0.037 A 
ATOM      5  O   UNL d   1       3.697  -4.323   1.868  0.00  0.00    -0.346 OA
ATOM      6  O   UNL d   1       2.915  -6.328  -0.071  0.00  0.00    -0.346 OA
ATOM      7  C   UNL d   1       1.242  -4.854  -0.830  0.00  0.00     0.042 A 
ATOM      8  C   UNL d   1       0.607  -3.607  -0.814  0.00  0.00     0.032 A 
ATOM      9  C   UNL d   1       4.604  -5.315   1.380  0.00  0.00     0.202 C 
ATOM     10  C   UNL d   1       3.842  -6.573   0.995  0.00  0.00     0.202 C 
ENDROOT
BRANCH   4  11
ATOM     11  N   UNL d   1       0.459  -1.320  -0.059  0.00  0.00    -0.323 N 
ATOM     12  C   UNL d   1       1.051  -0.147   0.397  0.00  0.00     0.256 C 
ATOM     13  O   UNL d   1       2.145  -0.061   0.940  0.00  0.00    -0.267 OA
ATOM     14  H   UNL d   1      -0.305  -1.226  -0.713  0.00  0.00     0.169 HD
BRANCH  12  15
ATOM     15  C   UNL d   1       0.310   1.116   0.142  0.00  0.00     0.032 A 
ATOM     16  C   UNL d   1      -1.087   1.179   0.151  0.00  0.00     0.017 A 
ATOM     17  C   UNL d   1      -1.725   2.418   0.040  0.00  0.00     0.001 A 
ATOM     18  C   UNL d   1      -0.974   3.589  -0.081  0.00  0.00     0.000 A 
ATOM     19  C   UNL d   1       0.417   3.528  -0.117  0.00  0.00     0.001 A 
ATOM     20  C   UNL d   1       1.058   2.294  -0.008  0.00  0.00     0.017 A 
ENDBRANCH  12  15
ENDBRANCH   4  11
TORSDOF 2
