REMARK  3 active torsions:
REMARK  status: ('A' for Active; 'I' for Inactive)
REMARK    1  A    between atoms: C_2  and  C_1 
REMARK    2  A    between atoms: O_4  and  C_2 
REMARK    3  A    between atoms: C_9  and  O_4 
ROOT
ATOM      1  C   UNL d   1      -2.500  -2.175  -0.143  0.00  0.00     0.300 C 
ATOM      2  O   UNL d   1      -3.576  -1.619  -0.286  0.00  0.00    -0.259 OA
ENDROOT
BRANCH   1   3
ATOM      3  C   UNL d   1      -1.205  -1.448  -0.217  0.00  0.00     0.061 A 
ATOM      4  C   UNL d   1      -0.072  -1.762   0.550  0.00  0.00     0.051 A 
ATOM      5  C   UNL d   1       1.106  -1.015   0.399  0.00  0.00     0.048 A 
ATOM      6 CL   UNL d   1      -0.045  -2.996   1.760  0.00  0.00    -0.083 Cl
ATOM      7  C   UNL d   1       1.147   0.053  -0.493  0.00  0.00     0.035 A 
ATOM      8  C   UNL d   1       0.019   0.399  -1.231  0.00  0.00     0.025 A 
ATOM      9 CL   UNL d   1       2.598   0.961  -0.673  0.00  0.00    -0.084 Cl
ATOM     10  C   UNL d   1      -1.155  -0.348  -1.091  0.00  0.00     0.021 A 
ENDBRANCH   1   3
BRANCH   1  11
ATOM     11  O   UNL d   1      -2.274  -3.536  -0.015  0.00  0.00    -0.275 OA
BRANCH  11  12
ATOM     12  C   UNL d   1      -3.270  -4.505   0.264  0.00  0.00     0.081 A 
ATOM     13  C   UNL d   1      -4.532  -4.209   0.775  0.00  0.00     0.063 A 
ATOM     14  C   UNL d   1      -5.397  -5.254   1.123  0.00  0.00     0.058 A 
ATOM     15 CL   UNL d   1      -6.945  -4.835   1.772  0.00  0.00    -0.082 Cl
ATOM     16  C   UNL d   1      -4.994  -6.587   0.963  0.00  0.00     0.056 A 
ATOM     17  C   UNL d   1      -3.730  -6.871   0.438  0.00  0.00     0.028 A 
ATOM     18 CL   UNL d   1      -5.995  -7.921   1.413  0.00  0.00    -0.083 Cl
ATOM     19  C   UNL d   1      -2.868  -5.831   0.091  0.00  0.00     0.039 A 
ENDBRANCH  11  12
ENDBRANCH   1  11
TORSDOF 3
