REMARK  2 active torsions:
REMARK  status: ('A' for Active; 'I' for Inactive)
REMARK    1  A    between atoms: C_4  and  C_1 
REMARK    2  A    between atoms: O_10  and  C_4 
ROOT
ATOM      1  C   UNL d   1       0.646   1.396  -0.408  0.00  0.00     0.218 C 
ATOM      2  S   UNL d   1       1.695   0.075   0.295  0.00  0.00    -0.131 SA
ATOM      3  C   UNL d   1      -0.759   1.306   0.151  0.00  0.00     0.159 C 
ATOM      4  S   UNL d   1      -0.896  -1.403   0.566  0.00  0.00    -0.147 SA
ATOM      5  C   UNL d   1       0.746  -1.392  -0.212  0.00  0.00     0.106 C 
ATOM      6  C   UNL d   1      -1.592   0.088  -0.183  0.00  0.00     0.155 C 
ATOM      7  O   UNL d   1      -1.217   2.215   0.850  0.00  0.00    -0.295 OA
ATOM      8  C   UNL d   1       1.499  -2.640   0.242  0.00  0.00     0.033 C 
ENDROOT
BRANCH   1   9
ATOM      9  C   UNL d   1       0.679   1.416  -1.918  0.00  0.00     0.279 C 
ATOM     10  O   UNL d   1      -0.300   1.263  -2.636  0.00  0.00    -0.263 OA
BRANCH   9  11
ATOM     11  O   UNL d   1       1.938   1.648  -2.391  0.00  0.00    -0.325 OA
ATOM     12  C   UNL d   1       2.021   1.709  -3.816  0.00  0.00     0.213 C 
ENDBRANCH   9  11
ENDBRANCH   1   9
TORSDOF 2
