REMARK  6 active torsions:
REMARK  status: ('A' for Active; 'I' for Inactive)
REMARK    1  A    between atoms: C_8  and  N_1 
REMARK    2  A    between atoms: C_9  and  C_4 
REMARK    3  A    between atoms: C_7  and  O_14 
REMARK       I    between atoms: N_12  and  C_7 
REMARK    4  A    between atoms: O_14  and  N_10 
REMARK    5  A    between atoms: C_15  and  N_12 
REMARK    6  A    between atoms: O_23  and  C_17 
ROOT
ATOM      1  C   UNL d   1      -1.047   2.514   0.068  0.00  0.00     0.130 C 
ATOM      2  N   UNL d   1      -2.170   2.821  -0.494  0.00  0.00    -0.267 N 
ATOM      3  HN  UNL d   1      -2.798   2.169  -0.964  1.00  0.00     0.194 HD
ENDROOT
BRANCH   2   4
ATOM      4  O   UNL d   1      -2.381   4.208  -0.349  0.00  0.00    -0.181 OA
BRANCH   4   5
ATOM      5  C   UNL d   1      -3.498   4.591  -1.045  0.00  0.00     0.387 C 
ATOM      6  N   UNL d   1      -4.337   5.463  -0.382  0.00  0.00    -0.301 N 
ATOM      7  H   UNL d   1      -5.175   5.628  -0.925  0.00  0.00     0.171 HD
ATOM      8  O   UNL d   1      -3.792   4.196  -2.167  0.00  0.00    -0.236 OA
BRANCH   6   9
ATOM      9  C   UNL d   1      -4.356   5.857   0.968  0.00  0.00     0.037 A 
ATOM     10  C   UNL d   1      -3.279   5.737   1.846  0.00  0.00     0.032 A 
ATOM     11  C   UNL d   1      -3.425   6.020   3.210  0.00  0.00     0.039 A 
ATOM     12  C   UNL d   1      -4.656   6.426   3.716  0.00  0.00     0.068 A 
ATOM     13  C   UNL d   1      -5.711   6.639   2.831  0.00  0.00     0.039 A 
ATOM     14  C   UNL d   1      -5.561   6.367   1.465  0.00  0.00     0.032 A 
BRANCH  12  15
ATOM     15  O   UNL d   1      -4.942   6.641   5.034  0.00  0.00    -0.356 OA
ATOM     16  C   UNL d   1      -3.999   6.144   5.978  0.00  0.00     0.210 C 
ENDBRANCH  12  15
ENDBRANCH   6   9
ENDBRANCH   4   5
ENDBRANCH   2   4
BRANCH   1  17
ATOM     17  C   UNL d   1      -0.638   1.133   0.215  0.00  0.00     0.029 C 
ATOM     18  C   UNL d   1      -1.387  -0.031   0.057  0.00  0.00     0.039 C 
ATOM     19  N   UNL d   1      -0.501  -1.080   0.240  0.00  0.00    -0.287 N 
ATOM     20  C   UNL d   1      -2.843  -0.193  -0.214  0.00  0.00     0.071 C 
ATOM     21  N   UNL d   1       0.691  -0.646   0.707  0.00  0.00    -0.301 N 
ATOM     22  C   UNL d   1       0.626   0.680   0.665  0.00  0.00     0.035 C 
ATOM     23  HN  UNL d   1       1.474  -1.217   1.025  1.00  0.00     0.187 HD
ATOM     24  C   UNL d   1       1.802   1.476   1.102  0.00  0.00     0.070 C 
BRANCH  19  25
ATOM     25  C   UNL d   1      -0.678  -2.540   0.086  0.00  0.00     0.043 C 
ATOM     26  C   UNL d   1      -1.387  -3.116   1.324  0.00  0.00     0.039 C 
ATOM     27  C   UNL d   1      -1.453  -2.919  -1.189  0.00  0.00     0.039 C 
ATOM     28  C   UNL d   1       0.704  -3.247  -0.037  0.00  0.00     0.039 C 
ENDBRANCH  19  25
ENDBRANCH   1  17
TORSDOF 6
