REMARK  2 active torsions:
REMARK  status: ('A' for Active; 'I' for Inactive)
REMARK    1  A    between atoms: S_13  and  C_7 
REMARK    2  A    between atoms: N_14  and  C_8 
ROOT
ATOM      1  N   UNL d   1      -0.786  -1.045   0.053  0.00  0.00    -0.317 N 
ATOM      2  HN  UNL d   1      -0.992  -2.044   0.034  1.00  0.00     0.170 HD
ATOM      3  C   UNL d   1       0.461  -0.551   0.011  0.00  0.00     0.138 A 
ATOM      4  N   UNL d   1      -1.549   1.224   0.104  0.00  0.00    -0.325 N 
ATOM      5  HN  UNL d   1      -2.348   1.858   0.123  1.00  0.00     0.169 HD
ATOM      6  C   UNL d   1       0.740   0.799   0.021  0.00  0.00     0.111 A 
ATOM      7  C   UNL d   1      -0.291   1.707   0.064  0.00  0.00     0.102 A 
ATOM      8  C   UNL d   1      -1.732  -0.108   0.120  0.00  0.00     0.157 A 
ATOM      9  N   UNL d   1       1.613  -1.289  -0.042  0.00  0.00    -0.337 N 
ATOM     10  HN  UNL d   1       1.699  -2.305  -0.070  1.00  0.00     0.168 HD
ATOM     11  N   UNL d   1       2.104   0.876  -0.016  0.00  0.00    -0.347 N 
ATOM     12  C   UNL d   1       2.586  -0.404  -0.051  0.00  0.00     0.182 A 
ATOM     13  H   UNL d   1       2.651   1.727  -0.011  0.00  0.00     0.167 HD
ENDROOT
BRANCH   8  14
ATOM     14  N   UNL d   1      -3.039  -0.552   0.181  0.00  0.00    -0.274 NA
ATOM     15  H   UNL d   1      -3.668   0.142  -0.196  0.00  0.00     0.127 HD
ATOM     16  H   UNL d   1      -3.101  -1.492  -0.185  0.00  0.00     0.127 HD
ENDBRANCH   8  14
BRANCH   7  17
ATOM     17  S   UNL d   1       0.053   3.439   0.072  0.00  0.00    -0.114 SA
ATOM     18  C   UNL d   1      -1.627   4.111   0.153  0.00  0.00     0.097 C 
ENDBRANCH   7  17
TORSDOF 2
