REMARK  3 active torsions:
REMARK  status: ('A' for Active; 'I' for Inactive)
REMARK    1  A    between atoms: C_9  and  C_3 
REMARK    2  A    between atoms: C_4  and  C_7 
REMARK    3  A    between atoms: C_5  and  C_8 
ROOT
ATOM      1  C   UNL d   1      -0.965  -4.639   1.020  0.00  0.00     0.049 A 
ATOM      2  C   UNL d   1      -2.019  -4.211  -1.136  0.00  0.00     0.049 A 
ATOM      3  C   UNL d   1      -0.822  -2.407   0.021  0.00  0.00    -0.001 A 
ATOM      4  C   UNL d   1      -1.713  -5.082  -0.081  0.00  0.00     0.032 A 
ATOM      5  C   UNL d   1      -0.534  -3.300   1.062  0.00  0.00     0.030 A 
ATOM      6  C   UNL d   1      -1.582  -2.876  -1.063  0.00  0.00     0.030 A 
ENDROOT
BRANCH   3   7
ATOM      7  C   UNL d   1      -0.294  -1.041   0.013  0.00  0.00     0.086 A 
ATOM      8  O   UNL d   1       0.586  -0.704   1.004  0.00  0.00    -0.308 OA
ATOM      9  C   UNL d   1       1.024   0.575   0.772  0.00  0.00     0.104 A 
ATOM     10  C   UNL d   1       1.988   1.240   1.586  0.00  0.00     0.083 A 
ATOM     11  C   UNL d   1       0.393   1.058  -0.362  0.00  0.00     0.042 A 
ATOM     12  N   UNL d   1       2.537   0.679   2.705  0.00  0.00    -0.298 N 
ATOM     13  C   UNL d   1       2.572   2.482   1.469  0.00  0.00     0.052 A 
ATOM     14  N   UNL d   1       3.436   1.474   3.320  0.00  0.00    -0.311 N 
ATOM     15  H   UNL d   1       2.346  -0.235   3.099  0.00  0.00     0.187 HD
ATOM     16  C   UNL d   1       3.455   2.573   2.561  0.00  0.00     0.109 A 
ATOM     17  HN  UNL d   1       3.973   1.282   4.165  1.00  0.00     0.186 HD
ATOM     18  C   UNL d   1      -0.452   0.032  -0.841  0.00  0.00     0.041 A 
ENDBRANCH   3   7
BRANCH   1  19
ATOM     19  C   UNL d   1      -0.576  -5.590   2.127  0.00  0.00     0.417 C 
ATOM     20  F   UNL d   1      -1.006  -6.865   1.923  0.00  0.00    -0.166 F 
ATOM     21  F   UNL d   1       0.775  -5.673   2.283  0.00  0.00    -0.166 F 
ATOM     22  F   UNL d   1      -1.072  -5.215   3.337  0.00  0.00    -0.166 F 
ENDBRANCH   1  19
BRANCH   2  23
ATOM     23  C   UNL d   1      -2.757  -4.694  -2.364  0.00  0.00     0.417 C 
ATOM     24  F   UNL d   1      -3.025  -6.028  -2.346  0.00  0.00    -0.166 F 
ATOM     25  F   UNL d   1      -3.954  -4.070  -2.533  0.00  0.00    -0.166 F 
ATOM     26  F   UNL d   1      -2.052  -4.471  -3.507  0.00  0.00    -0.166 F 
ENDBRANCH   2  23
TORSDOF 3
