REMARK  9 active torsions:
REMARK  status: ('A' for Active; 'I' for Inactive)
REMARK    1  A    between atoms: N_2  and  S_1 
REMARK    2  A    between atoms: C_6  and  S_1 
REMARK    3  A    between atoms: C_4  and  N_2 
REMARK    4  A    between atoms: C_18  and  N_2 
REMARK    5  A    between atoms: C_5  and  C_3 
REMARK       I    between atoms: N_9  and  C_5 
REMARK    6  A    between atoms: C_15  and  N_9 
REMARK    7  A    between atoms: C_10  and  C_15 
REMARK    8  A    between atoms: O_21  and  C_10 
REMARK    9  A    between atoms: C_16  and  C_18 
ROOT
ATOM      1  C   UNL d   1      -1.760  -1.570   1.304  0.00  0.00     0.059 A 
ATOM      2  C   UNL d   1      -0.466  -2.006   0.952  0.00  0.00     0.061 A 
ATOM      3  C   UNL d   1      -2.433  -2.198   2.370  0.00  0.00     0.019 A 
ATOM      4  C   UNL d   1       0.163  -2.990   1.733  0.00  0.00     0.031 A 
ATOM      5  C   UNL d   1      -1.812  -3.210   3.106  0.00  0.00     0.001 A 
ATOM      6  C   UNL d   1      -0.509  -3.593   2.799  0.00  0.00     0.002 A 
ENDROOT
BRANCH   2   7
ATOM      7  N   UNL d   1       0.238  -1.421  -0.175  0.00  0.00    -0.267 N 
BRANCH   7   8
ATOM      8  S   UNL d   1       1.286  -0.144   0.242  0.00  0.00     0.265 S 
ATOM      9  O   UNL d   1       2.582  -0.721   0.544  0.00  0.00    -0.200 OA
ATOM     10  O   UNL d   1       0.628   0.732   1.194  0.00  0.00    -0.200 OA
BRANCH   8  11
ATOM     11  C   UNL d   1       1.453   0.778  -1.283  0.00  0.00     0.080 A 
ATOM     12  C   UNL d   1       0.496   1.742  -1.617  0.00  0.00     0.027 A 
ATOM     13  C   UNL d   1       0.645   2.488  -2.791  0.00  0.00     0.025 A 
ATOM     14  C   UNL d   1       1.746   2.269  -3.619  0.00  0.00     0.034 A 
ATOM     15  C   UNL d   1       2.711   1.320  -3.280  0.00  0.00     0.025 A 
ATOM     16 CL   UNL d   1       1.921   3.180  -5.069  0.00  0.00    -0.084 Cl
ATOM     17  C   UNL d   1       2.574   0.580  -2.101  0.00  0.00     0.027 A 
ENDBRANCH   8  11
ENDBRANCH   7   8
BRANCH   7  18
ATOM     18  C   UNL d   1       0.740  -2.353  -1.209  0.00  0.00     0.168 C 
BRANCH  18  19
ATOM     19  C   UNL d   1      -0.416  -3.073  -1.843  0.00  0.00    -0.016 C 
ATOM     20  C   UNL d   1      -0.498  -4.402  -1.997  0.00  0.00     0.008 C 
ENDBRANCH  18  19
ENDBRANCH   7  18
ENDBRANCH   2   7
BRANCH   1  21
ATOM     21  C   UNL d   1      -2.442  -0.482   0.540  0.00  0.00     0.254 C 
ATOM     22  N   UNL d   1      -3.337   0.305   1.237  0.00  0.00    -0.347 N 
ATOM     23  H   UNL d   1      -3.416   0.244   2.247  0.00  0.00     0.163 HD
ATOM     24  O   UNL d   1      -2.218  -0.275  -0.651  0.00  0.00    -0.268 OA
BRANCH  22  25
ATOM     25  C   UNL d   1      -3.909   1.471   0.593  0.00  0.00     0.232 C 
BRANCH  25  26
ATOM     26  C   UNL d   1      -4.926   2.174   1.478  0.00  0.00     0.158 C 
ATOM     27  O   UNL d   1      -5.234   1.806   2.604  0.00  0.00    -0.649 OA
BRANCH  26  28
ATOM     28  O   UNL d   1      -5.462   3.275   0.898  0.00  0.00    -0.775 OA
ATOM     29  H   UNL d   1      -5.120   3.460   0.001  0.00  0.00     0.167 HD
ENDBRANCH  26  28
ENDBRANCH  25  26
ENDBRANCH  22  25
ENDBRANCH   1  21
TORSDOF 9
