REMARK  2 active torsions:
REMARK  status: ('A' for Active; 'I' for Inactive)
REMARK    1  A    between atoms: C_8  and  C_2 
REMARK    2  A    between atoms: S_15  and  C_7 
ROOT
ATOM      1  C   UNL d   1      -0.708   1.240  -0.008  0.00  0.00     0.140 A 
ATOM      2  C   UNL d   1      -1.336   0.052  -0.042  0.00  0.00     0.077 A 
ATOM      3  N   UNL d   1       1.326  -0.067   0.025  0.00  0.00    -0.303 N 
ATOM      4  C   UNL d   1       0.769   1.180   0.028  0.00  0.00     0.270 A 
ATOM      5  N   UNL d   1      -0.722  -1.180  -0.021  0.00  0.00    -0.334 N 
ATOM      6  HN  UNL d   1      -1.261  -2.046  -0.025  1.00  0.00     0.168 HD
ATOM      7  C   UNL d   1       0.565  -1.189   0.005  0.00  0.00     0.144 A 
ATOM      8  C   UNL d   1      -1.358   2.503  -0.004  0.00  0.00     0.107 C 
ATOM      9  N   UNL d   1      -1.909   3.526   0.011  0.00  0.00    -0.191 NA
ATOM     10  O   UNL d   1       1.476   2.181   0.060  0.00  0.00    -0.266 OA
ATOM     11  H   UNL d   1       2.332  -0.114   0.050  0.00  0.00     0.171 HD
ENDROOT
BRANCH   2  12
ATOM     12  C   UNL d   1      -2.759  -0.030  -0.103  0.00  0.00     0.033 A 
ATOM     13  S   UNL d   1      -3.556  -0.077  -1.629  0.00  0.00    -0.100 SA
ATOM     14  C   UNL d   1      -5.096  -0.192  -0.899  0.00  0.00     0.050 A 
ATOM     15  C   UNL d   1      -5.019  -0.199   0.475  0.00  0.00     0.008 A 
ATOM     16  C   UNL d   1      -3.673  -0.108   0.933  0.00  0.00     0.021 A 
ENDBRANCH   2  12
BRANCH   7  17
ATOM     17  S   UNL d   1       1.448  -2.681   0.024  0.00  0.00    -0.107 SA
ATOM     18  H   UNL d   1       2.692  -2.193   0.010  0.00  0.00     0.110 HD
ENDBRANCH   7  17
TORSDOF 2
