REMARK  2 active torsions:
REMARK  status: ('A' for Active; 'I' for Inactive)
REMARK    1  A    between atoms: N_8  and  C_1 
REMARK    2  A    between atoms: C_11  and  N_8 
ROOT
ATOM      1  C   UNL d   1       2.474  -0.670   0.006  0.00  0.00     0.155 C 
ATOM      2  N   UNL d   1       1.586  -1.191   0.795  0.00  0.00    -0.303 N 
ATOM      3  HN  UNL d   1       1.827  -2.068   1.257  1.00  0.00     0.171 HD
ATOM      4  S   UNL d   1       2.195   0.844  -0.850  0.00  0.00    -0.035 SA
ATOM      5  C   UNL d   1       0.359  -0.661   1.058  0.00  0.00     0.260 C 
ATOM      6  C   UNL d   1       0.939   1.556   0.153  0.00  0.00     0.093 A 
ATOM      7  C   UNL d   1       0.125   0.783   0.953  0.00  0.00     0.066 A 
ATOM      8  N   UNL d   1       0.777   2.899   0.030  0.00  0.00    -0.359 N 
ATOM      9  HN  UNL d   1       1.400   3.454  -0.557  1.00  0.00     0.166 HD
ATOM     10  O   UNL d   1      -0.573  -1.353   1.462  0.00  0.00    -0.267 OA
ATOM     11  C   UNL d   1      -0.933   1.396   1.634  0.00  0.00     0.021 A 
ATOM     12  C   UNL d   1      -0.238   3.474   0.713  0.00  0.00     0.089 A 
ATOM     13  C   UNL d   1      -1.119   2.768   1.513  0.00  0.00     0.018 A 
ENDROOT
BRANCH   1  14
ATOM     14  N   UNL d   1       3.700  -1.298  -0.251  0.00  0.00    -0.332 N 
ATOM     15  C   UNL d   1       4.953  -0.539  -0.286  0.00  0.00     0.158 C 
BRANCH  14  16
ATOM     16  C   UNL d   1       3.839  -2.715  -0.167  0.00  0.00     0.036 A 
ATOM     17  C   UNL d   1       2.769  -3.558  -0.534  0.00  0.00     0.031 A 
ATOM     18  C   UNL d   1       2.847  -4.951  -0.419  0.00  0.00     0.021 A 
ATOM     19  C   UNL d   1       4.011  -5.537   0.059  0.00  0.00     0.011 A 
ATOM     20  C   UNL d   1       5.101  -4.743   0.395  0.00  0.00     0.021 A 
ATOM     21 BR   UNL d   1       4.112  -7.412   0.264  0.00  0.00    -0.051 Br
ATOM     22  C   UNL d   1       5.016  -3.349   0.273  0.00  0.00     0.031 A 
ENDBRANCH  14  16
ENDBRANCH   1  14
TORSDOF 2
