REMARK  3 active torsions:
REMARK  status: ('A' for Active; 'I' for Inactive)
REMARK    1  A    between atoms: C_6  and  C_17 
REMARK    2  A    between atoms: O_19  and  C_8 
REMARK    3  A    between atoms: N_11  and  N_9 
ROOT
ATOM      1  C   UNL d   1      -1.216   0.891  -0.043  0.00  0.00     0.128 A 
ATOM      2  C   UNL d   1       0.288   0.649  -0.245  0.00  0.00     0.275 A 
ATOM      3  N   UNL d   1       0.408  -0.691  -0.553  0.00  0.00    -0.321 N 
ATOM      4  C   UNL d   1      -1.858  -0.415  -0.256  0.00  0.00     0.024 A 
ATOM      5  C   UNL d   1      -0.836  -1.311  -0.563  0.00  0.00     0.047 A 
ATOM      6  N   UNL d   1      -1.694   2.056   0.257  0.00  0.00    -0.295 N 
ATOM      7  HN  UNL d   1      -1.110   2.877   0.414  1.00  0.00     0.187 HD
ATOM      8  O   UNL d   1       1.171   1.470  -0.148  0.00  0.00    -0.266 OA
ATOM      9  C   UNL d   1      -3.176  -0.827  -0.190  0.00  0.00     0.016 A 
ATOM     10  C   UNL d   1      -1.093  -2.640  -0.834  0.00  0.00     0.030 A 
ATOM     11  C   UNL d   1      -3.458  -2.167  -0.463  0.00  0.00     0.001 A 
ATOM     12  C   UNL d   1      -2.426  -3.064  -0.787  0.00  0.00     0.002 A 
ATOM     13  H   UNL d   1       1.296  -1.130  -0.737  0.00  0.00     0.169 HD
ENDROOT
BRANCH   6  14
ATOM     14  N   UNL d   1      -3.078   2.079   0.345  0.00  0.00    -0.310 N 
ATOM     15  C   UNL d   1      -3.504   3.005   1.143  0.00  0.00     0.121 C 
ATOM     16  HN  UNL d   1      -3.690   1.440  -0.162  1.00  0.00     0.186 HD
BRANCH  15  17
ATOM     17  C   UNL d   1      -4.953   3.186   1.365  0.00  0.00     0.017 A 
ATOM     18  C   UNL d   1      -5.425   4.170   2.234  0.00  0.00     0.099 A 
ATOM     19  C   UNL d   1      -6.805   4.349   2.391  0.00  0.00     0.069 A 
ATOM     20 CL   UNL d   1      -7.408   5.580   3.439  0.00  0.00    -0.081 Cl
ATOM     21  C   UNL d   1      -7.712   3.551   1.695  0.00  0.00     0.050 A 
ATOM     22  C   UNL d   1      -7.233   2.563   0.839  0.00  0.00     0.036 A 
ATOM     23  C   UNL d   1      -5.864   2.377   0.669  0.00  0.00     0.039 A 
ATOM     24 CL   UNL d   1      -8.339   1.575  -0.032  0.00  0.00    -0.084 Cl
BRANCH  18  25
ATOM     25  O   UNL d   1      -4.536   4.957   2.917  0.00  0.00    -0.358 OA
ATOM     26  H   UNL d   1      -5.045   5.611   3.432  0.00  0.00     0.217 HD
ENDBRANCH  18  25
ENDBRANCH  15  17
ENDBRANCH   6  14
TORSDOF 3
