REMARK  4 active torsions:
REMARK  status: ('A' for Active; 'I' for Inactive)
REMARK    1  A    between atoms: C_2  and  C_10 
REMARK    2  A    between atoms: S_4  and  C_18 
REMARK    3  A    between atoms: C_12  and  S_4 
REMARK    4  A    between atoms: C_18  and  C_15 
ROOT
ATOM      1  S   UNL d   1      -5.117  -0.239   0.006  0.00  0.00     0.070 S 
ATOM      2  O   UNL d   1      -6.290  -1.145  -0.255  0.00  0.00    -0.251 OA
ENDROOT
BRANCH   1   3
ATOM      3  C   UNL d   1      -3.595  -1.238  -0.090  0.00  0.00     0.154 C 
BRANCH   3   4
ATOM      4  C   UNL d   1      -3.362  -2.127   1.122  0.00  0.00    -0.044 A 
ATOM      5  C   UNL d   1      -2.188  -1.924   1.891  0.00  0.00     0.041 A 
ATOM      6  C   UNL d   1      -2.001  -2.822   2.961  0.00  0.00     0.085 A 
ATOM      7  C   UNL d   1      -2.948  -3.883   3.262  0.00  0.00     0.085 A 
ATOM      8  N   UNL d   1      -0.996  -2.890   3.842  0.00  0.00    -0.240 N 
ATOM      9  N   UNL d   1      -2.494  -4.564   4.321  0.00  0.00    -0.240 N 
ATOM     10  C   UNL d   1      -4.114  -4.082   2.503  0.00  0.00     0.034 A 
ATOM     11  O   UNL d   1      -1.300  -3.956   4.675  0.00  0.00    -0.156 OA
ATOM     12  HN  UNL d   1      -2.936  -5.364   4.774  1.00  0.00     0.197 HD
ATOM     13  C   UNL d   1      -4.281  -3.179   1.430  0.00  0.00     0.010 A 
ATOM     14  HN  UNL d   1      -0.177  -2.284   3.891  1.00  0.00     0.197 HD
ENDBRANCH   3   4
ENDBRANCH   1   3
BRANCH   1  15
ATOM     15  C   UNL d   1      -4.874   0.693  -1.512  0.00  0.00     0.100 A 
ATOM     16  N   UNL d   1      -3.750   1.447  -1.489  0.00  0.00    -0.358 N 
ATOM     17  C   UNL d   1      -3.509   2.214  -2.581  0.00  0.00     0.105 A 
ATOM     18  HN  UNL d   1      -3.115   1.438  -0.691  1.00  0.00     0.166 HD
ATOM     19  C   UNL d   1      -4.334   2.264  -3.696  0.00  0.00     0.063 A 
ATOM     20  C   UNL d   1      -5.488   1.471  -3.682  0.00  0.00     0.020 A 
ATOM     21  C   UNL d   1      -5.768   0.676  -2.570  0.00  0.00     0.040 A 
BRANCH  19  22
ATOM     22  C   UNL d   1      -3.994   3.143  -4.863  0.00  0.00     0.418 C 
ATOM     23  F   UNL d   1      -2.847   3.856  -4.689  0.00  0.00    -0.166 F 
ATOM     24  F   UNL d   1      -3.821   2.435  -6.013  0.00  0.00    -0.166 F 
ATOM     25  F   UNL d   1      -4.965   4.058  -5.128  0.00  0.00    -0.166 F 
ENDBRANCH  19  22
ENDBRANCH   1  15
TORSDOF 4
