REMARK  2 active torsions:
REMARK  status: ('A' for Active; 'I' for Inactive)
REMARK       I    between atoms: N_2  and  C_1 
REMARK    1  A    between atoms: C_4  and  C_1 
REMARK    2  A    between atoms: C_3  and  N_2 
ROOT
ATOM      1  C   UNL d   1       2.385  -0.042  -0.302  0.00  0.00     0.256 C 
ATOM      2  N   UNL d   1       3.037  -1.208   0.072  0.00  0.00    -0.322 N 
ATOM      3  O   UNL d   1       1.266   0.025  -0.806  0.00  0.00    -0.267 OA
ATOM      4  H   UNL d   1       3.814  -1.104   0.705  0.00  0.00     0.169 HD
ENDROOT
BRANCH   2   5
ATOM      5  C   UNL d   1       2.504  -2.518  -0.080  0.00  0.00     0.046 A 
ATOM      6  C   UNL d   1       2.905  -3.565   0.805  0.00  0.00     0.001 A 
ATOM      7  C   UNL d   1       2.251  -4.822   0.700  0.00  0.00    -0.024 A 
ATOM      8  C   UNL d   1       3.888  -3.437   1.822  0.00  0.00     0.014 A 
ATOM      9  C   UNL d   1       2.550  -5.857   1.600  0.00  0.00     0.012 A 
ATOM     10  C   UNL d   1       1.287  -5.037  -0.295  0.00  0.00     0.012 A 
ATOM     11  C   UNL d   1       3.504  -5.688   2.600  0.00  0.00     0.001 A 
ATOM     12  C   UNL d   1       4.182  -4.482   2.704  0.00  0.00     0.001 A 
ATOM     13  C   UNL d   1       0.956  -4.031  -1.194  0.00  0.00     0.003 A 
ATOM     14  C   UNL d   1       1.561  -2.782  -1.083  0.00  0.00     0.030 A 
ENDBRANCH   2   5
BRANCH   1  15
ATOM     15  C   UNL d   1       3.078   1.240   0.015  0.00  0.00     0.032 A 
ATOM     16  C   UNL d   1       2.282   2.387   0.170  0.00  0.00     0.023 A 
ATOM     17  C   UNL d   1       2.859   3.637   0.419  0.00  0.00    -0.061 A 
ATOM     18  C   UNL d   1       2.003   4.862   0.550  0.00  0.00     0.048 C 
ATOM     19  C   UNL d   1       4.250   3.729   0.527  0.00  0.00     0.007 A 
ATOM     20  C   UNL d   1       5.050   2.593   0.376  0.00  0.00     0.002 A 
ATOM     21  C   UNL d   1       4.469   1.349   0.114  0.00  0.00     0.017 A 
ENDBRANCH   1  15
TORSDOF 2
