REMARK  6 active torsions:
REMARK  status: ('A' for Active; 'I' for Inactive)
REMARK    1  A    between atoms: N_3  and  C_1 
REMARK    2  A    between atoms: N_4  and  C_1 
REMARK    3  A    between atoms: C_2  and  N_5 
REMARK    4  A    between atoms: C_10  and  N_4 
REMARK    5  A    between atoms: C_26  and  C_17 
REMARK    6  A    between atoms: C_28  and  C_26 
ROOT
ATOM      1  N   UNL d   1       0.239   0.275  -1.311  0.00  0.00    -0.356 N 
ATOM      2  N   UNL d   1      -2.008   0.492  -3.240  0.00  0.00    -0.216 N 
ATOM      3  C   UNL d   1      -0.815   1.309  -1.209  0.00  0.00     0.145 C 
ATOM      4  C   UNL d   1      -2.157   0.949  -1.860  0.00  0.00     0.161 C 
ATOM      5  C   UNL d   1      -0.045  -1.009  -3.433  0.00  0.00     0.040 C 
ATOM      6  C   UNL d   1       0.740   0.060  -2.676  0.00  0.00     0.127 C 
ATOM      7  C   UNL d   1      -1.569  -0.874  -3.448  0.00  0.00     0.143 C 
ENDROOT
BRANCH   1   8
ATOM      8  C   UNL d   1       1.039   0.064  -0.169  0.00  0.00     0.174 C 
ATOM      9  S   UNL d   1       2.710   0.217  -0.130  0.00  0.00    -0.041 SA
BRANCH   8  10
ATOM     10  N   UNL d   1       0.265  -0.384   0.896  0.00  0.00    -0.333 N 
ATOM     11  H   UNL d   1      -0.459  -1.032   0.619  0.00  0.00     0.168 HD
BRANCH  10  12
ATOM     12  C   UNL d   1       0.492  -0.241   2.284  0.00  0.00     0.040 A 
ATOM     13  C   UNL d   1       0.015  -1.212   3.181  0.00  0.00    -0.035 A 
ATOM     14  C   UNL d   1      -0.004  -0.925   4.559  0.00  0.00     0.015 A 
ATOM     15  C   UNL d   1      -0.463  -2.565   2.728  0.00  0.00     0.050 C 
ATOM     16  C   UNL d   1       0.488   0.292   5.051  0.00  0.00    -0.061 A 
ATOM     17  C   UNL d   1       1.046   1.203   4.157  0.00  0.00     0.009 A 
ATOM     18  C   UNL d   1       0.337   0.635   6.507  0.00  0.00     0.048 C 
ATOM     19  C   UNL d   1       1.042   0.945   2.787  0.00  0.00     0.030 A 
ENDBRANCH  10  12
ENDBRANCH   8  10
ENDBRANCH   1   8
BRANCH   2  20
ATOM     20  C   UNL d   1      -2.584   1.215  -4.263  0.00  0.00     0.679 A 
ATOM     21  N   UNL d   1      -2.843   2.519  -4.069  0.00  0.00    -0.201 N 
ATOM     22  C   UNL d   1      -3.370   3.221  -5.098  0.00  0.00     0.114 A 
ATOM     23  HN  UNL d   1      -2.649   2.966  -3.173  1.00  0.00     0.183 HD
ATOM     24  C   UNL d   1      -3.666   2.679  -6.327  0.00  0.00    -0.026 A 
ATOM     25  C   UNL d   1      -3.386   1.334  -6.426  0.00  0.00     0.114 A 
ATOM     26  N   UNL d   1      -2.845   0.603  -5.431  0.00  0.00    -0.201 N 
ATOM     27  HN  UNL d   1      -2.639  -0.387  -5.561  1.00  0.00     0.183 HD
BRANCH  24  28
ATOM     28  C   UNL d   1      -4.182   3.500  -7.468  0.00  0.00     0.041 C 
BRANCH  28  29
ATOM     29  C   UNL d   1      -5.565   3.071  -7.972  0.00  0.00     0.000 C 
ATOM     30  C   UNL d   1      -6.032   3.973  -9.101  0.00  0.00     0.005 C 
ENDBRANCH  28  29
ENDBRANCH  24  28
ENDBRANCH   2  20
TORSDOF 6
