REMARK  5 active torsions:
REMARK  status: ('A' for Active; 'I' for Inactive)
REMARK    1  A    between atoms: C_3  and  S_1 
REMARK    2  A    between atoms: N_12  and  S_1 
REMARK    3  A    between atoms: C_10  and  C_2 
REMARK    4  A    between atoms: C_8  and  C_11 
REMARK    5  A    between atoms: N_15  and  N_12 
REMARK       I    between atoms: C_18  and  N_15 
ROOT
ATOM      1  C   UNL d   1       0.569  -1.465  -1.035  0.00  0.00     0.122 A 
ATOM      2  S   UNL d   1      -0.075  -1.145  -2.588  0.00  0.00    -0.074 SA
ATOM      3  C   UNL d   1      -0.263  -2.809  -2.927  0.00  0.00     0.034 A 
ATOM      4  C   UNL d   1       0.707  -2.820  -0.812  0.00  0.00     0.034 A 
ATOM      5  C   UNL d   1       0.216  -3.596  -1.900  0.00  0.00     0.023 A 
ENDROOT
BRANCH   3   6
ATOM      6  C   UNL d   1      -0.911  -3.362  -4.160  0.00  0.00     0.067 A 
ATOM      7  C   UNL d   1      -1.333  -2.643  -5.298  0.00  0.00     0.068 A 
ATOM      8  C   UNL d   1      -1.960  -3.570  -6.112  0.00  0.00     0.136 A 
ATOM      9  N   UNL d   1      -1.900  -4.752  -5.426  0.00  0.00    -0.292 N 
ATOM     10  N   UNL d   1      -1.210  -4.662  -4.274  0.00  0.00    -0.297 N 
ATOM     11  C   UNL d   1      -2.557  -6.003  -5.735  0.00  0.00     0.178 C 
ATOM     12  HN  UNL d   1      -0.967  -5.416  -3.632  1.00  0.00     0.187 HD
BRANCH   8  13
ATOM     13  C   UNL d   1      -2.619  -3.399  -7.420  0.00  0.00     0.434 C 
ATOM     14  F   UNL d   1      -3.146  -4.547  -7.914  0.00  0.00    -0.165 F 
ATOM     15  F   UNL d   1      -3.636  -2.506  -7.344  0.00  0.00    -0.165 F 
ATOM     16  F   UNL d   1      -1.754  -2.933  -8.354  0.00  0.00    -0.165 F 
ENDBRANCH   8  13
ENDBRANCH   3   6
BRANCH   1  17
ATOM     17  S   UNL d   1       0.910  -0.057  -0.014  0.00  0.00     0.282 S 
ATOM     18  O   UNL d   1       1.857   0.756  -0.740  0.00  0.00    -0.198 OA
ATOM     19  O   UNL d   1       1.236  -0.605   1.287  0.00  0.00    -0.198 OA
BRANCH  17  20
ATOM     20  N   UNL d   1      -0.516   0.819   0.156  0.00  0.00    -0.220 N 
ATOM     21  H   UNL d   1      -1.399   0.453  -0.214  0.00  0.00     0.200 HD
BRANCH  20  22
ATOM     22  N   UNL d   1      -0.546   2.002   0.980  0.00  0.00    -0.261 N 
ATOM     23  C   UNL d   1      -1.751   2.647   1.156  0.00  0.00     0.232 C 
ATOM     24  O   UNL d   1      -2.796   2.276   0.626  0.00  0.00    -0.272 OA
ATOM     25  C   UNL d   1      -1.676   3.859   2.044  0.00  0.00     0.119 C 
ATOM     26  H   UNL d   1       0.326   2.314   1.403  0.00  0.00     0.190 HD
ENDBRANCH  20  22
ENDBRANCH  17  20
ENDBRANCH   1  17
TORSDOF 5
