REMARK  7 active torsions:
REMARK  status: ('A' for Active; 'I' for Inactive)
REMARK    1  A    between atoms: C_3  and  C_1 
REMARK    2  A    between atoms: C_2  and  C_5 
REMARK       I    between atoms: N_8  and  C_3 
REMARK       I    between atoms: C_6  and  N_9 
REMARK    3  A    between atoms: C_16  and  C_6 
REMARK    4  A    between atoms: N_9  and  N_8 
REMARK    5  A    between atoms: C_26  and  C_12 
REMARK    6  A    between atoms: C_14  and  S_18 
REMARK    7  A    between atoms: S_18  and  C_26 
ROOT
ATOM      1  C   UNL d   1      -0.195   1.209   0.001  0.00  0.00     0.144 A 
ATOM      2  O   UNL d   1      -1.055   0.137  -0.003  0.00  0.00    -0.309 OA
ATOM      3  C   UNL d   1       1.109   0.750  -0.018  0.00  0.00     0.045 A 
ATOM      4  C   UNL d   1      -0.284  -0.998  -0.057  0.00  0.00     0.063 A 
ATOM      5  C   UNL d   1       1.053  -0.659  -0.052  0.00  0.00     0.036 A 
ENDROOT
BRANCH   1   6
ATOM      6  C   UNL d   1      -0.683   2.574   0.020  0.00  0.00     0.293 C 
ATOM      7  N   UNL d   1      -2.054   2.743   0.070  0.00  0.00    -0.261 N 
ATOM      8  H   UNL d   1      -2.711   1.966   0.128  0.00  0.00     0.190 HD
ATOM      9  O   UNL d   1       0.065   3.555  -0.004  0.00  0.00    -0.264 OA
BRANCH   7  10
ATOM     10  N   UNL d   1      -2.558   4.056   0.157  0.00  0.00    -0.263 N 
ATOM     11  C   UNL d   1      -3.922   4.251   0.202  0.00  0.00     0.270 C 
ATOM     12  O   UNL d   1      -4.731   3.327   0.173  0.00  0.00    -0.266 OA
ATOM     13  H   UNL d   1      -1.880   4.801   0.014  0.00  0.00     0.190 HD
BRANCH  11  14
ATOM     14  C   UNL d   1      -4.394   5.665   0.268  0.00  0.00     0.033 A 
ATOM     15  C   UNL d   1      -5.657   5.969  -0.262  0.00  0.00     0.019 A 
ATOM     16  C   UNL d   1      -6.169   7.268  -0.178  0.00  0.00     0.025 A 
ATOM     17  C   UNL d   1      -5.423   8.265   0.447  0.00  0.00     0.034 A 
ATOM     18  C   UNL d   1      -4.167   7.973   0.981  0.00  0.00     0.025 A 
ATOM     19 CL   UNL d   1      -6.065   9.856   0.580  0.00  0.00    -0.084 Cl
ATOM     20  C   UNL d   1      -3.650   6.677   0.892  0.00  0.00     0.019 A 
ENDBRANCH  11  14
ENDBRANCH   7  10
ENDBRANCH   1   6
BRANCH   4  21
ATOM     21  C   UNL d   1      -0.974  -2.322  -0.079  0.00  0.00     0.145 C 
BRANCH  21  22
ATOM     22  S   UNL d   1      -1.905  -2.559  -1.624  0.00  0.00    -0.106 SA
BRANCH  22  23
ATOM     23  C   UNL d   1      -2.526  -4.216  -1.387  0.00  0.00     0.069 A 
ATOM     24  N   UNL d   1      -2.140  -4.913  -0.294  0.00  0.00    -0.360 N 
ATOM     25  C   UNL d   1      -2.626  -6.171  -0.149  0.00  0.00     0.105 A 
ATOM     26  HN  UNL d   1      -1.508  -4.508   0.396  1.00  0.00     0.166 HD
ATOM     27  C   UNL d   1      -3.488  -6.784  -1.047  0.00  0.00     0.063 A 
ATOM     28  C   UNL d   1      -3.869  -6.045  -2.170  0.00  0.00     0.020 A 
ATOM     29  C   UNL d   1      -3.383  -4.749  -2.343  0.00  0.00     0.038 A 
BRANCH  27  30
ATOM     30  C   UNL d   1      -3.987  -8.177  -0.816  0.00  0.00     0.418 C 
ATOM     31  F   UNL d   1      -3.510  -8.745   0.326  0.00  0.00    -0.166 F 
ATOM     32  F   UNL d   1      -5.344  -8.236  -0.722  0.00  0.00    -0.166 F 
ATOM     33  F   UNL d   1      -3.647  -9.027  -1.824  0.00  0.00    -0.166 F 
ENDBRANCH  27  30
ENDBRANCH  22  23
ENDBRANCH  21  22
ENDBRANCH   4  21
TORSDOF 7
