REMARK  4 active torsions:
REMARK  status: ('A' for Active; 'I' for Inactive)
REMARK    1  A    between atoms: N_2  and  C_1 
REMARK    2  A    between atoms: N_3  and  C_1 
REMARK    3  A    between atoms: C_6  and  N_3 
REMARK    4  A    between atoms: C_5  and  C_4 
ROOT
ATOM      1  C   UNL d   1       0.875   0.127  -0.057  0.00  0.00     0.175 C 
ATOM      2  S   UNL d   1       0.631  -0.399  -1.643  0.00  0.00    -0.041 SA
ENDROOT
BRANCH   1   3
ATOM      3  N   UNL d   1       0.465  -0.614   1.051  0.00  0.00    -0.349 N 
ATOM      4  C   UNL d   1       0.768  -0.369   2.471  0.00  0.00     0.127 C 
ATOM      5  C   UNL d   1       0.422  -1.713   3.135  0.00  0.00     0.032 C 
ATOM      6  C   UNL d   1      -0.791  -2.177   2.352  0.00  0.00     0.022 C 
ATOM      7  C   UNL d   1      -0.487  -1.723   0.932  0.00  0.00     0.126 C 
BRANCH   4   8
ATOM      8  C   UNL d   1       2.192   0.020   2.749  0.00  0.00     0.005 A 
ATOM      9  S   UNL d   1       2.507   1.463   3.630  0.00  0.00    -0.104 SA
ATOM     10  C   UNL d   1       4.197   1.249   3.508  0.00  0.00     0.050 A 
ATOM     11  C   UNL d   1       4.523   0.091   2.843  0.00  0.00     0.008 A 
ATOM     12  C   UNL d   1       3.367  -0.621   2.405  0.00  0.00     0.017 A 
ENDBRANCH   4   8
ENDBRANCH   1   3
BRANCH   1  13
ATOM     13  N   UNL d   1       1.454   1.347   0.254  0.00  0.00    -0.332 N 
ATOM     14  H   UNL d   1       0.904   1.918   0.887  0.00  0.00     0.168 HD
BRANCH  13  15
ATOM     15  C   UNL d   1       2.387   2.054  -0.546  0.00  0.00     0.056 A 
ATOM     16  C   UNL d   1       2.298   3.447  -0.688  0.00  0.00     0.062 A 
ATOM     17  C   UNL d   1       3.188   4.133  -1.515  0.00  0.00     0.050 A 
ATOM     18 CL   UNL d   1       1.051   4.346   0.103  0.00  0.00    -0.082 Cl
ATOM     19  C   UNL d   1       4.202   3.431  -2.168  0.00  0.00     0.035 A 
ATOM     20  C   UNL d   1       4.347   2.057  -1.978  0.00  0.00     0.026 A 
ATOM     21 CL   UNL d   1       5.286   4.261  -3.216  0.00  0.00    -0.084 Cl
ATOM     22  C   UNL d   1       3.442   1.374  -1.168  0.00  0.00     0.033 A 
ENDBRANCH  13  15
ENDBRANCH   1  13
TORSDOF 4
