REMARK  4 active torsions:
REMARK  status: ('A' for Active; 'I' for Inactive)
REMARK    1  A    between atoms: N_8  and  C_3 
REMARK    2  A    between atoms: O_10  and  C_4 
REMARK    3  A    between atoms: O_13  and  C_5 
REMARK       I    between atoms: C_11  and  N_8 
REMARK    4  A    between atoms: C_14  and  O_10 
ROOT
ATOM      1  N   UNL d   1      -0.576   1.289  -0.077  0.00  0.00    -0.167 N 
ATOM      2  HN  UNL d   1      -0.982   2.221  -0.165  1.00  0.00     0.186 HD
ATOM      3  C   UNL d   1      -1.328   0.207   0.090  0.00  0.00     0.687 A 
ATOM      4  C   UNL d   1       1.374  -0.145  -0.014  0.00  0.00     0.149 A 
ATOM      5  C   UNL d   1       0.747   1.086  -0.124  0.00  0.00     0.191 A 
ATOM      6  N   UNL d   1      -0.837  -1.038   0.227  0.00  0.00    -0.193 N 
ATOM      7  HN  UNL d   1      -1.461  -1.838   0.330  1.00  0.00     0.184 HD
ATOM      8  C   UNL d   1       0.513  -1.202   0.226  0.00  0.00     0.061 A 
ATOM      9  C   UNL d   1       0.947  -2.605   0.525  0.00  0.00     0.072 C 
ENDROOT
BRANCH   4  10
ATOM     10  O   UNL d   1       2.742  -0.131  -0.035  0.00  0.00    -0.304 OA
BRANCH  10  11
ATOM     11  C   UNL d   1       3.456  -1.158  -0.600  0.00  0.00     0.076 A 
ATOM     12  C   UNL d   1       3.041  -1.904  -1.704  0.00  0.00     0.037 A 
ATOM     13  C   UNL d   1       3.800  -3.000  -2.122  0.00  0.00     0.003 A 
ATOM     14  C   UNL d   1       5.003  -3.304  -1.486  0.00  0.00     0.000 A 
ATOM     15  C   UNL d   1       5.465  -2.498  -0.448  0.00  0.00     0.003 A 
ATOM     16  C   UNL d   1       4.693  -1.424  -0.008  0.00  0.00     0.037 A 
ENDBRANCH  10  11
ENDBRANCH   4  10
BRANCH   5  17
ATOM     17  O   UNL d   1       1.490   2.228  -0.272  0.00  0.00    -0.344 OA
ATOM     18  H   UNL d   1       2.423   1.964  -0.214  0.00  0.00     0.219 HD
ENDBRANCH   5  17
BRANCH   3  19
ATOM     19  N   UNL d   1      -2.711   0.258   0.128  0.00  0.00    -0.160 N 
ATOM     20  C   UNL d   1      -3.473   1.392   0.210  0.00  0.00     0.231 C 
ATOM     21  O   UNL d   1      -3.084   2.543   0.342  0.00  0.00    -0.273 OA
ATOM     22  C   UNL d   1      -4.956   1.098   0.171  0.00  0.00     0.118 C 
ATOM     23  H   UNL d   1      -3.134  -0.654   0.182  0.00  0.00     0.187 HD
ENDBRANCH   3  19
TORSDOF 4
