REMARK  4 active torsions:
REMARK  status: ('A' for Active; 'I' for Inactive)
REMARK    1  A    between atoms: N_8  and  C_1 
REMARK    2  A    between atoms: C_17  and  C_4 
REMARK       I    between atoms: C_6  and  N_9 
REMARK    3  A    between atoms: C_11  and  C_6 
REMARK    4  A    between atoms: C_13  and  C_7 
REMARK       I    between atoms: C_10  and  N_8 
REMARK       I    between atoms: N_9  and  C_10 
ROOT
ATOM      1  C   UNL d   1       0.468  -1.407  -0.306  0.00  0.00     0.169 A 
ATOM      2  C   UNL d   1      -0.405   1.269  -0.086  0.00  0.00     0.067 A 
ATOM      3  C   UNL d   1      -0.861  -1.228  -0.185  0.00  0.00     0.088 A 
ATOM      4  C   UNL d   1       0.914   0.989  -0.204  0.00  0.00     0.081 A 
ATOM      5  O   UNL d   1       1.349  -0.337  -0.287  0.00  0.00    -0.295 OA
ATOM      6  C   UNL d   1      -1.455   0.161  -0.020  0.00  0.00     0.120 A 
ATOM      7  C   UNL d   1      -0.904   2.607  -0.041  0.00  0.00     0.099 C 
ATOM      8  C   UNL d   1      -1.763  -2.332  -0.149  0.00  0.00     0.100 C 
ATOM      9  N   UNL d   1      -1.332   3.685  -0.013  0.00  0.00    -0.192 NA
ATOM     10  N   UNL d   1      -2.497  -3.229  -0.108  0.00  0.00    -0.191 NA
ENDROOT
BRANCH   4  11
ATOM     11  C   UNL d   1       2.084   2.007  -0.296  0.00  0.00    -0.001 C 
ATOM     12  C   UNL d   1       2.044   3.101   0.794  0.00  0.00     0.021 C 
ATOM     13  C   UNL d   1       3.456   1.304  -0.127  0.00  0.00     0.021 C 
ATOM     14  C   UNL d   1       2.075   2.665  -1.690  0.00  0.00     0.021 C 
ENDBRANCH   4  11
BRANCH   6  15
ATOM     15  C   UNL d   1      -2.639   0.420  -0.953  0.00  0.00    -0.003 A 
ATOM     16  S   UNL d   1      -4.173   0.817  -0.285  0.00  0.00    -0.105 SA
ATOM     17  C   UNL d   1      -4.872   1.003  -1.831  0.00  0.00     0.050 A 
ATOM     18  C   UNL d   1      -3.971   0.748  -2.840  0.00  0.00     0.008 A 
ATOM     19  C   UNL d   1      -2.681   0.410  -2.335  0.00  0.00     0.016 A 
ENDBRANCH   6  15
BRANCH   1  20
ATOM     20  N   UNL d   1       1.044  -2.655  -0.459  0.00  0.00    -0.288 N 
ATOM     21  C   UNL d   1       2.385  -2.949  -0.479  0.00  0.00     0.329 C 
ATOM     22  N   UNL d   1       2.709  -4.270  -0.715  0.00  0.00    -0.275 N 
ATOM     23  O   UNL d   1       3.303  -2.150  -0.315  0.00  0.00    -0.247 OA
ATOM     24  C   UNL d   1       1.889  -5.321  -1.113  0.00  0.00     0.264 C 
ATOM     25  H   UNL d   1       3.713  -4.399  -0.736  0.00  0.00     0.173 HD
ATOM     26  O   UNL d   1       0.671  -5.185  -1.152  0.00  0.00    -0.267 OA
ATOM     27  H   UNL d   1       0.439  -3.472  -0.565  0.00  0.00     0.172 HD
BRANCH  24  28
ATOM     28  C   UNL d   1       2.557  -6.615  -1.484  0.00  0.00     0.092 A 
ATOM     29  C   UNL d   1       1.855  -7.828  -1.606  0.00  0.00     0.052 A 
ATOM     30 CL   UNL d   1       0.171  -8.019  -1.258  0.00  0.00    -0.083 Cl
ATOM     31  C   UNL d   1       2.521  -9.003  -2.002  0.00  0.00     0.025 A 
ATOM     32  C   UNL d   1       3.886  -8.994  -2.276  0.00  0.00     0.005 A 
ATOM     33  C   UNL d   1       4.595  -7.808  -2.148  0.00  0.00     0.043 A 
ATOM     34  C   UNL d   1       3.932  -6.641  -1.760  0.00  0.00     0.133 A 
ATOM     35  F   UNL d   1       4.673  -5.526  -1.660  0.00  0.00    -0.205 F 
ENDBRANCH  24  28
ENDBRANCH   1  20
TORSDOF 4
