REMARK  2 active torsions:
REMARK  status: ('A' for Active; 'I' for Inactive)
REMARK    1  A    between atoms: S_3  and  N_1 
REMARK    2  A    between atoms: C_7  and  C_5 
ROOT
ATOM      1  N   UNL d   1      -1.189  -0.303  -0.883  0.00  0.00    -0.179 N 
ATOM      2  C   UNL d   1      -0.377  -1.163  -0.169  0.00  0.00     0.103 A 
ATOM      3  C   UNL d   1      -0.668  -2.481   0.302  0.00  0.00     0.105 A 
ATOM      4  C   UNL d   1      -0.529  -4.228   1.663  0.00  0.00     0.089 A 
ATOM      5  O   UNL d   1      -0.195  -2.915   1.515  0.00  0.00    -0.307 OA
ATOM      6  N   UNL d   1      -0.547   0.852  -1.244  0.00  0.00    -0.295 N 
ATOM      7  HN  UNL d   1      -0.908   1.624  -1.804  1.00  0.00     0.187 HD
ATOM      8  C   UNL d   1      -1.317  -3.536  -0.314  0.00  0.00     0.042 A 
ATOM      9  C   UNL d   1      -1.227  -4.651   0.554  0.00  0.00     0.041 A 
ATOM     10  C   UNL d   1       0.806  -0.472   0.019  0.00  0.00     0.054 A 
ATOM     11  C   UNL d   1       0.660   0.728  -0.692  0.00  0.00     0.111 A 
ENDROOT
BRANCH   1  12
ATOM     12  S   UNL d   1      -2.797  -0.672  -1.385  0.00  0.00     0.246 S 
ATOM     13  O   UNL d   1      -2.631  -1.475  -2.586  0.00  0.00    -0.204 OA
ATOM     14  O   UNL d   1      -3.468  -1.192  -0.208  0.00  0.00    -0.204 OA
ATOM     15  C   UNL d   1      -3.585   0.849  -1.829  0.00  0.00     0.188 C 
ENDBRANCH   1  12
BRANCH   4  16
ATOM     16  C   UNL d   1      -0.060  -4.871   2.880  0.00  0.00     0.036 A 
ATOM     17  C   UNL d   1       0.319  -6.221   2.880  0.00  0.00     0.132 A 
ATOM     18  C   UNL d   1       0.777  -6.847   4.035  0.00  0.00     0.085 A 
ATOM     19  F   UNL d   1       0.268  -6.943   1.750  0.00  0.00    -0.205 F 
ATOM     20  C   UNL d   1       0.848  -6.118   5.213  0.00  0.00     0.119 A 
ATOM     21  C   UNL d   1       0.476  -4.779   5.250  0.00  0.00     0.043 A 
ATOM     22  F   UNL d   1       1.283  -6.712   6.330  0.00  0.00    -0.206 F 
ATOM     23  C   UNL d   1       0.027  -4.154   4.083  0.00  0.00     0.020 A 
ENDBRANCH   4  16
TORSDOF 2
