REMARK  7 active torsions:
REMARK  status: ('A' for Active; 'I' for Inactive)
REMARK    1  A    between atoms: N_2  and  C_1 
REMARK    2  A    between atoms: C_4  and  C_1 
REMARK    3  A    between atoms: C_6  and  C_1 
REMARK    4  A    between atoms: O_9  and  C_1 
REMARK       I    between atoms: C_3  and  N_2 
REMARK    5  A    between atoms: C_5  and  C_3 
REMARK    6  A    between atoms: O_14  and  C_6 
REMARK    7  A    between atoms: C_18  and  O_14 
ROOT
ATOM      1  C   UNL d   1       1.018   0.144  -0.077  0.00  0.00     0.325 C 
ENDROOT
BRANCH   1   2
ATOM      2  N   UNL d   1       0.742  -0.482   1.222  0.00  0.00    -0.309 N 
ATOM      3  C   UNL d   1       1.058   0.105   2.413  0.00  0.00     0.256 C 
ATOM      4  O   UNL d   1       1.673   1.165   2.449  0.00  0.00    -0.268 OA
ATOM      5  H   UNL d   1       0.187  -1.335   1.202  0.00  0.00     0.166 HD
BRANCH   3   6
ATOM      6  C   UNL d   1       0.585  -0.569   3.655  0.00  0.00     0.053 A 
ATOM      7  C   UNL d   1       0.398  -1.953   3.796  0.00  0.00     0.049 A 
ATOM      8 CL   UNL d   1       0.803  -3.109   2.575  0.00  0.00    -0.083 Cl
ATOM      9  C   UNL d   1      -0.113  -2.472   4.992  0.00  0.00     0.025 A 
ATOM     10  C   UNL d   1      -0.418  -1.624   6.056  0.00  0.00     0.002 A 
ATOM     11  C   UNL d   1      -0.202  -0.254   5.937  0.00  0.00     0.001 A 
ATOM     12  C   UNL d   1       0.300   0.271   4.744  0.00  0.00     0.019 A 
ENDBRANCH   3   6
ENDBRANCH   1   2
BRANCH   1  13
ATOM     13  C   UNL d   1       0.214   1.438  -0.392  0.00  0.00     0.448 C 
ATOM     14  F   UNL d   1      -0.557   1.829   0.655  0.00  0.00    -0.166 F 
ATOM     15  F   UNL d   1       1.036   2.480  -0.678  0.00  0.00    -0.166 F 
ATOM     16  F   UNL d   1      -0.625   1.305  -1.448  0.00  0.00    -0.166 F 
ENDBRANCH   1  13
BRANCH   1  17
ATOM     17  C   UNL d   1       0.566  -0.902  -1.110  0.00  0.00     0.325 C 
ATOM     18  O   UNL d   1      -0.283  -1.760  -0.873  0.00  0.00    -0.259 OA
BRANCH  17  19
ATOM     19  O   UNL d   1       1.275  -0.812  -2.270  0.00  0.00    -0.318 OA
BRANCH  19  20
ATOM     20  C   UNL d   1       1.203  -1.962  -3.124  0.00  0.00     0.174 C 
ATOM     21  C   UNL d   1       2.244  -2.971  -2.670  0.00  0.00     0.034 C 
ENDBRANCH  19  20
ENDBRANCH  17  19
ENDBRANCH   1  17
BRANCH   1  22
ATOM     22  O   UNL d   1       2.437   0.317  -0.112  0.00  0.00    -0.356 OA
ATOM     23  H   UNL d   1       2.633   0.877   0.669  0.00  0.00     0.213 HD
ENDBRANCH   1  22
TORSDOF 7
