REMARK  7 active torsions:
REMARK  status: ('A' for Active; 'I' for Inactive)
REMARK    1  A    between atoms: C_7  and  C_1 
REMARK    2  A    between atoms: N_13  and  C_4 
REMARK    3  A    between atoms: S_8  and  C_5 
REMARK    4  A    between atoms: C_9  and  C_7 
REMARK    5  A    between atoms: C_14  and  S_8 
REMARK    6  A    between atoms: C_10  and  C_14 
REMARK    7  A    between atoms: C_11  and  C_10 
ROOT
ATOM      1  C   UNL d   1      -0.012   1.148   0.046  0.00  0.00     0.097 A 
ATOM      2  N   UNL d   1      -0.634  -1.115  -0.015  0.00  0.00    -0.330 N 
ATOM      3  HN  UNL d   1      -1.269  -1.911  -0.063  1.00  0.00     0.168 HD
ATOM      4  C   UNL d   1      -1.012   0.198  -0.036  0.00  0.00     0.121 A 
ATOM      5  C   UNL d   1       0.673  -1.193   0.076  0.00  0.00     0.114 A 
ATOM      6  S   UNL d   1       1.486   0.315   0.151  0.00  0.00    -0.058 SA
ENDROOT
BRANCH   5   7
ATOM      7  S   UNL d   1       1.440  -2.768   0.027  0.00  0.00    -0.097 SA
BRANCH   7   8
ATOM      8  C   UNL d   1       2.894  -2.578   1.081  0.00  0.00     0.160 C 
BRANCH   8   9
ATOM      9  C   UNL d   1       3.760  -3.828   1.006  0.00  0.00     0.144 C 
ATOM     10  O   UNL d   1       4.583  -3.929   0.087  0.00  0.00    -0.296 OA
BRANCH   9  11
ATOM     11  C   UNL d   1       3.567  -4.990   2.011  0.00  0.00     0.010 C 
ATOM     12  C   UNL d   1       2.526  -5.973   1.460  0.00  0.00     0.022 C 
ATOM     13  C   UNL d   1       4.917  -5.725   2.153  0.00  0.00     0.022 C 
ATOM     14  C   UNL d   1       3.144  -4.523   3.409  0.00  0.00     0.022 C 
ENDBRANCH   9  11
ENDBRANCH   8   9
ENDBRANCH   7   8
ENDBRANCH   5   7
BRANCH   1  15
ATOM     15  C   UNL d   1      -0.186   2.600   0.100  0.00  0.00     0.177 C 
ATOM     16  O   UNL d   1      -1.257   3.062   0.514  0.00  0.00    -0.291 OA
BRANCH  15  17
ATOM     17  C   UNL d   1       0.906   3.597  -0.394  0.00  0.00     0.015 C 
ATOM     18  C   UNL d   1       1.304   3.303  -1.847  0.00  0.00     0.023 C 
ATOM     19  C   UNL d   1       0.308   5.029  -0.368  0.00  0.00     0.023 C 
ATOM     20  C   UNL d   1       2.139   3.632   0.520  0.00  0.00     0.023 C 
ENDBRANCH  15  17
ENDBRANCH   1  15
BRANCH   4  21
ATOM     21  N   UNL d   1      -2.326   0.450  -0.144  0.00  0.00    -0.384 N 
ATOM     22  H   UNL d   1      -2.972  -0.315   0.007  0.00  0.00     0.157 HD
ATOM     23  H   UNL d   1      -2.688   1.370   0.105  0.00  0.00     0.157 HD
ENDBRANCH   4  21
TORSDOF 7
