REMARK  4 active torsions:
REMARK  status: ('A' for Active; 'I' for Inactive)
REMARK    1  A    between atoms: N_3  and  C_2 
REMARK    2  A    between atoms: C_5  and  C_12 
REMARK       I    between atoms: N_7  and  C_5 
REMARK    3  A    between atoms: C_9  and  N_7 
REMARK    4  A    between atoms: O_19  and  N_10 
ROOT
ATOM      1  C   UNL d   1       2.124   0.840  -1.103  0.00  0.00     0.087 A 
ATOM      2  C   UNL d   1       1.202   1.589  -0.330  0.00  0.00     0.033 A 
ATOM      3  C   UNL d   1       3.465   1.319  -1.290  0.00  0.00     0.103 C 
ATOM      4  N   UNL d   1       4.552   1.700  -1.458  0.00  0.00    -0.191 NA
ATOM      5  C   UNL d   1       1.740  -0.396  -1.653  0.00  0.00     0.056 A 
ATOM      6 CL   UNL d   1       2.810  -1.346  -2.629  0.00  0.00    -0.083 Cl
ATOM      7  C   UNL d   1      -0.078   1.038  -0.119  0.00  0.00     0.025 A 
ATOM      8  C   UNL d   1      -0.445  -0.195  -0.656  0.00  0.00     0.003 A 
ATOM      9  C   UNL d   1       0.462  -0.909  -1.429  0.00  0.00     0.025 A 
ENDROOT
BRANCH   2  10
ATOM     10  N   UNL d   1       1.557   2.855   0.204  0.00  0.00    -0.282 NA
ATOM     11  C   UNL d   1       0.945   3.194   1.495  0.00  0.00     0.096 C 
ATOM     12  C   UNL d   1       1.618   4.440   2.059  0.00  0.00     0.029 C 
ATOM     13  C   UNL d   1       1.466   5.634   1.110  0.00  0.00     0.080 C 
ATOM     14  C   UNL d   1       2.062   5.232  -0.259  0.00  0.00     0.029 C 
ATOM     15  C   UNL d   1       1.454   3.931  -0.807  0.00  0.00     0.096 C 
BRANCH  13  16
ATOM     16  C   UNL d   1       0.027   6.132   0.924  0.00  0.00     0.226 C 
ATOM     17  N   UNL d   1      -0.730   6.527   2.002  0.00  0.00    -0.321 N 
ATOM     18  H   UNL d   1      -1.671   6.796   1.743  0.00  0.00     0.169 HD
ATOM     19  O   UNL d   1      -0.493   6.223  -0.191  0.00  0.00    -0.273 OA
BRANCH  17  20
ATOM     20  C   UNL d   1      -0.474   6.666   3.337  0.00  0.00     0.206 C 
ATOM     21  N   UNL d   1      -1.459   6.971   4.106  0.00  0.00    -0.265 N 
ATOM     22  HN  UNL d   1      -2.414   7.151   3.799  1.00  0.00     0.194 HD
BRANCH  21  23
ATOM     23  O   UNL d   1      -1.013   7.016   5.430  0.00  0.00    -0.289 OA
ATOM     24  H   UNL d   1      -1.833   7.219   5.921  0.00  0.00     0.244 HD
ENDBRANCH  21  23
ENDBRANCH  17  20
ENDBRANCH  13  16
ENDBRANCH   2  10
TORSDOF 4
