REMARK  4 active torsions:
REMARK  status: ('A' for Active; 'I' for Inactive)
REMARK    1  A    between atoms: C_6  and  C_1 
REMARK    2  A    between atoms: C_4  and  C_5 
REMARK       I    between atoms: N_12  and  C_6 
REMARK       I    between atoms: C_11  and  N_14 
REMARK    3  A    between atoms: C_16  and  C_11 
REMARK    4  A    between atoms: N_14  and  N_12 
ROOT
ATOM      1  C   UNL d   1      -3.372   1.591  -0.059  0.00  0.00     0.277 C 
ATOM      2  N   UNL d   1      -3.545   2.960  -0.134  0.00  0.00    -0.263 N 
ATOM      3  O   UNL d   1      -4.349   0.838  -0.079  0.00  0.00    -0.265 OA
ATOM      4  H   UNL d   1      -2.776   3.622  -0.044  0.00  0.00     0.190 HD
ENDROOT
BRANCH   1   5
ATOM      5  C   UNL d   1      -2.001   1.102   0.028  0.00  0.00     0.077 A 
ATOM      6  S   UNL d   1      -0.641   2.144   0.010  0.00  0.00    -0.083 SA
ATOM      7  C   UNL d   1       0.471   0.839   0.144  0.00  0.00     0.033 A 
ATOM      8  C   UNL d   1       1.875   0.875   0.208  0.00  0.00     0.038 A 
ATOM      9  C   UNL d   1      -0.197  -0.382   0.193  0.00  0.00     0.050 A 
ATOM     10  C   UNL d   1       2.549  -0.347   0.328  0.00  0.00     0.064 A 
ATOM     11  C   UNL d   1       1.795  -1.509   0.367  0.00  0.00     0.104 A 
ATOM     12  N   UNL d   1       0.450  -1.574   0.301  0.00  0.00    -0.364 N 
ATOM     13  HN  UNL d   1      -0.051  -2.462   0.330  1.00  0.00     0.165 HD
ATOM     14  C   UNL d   1      -1.609  -0.219   0.121  0.00  0.00     0.055 A 
BRANCH  10  15
ATOM     15  C   UNL d   1       4.041  -0.439   0.421  0.00  0.00     0.418 C 
ATOM     16  F   UNL d   1       4.667   0.768   0.358  0.00  0.00    -0.166 F 
ATOM     17  F   UNL d   1       4.454  -1.012   1.585  0.00  0.00    -0.166 F 
ATOM     18  F   UNL d   1       4.580  -1.192  -0.577  0.00  0.00    -0.166 F 
ENDBRANCH  10  15
ENDBRANCH   1   5
BRANCH   2  19
ATOM     19  N   UNL d   1      -4.840   3.491  -0.219  0.00  0.00    -0.263 N 
ATOM     20  C   UNL d   1      -5.042   4.783   0.222  0.00  0.00     0.270 C 
ATOM     21  O   UNL d   1      -4.146   5.482   0.684  0.00  0.00    -0.266 OA
ATOM     22  H   UNL d   1      -5.598   2.820  -0.334  0.00  0.00     0.190 HD
BRANCH  20  23
ATOM     23  C   UNL d   1      -6.428   5.313   0.105  0.00  0.00     0.033 A 
ATOM     24  C   UNL d   1      -6.884   6.238   1.053  0.00  0.00     0.019 A 
ATOM     25  C   UNL d   1      -8.151   6.818   0.915  0.00  0.00     0.025 A 
ATOM     26  C   UNL d   1      -8.949   6.486  -0.180  0.00  0.00     0.034 A 
ATOM     27  C   UNL d   1      -8.501   5.569  -1.129  0.00  0.00     0.025 A 
ATOM     28 CL   UNL d   1     -10.488   7.231  -0.373  0.00  0.00    -0.084 Cl
ATOM     29  C   UNL d   1      -7.241   4.977  -0.988  0.00  0.00     0.019 A 
ENDBRANCH  20  23
ENDBRANCH   2  19
TORSDOF 4
