REMARK  3 active torsions:
REMARK  status: ('A' for Active; 'I' for Inactive)
REMARK    1  A    between atoms: C_2  and  C_1 
REMARK       I    between atoms: N_7  and  C_2 
REMARK    2  A    between atoms: C_3  and  C_9 
REMARK    3  A    between atoms: C_17  and  N_7 
ROOT
ATOM      1  C   UNL d   1       3.503   3.789  -0.211  0.00  0.00     0.048 A 
ATOM      2  C   UNL d   1       2.792   2.886  -1.013  0.00  0.00     0.018 A 
ATOM      3  C   UNL d   1       2.785   4.615   0.660  0.00  0.00     0.018 A 
ATOM      4  C   UNL d   1       0.680   3.623  -0.049  0.00  0.00     0.035 A 
ATOM      5  C   UNL d   1       1.392   4.532   0.737  0.00  0.00     0.030 A 
ATOM      6  C   UNL d   1       1.394   2.798  -0.926  0.00  0.00     0.030 A 
ENDROOT
BRANCH   4   7
ATOM      7  N   UNL d   1      -0.722   3.466   0.030  0.00  0.00    -0.321 N 
ATOM      8  C   UNL d   1      -1.605   4.295   0.708  0.00  0.00     0.281 C 
ATOM      9  O   UNL d   1      -1.300   5.376   1.210  0.00  0.00    -0.265 OA
ATOM     10  H   UNL d   1      -1.129   2.679  -0.463  0.00  0.00     0.169 HD
BRANCH   8  11
ATOM     11  C   UNL d   1      -2.964   3.815   0.790  0.00  0.00     0.167 A 
ATOM     12  O   UNL d   1      -3.304   2.598   0.280  0.00  0.00    -0.233 OA
ATOM     13  N   UNL d   1      -4.650   2.357   0.517  0.00  0.00    -0.272 N 
ATOM     14  C   UNL d   1      -5.094   3.436   1.168  0.00  0.00     0.117 A 
ATOM     15  HN  UNL d   1      -5.186   1.531   0.251  1.00  0.00     0.194 HD
ATOM     16  C   UNL d   1      -4.080   4.386   1.360  0.00  0.00     0.064 A 
ENDBRANCH   8  11
ENDBRANCH   4   7
BRANCH   1  17
ATOM     17  C   UNL d   1       5.009   3.877  -0.243  0.00  0.00     0.417 C 
ATOM     18  F   UNL d   1       5.588   3.022  -1.131  0.00  0.00    -0.166 F 
ATOM     19  F   UNL d   1       5.454   5.120  -0.576  0.00  0.00    -0.166 F 
ATOM     20  F   UNL d   1       5.569   3.593   0.966  0.00  0.00    -0.166 F 
ENDBRANCH   1  17
TORSDOF 3
