REMARK  6 active torsions:
REMARK  status: ('A' for Active; 'I' for Inactive)
REMARK    1  A    between atoms: C_9  and  C_2 
REMARK    2  A    between atoms: C_4  and  O_8 
REMARK    3  A    between atoms: C_13  and  C_4 
REMARK    4  A    between atoms: O_8  and  N_5 
REMARK    5  A    between atoms: C_7  and  C_9 
REMARK    6  A    between atoms: N_14  and  C_7 
ROOT
ATOM      1  N   UNL d   1      -0.319   1.895   3.418  0.00  0.00    -0.246 N 
ATOM      2  HN  UNL d   1      -0.561   2.018   4.401  1.00  0.00     0.196 HD
ATOM      3  C   UNL d   1       0.877   2.058   2.944  0.00  0.00     0.096 C 
ENDROOT
BRANCH   1   4
ATOM      4  O   UNL d   1      -1.248   1.528   2.422  0.00  0.00    -0.193 OA
BRANCH   4   5
ATOM      5  C   UNL d   1      -2.463   1.290   3.007  0.00  0.00     0.315 C 
ATOM      6  O   UNL d   1      -2.755   1.369   4.194  0.00  0.00    -0.257 OA
BRANCH   5   7
ATOM      7  C   UNL d   1      -3.440   0.835   1.986  0.00  0.00     0.041 A 
ATOM      8  C   UNL d   1      -3.354   1.219   0.642  0.00  0.00     0.017 A 
ATOM      9  C   UNL d   1      -4.310   0.768  -0.274  0.00  0.00     0.001 A 
ATOM     10  C   UNL d   1      -5.350  -0.061   0.148  0.00  0.00     0.000 A 
ATOM     11  C   UNL d   1      -5.446  -0.436   1.487  0.00  0.00     0.001 A 
ATOM     12  C   UNL d   1      -4.498   0.015   2.406  0.00  0.00     0.017 A 
ENDBRANCH   5   7
ENDBRANCH   4   5
ENDBRANCH   1   4
BRANCH   3  13
ATOM     13  C   UNL d   1       1.964   2.453   3.942  0.00  0.00     0.085 C 
BRANCH  13  14
ATOM     14  C   UNL d   1       2.160   1.428   5.024  0.00  0.00     0.034 A 
ATOM     15  C   UNL d   1       3.189   1.621   6.112  0.00  0.00     0.117 A 
ATOM     16  C   UNL d   1       3.394   0.563   5.060  0.00  0.00     0.051 A 
ATOM     17 CL   UNL d   1       2.772   1.087   7.737  0.00  0.00    -0.101 Cl
ATOM     18 CL   UNL d   1       4.272   3.005   6.088  0.00  0.00    -0.101 Cl
ENDBRANCH  13  14
ENDBRANCH   3  13
BRANCH   3  19
ATOM     19  N   UNL d   1       1.230   1.927   1.624  0.00  0.00    -0.388 N 
ATOM     20  H   UNL d   1       0.442   1.947   0.988  0.00  0.00     0.157 HD
ATOM     21  H   UNL d   1       2.026   2.467   1.304  0.00  0.00     0.157 HD
ENDBRANCH   3  19
TORSDOF 6
