REMARK  6 active torsions:
REMARK  status: ('A' for Active; 'I' for Inactive)
REMARK    1  A    between atoms: C_2  and  S_1 
REMARK    2  A    between atoms: N_5  and  S_1 
REMARK    3  A    between atoms: C_13  and  C_4 
REMARK    4  A    between atoms: C_10  and  C_14 
REMARK    5  A    between atoms: C_11  and  N_12 
REMARK    6  A    between atoms: O_26  and  C_13 
ROOT
ATOM      1  N   UNL d   1       0.408   1.538  -0.330  0.00  0.00    -0.204 NA
ATOM      2  N   UNL d   1       0.758   4.438  -1.099  0.00  0.00    -0.366 N 
ATOM      3  C   UNL d   1       1.339   2.521   0.368  0.00  0.00     0.127 C 
ATOM      4  C   UNL d   1       0.873   3.989   0.291  0.00  0.00     0.140 C 
ATOM      5  C   UNL d   1      -0.662   2.778  -2.257  0.00  0.00     0.035 C 
ATOM      6  C   UNL d   1       0.398   1.771  -1.818  0.00  0.00     0.109 C 
ATOM      7  C   UNL d   1      -0.517   4.208  -1.753  0.00  0.00     0.125 C 
ENDROOT
BRANCH   1   8
ATOM      8  S   UNL d   1       0.853  -0.102   0.022  0.00  0.00     0.259 S 
ATOM      9  O   UNL d   1      -0.037  -0.987  -0.702  0.00  0.00    -0.204 OA
ATOM     10  O   UNL d   1       2.289  -0.211  -0.101  0.00  0.00    -0.204 OA
BRANCH   8  11
ATOM     11  C   UNL d   1       0.502  -0.454   1.739  0.00  0.00     0.146 A 
ATOM     12  N   UNL d   1      -0.764  -0.426   2.307  0.00  0.00    -0.336 N 
ATOM     13  C   UNL d   1      -0.708  -0.824   3.642  0.00  0.00     0.111 A 
ATOM     14  C   UNL d   1      -1.987  -0.035   1.631  0.00  0.00     0.157 C 
ATOM     15  C   UNL d   1       0.624  -1.100   3.910  0.00  0.00     0.039 A 
ATOM     16  C   UNL d   1       1.369  -0.869   2.740  0.00  0.00     0.046 A 
BRANCH  13  17
ATOM     17  C   UNL d   1      -1.835  -0.931   4.556  0.00  0.00     0.309 C 
ATOM     18  O   UNL d   1      -2.999  -0.676   4.293  0.00  0.00    -0.258 OA
BRANCH  17  19
ATOM     19  O   UNL d   1      -1.392  -1.355   5.779  0.00  0.00    -0.321 OA
ATOM     20  C   UNL d   1      -2.403  -1.487   6.779  0.00  0.00     0.213 C 
ENDBRANCH  17  19
ENDBRANCH  13  17
ENDBRANCH   8  11
ENDBRANCH   1   8
BRANCH   2  21
ATOM     21  C   UNL d   1       1.720   5.246  -1.670  0.00  0.00     0.103 A 
ATOM     22  N   UNL d   1       2.457   6.054  -0.878  0.00  0.00    -0.339 N 
ATOM     23  C   UNL d   1       3.393   6.880  -1.440  0.00  0.00     0.118 A 
ATOM     24  HN  UNL d   1       2.317   6.048   0.132  1.00  0.00     0.167 HD
ATOM     25  C   UNL d   1       3.648   6.886  -2.810  0.00  0.00     0.034 A 
ATOM     26  C   UNL d   1       2.916   6.037  -3.623  0.00  0.00     0.006 A 
ATOM     27  C   UNL d   1       1.944   5.224  -3.047  0.00  0.00     0.048 A 
BRANCH  23  28
ATOM     28  C   UNL d   1       4.197   7.824  -0.557  0.00  0.00     0.432 C 
ATOM     29  F   UNL d   1       3.882   7.771   0.768  0.00  0.00    -0.165 F 
ATOM     30  F   UNL d   1       5.540   7.582  -0.629  0.00  0.00    -0.165 F 
ATOM     31  F   UNL d   1       4.048   9.134  -0.920  0.00  0.00    -0.165 F 
ENDBRANCH  23  28
ENDBRANCH   2  21
TORSDOF 6
