REMARK  2 active torsions:
REMARK  status: ('A' for Active; 'I' for Inactive)
REMARK       I    between atoms: N_2  and  C_1 
REMARK    1  A    between atoms: C_4  and  C_1 
REMARK    2  A    between atoms: C_3  and  N_2 
ROOT
ATOM      1  C   UNL d   1       0.566   0.255  -0.598  0.00  0.00     0.260 C 
ATOM      2  N   UNL d   1       0.267  -1.075  -0.998  0.00  0.00    -0.346 N 
ATOM      3  O   UNL d   1      -0.323   1.056  -0.314  0.00  0.00    -0.267 OA
ATOM      4  C   UNL d   1       1.306  -2.101  -0.964  0.00  0.00     0.153 C 
ENDROOT
BRANCH   2   5
ATOM      5  C   UNL d   1      -1.137  -1.540  -0.913  0.00  0.00     0.095 C 
ATOM      6  C   UNL d   1      -2.276  -0.557  -1.350  0.00  0.00     0.031 C 
ATOM      7  C   UNL d   1      -2.095  -0.189  -2.805  0.00  0.00    -0.024 C 
ATOM      8  C   UNL d   1      -3.458  -1.527  -1.498  0.00  0.00     0.019 C 
ATOM      9  C   UNL d   1      -2.383  -1.279  -3.530  0.00  0.00    -0.026 C 
ATOM     10  C   UNL d   1      -2.759  -2.371  -2.557  0.00  0.00     0.010 C 
ATOM     11  C   UNL d   1      -1.475  -2.792  -1.813  0.00  0.00     0.034 C 
ENDBRANCH   2   5
BRANCH   1  12
ATOM     12  C   UNL d   1       1.964   0.666  -0.540  0.00  0.00     0.072 A 
ATOM     13  S   UNL d   1       2.468   1.991  -1.506  0.00  0.00    -0.097 SA
ATOM     14  C   UNL d   1       4.078   1.879  -0.940  0.00  0.00     0.050 A 
ATOM     15  C   UNL d   1       4.231   0.872  -0.013  0.00  0.00     0.009 A 
ATOM     16  C   UNL d   1       3.003   0.194   0.243  0.00  0.00     0.025 A 
ENDBRANCH   1  12
TORSDOF 2
