REMARK  6 active torsions:
REMARK  status: ('A' for Active; 'I' for Inactive)
REMARK    1  A    between atoms: C_12  and  C_3 
REMARK    2  A    between atoms: S_7  and  C_17 
REMARK    3  A    between atoms: C_22  and  S_7 
REMARK    4  A    between atoms: S_23  and  C_16 
REMARK    5  A    between atoms: C_17  and  C_25 
REMARK    6  A    between atoms: C_25  and  S_23 
ROOT
ATOM      1  C   UNL d   1       3.482  -1.456   0.041  0.00  0.00     0.049 A 
ATOM      2  N   UNL d   1       4.282  -1.372   1.121  0.00  0.00    -0.336 N 
ATOM      3  HN  UNL d   1       3.981  -0.908   1.979  1.00  0.00     0.168 HD
ATOM      4  C   UNL d   1       5.497  -1.933   1.007  0.00  0.00     0.144 A 
ATOM      5  N   UNL d   1       5.962  -2.534  -0.100  0.00  0.00    -0.347 N 
ATOM      6  HN  UNL d   1       6.903  -2.925  -0.141  1.00  0.00     0.167 HD
ATOM      7  C   UNL d   1       3.862  -2.070  -1.135  0.00  0.00     0.047 A 
ATOM      8  C   UNL d   1       5.128  -2.596  -1.150  0.00  0.00     0.092 A 
ENDROOT
BRANCH   1   9
ATOM      9  C   UNL d   1       2.167  -0.815   0.125  0.00  0.00     0.030 A 
ATOM     10  C   UNL d   1       1.033  -1.393   0.582  0.00  0.00     0.046 A 
ATOM     11  N   UNL d   1      -0.175  -0.672   0.496  0.00  0.00    -0.243 N 
ATOM     12  C   UNL d   1       0.948  -2.776   1.165  0.00  0.00     0.071 C 
ATOM     13  C   UNL d   1      -0.214   0.613  -0.060  0.00  0.00     0.129 A 
ATOM     14  N   UNL d   1      -1.420  -1.079   0.873  0.00  0.00    -0.297 N 
ATOM     15  N   UNL d   1       0.902   1.246  -0.522  0.00  0.00    -0.350 N 
ATOM     16  C   UNL d   1      -1.528   1.013  -0.018  0.00  0.00     0.076 A 
ATOM     17  C   UNL d   1       2.007   0.573  -0.417  0.00  0.00     0.105 A 
ATOM     18  HN  UNL d   1       0.871   2.184  -0.923  1.00  0.00     0.166 HD
ATOM     19  C   UNL d   1      -2.228  -0.057   0.571  0.00  0.00     0.026 A 
ATOM     20  C   UNL d   1      -3.682  -0.127   0.858  0.00  0.00     0.070 C 
ATOM     21  HN  UNL d   1      -1.680  -1.970   1.294  1.00  0.00     0.187 HD
ENDBRANCH   1   9
BRANCH   4  22
ATOM     22  S   UNL d   1       6.589  -1.813   2.404  0.00  0.00    -0.093 SA
BRANCH  22  23
ATOM     23  C   UNL d   1       8.218  -1.797   1.561  0.00  0.00     0.097 C 
BRANCH  23  24
ATOM     24  C   UNL d   1       8.399  -0.522   0.758  0.00  0.00     0.156 C 
BRANCH  24  25
ATOM     25  S   UNL d   1       9.996  -0.488  -0.027  0.00  0.00     0.176 S 
ATOM     26  O   UNL d   1      11.016  -0.480   1.008  0.00  0.00    -0.223 OA
ATOM     27  O   UNL d   1      10.015  -1.476  -1.087  0.00  0.00    -0.223 OA
BRANCH  25  28
ATOM     28  C   UNL d   1      10.005   1.118  -0.794  0.00  0.00     0.059 A 
ATOM     29  C   UNL d   1      10.556   2.208  -0.116  0.00  0.00     0.023 A 
ATOM     30  C   UNL d   1      10.519   3.472  -0.705  0.00  0.00     0.002 A 
ATOM     31  C   UNL d   1       9.944   3.639  -1.967  0.00  0.00     0.000 A 
ATOM     32  C   UNL d   1       9.419   2.542  -2.651  0.00  0.00     0.002 A 
ATOM     33  C   UNL d   1       9.454   1.273  -2.070  0.00  0.00     0.023 A 
ENDBRANCH  25  28
ENDBRANCH  24  25
ENDBRANCH  23  24
ENDBRANCH  22  23
ENDBRANCH   4  22
TORSDOF 6
