REMARK  3 active torsions:
REMARK  status: ('A' for Active; 'I' for Inactive)
REMARK       I    between atoms: N_2  and  C_1 
REMARK       I    between atoms: N_4  and  C_1 
REMARK    1  A    between atoms: C_3  and  C_8 
REMARK    2  A    between atoms: C_12  and  N_4 
REMARK    3  A    between atoms: C_8  and  N_6 
ROOT
ATOM      1  C   UNL d   1       0.740   0.291  -0.170  0.00  0.00     0.322 C 
ATOM      2  N   UNL d   1       0.232   0.070   1.113  0.00  0.00    -0.332 N 
ATOM      3  N   UNL d   1       1.663   1.307  -0.281  0.00  0.00    -0.309 N 
ATOM      4  N   UNL d   1      -2.178   0.085   3.136  0.00  0.00     0.094 N 
ATOM      5  O   UNL d   1       0.367  -0.397  -1.118  0.00  0.00    -0.247 OA
ATOM      6  C   UNL d   1      -0.762  -1.004   1.267  0.00  0.00     0.157 C 
ATOM      7  C   UNL d   1      -2.127  -0.543   1.806  0.00  0.00     0.292 C 
ATOM      8  C   UNL d   1      -0.125   1.680   3.016  0.00  0.00     0.050 C 
ATOM      9  C   UNL d   1       0.751   0.618   2.362  0.00  0.00     0.129 C 
ATOM     10  C   UNL d   1      -1.638   1.443   3.113  0.00  0.00     0.274 C 
ATOM     11  H   UNL d   1       1.878   1.831   0.548  0.00  0.00     0.170 HD
ENDROOT
BRANCH   3  12
ATOM     12  C   UNL d   1       2.304   1.760  -1.458  0.00  0.00     0.036 A 
ATOM     13  C   UNL d   1       2.004   1.296  -2.743  0.00  0.00     0.031 A 
ATOM     14  C   UNL d   1       2.629   1.847  -3.867  0.00  0.00     0.026 A 
ATOM     15  C   UNL d   1       3.573   2.856  -3.712  0.00  0.00     0.034 A 
ATOM     16  C   UNL d   1       3.911   3.306  -2.439  0.00  0.00     0.026 A 
ATOM     17 CL   UNL d   1       4.311   3.560  -5.096  0.00  0.00    -0.084 Cl
ATOM     18  C   UNL d   1       3.276   2.762  -1.317  0.00  0.00     0.031 A 
ENDBRANCH   3  12
BRANCH   4  19
ATOM     19  C   UNL d   1      -1.700  -0.739   4.250  0.00  0.00     0.314 C 
BRANCH  19  20
ATOM     20  C   UNL d   1      -2.492  -2.010   4.456  0.00  0.00     0.009 A 
ATOM     21  C   UNL d   1      -1.889  -3.264   4.296  0.00  0.00     0.125 A 
ATOM     22  C   UNL d   1      -2.592  -4.447   4.497  0.00  0.00     0.062 A 
ATOM     23  F   UNL d   1      -0.594  -3.340   3.942  0.00  0.00    -0.205 F 
ATOM     24  C   UNL d   1      -3.929  -4.381   4.874  0.00  0.00     0.013 A 
ATOM     25  C   UNL d   1      -4.558  -3.147   5.040  0.00  0.00     0.020 A 
ATOM     26 BR   UNL d   1      -4.898  -5.979   5.166  0.00  0.00    -0.051 Br
ATOM     27  C   UNL d   1      -3.842  -1.965   4.827  0.00  0.00     0.013 A 
ENDBRANCH  19  20
ENDBRANCH   4  19
TORSDOF 3
