REMARK  1 active torsions:
REMARK  status: ('A' for Active; 'I' for Inactive)
REMARK    1  A    between atoms: C_10  and  C_7 
ROOT
ATOM      1  C   UNL d   1      -1.234   0.095  -0.104  0.00  0.00     0.115 C 
ATOM      2  C   UNL d   1      -0.617  -1.205   0.191  0.00  0.00     0.302 C 
ATOM      3  C   UNL d   1      -0.506   1.325   0.239  0.00  0.00     0.302 C 
ATOM      4  O   UNL d   1       0.725  -1.180   0.323  0.00  0.00    -0.280 OA
ATOM      5  O   UNL d   1       0.836   1.200   0.260  0.00  0.00    -0.280 OA
ATOM      6  C   UNL d   1       1.426  -0.032  -0.154  0.00  0.00     0.175 C 
ATOM      7  C   UNL d   1      -2.429   0.080  -0.727  0.00  0.00     0.035 C 
ATOM      8  O   UNL d   1      -1.049   2.385   0.516  0.00  0.00    -0.259 OA
ATOM      9  O   UNL d   1      -1.256  -2.244   0.302  0.00  0.00    -0.259 OA
ATOM     10  C   UNL d   1       1.566  -0.079  -1.680  0.00  0.00     0.080 C 
ATOM     11  C   UNL d   1       2.817  -0.073   0.479  0.00  0.00     0.080 C 
ENDROOT
BRANCH   7  12
ATOM     12  C   UNL d   1      -3.165   1.251  -1.206  0.00  0.00    -0.035 A 
ATOM     13  C   UNL d   1      -2.921   1.752  -2.491  0.00  0.00     0.012 A 
ATOM     14  C   UNL d   1      -3.636   2.857  -2.960  0.00  0.00     0.020 A 
ATOM     15  C   UNL d   1      -4.591   3.460  -2.144  0.00  0.00     0.011 A 
ATOM     16  C   UNL d   1      -4.834   2.973  -0.861  0.00  0.00     0.020 A 
ATOM     17 BR   UNL d   1      -5.571   4.943  -2.786  0.00  0.00    -0.051 Br
ATOM     18  C   UNL d   1      -4.120   1.867  -0.392  0.00  0.00     0.012 A 
ENDBRANCH   7  12
TORSDOF 1
