REMARK  6 active torsions:
REMARK  status: ('A' for Active; 'I' for Inactive)
REMARK    1  A    between atoms: N_2  and  C_1 
REMARK    2  A    between atoms: C_3  and  C_1 
REMARK    3  A    between atoms: C_4  and  C_1 
REMARK    4  A    between atoms: N_6  and  C_1 
REMARK       I    between atoms: C_5  and  N_2 
REMARK    5  A    between atoms: C_9  and  C_5 
REMARK    6  A    between atoms: C_7  and  N_6 
ROOT
ATOM      1  C   UNL d   1       0.923  -0.040  -0.164  0.00  0.00     0.306 C 
ENDROOT
BRANCH   1   2
ATOM      2  N   UNL d   1       0.312  -1.392  -0.144  0.00  0.00    -0.315 N 
ATOM      3  C   UNL d   1       0.297  -2.205   0.954  0.00  0.00     0.254 C 
ATOM      4  O   UNL d   1       0.714  -1.867   2.052  0.00  0.00    -0.268 OA
ATOM      5  H   UNL d   1      -0.088  -1.728  -1.013  0.00  0.00     0.165 HD
BRANCH   3   6
ATOM      6  C   UNL d   1      -0.308  -3.541   0.759  0.00  0.00     0.032 A 
ATOM      7  C   UNL d   1       0.003  -4.326  -0.357  0.00  0.00     0.017 A 
ATOM      8  C   UNL d   1      -0.579  -5.589  -0.496  0.00  0.00     0.001 A 
ATOM      9  C   UNL d   1      -1.463  -6.059   0.473  0.00  0.00     0.000 A 
ATOM     10  C   UNL d   1      -1.767  -5.281   1.589  0.00  0.00     0.001 A 
ATOM     11  C   UNL d   1      -1.187  -4.024   1.738  0.00  0.00     0.017 A 
ENDBRANCH   3   6
ENDBRANCH   1   2
BRANCH   1  12
ATOM     12  C   UNL d   1       0.560   0.875   1.061  0.00  0.00     0.441 C 
ATOM     13  F   UNL d   1      -0.731   0.712   1.443  0.00  0.00    -0.166 F 
ATOM     14  F   UNL d   1       1.342   0.616   2.140  0.00  0.00    -0.166 F 
ATOM     15  F   UNL d   1       0.736   2.193   0.796  0.00  0.00    -0.166 F 
ENDBRANCH   1  12
BRANCH   1  16
ATOM     16  C   UNL d   1       0.383   0.803  -1.361  0.00  0.00     0.441 C 
ATOM     17  F   UNL d   1       0.013  -0.018  -2.388  0.00  0.00    -0.166 F 
ATOM     18  F   UNL d   1      -0.729   1.515  -1.066  0.00  0.00    -0.166 F 
ATOM     19  F   UNL d   1       1.298   1.662  -1.864  0.00  0.00    -0.166 F 
ENDBRANCH   1  16
BRANCH   1  20
ATOM     20  N   UNL d   1       2.404  -0.289  -0.187  0.00  0.00    -0.349 N 
ATOM     21  H   UNL d   1       2.749  -0.446   0.765  0.00  0.00     0.162 HD
BRANCH  20  22
ATOM     22  C   UNL d   1       3.166  -0.936  -1.141  0.00  0.00     0.032 A 
ATOM     23  C   UNL d   1       2.680  -1.449  -2.342  0.00  0.00     0.053 A 
ATOM     24  C   UNL d   1       3.537  -2.031  -3.283  0.00  0.00     0.036 A 
ATOM     25 CL   UNL d   1       2.877  -2.687  -4.733  0.00  0.00    -0.084 Cl
ATOM     26  C   UNL d   1       4.905  -2.089  -3.059  0.00  0.00     0.024 A 
ATOM     27  C   UNL d   1       5.420  -1.559  -1.882  0.00  0.00     0.004 A 
ATOM     28  C   UNL d   1       4.557  -0.988  -0.940  0.00  0.00     0.029 A 
ENDBRANCH  20  22
ENDBRANCH   1  20
TORSDOF 6
