REMARK  10 active torsions:
REMARK  status: ('A' for Active; 'I' for Inactive)
REMARK    1  A    between atoms: C_5  and  C_1 
REMARK    2  A    between atoms: S_14  and  C_6 
REMARK    3  A    between atoms: C_9  and  C_12 
REMARK    4  A    between atoms: C_10  and  C_19 
REMARK    5  A    between atoms: C_11  and  C_20 
REMARK    6  A    between atoms: C_12  and  S_14 
REMARK    7  A    between atoms: O_18  and  C_13 
REMARK    8  A    between atoms: C_19  and  O_18 
REMARK    9  A    between atoms: C_20  and  O_29 
REMARK   10  A    between atoms: O_29  and  C_28 
ROOT
ATOM      1  C   UNL d   1      -0.729  -2.464   0.073  0.00  0.00     0.053 A 
ATOM      2  C   UNL d   1      -1.650  -2.884  -0.908  0.00  0.00     0.083 A 
ATOM      3  C   UNL d   1      -0.155  -3.435   0.916  0.00  0.00     0.055 A 
ATOM      4  C   UNL d   1      -1.913  -4.257  -1.049  0.00  0.00     0.040 A 
ATOM      5  C   UNL d   1      -0.432  -4.792   0.775  0.00  0.00     0.070 A 
ATOM      6  C   UNL d   1      -1.318  -5.205  -0.210  0.00  0.00     0.039 A 
ENDROOT
BRANCH   1   7
ATOM      7  C   UNL d   1      -0.322  -1.065   0.251  0.00  0.00     0.178 A 
ATOM      8  O   UNL d   1       0.838  -0.869   0.966  0.00  0.00    -0.267 OA
ATOM      9  C   UNL d   1       0.969   0.492   0.958  0.00  0.00     0.204 A 
ATOM     10  N   UNL d   1      -0.009   1.080   0.302  0.00  0.00    -0.272 N 
ATOM     11  N   UNL d   1      -0.841   0.072  -0.163  0.00  0.00    -0.277 N 
ATOM     12  HN  UNL d   1      -0.131   2.083   0.163  1.00  0.00     0.189 HD
ATOM     13  HN  UNL d   1      -1.689   0.189  -0.717  1.00  0.00     0.189 HD
BRANCH   9  14
ATOM     14  S   UNL d   1       2.300   1.290   1.740  0.00  0.00    -0.080 SA
BRANCH  14  15
ATOM     15  C   UNL d   1       1.775   3.019   1.606  0.00  0.00     0.125 C 
BRANCH  15  16
ATOM     16  C   UNL d   1       2.791   3.969   2.207  0.00  0.00    -0.005 A 
ATOM     17  C   UNL d   1       3.842   4.500   1.431  0.00  0.00     0.042 A 
ATOM     18 CL   UNL d   1       4.070   4.072  -0.229  0.00  0.00    -0.084 Cl
ATOM     19  C   UNL d   1       4.764   5.404   1.978  0.00  0.00     0.024 A 
ATOM     20  C   UNL d   1       4.667   5.789   3.312  0.00  0.00     0.003 A 
ATOM     21  C   UNL d   1       3.653   5.256   4.104  0.00  0.00     0.024 A 
ATOM     22  C   UNL d   1       2.730   4.350   3.561  0.00  0.00     0.042 A 
ATOM     23 CL   UNL d   1       1.528   3.731   4.640  0.00  0.00    -0.084 Cl
ENDBRANCH  15  16
ENDBRANCH  14  15
ENDBRANCH   9  14
ENDBRANCH   1   7
BRANCH   2  24
ATOM     24  O   UNL d   1      -2.244  -1.916  -1.674  0.00  0.00    -0.341 OA
BRANCH  24  25
ATOM     25  C   UNL d   1      -3.201  -2.332  -2.658  0.00  0.00     0.293 C 
BRANCH  25  26
ATOM     26  C   UNL d   1      -3.942  -1.152  -3.275  0.00  0.00     0.408 C 
ATOM     27  F   UNL d   1      -3.140  -0.089  -3.495  0.00  0.00    -0.169 F 
ATOM     28  F   UNL d   1      -4.464  -1.514  -4.472  0.00  0.00    -0.169 F 
ATOM     29  F   UNL d   1      -4.971  -0.755  -2.495  0.00  0.00    -0.169 F 
ENDBRANCH  25  26
ENDBRANCH  24  25
ENDBRANCH   2  24
BRANCH   5  30
ATOM     30  O   UNL d   1       0.219  -5.594   1.662  0.00  0.00    -0.342 OA
BRANCH  30  31
ATOM     31  C   UNL d   1       0.338  -6.980   1.337  0.00  0.00     0.293 C 
BRANCH  31  32
ATOM     32  C   UNL d   1       1.476  -7.617   2.131  0.00  0.00     0.408 C 
ATOM     33  F   UNL d   1       1.897  -6.847   3.157  0.00  0.00    -0.169 F 
ATOM     34  F   UNL d   1       1.089  -8.806   2.651  0.00  0.00    -0.169 F 
ATOM     35  F   UNL d   1       2.543  -7.856   1.334  0.00  0.00    -0.169 F 
ENDBRANCH  31  32
ENDBRANCH  30  31
ENDBRANCH   5  30
TORSDOF 10
