REMARK  4 active torsions:
REMARK  status: ('A' for Active; 'I' for Inactive)
REMARK    1  A    between atoms: C_11  and  C_3 
REMARK    2  A    between atoms: C_16  and  C_4 
REMARK    3  A    between atoms: C_14  and  C_10 
REMARK    4  A    between atoms: N_12  and  C_13 
ROOT
ATOM      1  C   UNL d   1       0.293  -0.760   0.025  0.00  0.00     0.144 A 
ATOM      2  N   UNL d   1       0.296   0.623   0.014  0.00  0.00    -0.202 N 
ATOM      3  C   UNL d   1       2.365   0.068  -0.023  0.00  0.00     0.147 A 
ATOM      4  C   UNL d   1       1.618  -1.166   0.014  0.00  0.00     0.053 A 
ATOM      5  N   UNL d   1       1.544   1.137   0.015  0.00  0.00    -0.284 N 
ATOM      6  HN  UNL d   1       1.809   2.121   0.040  1.00  0.00     0.187 HD
ATOM      7  N   UNL d   1      -0.915  -1.388   0.040  0.00  0.00    -0.339 N 
ATOM      8  C   UNL d   1      -0.853   1.430  -0.008  0.00  0.00     0.270 A 
ATOM      9  C   UNL d   1      -2.129   0.677  -0.035  0.00  0.00     0.106 A 
ATOM     10  C   UNL d   1      -2.094  -0.666  -0.009  0.00  0.00     0.049 A 
ATOM     11  O   UNL d   1      -0.796   2.654  -0.011  0.00  0.00    -0.266 OA
ATOM     12  H   UNL d   1      -1.003  -2.401   0.114  0.00  0.00     0.167 HD
ENDROOT
BRANCH  10  13
ATOM     13  C   UNL d   1      -3.373  -1.392  -0.028  0.00  0.00    -0.007 A 
ATOM     14  C   UNL d   1      -3.993  -1.711  -1.244  0.00  0.00     0.049 A 
ATOM     15  C   UNL d   1      -5.266  -2.305  -1.238  0.00  0.00     0.103 A 
ATOM     16  C   UNL d   1      -5.916  -2.588  -0.030  0.00  0.00     0.036 A 
ATOM     17  C   UNL d   1      -5.287  -2.283   1.177  0.00  0.00     0.003 A 
ATOM     18  C   UNL d   1      -4.022  -1.688   1.178  0.00  0.00     0.014 A 
BRANCH  15  19
ATOM     19  N   UNL d   1      -5.928  -2.620  -2.507  0.00  0.00    -0.116 N 
ATOM     20  O   UNL d   1      -5.308  -2.384  -3.557  0.00  0.00    -0.532 OA
ATOM     21  O   UNL d   1      -7.069  -3.107  -2.462  0.00  0.00    -0.532 OA
ENDBRANCH  15  19
ENDBRANCH  10  13
BRANCH   4  22
ATOM     22  C   UNL d   1       2.073  -2.554  -0.026  0.00  0.00    -0.020 A 
ATOM     23  C   UNL d   1       3.212  -2.952   0.689  0.00  0.00     0.012 A 
ATOM     24  C   UNL d   1       3.736  -4.240   0.543  0.00  0.00     0.001 A 
ATOM     25  C   UNL d   1       3.093  -5.167  -0.272  0.00  0.00     0.000 A 
ATOM     26  C   UNL d   1       1.925  -4.807  -0.938  0.00  0.00     0.001 A 
ATOM     27  C   UNL d   1       1.427  -3.506  -0.830  0.00  0.00     0.012 A 
ENDBRANCH   4  22
BRANCH   3  28
ATOM     28  C   UNL d   1       3.859   0.289  -0.111  0.00  0.00     0.434 C 
ATOM     29  F   UNL d   1       4.571  -0.840  -0.364  0.00  0.00    -0.165 F 
ATOM     30  F   UNL d   1       4.192   1.162  -1.101  0.00  0.00    -0.165 F 
ATOM     31  F   UNL d   1       4.359   0.799   1.048  0.00  0.00    -0.165 F 
ENDBRANCH   3  28
TORSDOF 4
