REMARK  5 active torsions:
REMARK  status: ('A' for Active; 'I' for Inactive)
REMARK    1  A    between atoms: C_7  and  C_1 
REMARK    2  A    between atoms: C_11  and  C_5 
REMARK    3  A    between atoms: S_9  and  C_7 
REMARK    4  A    between atoms: C_8  and  C_10 
REMARK    5  A    between atoms: C_18  and  S_9 
ROOT
ATOM      1  C   UNL d   1      -0.174  -1.094  -0.349  0.00  0.00     0.086 A 
ATOM      2  S   UNL d   1       1.268  -0.222  -0.680  0.00  0.00    -0.065 SA
ATOM      3  N   UNL d   1      -0.785   1.150  -0.038  0.00  0.00    -0.352 N 
ATOM      4  HN  UNL d   1      -1.402   1.933   0.178  1.00  0.00     0.166 HD
ATOM      5  C   UNL d   1       0.497   1.266  -0.322  0.00  0.00     0.085 A 
ATOM      6  C   UNL d   1      -1.185  -0.182  -0.072  0.00  0.00     0.028 A 
ATOM      7  C   UNL d   1      -2.614  -0.480   0.225  0.00  0.00     0.070 C 
ENDROOT
BRANCH   1   8
ATOM      8  C   UNL d   1      -0.269  -2.547  -0.394  0.00  0.00     0.232 C 
ATOM      9  O   UNL d   1      -1.333  -3.159  -0.347  0.00  0.00    -0.279 OA
BRANCH   8  10
ATOM     10  S   UNL d   1       1.276  -3.413  -0.436  0.00  0.00    -0.047 SA
BRANCH  10  11
ATOM     11  C   UNL d   1       0.907  -5.025  -1.086  0.00  0.00     0.008 A 
ATOM     12  C   UNL d   1      -0.027  -5.252  -2.100  0.00  0.00     0.020 A 
ATOM     13  C   UNL d   1      -0.251  -6.546  -2.584  0.00  0.00     0.017 A 
ATOM     14  C   UNL d   1       0.471  -7.635  -2.076  0.00  0.00     0.048 A 
ATOM     15  C   UNL d   1       1.438  -7.399  -1.089  0.00  0.00     0.017 A 
ATOM     16  C   UNL d   1       1.653  -6.107  -0.602  0.00  0.00     0.020 A 
BRANCH  14  17
ATOM     17  C   UNL d   1       0.223  -9.039  -2.569  0.00  0.00     0.417 C 
ATOM     18  F   UNL d   1      -0.783  -9.126  -3.483  0.00  0.00    -0.166 F 
ATOM     19  F   UNL d   1       1.319  -9.582  -3.168  0.00  0.00    -0.166 F 
ATOM     20  F   UNL d   1      -0.113  -9.891  -1.562  0.00  0.00    -0.166 F 
ENDBRANCH  14  17
ENDBRANCH  10  11
ENDBRANCH   8  10
ENDBRANCH   1   8
BRANCH   5  21
ATOM     21  C   UNL d   1       1.257   2.531  -0.289  0.00  0.00    -0.002 A 
ATOM     22  C   UNL d   1       2.499   2.695  -0.925  0.00  0.00     0.014 A 
ATOM     23  C   UNL d   1       3.206   3.897  -0.831  0.00  0.00     0.001 A 
ATOM     24  C   UNL d   1       2.678   4.961  -0.105  0.00  0.00     0.000 A 
ATOM     25  C   UNL d   1       1.441   4.825   0.521  0.00  0.00     0.001 A 
ATOM     26  C   UNL d   1       0.735   3.622   0.426  0.00  0.00     0.014 A 
ENDBRANCH   5  21
TORSDOF 5
