REMARK  1 active torsions:
REMARK  status: ('A' for Active; 'I' for Inactive)
REMARK    1  A    between atoms: C_3  and  C_1 
ROOT
ATOM      1  C   UNL d   1       3.942   0.671  -0.013  0.00  0.00     0.105 A 
ATOM      2  O   UNL d   1       3.501  -0.619  -0.134  0.00  0.00    -0.308 OA
ATOM      3  C   UNL d   1       2.858   1.522   0.109  0.00  0.00     0.054 A 
ATOM      4  C   UNL d   1       1.691   0.718   0.063  0.00  0.00     0.002 A 
ATOM      5  C   UNL d   1       2.143  -0.589  -0.075  0.00  0.00     0.086 A 
ATOM      6  C   UNL d   1       0.306   0.952   0.126  0.00  0.00     0.033 A 
ATOM      7  C   UNL d   1       1.307  -1.702  -0.140  0.00  0.00     0.039 A 
ATOM      8  C   UNL d   1      -0.556  -0.151   0.059  0.00  0.00     0.011 A 
ATOM      9  C   UNL d   1      -0.069  -1.455  -0.067  0.00  0.00     0.022 A 
ATOM     10 BR   UNL d   1      -2.426   0.136   0.141  0.00  0.00    -0.051 Br
ENDROOT
BRANCH   1  11
ATOM     11  C   UNL d   1       5.376   1.080  -0.009  0.00  0.00     0.083 A 
ATOM     12  N   UNL d   1       5.774   2.344   0.188  0.00  0.00    -0.298 N 
ATOM     13  N   UNL d   1       7.114   2.271   0.141  0.00  0.00    -0.311 N 
ATOM     14  HN  UNL d   1       5.193   3.169   0.339  1.00  0.00     0.187 HD
ATOM     15  C   UNL d   1       7.583   1.014  -0.103  0.00  0.00     0.109 A 
ATOM     16  H   UNL d   1       7.647   3.123   0.285  0.00  0.00     0.186 HD
ATOM     17  C   UNL d   1       6.473   0.210  -0.202  0.00  0.00     0.052 A 
ENDBRANCH   1  11
TORSDOF 1
