REMARK  2 active torsions:
REMARK  status: ('A' for Active; 'I' for Inactive)
REMARK    1  A    between atoms: C_8  and  C_1 
REMARK    2  A    between atoms: N_7  and  C_8 
ROOT
ATOM      1  C   UNL d   1      -1.136   0.685   0.084  0.00  0.00    -0.017 C 
ATOM      2  C   UNL d   1       0.148   1.290   0.227  0.00  0.00    -0.047 C 
ATOM      3  C   UNL d   1      -1.215  -0.734   0.131  0.00  0.00    -0.047 C 
ATOM      4  C   UNL d   1       1.328   0.504   0.112  0.00  0.00    -0.049 C 
ATOM      5  C   UNL d   1      -0.036  -1.526   0.042  0.00  0.00    -0.049 C 
ATOM      6  C   UNL d   1       1.234  -0.909   0.026  0.00  0.00    -0.049 C 
ATOM      7  C   UNL d   1      -2.531  -1.443   0.357  0.00  0.00     0.049 C 
ATOM      8  C   UNL d   1       0.277   2.763   0.550  0.00  0.00     0.049 C 
ATOM      9  C   UNL d   1       2.697   1.152   0.128  0.00  0.00     0.049 C 
ATOM     10  C   UNL d   1      -0.121  -3.038  -0.026  0.00  0.00     0.049 C 
ATOM     11  C   UNL d   1       2.503  -1.724  -0.075  0.00  0.00     0.049 C 
ENDROOT
BRANCH   1  12
ATOM     12  C   UNL d   1      -2.387   1.560  -0.135  0.00  0.00     0.312 C 
BRANCH  12  13
ATOM     13  N   UNL d   1      -2.843   1.618  -1.551  0.00  0.00     0.097 N 
ATOM     14  C   UNL d   1      -3.253   2.983  -1.964  0.00  0.00     0.219 C 
ATOM     15  C   UNL d   1      -3.264   3.112  -3.499  0.00  0.00     0.043 C 
ATOM     16  C   UNL d   1      -4.608   3.411  -1.364  0.00  0.00     0.035 C 
ATOM     17  C   UNL d   1      -5.717   2.386  -1.598  0.00  0.00     0.004 C 
ATOM     18  C   UNL d   1      -5.258   0.985  -1.215  0.00  0.00     0.030 C 
ATOM     19  C   UNL d   1      -3.910   0.653  -1.862  0.00  0.00     0.273 C 
ENDBRANCH  12  13
ENDBRANCH   1  12
TORSDOF 2
