REMARK  2 active torsions:
REMARK  status: ('A' for Active; 'I' for Inactive)
REMARK    1  A    between atoms: C_7  and  C_1 
REMARK    2  A    between atoms: C_9  and  C_3 
ROOT
ATOM      1  C   UNL d   1       0.663   1.239  -0.041  0.00  0.00     0.088 A 
ATOM      2  S   UNL d   1       1.388  -0.314   0.026  0.00  0.00    -0.066 SA
ATOM      3  C   UNL d   1      -0.150  -1.064   0.048  0.00  0.00     0.074 A 
ATOM      4  N   UNL d   1      -0.653   1.221  -0.006  0.00  0.00    -0.352 N 
ATOM      5  HN  UNL d   1      -1.243   2.053   0.007  1.00  0.00     0.166 HD
ATOM      6  C   UNL d   1      -1.131  -0.083   0.010  0.00  0.00     0.027 A 
ATOM      7  C   UNL d   1      -2.608  -0.279   0.005  0.00  0.00     0.070 C 
ENDROOT
BRANCH   1   8
ATOM      8  C   UNL d   1       1.466   2.469  -0.060  0.00  0.00     0.036 A 
ATOM      9  C   UNL d   1       2.740   2.550  -0.641  0.00  0.00     0.132 A 
ATOM     10  C   UNL d   1       3.468   3.738  -0.646  0.00  0.00     0.085 A 
ATOM     11  F   UNL d   1       3.303   1.486  -1.235  0.00  0.00    -0.205 F 
ATOM     12  C   UNL d   1       2.915   4.871  -0.071  0.00  0.00     0.119 A 
ATOM     13  C   UNL d   1       1.651   4.835   0.504  0.00  0.00     0.043 A 
ATOM     14  F   UNL d   1       3.606   6.018  -0.076  0.00  0.00    -0.206 F 
ATOM     15  C   UNL d   1       0.928   3.640   0.507  0.00  0.00     0.020 A 
ENDBRANCH   1   8
BRANCH   3  16
ATOM     16  C   UNL d   1      -0.314  -2.508   0.076  0.00  0.00     0.164 C 
ATOM     17  O   UNL d   1      -1.396  -3.047  -0.178  0.00  0.00    -0.292 OA
ATOM     18  C   UNL d   1       0.856  -3.398   0.435  0.00  0.00     0.097 C 
ENDBRANCH   3  16
TORSDOF 2
