REMARK  10 active torsions:
REMARK  status: ('A' for Active; 'I' for Inactive)
REMARK    1  A    between atoms: C_3  and  C_1 
REMARK    2  A    between atoms: C_4  and  C_1 
REMARK    3  A    between atoms: N_5  and  C_2 
REMARK    4  A    between atoms: O_17  and  C_3 
REMARK    5  A    between atoms: O_16  and  C_4 
REMARK    6  A    between atoms: C_6  and  C_9 
REMARK    7  A    between atoms: C_10  and  C_6 
REMARK    8  A    between atoms: C_11  and  C_6 
REMARK    9  A    between atoms: C_23  and  O_16 
REMARK   10  A    between atoms: C_22  and  O_17 
ROOT
ATOM      1  N   UNL d   1       0.995  -1.321  -1.964  0.00  0.00    -0.389 N 
ATOM      2  C   UNL d   1       1.462  -3.244  -4.122  0.00  0.00     0.001 C 
ATOM      3  C   UNL d   1       0.272  -2.257  -4.106  0.00  0.00     0.025 C 
ATOM      4  C   UNL d   1       1.891  -3.482  -2.649  0.00  0.00     0.025 C 
ATOM      5  C   UNL d   1       0.571  -0.982  -3.329  0.00  0.00     0.122 C 
ATOM      6  C   UNL d   1       2.180  -2.180  -1.894  0.00  0.00     0.122 C 
ENDROOT
BRANCH   2   7
ATOM      7  C   UNL d   1       2.667  -2.796  -5.024  0.00  0.00     0.056 C 
BRANCH   7   8
ATOM      8  C   UNL d   1       3.767  -3.863  -5.072  0.00  0.00    -0.049 A 
ATOM      9  C   UNL d   1       3.510  -5.155  -5.559  0.00  0.00     0.008 A 
ATOM     10  C   UNL d   1       4.526  -6.109  -5.625  0.00  0.00     0.001 A 
ATOM     11  C   UNL d   1       5.813  -5.787  -5.204  0.00  0.00     0.000 A 
ATOM     12  C   UNL d   1       6.083  -4.513  -4.709  0.00  0.00     0.001 A 
ATOM     13  C   UNL d   1       5.067  -3.556  -4.643  0.00  0.00     0.008 A 
ENDBRANCH   7   8
BRANCH   7  14
ATOM     14  C   UNL d   1       2.317  -2.345  -6.448  0.00  0.00    -0.049 A 
ATOM     15  C   UNL d   1       3.085  -1.337  -7.052  0.00  0.00     0.008 A 
ATOM     16  C   UNL d   1       2.794  -0.888  -8.345  0.00  0.00     0.001 A 
ATOM     17  C   UNL d   1       1.732  -1.446  -9.054  0.00  0.00     0.000 A 
ATOM     18  C   UNL d   1       0.984  -2.471  -8.482  0.00  0.00     0.001 A 
ATOM     19  C   UNL d   1       1.281  -2.927  -7.195  0.00  0.00     0.008 A 
ENDBRANCH   7  14
ENDBRANCH   2   7
BRANCH   1  20
ATOM     20  C   UNL d   1       0.553  -0.591  -0.868  0.00  0.00     0.109 C 
ATOM     21  C   UNL d   1      -0.695  -0.423  -0.383  0.00  0.00     0.129 C 
BRANCH  21  22
ATOM     22  C   UNL d   1      -0.942   0.545   0.711  0.00  0.00     0.300 C 
ATOM     23  O   UNL d   1      -1.896   0.498   1.469  0.00  0.00    -0.259 OA
BRANCH  22  24
ATOM     24  O   UNL d   1      -0.017   1.548   0.678  0.00  0.00    -0.318 OA
BRANCH  24  25
ATOM     25  C   UNL d   1      -0.383   2.762   1.350  0.00  0.00     0.174 C 
ATOM     26  C   UNL d   1      -1.008   3.687   0.322  0.00  0.00     0.034 C 
ENDBRANCH  24  25
ENDBRANCH  22  24
ENDBRANCH  21  22
BRANCH  21  27
ATOM     27  C   UNL d   1      -1.830  -1.203  -0.935  0.00  0.00     0.300 C 
ATOM     28  O   UNL d   1      -1.767  -2.352  -1.345  0.00  0.00    -0.259 OA
BRANCH  27  29
ATOM     29  O   UNL d   1      -2.939  -0.417  -1.008  0.00  0.00    -0.318 OA
BRANCH  29  30
ATOM     30  C   UNL d   1      -4.006  -0.908  -1.832  0.00  0.00     0.174 C 
ATOM     31  C   UNL d   1      -5.073  -1.641  -1.039  0.00  0.00     0.034 C 
ENDBRANCH  29  30
ENDBRANCH  27  29
ENDBRANCH  21  27
ENDBRANCH   1  20
TORSDOF 10
