REMARK  2 active torsions:
REMARK  status: ('A' for Active; 'I' for Inactive)
REMARK    1  A    between atoms: C_4  and  C_3 
REMARK    2  A    between atoms: O_15  and  C_7 
ROOT
ATOM      1  N   UNL d   1      -3.170  -1.014  -0.051  0.00  0.00    -0.352 N 
ATOM      2  HN  UNL d   1      -3.507  -1.974   0.024  1.00  0.00     0.166 HD
ATOM      3  C   UNL d   1      -4.053   0.015  -0.196  0.00  0.00     0.119 A 
ATOM      4  C   UNL d   1      -1.330   0.553  -0.083  0.00  0.00     0.025 A 
ATOM      5  C   UNL d   1      -1.854  -0.754  -0.006  0.00  0.00     0.045 A 
ATOM      6  C   UNL d   1      -2.267   1.602  -0.172  0.00  0.00     0.082 A 
ATOM      7  C   UNL d   1      -3.629   1.336  -0.253  0.00  0.00     0.072 A 
ATOM      8  C   UNL d   1       0.072   0.736  -0.084  0.00  0.00     0.035 A 
ATOM      9  C   UNL d   1      -0.973  -1.820   0.104  0.00  0.00     0.032 A 
ATOM     10  C   UNL d   1       0.930  -0.354   0.029  0.00  0.00     0.012 A 
ATOM     11  C   UNL d   1       0.412  -1.637   0.128  0.00  0.00     0.021 A 
ATOM     12 BR   UNL d   1       2.799  -0.085   0.045  0.00  0.00    -0.051 Br
ENDROOT
BRANCH   3  13
ATOM     13  C   UNL d   1      -5.540  -0.287  -0.305  0.00  0.00     0.432 C 
ATOM     14  F   UNL d   1      -5.845  -1.614  -0.359  0.00  0.00    -0.165 F 
ATOM     15  F   UNL d   1      -6.253   0.215   0.748  0.00  0.00    -0.165 F 
ATOM     16  F   UNL d   1      -6.105   0.266  -1.419  0.00  0.00    -0.165 F 
ENDBRANCH   3  13
BRANCH   6  17
ATOM     17  O   UNL d   1      -1.900   2.920  -0.280  0.00  0.00    -0.355 OA
ATOM     18  C   UNL d   1      -1.369   3.445   0.940  0.00  0.00     0.210 C 
ENDBRANCH   6  17
TORSDOF 2
