REMARK  2 active torsions:
REMARK  status: ('A' for Active; 'I' for Inactive)
REMARK    1  A    between atoms: C_6  and  C_1 
REMARK    2  A    between atoms: S_8  and  C_3 
REMARK       I    between atoms: N_10  and  C_6 
ROOT
ATOM      1  C   UNL d   1      -1.851  -0.917  -0.050  0.00  0.00     0.081 A 
ATOM      2  S   UNL d   1      -2.696   0.575  -0.062  0.00  0.00    -0.076 SA
ATOM      3  C   UNL d   1      -1.260   1.505  -0.000  0.00  0.00     0.052 A 
ATOM      4  C   UNL d   1      -0.476  -0.708  -0.036  0.00  0.00    -0.023 A 
ATOM      5  C   UNL d   1      -0.147   0.691  -0.011  0.00  0.00    -0.005 A 
ATOM      6  C   UNL d   1       1.218   1.111   0.041  0.00  0.00     0.010 A 
ATOM      7  C   UNL d   1       2.229   0.228   0.024  0.00  0.00    -0.025 A 
ATOM      8  C   UNL d   1       0.580  -1.781   0.005  0.00  0.00     0.045 A 
ATOM      9  C   UNL d   1       2.032  -1.263  -0.039  0.00  0.00     0.032 A 
ENDROOT
BRANCH   1  10
ATOM     10  C   UNL d   1      -2.559  -2.199  -0.037  0.00  0.00     0.258 C 
ATOM     11  O   UNL d   1      -1.982  -3.285  -0.038  0.00  0.00    -0.267 OA
ATOM     12  N   UNL d   1      -3.937  -2.124  -0.020  0.00  0.00    -0.361 N 
ATOM     13  C   UNL d   1      -4.794  -3.280   0.004  0.00  0.00     0.149 C 
ATOM     14  H   UNL d   1      -4.356  -1.201  -0.013  0.00  0.00     0.162 HD
ENDBRANCH   1  10
BRANCH   3  15
ATOM     15  S   UNL d   1      -1.361   3.259   0.150  0.00  0.00    -0.126 SA
ATOM     16  C   UNL d   1      -0.710   3.807  -1.441  0.00  0.00     0.096 C 
ENDBRANCH   3  15
TORSDOF 2
