REMARK  2 active torsions:
REMARK  status: ('A' for Active; 'I' for Inactive)
REMARK    1  A    between atoms: O_11  and  C_1 
REMARK    2  A    between atoms: C_5  and  O_11 
ROOT
ATOM      1  C   UNL d   1       3.824  -3.393  -0.023  0.00  0.00     0.092 A 
ATOM      2  C   UNL d   1       3.155  -4.014  -1.096  0.00  0.00     0.026 A 
ATOM      3  N   UNL d   1       3.681  -6.171  -0.124  0.00  0.00    -0.359 N 
ATOM      4  HN  UNL d   1       3.645  -7.189  -0.167  1.00  0.00     0.166 HD
ATOM      5  C   UNL d   1       3.117  -5.427  -1.089  0.00  0.00     0.045 A 
ATOM      6  C   UNL d   1       4.363  -4.170   1.003  0.00  0.00     0.062 A 
ATOM      7  C   UNL d   1       4.297  -5.548   0.902  0.00  0.00     0.008 A 
ATOM      8  C   UNL d   1       2.533  -3.312  -2.156  0.00  0.00     0.040 A 
ATOM      9  C   UNL d   1       2.467  -6.086  -2.122  0.00  0.00     0.032 A 
ATOM     10  C   UNL d   1       1.883  -4.004  -3.176  0.00  0.00     0.035 A 
ATOM     11  C   UNL d   1       1.847  -5.392  -3.164  0.00  0.00     0.026 A 
ATOM     12 CL   UNL d   1       1.120  -3.143  -4.452  0.00  0.00    -0.084 Cl
ATOM     13  C   UNL d   1       4.942  -6.400   1.954  0.00  0.00     0.068 C 
ENDROOT
BRANCH   1  14
ATOM     14  O   UNL d   1       3.881  -2.010   0.022  0.00  0.00    -0.287 OA
BRANCH  14  15
ATOM     15  C   UNL d   1       4.913  -1.396   0.613  0.00  0.00     0.193 A 
ATOM     16  N   UNL d   1       6.126  -1.902   0.645  0.00  0.00    -0.329 N 
ATOM     17  C   UNL d   1       6.935  -1.143   1.465  0.00  0.00     0.053 A 
ATOM     18  HN  UNL d   1       6.425  -2.735   0.137  1.00  0.00     0.168 HD
ATOM     19  C   UNL d   1       8.269  -1.444   1.801  0.00  0.00     0.054 A 
ATOM     20  C   UNL d   1       6.333  -0.004   2.007  0.00  0.00     0.035 A 
ATOM     21  C   UNL d   1       8.956  -0.605   2.679  0.00  0.00     0.036 A 
ATOM     22 CL   UNL d   1      10.579  -0.983   3.112  0.00  0.00    -0.084 Cl
ATOM     23  C   UNL d   1       8.345   0.525   3.215  0.00  0.00     0.025 A 
ATOM     24  C   UNL d   1       7.024   0.849   2.884  0.00  0.00     0.023 A 
ATOM     25  S   UNL d   1       4.713   0.098   1.423  0.00  0.00    -0.044 SA
ENDBRANCH  14  15
ENDBRANCH   1  14
TORSDOF 2
