REMARK  4 active torsions:
REMARK  status: ('A' for Active; 'I' for Inactive)
REMARK    1  A    between atoms: S_11  and  C_1 
REMARK    2  A    between atoms: C_8  and  C_6 
REMARK    3  A    between atoms: N_18  and  C_7 
REMARK    4  A    between atoms: C_19  and  S_11 
ROOT
ATOM      1  C   UNL d   1      -1.258   1.173  -0.310  0.00  0.00     0.097 A 
ATOM      2  C   UNL d   1      -1.430  -0.214  -0.304  0.00  0.00     0.091 A 
ATOM      3  N   UNL d   1      -0.040   1.758  -0.217  0.00  0.00    -0.339 N 
ATOM      4  HN  UNL d   1       0.048   2.774  -0.229  1.00  0.00     0.167 HD
ATOM      5  C   UNL d   1       0.979  -0.416  -0.105  0.00  0.00     0.095 A 
ATOM      6  C   UNL d   1      -0.286  -1.048  -0.215  0.00  0.00     0.029 A 
ATOM      7  C   UNL d   1       1.048   0.981  -0.107  0.00  0.00     0.100 A 
ATOM      8  C   UNL d   1      -2.759  -0.749  -0.364  0.00  0.00     0.103 C 
ATOM      9  C   UNL d   1       2.208  -1.141   0.070  0.00  0.00     0.103 C 
ATOM     10  N   UNL d   1      -3.839  -1.175  -0.373  0.00  0.00    -0.191 NA
ATOM     11  N   UNL d   1       3.217  -1.683   0.243  0.00  0.00    -0.191 NA
ENDROOT
BRANCH   1  12
ATOM     12  S   UNL d   1      -2.623   2.329  -0.322  0.00  0.00    -0.071 SA
BRANCH  12  13
ATOM     13  C   UNL d   1      -2.749   2.773  -2.045  0.00  0.00     0.007 A 
ATOM     14  C   UNL d   1      -3.985   2.632  -2.691  0.00  0.00     0.020 A 
ATOM     15  C   UNL d   1      -4.153   3.070  -4.008  0.00  0.00     0.025 A 
ATOM     16  C   UNL d   1      -3.086   3.655  -4.684  0.00  0.00     0.034 A 
ATOM     17  C   UNL d   1      -1.848   3.791  -4.058  0.00  0.00     0.025 A 
ATOM     18 CL   UNL d   1      -3.302   4.234  -6.290  0.00  0.00    -0.084 Cl
ATOM     19  C   UNL d   1      -1.682   3.353  -2.739  0.00  0.00     0.020 A 
ENDBRANCH  12  13
ENDBRANCH   1  12
BRANCH   6  20
ATOM     20  C   UNL d   1      -0.426  -2.531  -0.203  0.00  0.00     0.018 A 
ATOM     21  S   UNL d   1       0.547  -3.512  -1.237  0.00  0.00    -0.101 SA
ATOM     22  C   UNL d   1      -0.090  -4.962  -0.606  0.00  0.00     0.050 A 
ATOM     23  C   UNL d   1      -1.127  -4.726   0.263  0.00  0.00     0.008 A 
ATOM     24  C   UNL d   1      -1.310  -3.332   0.506  0.00  0.00     0.020 A 
ENDBRANCH   6  20
BRANCH   7  25
ATOM     25  N   UNL d   1       2.247   1.682  -0.072  0.00  0.00    -0.287 NA
ATOM     26  H   UNL d   1       2.907   1.376   0.638  0.00  0.00     0.125 HD
ATOM     27  H   UNL d   1       2.049   2.678  -0.005  0.00  0.00     0.125 HD
ENDBRANCH   7  25
TORSDOF 4
