REMARK  7 active torsions:
REMARK  status: ('A' for Active; 'I' for Inactive)
REMARK    1  A    between atoms: C_14  and  C_5 
REMARK    2  A    between atoms: N_7  and  C_10 
REMARK    3  A    between atoms: N_8  and  C_15 
REMARK    4  A    between atoms: C_9  and  C_20 
REMARK    5  A    between atoms: C_17  and  C_9 
REMARK    6  A    between atoms: O_21  and  C_14 
REMARK    7  A    between atoms: C_20  and  O_21 
ROOT
ATOM      1  C   UNL d   1      -0.709   0.661  -0.185  0.00  0.00     0.006 C 
ATOM      2  C   UNL d   1      -1.225  -0.645   0.002  0.00  0.00     0.029 C 
ATOM      3  C   UNL d   1       1.131  -0.787  -0.042  0.00  0.00     0.028 A 
ATOM      4  C   UNL d   1       0.745   0.537  -0.324  0.00  0.00    -0.010 A 
ATOM      5  C   UNL d   1      -1.613   1.728  -0.133  0.00  0.00     0.053 C 
ATOM      6  C   UNL d   1      -0.094  -1.577   0.144  0.00  0.00     0.194 C 
ATOM      7  C   UNL d   1      -3.462   0.091   0.001  0.00  0.00     0.104 C 
ATOM      8  C   UNL d   1      -2.567  -0.970   0.085  0.00  0.00     0.052 C 
ATOM      9  C   UNL d   1      -2.998   1.423  -0.085  0.00  0.00     0.054 C 
ATOM     10  C   UNL d   1       2.438  -1.243  -0.021  0.00  0.00     0.052 A 
ATOM     11  C   UNL d   1       3.422  -0.314  -0.363  0.00  0.00     0.103 A 
ATOM     12  C   UNL d   1       1.730   1.413  -0.754  0.00  0.00     0.016 A 
ATOM     13  O   UNL d   1      -0.162  -2.768   0.366  0.00  0.00    -0.287 OA
ATOM     14  C   UNL d   1       3.072   0.993  -0.765  0.00  0.00     0.037 A 
ENDROOT
BRANCH   5  15
ATOM     15  C   UNL d   1      -1.179   3.154   0.034  0.00  0.00     0.294 C 
ATOM     16  O   UNL d   1      -0.029   3.538   0.127  0.00  0.00    -0.259 OA
BRANCH  15  17
ATOM     17  O   UNL d   1      -2.263   3.962   0.166  0.00  0.00    -0.311 OA
BRANCH  17  18
ATOM     18  C   UNL d   1      -2.005   5.325   0.580  0.00  0.00     0.264 C 
BRANCH  18  19
ATOM     19  C   UNL d   1      -2.067   5.461   2.102  0.00  0.00     0.322 C 
ATOM     20  F   UNL d   1      -3.296   5.063   2.530  0.00  0.00    -0.198 F 
ATOM     21  F   UNL d   1      -1.167   4.623   2.681  0.00  0.00    -0.198 F 
BRANCH  19  22
ATOM     22  C   UNL d   1      -1.790   6.899   2.525  0.00  0.00     0.427 C 
ATOM     23  F   UNL d   1      -2.644   7.758   1.909  0.00  0.00    -0.208 F 
ATOM     24  F   UNL d   1      -1.979   7.059   3.861  0.00  0.00    -0.208 F 
ENDBRANCH  19  22
ENDBRANCH  18  19
ENDBRANCH  17  18
ENDBRANCH  15  17
ENDBRANCH   5  15
BRANCH   7  25
ATOM     25  N   UNL d   1      -4.907  -0.175   0.037  0.00  0.00    -0.116 N 
ATOM     26  O   UNL d   1      -5.272  -1.357   0.084  0.00  0.00    -0.532 OA
ATOM     27  O   UNL d   1      -5.669   0.800   0.002  0.00  0.00    -0.532 OA
ENDBRANCH   7  25
BRANCH  11  28
ATOM     28  N   UNL d   1       4.837  -0.703  -0.313  0.00  0.00    -0.116 N 
ATOM     29  O   UNL d   1       5.110  -1.814   0.161  0.00  0.00    -0.532 OA
ATOM     30  O   UNL d   1       5.671   0.108  -0.736  0.00  0.00    -0.532 OA
ENDBRANCH  11  28
TORSDOF 7
