REMARK  3 active torsions:
REMARK  status: ('A' for Active; 'I' for Inactive)
REMARK    1  A    between atoms: C_4  and  C_1 
REMARK    2  A    between atoms: C_14  and  C_5 
REMARK    3  A    between atoms: C_15  and  C_8 
ROOT
ATOM      1  N   UNL d   1       2.332   2.825   0.533  0.00  0.00    -0.318 N 
ATOM      2  HN  UNL d   1       1.563   3.384   0.903  1.00  0.00     0.169 HD
ATOM      3  C   UNL d   1       2.287   1.610   0.031  0.00  0.00     0.186 A 
ATOM      4  C   UNL d   1       3.661   3.160   0.440  0.00  0.00     0.138 A 
ATOM      5  N   UNL d   1       4.411   2.228  -0.168  0.00  0.00    -0.242 N 
ATOM      6  HN  UNL d   1       5.403   2.273  -0.404  1.00  0.00     0.196 HD
ATOM      7  O   UNL d   1       3.517   1.186  -0.400  0.00  0.00    -0.217 OA
ENDROOT
BRANCH   3   8
ATOM      8  C   UNL d   1       1.063   0.773  -0.024  0.00  0.00     0.063 A 
ATOM      9  C   UNL d   1      -0.306   1.156   0.043  0.00  0.00     0.074 A 
ATOM     10  N   UNL d   1      -1.091   0.062   0.076  0.00  0.00    -0.299 N 
ATOM     11  N   UNL d   1      -0.243  -0.970  -0.039  0.00  0.00    -0.310 N 
ATOM     12  HN  UNL d   1      -2.106   0.027   0.167  1.00  0.00     0.187 HD
ATOM     13  C   UNL d   1       1.062  -0.598  -0.142  0.00  0.00     0.125 A 
ATOM     14  H   UNL d   1      -0.631  -1.908  -0.039  0.00  0.00     0.186 HD
BRANCH   9  15
ATOM     15  C   UNL d   1      -0.898   2.498   0.009  0.00  0.00    -0.007 A 
ATOM     16  C   UNL d   1      -0.343   3.505  -0.794  0.00  0.00     0.014 A 
ATOM     17  C   UNL d   1      -0.908   4.778  -0.841  0.00  0.00     0.001 A 
ATOM     18  C   UNL d   1      -2.053   5.055  -0.099  0.00  0.00     0.000 A 
ATOM     19  C   UNL d   1      -2.633   4.057   0.681  0.00  0.00     0.001 A 
ATOM     20  C   UNL d   1      -2.063   2.784   0.735  0.00  0.00     0.014 A 
ENDBRANCH   9  15
ENDBRANCH   3   8
BRANCH   4  21
ATOM     21  C   UNL d   1       4.196   4.384   1.026  0.00  0.00     0.010 A 
ATOM     22  C   UNL d   1       3.416   5.143   1.915  0.00  0.00     0.017 A 
ATOM     23  C   UNL d   1       3.948   6.274   2.542  0.00  0.00     0.025 A 
ATOM     24  C   UNL d   1       5.260   6.661   2.277  0.00  0.00     0.034 A 
ATOM     25  C   UNL d   1       6.042   5.931   1.384  0.00  0.00     0.025 A 
ATOM     26 CL   UNL d   1       5.923   8.039   3.064  0.00  0.00    -0.084 Cl
ATOM     27  C   UNL d   1       5.511   4.796   0.762  0.00  0.00     0.017 A 
ENDBRANCH   4  21
TORSDOF 3
