REMARK  4 active torsions:
REMARK  status: ('A' for Active; 'I' for Inactive)
REMARK    1  A    between atoms: C_6  and  C_1 
REMARK    2  A    between atoms: C_12  and  N_2 
REMARK       I    between atoms: N_11  and  C_6 
REMARK    3  A    between atoms: N_9  and  C_8 
REMARK    4  A    between atoms: C_15  and  N_11 
ROOT
ATOM      1  C   UNL d   1      -0.601   2.460  -0.159  0.00  0.00     0.259 C 
ATOM      2  N   UNL d   1       0.271   3.510   0.041  0.00  0.00    -0.323 N 
ATOM      3  O   UNL d   1      -0.283   1.352  -0.568  0.00  0.00    -0.267 OA
ATOM      4  H   UNL d   1      -0.118   4.364   0.393  0.00  0.00     0.169 HD
ENDROOT
BRANCH   1   5
ATOM      5  C   UNL d   1      -2.005   2.726   0.184  0.00  0.00     0.073 C 
ATOM      6  C   UNL d   1      -2.703   3.886   0.531  0.00  0.00     0.048 C 
ATOM      7  N   UNL d   1      -4.019   3.486   0.787  0.00  0.00    -0.260 N 
ATOM      8  C   UNL d   1      -2.282   5.317   0.539  0.00  0.00     0.071 C 
ATOM      9  N   UNL d   1      -4.213   2.186   0.459  0.00  0.00    -0.304 N 
ATOM     10  C   UNL d   1      -3.004   1.729   0.159  0.00  0.00     0.126 C 
ATOM     11  HN  UNL d   1      -5.094   1.672   0.444  1.00  0.00     0.186 HD
BRANCH   7  12
ATOM     12  C   UNL d   1      -5.132   4.253   1.247  0.00  0.00     0.056 A 
ATOM     13  C   UNL d   1      -6.427   3.874   0.853  0.00  0.00     0.034 A 
ATOM     14  C   UNL d   1      -7.521   4.684   1.168  0.00  0.00     0.044 A 
ATOM     15  C   UNL d   1      -7.324   5.845   1.905  0.00  0.00     0.116 A 
ATOM     16  C   UNL d   1      -6.062   6.191   2.370  0.00  0.00     0.044 A 
ATOM     17  F   UNL d   1      -8.366   6.643   2.173  0.00  0.00    -0.206 F 
ATOM     18  C   UNL d   1      -4.964   5.387   2.054  0.00  0.00     0.034 A 
ENDBRANCH   7  12
ENDBRANCH   1   5
BRANCH   2  19
ATOM     19  C   UNL d   1       1.677   3.502  -0.065  0.00  0.00     0.036 A 
ATOM     20  C   UNL d   1       2.447   2.379  -0.354  0.00  0.00     0.055 A 
ATOM     21  C   UNL d   1       3.856   2.420  -0.283  0.00  0.00     0.062 A 
ATOM     22 CL   UNL d   1       4.631   0.894  -0.558  0.00  0.00    -0.082 Cl
ATOM     23  C   UNL d   1       4.537   3.607   0.064  0.00  0.00     0.052 A 
ATOM     24  C   UNL d   1       3.726   4.749   0.241  0.00  0.00     0.033 A 
ATOM     25  C   UNL d   1       2.331   4.703   0.195  0.00  0.00     0.032 A 
BRANCH  23  26
ATOM     26  N   UNL d   1       5.911   3.799   0.243  0.00  0.00    -0.375 N 
ATOM     27  C   UNL d   1       6.928   2.885  -0.309  0.00  0.00     0.149 C 
ATOM     28  C   UNL d   1       8.299   3.591  -0.315  0.00  0.00     0.187 C 
ATOM     29  O   UNL d   1       8.670   4.066   0.992  0.00  0.00    -0.388 OA
ATOM     30  C   UNL d   1       7.672   4.968   1.494  0.00  0.00     0.187 C 
ATOM     31  C   UNL d   1       6.304   4.279   1.593  0.00  0.00     0.149 C 
ENDBRANCH  23  26
ENDBRANCH   2  19
TORSDOF 4
