REMARK  6 active torsions:
REMARK  status: ('A' for Active; 'I' for Inactive)
REMARK    1  A    between atoms: C_3  and  C_1 
REMARK    2  A    between atoms: C_12  and  C_2 
REMARK    3  A    between atoms: O_19  and  C_12 
REMARK    4  A    between atoms: N_14  and  N_16 
REMARK    5  A    between atoms: C_20  and  C_18 
REMARK    6  A    between atoms: C_22  and  O_19 
ROOT
ATOM      1  C   UNL d   1       0.367  -2.735  -0.046  0.00  0.00     0.056 A 
ATOM      2  N   UNL d   1       1.149  -3.178   1.002  0.00  0.00    -0.334 N 
ATOM      3  HN  UNL d   1       1.478  -2.589   1.766  1.00  0.00     0.168 HD
ATOM      4  C   UNL d   1       1.413  -4.462   0.883  0.00  0.00     0.163 A 
ATOM      5  C   UNL d   1       0.040  -3.700  -0.973  0.00  0.00     0.083 A 
ATOM      6  S   UNL d   1       0.695  -5.211  -0.496  0.00  0.00    -0.062 SA
ATOM      7  N   UNL d   1       2.177  -5.201   1.732  0.00  0.00    -0.280 N 
ATOM      8  H   UNL d   1       2.271  -6.186   1.502  0.00  0.00     0.189 HD
ENDROOT
BRANCH   1   9
ATOM      9  C   UNL d   1      -0.082  -1.347  -0.003  0.00  0.00     0.057 A 
ATOM     10  C   UNL d   1      -0.430  -0.486  -1.079  0.00  0.00     0.144 A 
ATOM     11  N   UNL d   1      -0.868   0.697  -0.605  0.00  0.00    -0.254 N 
ATOM     12  O   UNL d   1      -0.770   0.628   0.766  0.00  0.00    -0.241 OA
ATOM     13  HN  UNL d   1      -1.205   1.488  -1.154  1.00  0.00     0.195 HD
ATOM     14  C   UNL d   1      -0.298  -0.591   1.127  0.00  0.00     0.087 A 
ATOM     15  C   UNL d   1      -0.167  -0.835   2.576  0.00  0.00     0.080 C 
BRANCH  10  16
ATOM     16  C   UNL d   1      -0.317  -0.697  -2.519  0.00  0.00     0.312 C 
ATOM     17  O   UNL d   1       0.446  -1.501  -3.038  0.00  0.00    -0.258 OA
BRANCH  16  18
ATOM     18  O   UNL d   1      -1.137   0.140  -3.224  0.00  0.00    -0.317 OA
BRANCH  18  19
ATOM     19  C   UNL d   1      -0.812   0.336  -4.603  0.00  0.00     0.175 C 
ATOM     20  C   UNL d   1       0.130   1.522  -4.688  0.00  0.00     0.034 C 
ENDBRANCH  18  19
ENDBRANCH  16  18
ENDBRANCH  10  16
ENDBRANCH   1   9
BRANCH   7  21
ATOM     21  N   UNL d   1       3.112  -4.618   2.533  0.00  0.00    -0.309 N 
ATOM     22  C   UNL d   1       3.844  -5.422   3.234  0.00  0.00     0.118 C 
ATOM     23  HN  UNL d   1       3.229  -3.606   2.577  1.00  0.00     0.186 HD
BRANCH  22  24
ATOM     24  C   UNL d   1       4.934  -4.907   4.088  0.00  0.00    -0.019 A 
ATOM     25  C   UNL d   1       5.272  -3.550   4.058  0.00  0.00     0.013 A 
ATOM     26  C   UNL d   1       6.307  -3.075   4.863  0.00  0.00     0.001 A 
ATOM     27  C   UNL d   1       7.001  -3.952   5.695  0.00  0.00     0.000 A 
ATOM     28  C   UNL d   1       6.666  -5.308   5.719  0.00  0.00     0.001 A 
ATOM     29  C   UNL d   1       5.633  -5.791   4.912  0.00  0.00     0.013 A 
ENDBRANCH  22  24
ENDBRANCH   7  21
TORSDOF 6
