REMARK  3 active torsions:
REMARK  status: ('A' for Active; 'I' for Inactive)
REMARK    1  A    between atoms: C_2  and  N_1 
REMARK    2  A    between atoms: C_8  and  C_5 
REMARK    3  A    between atoms: O_15  and  C_8 
ROOT
ATOM      1  N   UNL d   1       1.877  -0.034  -0.080  0.00  0.00    -0.242 N 
ATOM      2  C   UNL d   1       1.099  -1.132  -0.353  0.00  0.00     0.266 A 
ATOM      3  C   UNL d   1       1.118   1.101   0.101  0.00  0.00     0.266 A 
ATOM      4  C   UNL d   1      -0.287  -0.689  -0.220  0.00  0.00     0.048 A 
ATOM      5  C   UNL d   1      -0.279   0.668   0.030  0.00  0.00     0.048 A 
ATOM      6  O   UNL d   1       1.440   2.268   0.238  0.00  0.00    -0.267 OA
ATOM      7  O   UNL d   1       1.405  -2.277  -0.634  0.00  0.00    -0.267 OA
ATOM      8  C   UNL d   1      -1.463  -1.410  -0.297  0.00  0.00     0.018 A 
ATOM      9  C   UNL d   1      -1.444   1.396   0.172  0.00  0.00     0.018 A 
ATOM     10  C   UNL d   1      -2.649   0.692   0.085  0.00  0.00     0.001 A 
ATOM     11  C   UNL d   1      -2.659  -0.700  -0.135  0.00  0.00     0.001 A 
ENDROOT
BRANCH   1  12
ATOM     12  C   UNL d   1       3.276  -0.035  -0.085  0.00  0.00     0.069 C 
ATOM     13  C   UNL d   1       4.090   0.663   0.799  0.00  0.00     0.107 C 
ATOM     14  S   UNL d   1       5.749   0.538   0.355  0.00  0.00    -0.094 SA
ATOM     15  C   UNL d   1       5.408  -0.558  -0.901  0.00  0.00     0.053 C 
ATOM     16  C   UNL d   1       4.059  -0.804  -1.010  0.00  0.00     0.039 C 
BRANCH  13  17
ATOM     17  C   UNL d   1       3.783   1.376   2.030  0.00  0.00     0.302 C 
ATOM     18  O   UNL d   1       4.508   2.180   2.606  0.00  0.00    -0.259 OA
BRANCH  17  19
ATOM     19  O   UNL d   1       2.588   0.939   2.534  0.00  0.00    -0.322 OA
ATOM     20  C   UNL d   1       2.154   1.581   3.734  0.00  0.00     0.213 C 
ENDBRANCH  17  19
ENDBRANCH  13  17
ENDBRANCH   1  12
TORSDOF 3
