REMARK  4 active torsions:
REMARK  status: ('A' for Active; 'I' for Inactive)
REMARK    1  A    between atoms: N_2  and  C_1 
REMARK    2  A    between atoms: N_4  and  N_2 
REMARK       I    between atoms: C_3  and  N_4 
REMARK    3  A    between atoms: C_9  and  C_3 
REMARK    4  A    between atoms: C_20  and  C_19 
ROOT
ATOM      1  C   UNL d   1      -1.241  -4.350  -0.183  0.00  0.00     0.266 C 
ATOM      2  N   UNL d   1      -1.851  -4.327  -1.425  0.00  0.00    -0.283 N 
ATOM      3  O   UNL d   1      -1.656  -3.727   0.791  0.00  0.00    -0.266 OA
ATOM      4  H   UNL d   1      -1.314  -4.580  -2.251  0.00  0.00     0.184 HD
ENDROOT
BRANCH   2   5
ATOM      5  N   UNL d   1      -2.857  -3.392  -1.648  0.00  0.00    -0.200 NA
ATOM      6  H   UNL d   1      -3.192  -2.961  -0.774  0.00  0.00     0.153 HD
BRANCH   5   7
ATOM      7  C   UNL d   1      -3.923  -3.762  -2.522  0.00  0.00     0.073 A 
ATOM      8  C   UNL d   1      -3.892  -4.797  -3.481  0.00  0.00     0.073 A 
ATOM      9 CL   UNL d   1      -2.591  -5.916  -3.703  0.00  0.00    -0.081 Cl
ATOM     10  C   UNL d   1      -4.973  -4.954  -4.350  0.00  0.00     0.113 A 
ATOM     11  N   UNL d   1      -6.062  -4.156  -4.377  0.00  0.00    -0.372 N 
ATOM     12  C   UNL d   1      -6.072  -3.146  -3.483  0.00  0.00     0.113 A 
ATOM     13  HN  UNL d   1      -6.829  -4.307  -5.032  1.00  0.00     0.164 HD
ATOM     14  C   UNL d   1      -5.056  -2.915  -2.560  0.00  0.00     0.073 A 
ATOM     15 CL   UNL d   1      -5.217  -1.566  -1.489  0.00  0.00    -0.081 Cl
ENDBRANCH   5   7
ENDBRANCH   2   5
BRANCH   1  16
ATOM     16  C   UNL d   1       0.014  -5.157  -0.117  0.00  0.00     0.033 A 
ATOM     17  C   UNL d   1       1.017  -4.788   0.782  0.00  0.00     0.017 A 
ATOM     18  C   UNL d   1       2.223  -5.498   0.821  0.00  0.00     0.008 A 
ATOM     19  C   UNL d   1       2.431  -6.593  -0.029  0.00  0.00    -0.059 A 
ATOM     20  C   UNL d   1       1.415  -6.968  -0.917  0.00  0.00     0.008 A 
ATOM     21  C   UNL d   1       0.211  -6.264  -0.953  0.00  0.00     0.017 A 
BRANCH  19  22
ATOM     22  C   UNL d   1       3.734  -7.353  -0.011  0.00  0.00     0.034 C 
ATOM     23  C   UNL d   1       4.730  -6.806  -1.022  0.00  0.00     0.010 C 
ENDBRANCH  19  22
ENDBRANCH   1  16
TORSDOF 4
