REMARK  1 active torsions:
REMARK  status: ('A' for Active; 'I' for Inactive)
REMARK       I    between atoms: N_2  and  C_1 
REMARK       I    between atoms: N_4  and  C_1 
REMARK    1  A    between atoms: C_3  and  N_2 
ROOT
ATOM      1  C   UNL d   1       1.055   0.059  -0.004  0.00  0.00     0.324 C 
ATOM      2  N   UNL d   1       0.445   0.078  -1.236  0.00  0.00    -0.287 N 
ATOM      3  N   UNL d   1       0.228  -0.367   1.030  0.00  0.00    -0.330 N 
ATOM      4  O   UNL d   1       2.206   0.424   0.214  0.00  0.00    -0.247 OA
ATOM      5  O   UNL d   1      -0.272  -2.390   2.976  0.00  0.00    -0.388 OA
ATOM      6  C   UNL d   1       0.686  -0.214   2.414  0.00  0.00     0.153 C 
ATOM      7  C   UNL d   1      -0.916  -1.276   0.890  0.00  0.00     0.153 C 
ATOM      8  C   UNL d   1       0.913  -1.579   3.068  0.00  0.00     0.187 C 
ATOM      9  C   UNL d   1      -0.629  -2.606   1.603  0.00  0.00     0.187 C 
ATOM     10  H   UNL d   1      -0.559   0.128  -1.259  0.00  0.00     0.172 HD
ENDROOT
BRANCH   2  11
ATOM     11  C   UNL d   1       1.115   0.423  -2.386  0.00  0.00     0.175 A 
ATOM     12  C   UNL d   1       0.629   0.745  -3.630  0.00  0.00     0.077 A 
ATOM     13  C   UNL d   1       1.783   1.008  -4.390  0.00  0.00     0.119 A 
ATOM     14  N   UNL d   1       2.902   0.836  -3.684  0.00  0.00    -0.270 N 
ATOM     15  O   UNL d   1       2.476   0.466  -2.414  0.00  0.00    -0.220 OA
ATOM     16  HN  UNL d   1       3.862   0.951  -4.007  1.00  0.00     0.194 HD
ENDBRANCH   2  11
TORSDOF 1
