REMARK  1 active torsions:
REMARK  status: ('A' for Active; 'I' for Inactive)
REMARK    1  A    between atoms: S_7  and  C_2 
ROOT
ATOM      1  C   UNL d   1       0.526   0.638  -0.026  0.00  0.00     0.042 A 
ATOM      2  C   UNL d   1       1.895   0.858  -0.065  0.00  0.00     0.057 A 
ATOM      3  S   UNL d   1       2.775  -0.617  -0.062  0.00  0.00    -0.070 SA
ATOM      4  C   UNL d   1       1.360  -1.532   0.012  0.00  0.00     0.083 A 
ATOM      5  C   UNL d   1       0.215  -0.778   0.014  0.00  0.00    -0.014 A 
ATOM      6  C   UNL d   1      -0.538   1.649  -0.012  0.00  0.00     0.162 C 
ATOM      7 CL   UNL d   1       1.477  -3.247   0.087  0.00  0.00    -0.076 Cl
ATOM      8  O   UNL d   1      -0.343   2.848  -0.183  0.00  0.00    -0.292 OA
ATOM      9  C   UNL d   1      -1.196  -1.282   0.082  0.00  0.00     0.042 C 
ATOM     10  C   UNL d   1      -1.942   1.131   0.280  0.00  0.00     0.084 C 
ATOM     11  C   UNL d   1      -2.191  -0.219  -0.394  0.00  0.00     0.012 C 
ENDROOT
BRANCH   2  12
ATOM     12  S   UNL d   1       2.770   2.387  -0.046  0.00  0.00    -0.126 SA
ATOM     13  C   UNL d   1       2.869   2.725  -1.817  0.00  0.00     0.096 C 
ENDBRANCH   2  12
TORSDOF 1
