REMARK  6 active torsions:
REMARK  status: ('A' for Active; 'I' for Inactive)
REMARK    1  A    between atoms: N_2  and  C_1 
REMARK    2  A    between atoms: N_8  and  C_1 
REMARK    3  A    between atoms: C_3  and  N_2 
REMARK    4  A    between atoms: N_4  and  C_3 
REMARK    5  A    between atoms: C_10  and  N_6 
REMARK    6  A    between atoms: C_11  and  N_8 
ROOT
ATOM      1  C   UNL d   1       1.129   2.598   0.100  0.00  0.00     0.112 C 
ATOM      2  C   UNL d   1       2.046   2.817  -1.115  0.00  0.00     0.064 C 
ATOM      3  C   UNL d   1       0.023   3.670   0.045  0.00  0.00     0.064 C 
ENDROOT
BRANCH   1   4
ATOM      4  N   UNL d   1       0.510   1.267   0.030  0.00  0.00    -0.340 N 
ATOM      5  H   UNL d   1      -0.499   1.245   0.083  0.00  0.00     0.164 HD
BRANCH   4   6
ATOM      6  C   UNL d   1       1.087   0.035   0.007  0.00  0.00     0.174 C 
ATOM      7  S   UNL d   1       2.567  -0.389   0.654  0.00  0.00    -0.041 SA
BRANCH   6   8
ATOM      8  N   UNL d   1       0.356  -0.966  -0.578  0.00  0.00    -0.333 N 
ATOM      9  H   UNL d   1       0.722  -1.888  -0.366  0.00  0.00     0.168 HD
BRANCH   8  10
ATOM     10  C   UNL d   1      -0.586  -0.921  -1.633  0.00  0.00     0.034 A 
ATOM     11  C   UNL d   1      -0.919   0.233  -2.348  0.00  0.00     0.029 A 
ATOM     12  C   UNL d   1      -1.811   0.176  -3.425  0.00  0.00     0.002 A 
ATOM     13  C   UNL d   1      -2.365  -1.038  -3.810  0.00  0.00     0.000 A 
ATOM     14  C   UNL d   1      -2.030  -2.199  -3.119  0.00  0.00     0.002 A 
ATOM     15  C   UNL d   1      -1.145  -2.140  -2.037  0.00  0.00     0.029 A 
ENDBRANCH   8  10
ENDBRANCH   6   8
ENDBRANCH   4   6
ENDBRANCH   1   4
BRANCH   1  16
ATOM     16  N   UNL d   1       1.941   2.806   1.313  0.00  0.00    -0.308 N 
ATOM     17  N   UNL d   1       1.299   2.732   2.383  0.00  0.00    -0.303 N 
ATOM     18  HN  UNL d   1       0.297   2.552   2.433  1.00  0.00     0.186 HD
ATOM     19  HN  UNL d   1       2.942   2.996   1.282  1.00  0.00     0.183 HD
BRANCH  17  20
ATOM     20  C   UNL d   1       2.120   2.923   3.513  0.00  0.00     0.047 A 
ATOM     21  C   UNL d   1       3.265   3.736   3.524  0.00  0.00     0.031 A 
ATOM     22  C   UNL d   1       4.008   3.913   4.693  0.00  0.00     0.002 A 
ATOM     23  C   UNL d   1       3.611   3.285   5.872  0.00  0.00     0.000 A 
ATOM     24  C   UNL d   1       2.475   2.479   5.881  0.00  0.00     0.002 A 
ATOM     25  C   UNL d   1       1.735   2.304   4.709  0.00  0.00     0.031 A 
ENDBRANCH  17  20
ENDBRANCH   1  16
TORSDOF 6
