REMARK  2 active torsions:
REMARK  status: ('A' for Active; 'I' for Inactive)
REMARK       I    between atoms: N_3  and  C_1 
REMARK       I    between atoms: N_6  and  C_1 
REMARK    1  A    between atoms: C_4  and  N_3 
REMARK    2  A    between atoms: C_9  and  N_6 
ROOT
ATOM      1  C   UNL d   1       0.139   2.953  -2.032  0.00  0.00     0.240 C 
ATOM      2  C   UNL d   1       1.083   1.760  -1.801  0.00  0.00     0.178 C 
ATOM      3  N   UNL d   1       0.572   3.983  -2.814  0.00  0.00    -0.359 N 
ATOM      4  O   UNL d   1      -1.000   2.993  -1.555  0.00  0.00    -0.271 OA
ATOM      5  C   UNL d   1       1.870   4.106  -3.433  0.00  0.00     0.122 C 
ATOM      6  C   UNL d   1       1.344   1.028  -3.123  0.00  0.00     0.035 C 
ATOM      7  C   UNL d   1       2.083   3.072  -4.530  0.00  0.00     0.020 C 
ATOM      8  C   UNL d   1       2.416   1.677  -4.002  0.00  0.00     0.004 C 
ATOM      9  H   UNL d   1      -0.105   4.730  -2.934  0.00  0.00     0.162 HD
ENDROOT
BRANCH   2  10
ATOM     10  N   UNL d   1       0.422   0.866  -0.845  0.00  0.00    -0.330 N 
ATOM     11  C   UNL d   1       1.116   0.098   0.051  0.00  0.00     0.317 C 
ATOM     12  N   UNL d   1       0.277  -0.664   0.826  0.00  0.00    -0.339 N 
ATOM     13  O   UNL d   1       2.335   0.059   0.111  0.00  0.00    -0.247 OA
ATOM     14  H   UNL d   1      -0.713  -0.490   0.760  0.00  0.00     0.164 HD
ATOM     15  H   UNL d   1      -0.561   1.044  -0.685  0.00  0.00     0.165 HD
BRANCH  12  16
ATOM     16  C   UNL d   1       0.750  -1.605   1.837  0.00  0.00     0.078 C 
ATOM     17  C   UNL d   1       0.911  -0.931   3.200  0.00  0.00     0.032 C 
ATOM     18  C   UNL d   1      -0.218  -2.779   1.955  0.00  0.00     0.032 C 
ENDBRANCH  12  16
ENDBRANCH   2  10
TORSDOF 2
