REMARK  2 active torsions:
REMARK  status: ('A' for Active; 'I' for Inactive)
REMARK    1  A    between atoms: N_2  and  C_1 
REMARK    2  A    between atoms: N_4  and  C_3 
ROOT
ATOM      1  C   UNL d   1       2.463  -0.723   0.040  0.00  0.00     0.131 A 
ATOM      2  C   UNL d   1       1.280  -1.487   0.037  0.00  0.00     0.084 A 
ATOM      3  C   UNL d   1       0.013  -0.800   0.038  0.00  0.00     0.020 A 
ATOM      4  C   UNL d   1       2.429   0.672   0.018  0.00  0.00     0.041 A 
ATOM      5  C   UNL d   1       0.002   0.619  -0.029  0.00  0.00     0.044 A 
ATOM      6  N   UNL d   1      -1.115   1.359  -0.071  0.00  0.00    -0.365 N 
ATOM      7  HN  UNL d   1      -1.065   2.375  -0.143  1.00  0.00     0.165 HD
ATOM      8  C   UNL d   1       1.197   1.318  -0.029  0.00  0.00     0.033 A 
ATOM      9  C   UNL d   1      -1.272  -1.391   0.158  0.00  0.00     0.017 A 
ATOM     10  C   UNL d   1      -2.306   0.733  -0.015  0.00  0.00     0.088 A 
ATOM     11  C   UNL d   1      -2.436  -0.629   0.113  0.00  0.00     0.018 A 
ENDROOT
BRANCH   2  12
ATOM     12  N   UNL d   1       1.337  -2.916   0.030  0.00  0.00    -0.330 N 
ATOM     13  C   UNL d   1       2.212  -3.716   0.741  0.00  0.00     0.097 A 
ATOM     14  C   UNL d   1       1.933  -5.040   0.477  0.00  0.00     0.019 A 
ATOM     15  C   UNL d   1       0.851  -5.070  -0.424  0.00  0.00     0.019 A 
ATOM     16  C   UNL d   1       0.526  -3.761  -0.706  0.00  0.00     0.097 A 
ENDBRANCH   2  12
BRANCH   1  17
ATOM     17  N   UNL d   1       3.784  -1.311  -0.088  0.00  0.00    -0.113 N 
ATOM     18  O   UNL d   1       4.051  -1.865  -1.163  0.00  0.00    -0.532 OA
ATOM     19  O   UNL d   1       4.551  -1.167   0.871  0.00  0.00    -0.532 OA
ENDBRANCH   1  17
TORSDOF 2
