REMARK  2 active torsions:
REMARK  status: ('A' for Active; 'I' for Inactive)
REMARK    1  A    between atoms: N_7  and  C_1 
REMARK    2  A    between atoms: C_11  and  N_7 
ROOT
ATOM      1  C   UNL d   1       1.879  -1.164   0.688  0.00  0.00     0.079 C 
ATOM      2  C   UNL d   1       2.496  -0.012   0.338  0.00  0.00     0.140 C 
ATOM      3  C   UNL d   1       1.915   0.956  -0.639  0.00  0.00     0.265 C 
ATOM      4  S   UNL d   1       0.325  -1.613   0.002  0.00  0.00    -0.084 SA
ATOM      5  N   UNL d   1       0.619   0.794  -1.048  0.00  0.00    -0.338 N 
ATOM      6  C   UNL d   1      -0.371   0.028  -0.334  0.00  0.00     0.087 C 
ATOM      7  C   UNL d   1       3.780   0.318   0.885  0.00  0.00     0.107 C 
ATOM      8  N   UNL d   1       4.822   0.553   1.342  0.00  0.00    -0.191 NA
ATOM      9  O   UNL d   1       2.561   1.896  -1.092  0.00  0.00    -0.267 OA
ATOM     10  C   UNL d   1      -0.833   0.716   0.974  0.00  0.00     0.043 C 
ATOM     11  C   UNL d   1      -1.667  -0.166  -1.149  0.00  0.00     0.043 C 
ATOM     12  C   UNL d   1      -2.358   0.812   0.895  0.00  0.00     0.004 C 
ATOM     13  C   UNL d   1      -2.763  -0.264  -0.095  0.00  0.00     0.004 C 
ATOM     14  H   UNL d   1       0.305   1.539  -1.658  0.00  0.00     0.164 HD
ENDROOT
BRANCH   1  15
ATOM     15  N   UNL d   1       2.397  -2.050   1.631  0.00  0.00    -0.253 NA
ATOM     16  H   UNL d   1       1.631  -2.583   2.044  0.00  0.00     0.134 HD
BRANCH  15  17
ATOM     17  C   UNL d   1       3.435  -2.982   1.354  0.00  0.00     0.013 A 
ATOM     18  C   UNL d   1       3.906  -3.757   2.424  0.00  0.00     0.030 A 
ATOM     19  C   UNL d   1       4.964  -4.658   2.257  0.00  0.00    -0.060 A 
ATOM     20  C   UNL d   1       5.526  -5.407   3.428  0.00  0.00     0.048 C 
ATOM     21  C   UNL d   1       5.530  -4.814   0.989  0.00  0.00     0.007 A 
ATOM     22  C   UNL d   1       5.059  -4.063  -0.087  0.00  0.00     0.002 A 
ATOM     23  C   UNL d   1       4.026  -3.143   0.096  0.00  0.00     0.024 A 
ENDBRANCH  15  17
ENDBRANCH   1  15
TORSDOF 2
