REMARK  3 active torsions:
REMARK  status: ('A' for Active; 'I' for Inactive)
REMARK    1  A    between atoms: S_2  and  C_1 
REMARK    2  A    between atoms: C_13  and  S_2 
REMARK    3  A    between atoms: N_5  and  C_4 
REMARK       I    between atoms: C_6  and  N_5 
REMARK       I    between atoms: N_9  and  C_6 
ROOT
ATOM      1  C   UNL d   1       0.690  -1.248   0.512  0.00  0.00     0.090 C 
ATOM      2  C   UNL d   1      -0.303  -0.210   0.563  0.00  0.00     0.089 C 
ATOM      3  C   UNL d   1       0.216   0.976   0.073  0.00  0.00     0.101 C 
ATOM      4  C   UNL d   1       1.820  -0.853  -0.179  0.00  0.00     0.077 C 
ATOM      5  S   UNL d   1       1.779   0.802  -0.578  0.00  0.00    -0.081 SA
ATOM      6 CL   UNL d   1      -1.829  -0.405   1.320  0.00  0.00    -0.080 Cl
ENDROOT
BRANCH   3   7
ATOM      7  N   UNL d   1      -0.195   2.295   0.044  0.00  0.00    -0.301 N 
ATOM      8  C   UNL d   1      -1.495   2.700  -0.122  0.00  0.00     0.323 C 
ATOM      9  N   UNL d   1      -1.670   4.082   0.028  0.00  0.00    -0.334 N 
ATOM     10  O   UNL d   1      -2.409   1.957  -0.471  0.00  0.00    -0.247 OA
ATOM     11  C   UNL d   1      -2.979   4.633  -0.315  0.00  0.00     0.127 C 
ATOM     12  C   UNL d   1      -0.897   4.882   0.985  0.00  0.00     0.127 C 
ATOM     13  C   UNL d   1      -2.854   6.065  -0.828  0.00  0.00     0.020 C 
ATOM     14  C   UNL d   1      -2.104   6.947   0.166  0.00  0.00     0.003 C 
ATOM     15  C   UNL d   1      -0.753   6.330   0.522  0.00  0.00     0.020 C 
ATOM     16  H   UNL d   1       0.494   2.957  -0.283  0.00  0.00     0.171 HD
ENDBRANCH   3   7
BRANCH   1  17
ATOM     17  S   UNL d   1       0.661  -2.740   1.403  0.00  0.00     0.181 S 
ATOM     18  O   UNL d   1       1.933  -3.358   1.094  0.00  0.00    -0.222 OA
ATOM     19  O   UNL d   1       0.353  -2.314   2.752  0.00  0.00    -0.222 OA
BRANCH  17  20
ATOM     20  C   UNL d   1      -0.647  -3.800   0.797  0.00  0.00     0.105 C 
ATOM     21  C   UNL d   1      -0.457  -4.180  -0.665  0.00  0.00     0.026 C 
ATOM     22  C   UNL d   1      -0.680  -5.063   1.666  0.00  0.00     0.026 C 
ENDBRANCH  17  20
ENDBRANCH   1  17
TORSDOF 3
