REMARK  3 active torsions:
REMARK  status: ('A' for Active; 'I' for Inactive)
REMARK    1  A    between atoms: C_7  and  C_1 
REMARK    2  A    between atoms: C_10  and  N_2 
REMARK    3  A    between atoms: O_11  and  C_7 
ROOT
ATOM      1  C   UNL d   1      -0.343  -1.177  -0.068  0.00  0.00     0.143 A 
ATOM      2  N   UNL d   1       0.933  -0.640  -0.035  0.00  0.00    -0.285 N 
ATOM      3  N   UNL d   1       0.952   0.711   0.004  0.00  0.00    -0.301 N 
ATOM      4  HN  UNL d   1       1.769   1.320   0.044  1.00  0.00     0.187 HD
ATOM      5  C   UNL d   1      -1.163  -0.059  -0.056  0.00  0.00     0.069 A 
ATOM      6  C   UNL d   1      -0.330   1.075  -0.022  0.00  0.00     0.042 A 
ATOM      7 BR   UNL d   1      -3.043   0.037  -0.066  0.00  0.00    -0.046 Br
ATOM      8  C   UNL d   1      -0.665   2.521  -0.003  0.00  0.00     0.071 C 
ENDROOT
BRANCH   1   9
ATOM      9  C   UNL d   1      -0.633  -2.592  -0.100  0.00  0.00     0.196 C 
ATOM     10  O   UNL d   1       0.191  -3.494  -0.139  0.00  0.00    -0.645 OA
BRANCH   9  11
ATOM     11  O   UNL d   1      -1.956  -2.882  -0.084  0.00  0.00    -0.772 OA
ATOM     12  H   UNL d   1      -2.536  -2.099  -0.056  0.00  0.00     0.167 HD
ENDBRANCH   9  11
ENDBRANCH   1   9
BRANCH   2  13
ATOM     13  C   UNL d   1       2.225  -1.306   0.050  0.00  0.00     0.145 C 
ATOM     14  C   UNL d   1       3.173  -0.925  -1.079  0.00  0.00     0.028 C 
ENDBRANCH   2  13
TORSDOF 3
