REMARK  5 active torsions:
REMARK  status: ('A' for Active; 'I' for Inactive)
REMARK    1  A    between atoms: C_3  and  N_1 
REMARK    2  A    between atoms: C_5  and  N_1 
REMARK    3  A    between atoms: N_2  and  C_6 
REMARK    4  A    between atoms: C_4  and  N_2 
REMARK    5  A    between atoms: C_6  and  C_5 
ROOT
ATOM      1  C   UNL d   1       2.428   0.073  -0.007  0.00  0.00     0.139 C 
ENDROOT
BRANCH   1   2
ATOM      2  N   UNL d   1       0.965   0.038   0.029  0.00  0.00    -0.388 N 
ATOM      3  H   UNL d   1       0.512   0.801  -0.469  0.00  0.00     0.159 HD
BRANCH   2   4
ATOM      4  C   UNL d   1       0.280  -0.287   1.201  0.00  0.00     0.028 A 
ATOM      5  C   UNL d   1       0.895  -0.750   2.368  0.00  0.00     0.029 A 
ATOM      6  C   UNL d   1       0.139  -1.115   3.488  0.00  0.00     0.002 A 
ATOM      7  C   UNL d   1      -1.251  -1.059   3.445  0.00  0.00     0.000 A 
ATOM      8  C   UNL d   1      -1.884  -0.642   2.280  0.00  0.00     0.002 A 
ATOM      9  C   UNL d   1      -1.123  -0.266   1.170  0.00  0.00     0.029 A 
ENDBRANCH   2   4
ENDBRANCH   1   2
BRANCH   1  10
ATOM     10  C   UNL d   1       2.918   0.558  -1.384  0.00  0.00     0.139 C 
BRANCH  10  11
ATOM     11  N   UNL d   1       4.373   0.527  -1.513  0.00  0.00    -0.388 N 
ATOM     12  H   UNL d   1       4.868   1.155  -0.887  0.00  0.00     0.159 HD
BRANCH  11  13
ATOM     13  C   UNL d   1       5.078  -0.634  -1.815  0.00  0.00     0.028 A 
ATOM     14  C   UNL d   1       4.481  -1.823  -2.252  0.00  0.00     0.029 A 
ATOM     15  C   UNL d   1       5.251  -2.925  -2.642  0.00  0.00     0.002 A 
ATOM     16  C   UNL d   1       6.640  -2.851  -2.623  0.00  0.00     0.000 A 
ATOM     17  C   UNL d   1       7.256  -1.674  -2.214  0.00  0.00     0.002 A 
ATOM     18  C   UNL d   1       6.480  -0.578  -1.823  0.00  0.00     0.029 A 
ENDBRANCH  11  13
ENDBRANCH  10  11
ENDBRANCH   1  10
TORSDOF 5
