REMARK  6 active torsions:
REMARK  status: ('A' for Active; 'I' for Inactive)
REMARK    1  A    between atoms: C_2  and  C_1 
REMARK    2  A    between atoms: O_9  and  C_1 
REMARK    3  A    between atoms: O_12  and  C_4 
REMARK    4  A    between atoms: O_11  and  C_5 
REMARK    5  A    between atoms: C_10  and  O_11 
REMARK    6  A    between atoms: O_13  and  C_10 
ROOT
ATOM      1  C   UNL d   1       0.283  -1.173  -0.661  0.00  0.00     0.040 A 
ATOM      2  C   UNL d   1       0.783  -2.436  -0.304  0.00  0.00     0.057 A 
ATOM      3  C   UNL d   1       0.183  -3.609  -0.784  0.00  0.00     0.102 A 
ATOM      4  C   UNL d   1      -0.936  -3.497  -1.629  0.00  0.00     0.104 A 
ATOM      5  C   UNL d   1      -0.800  -1.070  -1.536  0.00  0.00     0.021 A 
ATOM      6  C   UNL d   1      -1.403  -2.231  -2.012  0.00  0.00     0.041 A 
ENDROOT
BRANCH   1   7
ATOM      7  C   UNL d   1       0.969   0.029  -0.130  0.00  0.00     0.176 C 
ATOM      8  O   UNL d   1       2.165   0.053   0.111  0.00  0.00    -0.646 OA
BRANCH   7   9
ATOM      9  O   UNL d   1       0.145   1.069   0.107  0.00  0.00    -0.773 OA
ATOM     10  H   UNL d   1      -0.808   0.870   0.044  0.00  0.00     0.167 HD
ENDBRANCH   7   9
ENDBRANCH   1   7
BRANCH   3  11
ATOM     11  O   UNL d   1       0.645  -4.867  -0.505  0.00  0.00    -0.353 OA
ATOM     12  C   UNL d   1       1.750  -4.993   0.383  0.00  0.00     0.210 C 
ENDBRANCH   3  11
BRANCH   4  13
ATOM     13  O   UNL d   1      -1.646  -4.512  -2.209  0.00  0.00    -0.323 OA
BRANCH  13  14
ATOM     14  C   UNL d   1      -1.715  -5.756  -1.520  0.00  0.00     0.344 C 
BRANCH  14  15
ATOM     15  O   UNL d   1      -2.932  -6.443  -1.840  0.00  0.00    -0.371 OA
ATOM     16  C   UNL d   1      -3.021  -6.751  -3.224  0.00  0.00     0.204 C 
ENDBRANCH  14  15
ENDBRANCH  13  14
ENDBRANCH   4  13
TORSDOF 6
