REMARK  3 active torsions:
REMARK  status: ('A' for Active; 'I' for Inactive)
REMARK    1  A    between atoms: C_2  and  S_1 
REMARK    2  A    between atoms: C_7  and  S_1 
REMARK    3  A    between atoms: N_6  and  C_3 
ROOT
ATOM      1  C   UNL d   1       0.541  -0.520  -1.522  0.00  0.00     0.159 C 
ATOM      2  C   UNL d   1      -0.175  -1.656  -1.619  0.00  0.00     0.120 C 
ATOM      3  C   UNL d   1       0.992   0.007  -0.291  0.00  0.00     0.113 C 
ATOM      4  N   UNL d   1       1.397   0.434   0.710  0.00  0.00    -0.191 NA
ENDROOT
BRANCH   1   5
ATOM      5  S   UNL d   1       0.906   0.389  -2.944  0.00  0.00     0.218 S 
ATOM      6  O   UNL d   1       0.385   1.738  -2.795  0.00  0.00    -0.216 OA
ATOM      7  O   UNL d   1       0.571  -0.369  -4.141  0.00  0.00    -0.216 OA
BRANCH   5   8
ATOM      8  C   UNL d   1       2.689   0.535  -2.944  0.00  0.00     0.065 A 
ATOM      9  C   UNL d   1       3.456  -0.410  -3.637  0.00  0.00     0.025 A 
ATOM     10  C   UNL d   1       4.840  -0.245  -3.724  0.00  0.00     0.025 A 
ATOM     11  C   UNL d   1       5.448   0.861  -3.131  0.00  0.00     0.034 A 
ATOM     12  C   UNL d   1       4.683   1.810  -2.450  0.00  0.00     0.025 A 
ATOM     13 CL   UNL d   1       7.151   1.069  -3.258  0.00  0.00    -0.084 Cl
ATOM     14  C   UNL d   1       3.298   1.653  -2.362  0.00  0.00     0.025 A 
ENDBRANCH   5   8
ENDBRANCH   1   5
BRANCH   2  15
ATOM     15  N   UNL d   1      -0.670  -2.434  -0.580  0.00  0.00    -0.388 N 
ATOM     16  C   UNL d   1      -1.693  -1.924   0.349  0.00  0.00     0.122 C 
ATOM     17  C   UNL d   1      -1.262  -2.230   1.778  0.00  0.00     0.020 C 
ATOM     18  C   UNL d   1      -0.983  -3.722   1.963  0.00  0.00     0.003 C 
ATOM     19  C   UNL d   1      -0.030  -4.256   0.888  0.00  0.00     0.020 C 
ATOM     20  C   UNL d   1      -0.504  -3.891  -0.522  0.00  0.00     0.122 C 
ENDBRANCH   2  15
TORSDOF 3
