REMARK  3 active torsions:
REMARK  status: ('A' for Active; 'I' for Inactive)
REMARK       I    between atoms: N_2  and  C_1 
REMARK    1  A    between atoms: C_5  and  C_1 
REMARK       I    between atoms: C_4  and  N_3 
REMARK    2  A    between atoms: C_14  and  C_4 
REMARK    3  A    between atoms: C_6  and  C_7 
ROOT
ATOM      1  C   UNL d   1       0.867  -0.006   0.075  0.00  0.00     0.253 C 
ATOM      2  N   UNL d   1       0.151  -0.530  -1.000  0.00  0.00    -0.345 N 
ATOM      3  N   UNL d   1      -0.370  -1.280  -3.719  0.00  0.00    -0.349 N 
ATOM      4  C   UNL d   1      -1.078  -1.898  -4.737  0.00  0.00     0.224 C 
ATOM      5  C   UNL d   1       0.790  -1.825  -2.998  0.00  0.00     0.145 C 
ATOM      6  C   UNL d   1       0.528  -1.851  -1.492  0.00  0.00     0.146 C 
ATOM      7  C   UNL d   1      -0.962   0.107  -1.730  0.00  0.00     0.146 C 
ATOM      8  C   UNL d   1      -0.784   0.049  -3.259  0.00  0.00     0.145 C 
ATOM      9  O   UNL d   1       1.892  -0.525   0.500  0.00  0.00    -0.267 OA
ATOM     10  O   UNL d   1      -2.037  -1.337  -5.272  0.00  0.00    -0.273 OA
ENDROOT
BRANCH   1  11
ATOM     11  C   UNL d   1       0.406   1.235   0.745  0.00  0.00     0.032 A 
ATOM     12  C   UNL d   1      -0.939   1.471   1.027  0.00  0.00     0.017 A 
ATOM     13  C   UNL d   1      -1.326   2.673   1.620  0.00  0.00     0.009 A 
ATOM     14  C   UNL d   1      -0.378   3.633   2.019  0.00  0.00    -0.051 A 
ATOM     15  C   UNL d   1       0.977   3.343   1.789  0.00  0.00     0.009 A 
ATOM     16  C   UNL d   1       1.366   2.159   1.157  0.00  0.00     0.017 A 
BRANCH  14  17
ATOM     17  C   UNL d   1      -0.845   4.932   2.693  0.00  0.00    -0.024 C 
ATOM     18  C   UNL d   1       0.318   5.825   3.178  0.00  0.00     0.019 C 
ATOM     19  C   UNL d   1      -1.682   5.758   1.694  0.00  0.00     0.019 C 
ATOM     20  C   UNL d   1      -1.710   4.597   3.929  0.00  0.00     0.019 C 
ENDBRANCH  14  17
ENDBRANCH   1  11
BRANCH   4  21
ATOM     21  C   UNL d   1      -0.660  -3.317  -5.159  0.00  0.00     0.078 C 
ATOM     22  C   UNL d   1       0.680  -3.367  -5.905  0.00  0.00     0.014 C 
ATOM     23  C   UNL d   1       0.600  -2.840  -7.332  0.00  0.00     0.001 C 
ATOM     24  C   UNL d   1      -0.505  -3.494  -8.149  0.00  0.00     0.000 C 
ATOM     25  C   UNL d   1      -1.848  -3.548  -7.431  0.00  0.00     0.001 C 
ATOM     26  C   UNL d   1      -1.749  -4.024  -5.982  0.00  0.00     0.014 C 
ENDBRANCH   4  21
TORSDOF 3
