REMARK  3 active torsions:
REMARK  status: ('A' for Active; 'I' for Inactive)
REMARK    1  A    between atoms: C_3  and  C_1 
REMARK    2  A    between atoms: N_21  and  C_2 
REMARK    3  A    between atoms: C_10  and  C_8 
ROOT
ATOM      1  C   UNL d   1       0.637  -1.588   0.567  0.00  0.00     0.155 A 
ATOM      2  C   UNL d   1      -1.015  -2.691  -0.578  0.00  0.00     0.121 A 
ATOM      3  N   UNL d   1      -0.570  -1.553   0.007  0.00  0.00    -0.329 N 
ATOM      4  HN  UNL d   1      -1.137  -0.704   0.018  1.00  0.00     0.168 HD
ATOM      5  N   UNL d   1       1.451  -2.643   0.556  0.00  0.00    -0.332 N 
ATOM      6  HN  UNL d   1       2.375  -2.600   0.986  1.00  0.00     0.168 HD
ATOM      7  C   UNL d   1       1.012  -3.771  -0.043  0.00  0.00     0.046 A 
ATOM      8  C   UNL d   1      -0.241  -3.836  -0.621  0.00  0.00     0.064 A 
ENDROOT
BRANCH   7   9
ATOM      9  C   UNL d   1       1.949  -4.913  -0.039  0.00  0.00    -0.006 A 
ATOM     10  C   UNL d   1       1.958  -5.867  -1.073  0.00  0.00     0.053 A 
ATOM     11  C   UNL d   1       2.833  -6.960  -1.061  0.00  0.00     0.102 A 
ATOM     12  O   UNL d   1       2.679  -7.824  -2.115  0.00  0.00    -0.348 OA
ATOM     13  C   UNL d   1       3.771  -7.090  -0.032  0.00  0.00     0.102 A 
ATOM     14  C   UNL d   1       2.863  -9.192  -1.749  0.00  0.00     0.178 C 
ATOM     15  C   UNL d   1       4.330  -9.581  -1.807  0.00  0.00     0.053 C 
ATOM     16  C   UNL d   1       5.224  -8.511  -1.202  0.00  0.00     0.178 C 
ATOM     17  O   UNL d   1       4.721  -8.074   0.062  0.00  0.00    -0.348 OA
ATOM     18  C   UNL d   1       3.767  -6.168   1.014  0.00  0.00     0.040 A 
ATOM     19  C   UNL d   1       2.872  -5.093   1.008  0.00  0.00     0.016 A 
ENDBRANCH   7   9
BRANCH   1  20
ATOM     20  N   UNL d   1       1.088  -0.434   1.168  0.00  0.00    -0.274 NA
ATOM     21  H   UNL d   1       0.616   0.370   0.778  0.00  0.00     0.127 HD
ATOM     22  H   UNL d   1       2.098  -0.419   1.182  0.00  0.00     0.127 HD
ENDBRANCH   1  20
BRANCH   2  23
ATOM     23  C   UNL d   1      -2.399  -2.722  -1.200  0.00  0.00     0.432 C 
ATOM     24  F   UNL d   1      -3.094  -1.556  -1.093  0.00  0.00    -0.165 F 
ATOM     25  F   UNL d   1      -3.194  -3.683  -0.644  0.00  0.00    -0.165 F 
ATOM     26  F   UNL d   1      -2.359  -3.012  -2.534  0.00  0.00    -0.165 F 
ENDBRANCH   2  23
TORSDOF 3
