REMARK  6 active torsions:
REMARK  status: ('A' for Active; 'I' for Inactive)
REMARK    1  A    between atoms: C_2  and  C_1 
REMARK       I    between atoms: N_6  and  C_1 
REMARK    2  A    between atoms: N_8  and  C_3 
REMARK    3  A    between atoms: C_4  and  C_10 
REMARK    4  A    between atoms: C_5  and  C_11 
REMARK    5  A    between atoms: C_9  and  N_6 
REMARK       I    between atoms: C_7  and  N_8 
REMARK    6  A    between atoms: C_12  and  C_7 
ROOT
ATOM      1  C   UNL d   1       0.145  -1.082   1.015  0.00  0.00     0.097 A 
ATOM      2  C   UNL d   1      -0.491  -1.863   0.028  0.00  0.00     0.053 A 
ATOM      3  C   UNL d   1       0.180  -1.569   2.333  0.00  0.00     0.134 A 
ATOM      4  F   UNL d   1       0.771  -0.866   3.314  0.00  0.00    -0.205 F 
ATOM      5  C   UNL d   1      -1.156  -3.043   0.422  0.00  0.00     0.031 A 
ATOM      6  C   UNL d   1      -1.128  -3.492   1.743  0.00  0.00     0.005 A 
ATOM      7  C   UNL d   1      -0.434  -2.763   2.697  0.00  0.00     0.043 A 
ENDROOT
BRANCH   1   8
ATOM      8  C   UNL d   1       0.508   0.349   0.805  0.00  0.00     0.261 C 
ATOM      9  N   UNL d   1       1.561   0.830   1.567  0.00  0.00    -0.321 N 
ATOM     10  H   UNL d   1       1.961   0.204   2.261  0.00  0.00     0.169 HD
ATOM     11  O   UNL d   1      -0.221   1.026   0.084  0.00  0.00    -0.267 OA
BRANCH   9  12
ATOM     12  C   UNL d   1       1.988   2.177   1.675  0.00  0.00     0.057 A 
ATOM     13  C   UNL d   1       1.619   3.155   0.748  0.00  0.00     0.047 A 
ATOM     14  C   UNL d   1       2.019   4.493   0.903  0.00  0.00     0.050 A 
ATOM     15  C   UNL d   1       2.807   4.847   2.009  0.00  0.00     0.018 A 
ATOM     16  C   UNL d   1       3.203   3.877   2.930  0.00  0.00     0.027 A 
ATOM     17  C   UNL d   1       2.805   2.549   2.759  0.00  0.00     0.060 A 
ATOM     18 CL   UNL d   1       3.312   1.391   3.941  0.00  0.00    -0.082 Cl
BRANCH  14  19
ATOM     19  C   UNL d   1       1.604   5.542  -0.099  0.00  0.00     0.417 C 
ATOM     20  F   UNL d   1       0.893   5.056  -1.153  0.00  0.00    -0.166 F 
ATOM     21  F   UNL d   1       0.828   6.512   0.461  0.00  0.00    -0.166 F 
ATOM     22  F   UNL d   1       2.674   6.190  -0.640  0.00  0.00    -0.166 F 
ENDBRANCH  14  19
ENDBRANCH   9  12
ENDBRANCH   1   8
BRANCH   2  23
ATOM     23  N   UNL d   1      -0.569  -1.587  -1.361  0.00  0.00    -0.322 N 
ATOM     24  C   UNL d   1       0.355  -0.892  -2.124  0.00  0.00     0.256 C 
ATOM     25  O   UNL d   1       1.467  -0.556  -1.727  0.00  0.00    -0.267 OA
ATOM     26  H   UNL d   1      -1.290  -2.089  -1.853  0.00  0.00     0.169 HD
BRANCH  24  27
ATOM     27  C   UNL d   1      -0.032  -0.612  -3.557  0.00  0.00     0.033 A 
ATOM     28  C   UNL d   1       0.751   0.302  -4.286  0.00  0.00     0.033 A 
ATOM     29  C   UNL d   1       0.417   0.661  -5.607  0.00  0.00     0.048 A 
ATOM     30  C   UNL d   1      -0.702   0.070  -6.209  0.00  0.00     0.016 A 
ATOM     31  C   UNL d   1      -1.471  -0.856  -5.510  0.00  0.00     0.002 A 
ATOM     32  C   UNL d   1      -1.141  -1.194  -4.193  0.00  0.00     0.017 A 
BRANCH  29  33
ATOM     33  C   UNL d   1       1.215   1.689  -6.373  0.00  0.00     0.417 C 
ATOM     34  F   UNL d   1       2.296   2.165  -5.700  0.00  0.00    -0.166 F 
ATOM     35  F   UNL d   1       1.692   1.202  -7.553  0.00  0.00    -0.166 F 
ATOM     36  F   UNL d   1       0.465   2.779  -6.702  0.00  0.00    -0.166 F 
ENDBRANCH  29  33
ENDBRANCH  24  27
ENDBRANCH   2  23
TORSDOF 6
