REMARK  6 active torsions:
REMARK  status: ('A' for Active; 'I' for Inactive)
REMARK    1  A    between atoms: O_3  and  S_1 
REMARK    2  A    between atoms: C_4  and  S_1 
REMARK    3  A    between atoms: C_2  and  O_13 
REMARK    4  A    between atoms: C_16  and  O_3 
REMARK    5  A    between atoms: O_13  and  C_17 
REMARK    6  A    between atoms: O_25  and  C_18 
ROOT
ATOM      1  C   UNL d   1      -1.148   4.533  -4.349  0.00  0.00     0.117 A 
ATOM      2  N   UNL d   1      -3.113   7.291  -3.282  0.00  0.00    -0.191 NA
ATOM      3  N   UNL d   1       1.457   2.093  -4.718  0.00  0.00    -0.191 NA
ATOM      4  C   UNL d   1      -2.127   5.436  -4.806  0.00  0.00     0.080 A 
ATOM      5  C   UNL d   1      -0.556   3.641  -5.267  0.00  0.00     0.080 A 
ATOM      6  C   UNL d   1      -2.669   6.451  -3.944  0.00  0.00     0.102 C 
ATOM      7  C   UNL d   1       0.563   2.799  -4.945  0.00  0.00     0.102 C 
ATOM      8  C   UNL d   1      -1.043   3.574  -6.582  0.00  0.00     0.026 A 
ATOM      9  C   UNL d   1      -2.576   5.377  -6.134  0.00  0.00     0.026 A 
ATOM     10  C   UNL d   1      -2.055   4.431  -7.012  0.00  0.00     0.003 A 
ENDROOT
BRANCH   1  11
ATOM     11  O   UNL d   1      -0.790   4.659  -3.019  0.00  0.00    -0.308 OA
BRANCH  11  12
ATOM     12  C   UNL d   1      -0.517   3.535  -2.273  0.00  0.00     0.076 A 
ATOM     13  C   UNL d   1       0.505   3.671  -1.329  0.00  0.00     0.039 A 
ATOM     14  C   UNL d   1       0.949   2.559  -0.614  0.00  0.00     0.028 A 
ATOM     15  C   UNL d   1       0.362   1.313  -0.853  0.00  0.00     0.087 A 
ATOM     16  C   UNL d   1      -0.720   1.188  -1.731  0.00  0.00     0.028 A 
ATOM     17  C   UNL d   1      -1.180   2.312  -2.421  0.00  0.00     0.039 A 
BRANCH  15  18
ATOM     18  S   UNL d   1       0.963  -0.117   0.023  0.00  0.00     0.303 S 
ATOM     19  O   UNL d   1       1.427   0.355   1.315  0.00  0.00    -0.193 OA
ATOM     20  O   UNL d   1      -0.078  -1.127  -0.060  0.00  0.00    -0.193 OA
BRANCH  18  21
ATOM     21  O   UNL d   1       2.244  -0.598  -0.865  0.00  0.00    -0.229 OA
BRANCH  21  22
ATOM     22  C   UNL d   1       2.985  -1.708  -0.538  0.00  0.00     0.089 A 
ATOM     23  C   UNL d   1       2.778  -2.508   0.586  0.00  0.00     0.041 A 
ATOM     24  C   UNL d   1       3.595  -3.619   0.826  0.00  0.00     0.039 A 
ATOM     25  C   UNL d   1       4.629  -3.937  -0.052  0.00  0.00     0.068 A 
ATOM     26  C   UNL d   1       4.827  -3.147  -1.185  0.00  0.00     0.039 A 
ATOM     27  C   UNL d   1       4.016  -2.032  -1.423  0.00  0.00     0.041 A 
BRANCH  25  28
ATOM     28  O   UNL d   1       5.472  -5.005   0.077  0.00  0.00    -0.356 OA
ATOM     29  C   UNL d   1       5.670  -5.480   1.405  0.00  0.00     0.210 C 
ENDBRANCH  25  28
ENDBRANCH  21  22
ENDBRANCH  18  21
ENDBRANCH  15  18
ENDBRANCH  11  12
ENDBRANCH   1  11
TORSDOF 6
