REMARK  21 active torsions:
REMARK  status: ('A' for Active; 'I' for Inactive)
REMARK    1  A    between atoms: C_1  and  O_14 
REMARK    2  A    between atoms: C_2  and  O_15 
REMARK    3  A    between atoms: C_3  and  O_16 
REMARK    4  A    between atoms: C_4  and  O_17 
REMARK    5  A    between atoms: C_5  and  O_10 
REMARK    6  A    between atoms: C_6  and  O_10 
REMARK    7  A    between atoms: C_7  and  O_18 
REMARK    8  A    between atoms: C_8  and  O_24 
REMARK    9  A    between atoms: C_12  and  C_27 
REMARK   10  A    between atoms: C_13  and  C_28 
REMARK   11  A    between atoms: C_20  and  O_14 
REMARK   12  A    between atoms: C_19  and  O_15 
REMARK   13  A    between atoms: C_22  and  O_16 
REMARK   14  A    between atoms: C_21  and  O_17 
REMARK   15  A    between atoms: C_23  and  O_18 
REMARK   16  A    between atoms: C_38  and  O_24 
REMARK   17  A    between atoms: C_25  and  O_29 
REMARK   18  A    between atoms: C_26  and  O_30 
REMARK   19  A    between atoms: O_29  and  C_27 
REMARK   20  A    between atoms: O_30  and  C_28 
REMARK   21  A    between atoms: C_39  and  C_38 
ROOT
ATOM      1  C   UNL d   1       0.532  -3.213  -0.591  0.00  0.00     0.198 C 
ATOM      2  C   UNL d   1       0.369  -3.524  -2.079  0.00  0.00     0.219 C 
ATOM      3  C   UNL d   1      -0.747  -3.570   0.194  0.00  0.00     0.188 C 
ATOM      4  C   UNL d   1      -0.239  -4.917  -2.377  0.00  0.00     0.292 C 
ATOM      5  O   UNL d   1      -1.396  -5.126  -1.552  0.00  0.00    -0.348 OA
ATOM      6  C   UNL d   1      -1.127  -5.028  -0.144  0.00  0.00     0.180 C 
ENDROOT
BRANCH   3   7
ATOM      7  O   UNL d   1      -0.626  -3.460   1.616  0.00  0.00    -0.348 OA
BRANCH   7   8
ATOM      8  C   UNL d   1      -0.193  -2.222   2.172  0.00  0.00     0.293 C 
ATOM      9  C   UNL d   1      -1.189  -1.047   1.989  0.00  0.00     0.219 C 
ATOM     10  C   UNL d   1      -0.612   0.196   2.698  0.00  0.00     0.198 C 
ATOM     11  C   UNL d   1      -0.249  -0.109   4.162  0.00  0.00     0.195 C 
ATOM     12  C   UNL d   1       0.673  -1.341   4.204  0.00  0.00     0.181 C 
ATOM     13  O   UNL d   1       0.029  -2.454   3.568  0.00  0.00    -0.348 OA
BRANCH   9  14
ATOM     14  O   UNL d   1      -1.334  -0.718   0.587  0.00  0.00    -0.308 OA
BRANCH  14  15
ATOM     15  C   UNL d   1      -2.550  -0.301   0.147  0.00  0.00     0.255 C 
ATOM     16  O   UNL d   1      -3.566  -0.244   0.822  0.00  0.00    -0.266 OA
ATOM     17  C   UNL d   1      -2.454   0.118  -1.288  0.00  0.00     0.126 C 
ENDBRANCH  14  15
ENDBRANCH   9  14
BRANCH  10  18
ATOM     18  O   UNL d   1      -1.586   1.265   2.658  0.00  0.00    -0.311 OA
BRANCH  18  19
ATOM     19  C   UNL d   1      -1.474   2.190   1.670  0.00  0.00     0.255 C 
ATOM     20  O   UNL d   1      -0.569   2.245   0.852  0.00  0.00    -0.266 OA
ATOM     21  C   UNL d   1      -2.676   3.083   1.664  0.00  0.00     0.126 C 
ENDBRANCH  18  19
ENDBRANCH  10  18
BRANCH  11  22
ATOM     22  O   UNL d   1      -1.457  -0.406   4.896  0.00  0.00    -0.311 OA
BRANCH  22  23
ATOM     23  C   UNL d   1      -2.092   0.656   5.462  0.00  0.00     0.255 C 
ATOM     24  O   UNL d   1      -1.684   1.810   5.466  0.00  0.00    -0.266 OA
ATOM     25  C   UNL d   1      -3.408   0.222   6.025  0.00  0.00     0.126 C 
ENDBRANCH  22  23
ENDBRANCH  11  22
BRANCH  12  26
ATOM     26  C   UNL d   1       1.048  -1.758   5.631  0.00  0.00     0.213 C 
BRANCH  26  27
ATOM     27  O   UNL d   1       1.666  -0.686   6.361  0.00  0.00    -0.319 OA
BRANCH  27  28
ATOM     28  C   UNL d   1       2.966  -0.435   6.051  0.00  0.00     0.254 C 
ATOM     29  O   UNL d   1       3.617  -1.035   5.207  0.00  0.00    -0.266 OA
ATOM     30  C   UNL d   1       3.496   0.712   6.854  0.00  0.00     0.126 C 
ENDBRANCH  27  28
ENDBRANCH  26  27
ENDBRANCH  12  26
ENDBRANCH   7   8
ENDBRANCH   3   7
BRANCH   1  31
ATOM     31  O   UNL d   1       0.777  -1.776  -0.525  0.00  0.00    -0.311 OA
BRANCH  31  32
ATOM     32  C   UNL d   1       2.054  -1.339  -0.375  0.00  0.00     0.255 C 
ATOM     33  O   UNL d   1       3.038  -2.055  -0.260  0.00  0.00    -0.266 OA
ATOM     34  C   UNL d   1       2.100   0.157  -0.378  0.00  0.00     0.126 C 
ENDBRANCH  31  32
ENDBRANCH   1  31
BRANCH   6  35
ATOM     35  C   UNL d   1      -2.389  -5.454   0.633  0.00  0.00     0.213 C 
BRANCH  35  36
ATOM     36  O   UNL d   1      -2.758  -6.820   0.354  0.00  0.00    -0.319 OA
BRANCH  36  37
ATOM     37  C   UNL d   1      -2.062  -7.769   1.033  0.00  0.00     0.254 C 
ATOM     38  O   UNL d   1      -1.153  -7.553   1.822  0.00  0.00    -0.266 OA
ATOM     39  C   UNL d   1      -2.585  -9.137   0.715  0.00  0.00     0.126 C 
ENDBRANCH  36  37
ENDBRANCH  35  36
ENDBRANCH   6  35
BRANCH   2  40
ATOM     40  O   UNL d   1       1.620  -3.211  -2.759  0.00  0.00    -0.308 OA
BRANCH  40  41
ATOM     41  C   UNL d   1       2.701  -3.997  -2.520  0.00  0.00     0.255 C 
ATOM     42  O   UNL d   1       2.668  -5.062  -1.921  0.00  0.00    -0.266 OA
ATOM     43  C   UNL d   1       3.920  -3.394  -3.144  0.00  0.00     0.126 C 
ENDBRANCH  40  41
ENDBRANCH   2  40
BRANCH   4  44
ATOM     44  O   UNL d   1      -0.702  -4.999  -3.738  0.00  0.00    -0.354 OA
BRANCH  44  45
ATOM     45  C   UNL d   1       0.340  -4.946  -4.704  0.00  0.00     0.209 C 
BRANCH  45  46
ATOM     46  C   UNL d   1      -0.195  -5.170  -6.092  0.00  0.00    -0.035 A 
ATOM     47  C   UNL d   1      -0.158  -4.132  -7.037  0.00  0.00     0.009 A 
ATOM     48  C   UNL d   1      -0.586  -4.348  -8.345  0.00  0.00     0.001 A 
ATOM     49  C   UNL d   1      -1.060  -5.603  -8.720  0.00  0.00     0.000 A 
ATOM     50  C   UNL d   1      -1.114  -6.637  -7.787  0.00  0.00     0.001 A 
ATOM     51  C   UNL d   1      -0.686  -6.422  -6.476  0.00  0.00     0.009 A 
ENDBRANCH  45  46
ENDBRANCH  44  45
ENDBRANCH   4  44
TORSDOF 21
