REMARK  3 active torsions:
REMARK  status: ('A' for Active; 'I' for Inactive)
REMARK    1  A    between atoms: O_11  and  C_1 
REMARK    2  A    between atoms: C_7  and  C_2 
REMARK    3  A    between atoms: O_20  and  C_15 
ROOT
ATOM      1  C   UNL d   1       2.498  -0.729  -0.014  0.00  0.00     0.152 A 
ATOM      2  C   UNL d   1       2.406   0.614  -0.072  0.00  0.00     0.123 A 
ATOM      3  C   UNL d   1       1.233  -1.510   0.061  0.00  0.00     0.220 A 
ATOM      4  O   UNL d   1       1.227   1.339  -0.064  0.00  0.00    -0.306 OA
ATOM      5  C   UNL d   1      -0.019  -0.743   0.022  0.00  0.00     0.052 A 
ATOM      6  C   UNL d   1       0.043   0.646  -0.034  0.00  0.00     0.090 A 
ATOM      7  C   UNL d   1      -1.252  -1.405   0.033  0.00  0.00     0.042 A 
ATOM      8  O   UNL d   1       1.214  -2.731   0.144  0.00  0.00    -0.284 OA
ATOM      9  C   UNL d   1      -1.136   1.391  -0.071  0.00  0.00     0.040 A 
ATOM     10  C   UNL d   1      -2.425  -0.657  -0.013  0.00  0.00     0.035 A 
ATOM     11  C   UNL d   1      -2.373   0.737  -0.061  0.00  0.00     0.026 A 
ATOM     12 CL   UNL d   1      -3.948  -1.456  -0.014  0.00  0.00    -0.084 Cl
ENDROOT
BRANCH   2  13
ATOM     13  C   UNL d   1       3.612   1.445  -0.179  0.00  0.00     0.001 A 
ATOM     14  C   UNL d   1       4.125   1.763  -1.441  0.00  0.00     0.017 A 
ATOM     15  C   UNL d   1       5.367   2.392  -1.552  0.00  0.00     0.037 A 
ATOM     16  C   UNL d   1       6.100   2.730  -0.412  0.00  0.00     0.068 A 
ATOM     17  C   UNL d   1       5.574   2.447   0.849  0.00  0.00     0.037 A 
ATOM     18  C   UNL d   1       4.334   1.805   0.965  0.00  0.00     0.017 A 
BRANCH  16  19
ATOM     19  O   UNL d   1       7.331   3.266  -0.664  0.00  0.00    -0.356 OA
ATOM     20  C   UNL d   1       7.919   4.039   0.374  0.00  0.00     0.210 C 
ENDBRANCH  16  19
ENDBRANCH   2  13
BRANCH   1  21
ATOM     21  O   UNL d   1       3.687  -1.439  -0.034  0.00  0.00    -0.355 OA
ATOM     22  H   UNL d   1       4.433  -0.823  -0.120  0.00  0.00     0.218 HD
ENDBRANCH   1  21
TORSDOF 3
