REMARK  7 active torsions:
REMARK  status: ('A' for Active; 'I' for Inactive)
REMARK    1  A    between atoms: C_14  and  N_1 
REMARK    2  A    between atoms: S_16  and  C_2 
REMARK    3  A    between atoms: C_20  and  C_7 
REMARK    4  A    between atoms: C_15  and  C_10 
REMARK    5  A    between atoms: C_11  and  C_24 
REMARK    6  A    between atoms: S_19  and  C_20 
REMARK    7  A    between atoms: C_24  and  S_19 
ROOT
ATOM      1  N   UNL d   1      -3.205   2.344  -0.011  0.00  0.00    -0.279 N 
ATOM      2  C   UNL d   1      -4.143   3.104   0.679  0.00  0.00     0.164 A 
ATOM      3  N   UNL d   1      -4.904   2.336   1.423  0.00  0.00    -0.278 N 
ATOM      4  HN  UNL d   1      -5.648   2.650   2.046  1.00  0.00     0.189 HD
ATOM      5  N   UNL d   1      -4.523   1.050   1.217  0.00  0.00    -0.286 N 
ATOM      6  HN  UNL d   1      -4.933   0.232   1.666  1.00  0.00     0.188 HD
ATOM      7  C   UNL d   1      -3.532   1.030   0.337  0.00  0.00     0.114 A 
ENDROOT
BRANCH   7   8
ATOM      8  C   UNL d   1      -2.801  -0.203  -0.090  0.00  0.00     0.152 C 
BRANCH   8   9
ATOM      9  S   UNL d   1      -3.357  -1.749   0.707  0.00  0.00    -0.155 SA
BRANCH   9  10
ATOM     10  C   UNL d   1      -5.064  -1.855   0.056  0.00  0.00     0.139 C 
BRANCH  10  11
ATOM     11  C   UNL d   1      -5.112  -2.007  -1.436  0.00  0.00     0.060 A 
ATOM     12  N   UNL d   1      -5.169  -1.005  -2.295  0.00  0.00    -0.352 N 
ATOM     13  C   UNL d   1      -5.252  -1.490  -3.594  0.00  0.00     0.049 A 
ATOM     14  HN  UNL d   1      -5.153  -0.018  -2.040  1.00  0.00     0.166 HD
ATOM     15  C   UNL d   1      -5.240  -2.868  -3.696  0.00  0.00     0.081 A 
ATOM     16  S   UNL d   1      -5.121  -3.577  -2.142  0.00  0.00    -0.086 SA
BRANCH  13  17
ATOM     17  C   UNL d   1      -5.376  -0.590  -4.737  0.00  0.00    -0.009 A 
ATOM     18  C   UNL d   1      -4.901  -0.946  -6.009  0.00  0.00     0.014 A 
ATOM     19  C   UNL d   1      -5.055  -0.079  -7.098  0.00  0.00     0.001 A 
ATOM     20  C   UNL d   1      -5.682   1.153  -6.924  0.00  0.00     0.000 A 
ATOM     21  C   UNL d   1      -6.149   1.523  -5.663  0.00  0.00     0.001 A 
ATOM     22  C   UNL d   1      -5.993   0.658  -4.574  0.00  0.00     0.014 A 
ENDBRANCH  13  17
ENDBRANCH  10  11
ENDBRANCH   9  10
ENDBRANCH   8   9
ENDBRANCH   7   8
BRANCH   1  23
ATOM     23  C   UNL d   1      -2.138   2.799  -0.849  0.00  0.00     0.043 A 
ATOM     24  C   UNL d   1      -1.466   3.998  -0.550  0.00  0.00     0.032 A 
ATOM     25  C   UNL d   1      -0.458   4.484  -1.391  0.00  0.00     0.026 A 
ATOM     26  C   UNL d   1      -0.086   3.760  -2.518  0.00  0.00     0.034 A 
ATOM     27  C   UNL d   1      -0.715   2.553  -2.808  0.00  0.00     0.026 A 
ATOM     28 CL   UNL d   1       1.143   4.360  -3.558  0.00  0.00    -0.084 Cl
ATOM     29  C   UNL d   1      -1.745   2.079  -1.984  0.00  0.00     0.032 A 
ENDBRANCH   1  23
BRANCH   2  30
ATOM     30  S   UNL d   1      -4.466   4.802   0.497  0.00  0.00    -0.105 SA
ATOM     31  H   UNL d   1      -3.858   5.022  -0.675  0.00  0.00     0.110 HD
ENDBRANCH   2  30
TORSDOF 7
