REMARK  4 active torsions:
REMARK  status: ('A' for Active; 'I' for Inactive)
REMARK    1  A    between atoms: O_13  and  C_1 
REMARK    2  A    between atoms: C_11  and  C_4 
REMARK    3  A    between atoms: N_5  and  C_10 
REMARK    4  A    between atoms: C_8  and  O_13 
ROOT
ATOM      1  C   UNL d   1       3.218  -3.851  -1.072  0.00  0.00     0.002 A 
ATOM      2  C   UNL d   1       3.821  -3.247   0.052  0.00  0.00     0.086 A 
ATOM      3  C   UNL d   1       3.150  -5.262  -1.099  0.00  0.00     0.048 A 
ATOM      4  C   UNL d   1       3.691  -6.032  -0.060  0.00  0.00     0.103 A 
ATOM      5  C   UNL d   1       4.396  -4.031   1.069  0.00  0.00     0.040 A 
ATOM      6  C   UNL d   1       4.325  -5.420   1.023  0.00  0.00     0.039 A 
ENDROOT
BRANCH   2   7
ATOM      7  O   UNL d   1       3.920  -1.871   0.136  0.00  0.00    -0.287 OA
BRANCH   7   8
ATOM      8  C   UNL d   1       3.565  -1.233   1.257  0.00  0.00     0.193 A 
ATOM      9  N   UNL d   1       2.813  -1.766   2.194  0.00  0.00    -0.329 N 
ATOM     10  C   UNL d   1       2.495  -0.812   3.146  0.00  0.00     0.053 A 
ATOM     11  HN  UNL d   1       2.509  -2.740   2.217  1.00  0.00     0.168 HD
ATOM     12  C   UNL d   1       1.625  -0.999   4.239  0.00  0.00     0.054 A 
ATOM     13  C   UNL d   1       3.071   0.444   2.945  0.00  0.00     0.035 A 
ATOM     14  C   UNL d   1       1.304   0.093   5.048  0.00  0.00     0.036 A 
ATOM     15 CL   UNL d   1       0.142  -0.098   6.304  0.00  0.00    -0.084 Cl
ATOM     16  C   UNL d   1       1.883   1.340   4.833  0.00  0.00     0.025 A 
ATOM     17  C   UNL d   1       2.803   1.529   3.796  0.00  0.00     0.023 A 
ATOM     18  S   UNL d   1       4.054   0.385   1.530  0.00  0.00    -0.044 SA
ENDBRANCH   7   8
ENDBRANCH   2   7
BRANCH   1  19
ATOM     19  C   UNL d   1       2.686  -3.035  -2.242  0.00  0.00     0.144 C 
ATOM     20  S   UNL d   1       0.926  -3.390  -2.607  0.00  0.00    -0.148 SA
ATOM     21  C   UNL d   1       1.096  -3.608  -4.401  0.00  0.00     0.085 C 
ATOM     22  C   UNL d   1       2.437  -4.257  -4.673  0.00  0.00     0.085 C 
ATOM     23  S   UNL d   1       3.686  -3.318  -3.754  0.00  0.00    -0.148 SA
ENDBRANCH   1  19
BRANCH   4  24
ATOM     24  N   UNL d   1       3.605  -7.497  -0.112  0.00  0.00    -0.116 N 
ATOM     25  O   UNL d   1       3.042  -8.006  -1.093  0.00  0.00    -0.532 OA
ATOM     26  O   UNL d   1       4.101  -8.139   0.824  0.00  0.00    -0.532 OA
ENDBRANCH   4  24
TORSDOF 4
