REMARK  2 active torsions:
REMARK  status: ('A' for Active; 'I' for Inactive)
REMARK    1  A    between atoms: C_3  and  C_1 
REMARK       I    between atoms: N_5  and  C_3 
REMARK    2  A    between atoms: C_7  and  N_5 
ROOT
ATOM      1  C   UNL d   1       1.501  -3.118  -0.697  0.00  0.00     0.259 C 
ATOM      2  N   UNL d   1       0.773  -4.049   0.012  0.00  0.00    -0.307 N 
ATOM      3  O   UNL d   1       1.050  -2.332  -1.525  0.00  0.00    -0.267 OA
ATOM      4  H   UNL d   1       1.266  -4.598   0.700  0.00  0.00     0.170 HD
ENDROOT
BRANCH   2   5
ATOM      5  C   UNL d   1      -0.616  -4.259  -0.079  0.00  0.00     0.130 A 
ATOM      6  N   UNL d   1      -1.340  -3.563  -0.976  0.00  0.00    -0.349 N 
ATOM      7  C   UNL d   1      -2.679  -3.740  -0.955  0.00  0.00     0.114 A 
ATOM      8  HN  UNL d   1      -0.896  -2.929  -1.641  1.00  0.00     0.167 HD
ATOM      9  C   UNL d   1      -3.312  -4.586  -0.059  0.00  0.00     0.021 A 
ATOM     10  N   UNL d   1      -2.599  -5.332   0.812  0.00  0.00    -0.359 N 
ATOM     11  C   UNL d   1      -4.804  -4.648   0.018  0.00  0.00     0.069 C 
ATOM     12  C   UNL d   1      -1.246  -5.170   0.789  0.00  0.00     0.050 A 
ATOM     13  HN  UNL d   1      -3.049  -5.984   1.455  1.00  0.00     0.165 HD
ATOM     14  C   UNL d   1      -0.487  -6.021   1.762  0.00  0.00     0.072 C 
ENDBRANCH   2   5
BRANCH   1  15
ATOM     15  C   UNL d   1       2.950  -3.101  -0.416  0.00  0.00     0.063 A 
ATOM     16  C   UNL d   1       3.684  -3.892   0.451  0.00  0.00     0.091 A 
ATOM     17  S   UNL d   1       5.359  -3.594   0.425  0.00  0.00    -0.065 SA
ATOM     18 CL   UNL d   1       3.150  -5.128   1.530  0.00  0.00    -0.075 Cl
ATOM     19  C   UNL d   1       5.160  -2.372  -0.720  0.00  0.00     0.077 A 
ATOM     20  C   UNL d   1       3.852  -2.174  -1.073  0.00  0.00     0.050 A 
ATOM     21 CL   UNL d   1       6.529  -1.530  -1.319  0.00  0.00    -0.076 Cl
ENDBRANCH   1  15
TORSDOF 2
