REMARK  2 active torsions:
REMARK  status: ('A' for Active; 'I' for Inactive)
REMARK    1  A    between atoms: N_2  and  C_1 
REMARK    2  A    between atoms: C_8  and  C_3 
ROOT
ATOM      1  C   UNL d   1       1.449   0.754  -0.014  0.00  0.00     0.066 A 
ATOM      2  C   UNL d   1       0.176   1.291   0.164  0.00  0.00     0.077 A 
ATOM      3  C   UNL d   1       1.384  -0.656  -0.274  0.00  0.00     0.039 A 
ATOM      4  S   UNL d   1      -1.026   0.064   0.179  0.00  0.00    -0.096 SA
ATOM      5  C   UNL d   1       0.110  -1.159  -0.158  0.00  0.00     0.053 A 
ENDROOT
BRANCH   1   6
ATOM      6  N   UNL d   1       2.629   1.497   0.015  0.00  0.00    -0.251 N 
ATOM      7  C   UNL d   1       2.905   2.413   1.005  0.00  0.00     0.231 C 
ATOM      8  C   UNL d   1       4.275   2.976   0.763  0.00  0.00     0.113 C 
ATOM      9  O   UNL d   1       2.248   2.662   2.008  0.00  0.00    -0.273 OA
ATOM     10  C   UNL d   1       4.756   2.290  -0.497  0.00  0.00     0.113 C 
ATOM     11  C   UNL d   1       3.709   1.253  -0.790  0.00  0.00     0.231 C 
ATOM     12  O   UNL d   1       3.847   0.394  -1.649  0.00  0.00    -0.273 OA
ENDBRANCH   1   6
BRANCH   2  13
ATOM     13  C   UNL d   1      -0.199   2.705   0.204  0.00  0.00     0.164 C 
ATOM     14  O   UNL d   1       0.541   3.591  -0.237  0.00  0.00    -0.292 OA
ATOM     15  C   UNL d   1      -1.572   3.095   0.702  0.00  0.00     0.097 C 
ENDBRANCH   2  13
TORSDOF 2
