REMARK  4 active torsions:
REMARK  status: ('A' for Active; 'I' for Inactive)
REMARK       I    between atoms: N_2  and  C_1 
REMARK       I    between atoms: N_4  and  C_1 
REMARK    1  A    between atoms: C_5  and  N_2 
REMARK    2  A    between atoms: C_13  and  N_4 
REMARK    3  A    between atoms: S_8  and  C_14 
REMARK    4  A    between atoms: C_14  and  C_13 
ROOT
ATOM      1  C   UNL d   1       1.050   0.045  -0.048  0.00  0.00     0.320 C 
ATOM      2  N   UNL d   1       0.434  -0.560   1.027  0.00  0.00    -0.309 N 
ATOM      3  O   UNL d   1       0.497   0.537  -1.022  0.00  0.00    -0.247 OA
ATOM      4  N   UNL d   1       2.419  -0.025   0.050  0.00  0.00    -0.342 N 
ATOM      5  H   UNL d   1       1.012  -0.732   1.834  0.00  0.00     0.170 HD
ATOM      6  H   UNL d   1       2.846  -0.167   0.954  0.00  0.00     0.164 HD
ENDROOT
BRANCH   2   7
ATOM      7  C   UNL d   1      -0.909  -0.984   1.104  0.00  0.00     0.036 A 
ATOM      8  C   UNL d   1      -1.793  -0.941   0.021  0.00  0.00     0.031 A 
ATOM      9  C   UNL d   1      -3.080  -1.478   0.128  0.00  0.00     0.026 A 
ATOM     10  C   UNL d   1      -3.493  -2.056   1.323  0.00  0.00     0.034 A 
ATOM     11  C   UNL d   1      -2.636  -2.081   2.421  0.00  0.00     0.026 A 
ATOM     12 CL   UNL d   1      -5.057  -2.761   1.439  0.00  0.00    -0.084 Cl
ATOM     13  C   UNL d   1      -1.347  -1.545   2.311  0.00  0.00     0.031 A 
ENDBRANCH   2   7
BRANCH   4  14
ATOM     14  C   UNL d   1       3.281   0.478  -1.006  0.00  0.00     0.134 C 
BRANCH  14  15
ATOM     15  C   UNL d   1       3.708   1.931  -0.793  0.00  0.00     0.093 C 
BRANCH  15  16
ATOM     16  S   UNL d   1       4.708   2.092   0.733  0.00  0.00    -0.172 SA
ATOM     17  C   UNL d   1       5.169   3.833   0.571  0.00  0.00     0.089 C 
ENDBRANCH  15  16
ENDBRANCH  14  15
ENDBRANCH   4  14
TORSDOF 4
