REMARK  4 active torsions:
REMARK  status: ('A' for Active; 'I' for Inactive)
REMARK    1  A    between atoms: C_3  and  C_1 
REMARK    2  A    between atoms: C_2  and  C_8 
REMARK    3  A    between atoms: O_9  and  C_3 
REMARK    4  A    between atoms: C_12  and  O_9 
ROOT
ATOM      1  C   UNL d   1      -2.362   6.842   0.111  0.00  0.00    -0.035 A 
ATOM      2  C   UNL d   1      -3.024   5.926   0.942  0.00  0.00     0.012 A 
ATOM      3  C   UNL d   1      -1.349   6.354  -0.731  0.00  0.00     0.012 A 
ATOM      4  C   UNL d   1      -1.754   4.081   0.028  0.00  0.00     0.069 A 
ATOM      5  C   UNL d   1      -2.719   4.565   0.910  0.00  0.00     0.037 A 
ATOM      6  C   UNL d   1      -1.050   4.985  -0.768  0.00  0.00     0.037 A 
ENDROOT
BRANCH   4   7
ATOM      7  O   UNL d   1      -1.422   2.761  -0.129  0.00  0.00    -0.347 OA
BRANCH   7   8
ATOM      8  C   UNL d   1      -2.394   1.825   0.341  0.00  0.00     0.217 C 
BRANCH   8   9
ATOM      9  C   UNL d   1      -2.161   0.483  -0.309  0.00  0.00     0.009 A 
ATOM     10  C   UNL d   1      -1.502  -0.563   0.361  0.00  0.00     0.044 A 
ATOM     11 CL   UNL d   1      -0.871  -0.385   1.962  0.00  0.00    -0.084 Cl
ATOM     12  C   UNL d   1      -1.333  -1.814  -0.244  0.00  0.00     0.024 A 
ATOM     13  C   UNL d   1      -1.806  -2.043  -1.533  0.00  0.00     0.003 A 
ATOM     14  C   UNL d   1      -2.438  -1.014  -2.224  0.00  0.00     0.024 A 
ATOM     15  C   UNL d   1      -2.609   0.237  -1.621  0.00  0.00     0.044 A 
ATOM     16 CL   UNL d   1      -3.410   1.450  -2.562  0.00  0.00    -0.084 Cl
ENDBRANCH   8   9
ENDBRANCH   7   8
ENDBRANCH   4   7
BRANCH   1  17
ATOM     17  C   UNL d   1      -2.763   8.297   0.168  0.00  0.00     0.141 C 
ATOM     18  S   UNL d   1      -3.261   9.009  -1.421  0.00  0.00    -0.148 SA
ATOM     19  C   UNL d   1      -3.154  10.711  -0.828  0.00  0.00     0.085 C 
ATOM     20  C   UNL d   1      -1.818  10.845  -0.115  0.00  0.00     0.085 C 
ATOM     21  S   UNL d   1      -1.504   9.376   0.917  0.00  0.00    -0.148 SA
ENDBRANCH   1  17
TORSDOF 4
