REMARK  1 active torsions:
REMARK  status: ('A' for Active; 'I' for Inactive)
REMARK    1  A    between atoms: S_10  and  C_2 
ROOT
ATOM      1  C   UNL d   1      -1.372  -0.368   0.010  0.00  0.00     0.135 C 
ATOM      2  C   UNL d   1      -0.493  -1.386   0.061  0.00  0.00     0.065 C 
ATOM      3  C   UNL d   1      -0.959   1.052   0.091  0.00  0.00     0.265 C 
ATOM      4  S   UNL d   1       1.222  -1.194   0.271  0.00  0.00    -0.090 SA
ATOM      5  N   UNL d   1       0.343   1.378   0.272  0.00  0.00    -0.338 N 
ATOM      6  C   UNL d   1       1.522   0.570   0.079  0.00  0.00     0.080 C 
ATOM      7  C   UNL d   1      -2.785  -0.587  -0.068  0.00  0.00     0.107 C 
ATOM      8  N   UNL d   1      -3.928  -0.791  -0.095  0.00  0.00    -0.191 NA
ATOM      9  O   UNL d   1      -1.779   1.967   0.036  0.00  0.00    -0.267 OA
ATOM     10  C   UNL d   1       2.132   0.818  -1.306  0.00  0.00     0.051 C 
ATOM     11  C   UNL d   1       2.541   0.955   1.162  0.00  0.00     0.051 C 
ATOM     12  H   UNL d   1       0.475   2.384   0.268  0.00  0.00     0.164 HD
ENDROOT
BRANCH   2  13
ATOM     13  S   UNL d   1      -1.032  -3.060  -0.114  0.00  0.00    -0.126 SA
ATOM     14  C   UNL d   1      -0.542  -3.755   1.483  0.00  0.00     0.096 C 
ENDBRANCH   2  13
TORSDOF 1
