REMARK  5 active torsions:
REMARK  status: ('A' for Active; 'I' for Inactive)
REMARK       I    between atoms: N_2  and  C_1 
REMARK       I    between atoms: N_4  and  C_1 
REMARK    1  A    between atoms: C_8  and  N_2 
REMARK    2  A    between atoms: C_3  and  C_7 
REMARK    3  A    between atoms: O_10  and  C_3 
REMARK    4  A    between atoms: C_7  and  N_4 
REMARK    5  A    between atoms: C_16  and  O_10 
ROOT
ATOM      1  C   UNL d   1       0.958   0.134  -0.108  0.00  0.00     0.321 C 
ATOM      2  N   UNL d   1       0.447  -1.008   0.457  0.00  0.00    -0.309 N 
ATOM      3  N   UNL d   1       0.006   0.823  -0.809  0.00  0.00    -0.334 N 
ATOM      4  O   UNL d   1       2.118   0.529  -0.053  0.00  0.00    -0.247 OA
ATOM      5  H   UNL d   1      -0.465  -1.289   0.131  0.00  0.00     0.170 HD
ATOM      6  H   UNL d   1      -0.976   0.646  -0.638  0.00  0.00     0.164 HD
ENDROOT
BRANCH   2   7
ATOM      7  C   UNL d   1       1.135  -1.916   1.289  0.00  0.00     0.036 A 
ATOM      8  C   UNL d   1       2.394  -1.652   1.839  0.00  0.00     0.031 A 
ATOM      9  C   UNL d   1       3.029  -2.598   2.648  0.00  0.00     0.026 A 
ATOM     10  C   UNL d   1       2.406  -3.812   2.913  0.00  0.00     0.034 A 
ATOM     11  C   UNL d   1       1.147  -4.084   2.386  0.00  0.00     0.026 A 
ATOM     12 CL   UNL d   1       3.196  -4.981   3.899  0.00  0.00    -0.084 Cl
ATOM     13  C   UNL d   1       0.510  -3.134   1.580  0.00  0.00     0.031 A 
ENDBRANCH   2   7
BRANCH   3  14
ATOM     14  C   UNL d   1       0.347   2.079  -1.454  0.00  0.00     0.235 C 
BRANCH  14  15
ATOM     15  C   UNL d   1      -0.873   2.621  -2.168  0.00  0.00     0.276 C 
ATOM     16  O   UNL d   1      -1.995   2.134  -2.082  0.00  0.00    -0.263 OA
BRANCH  15  17
ATOM     17  O   UNL d   1      -0.522   3.679  -2.949  0.00  0.00    -0.321 OA
BRANCH  17  18
ATOM     18  C   UNL d   1      -1.482   4.037  -3.951  0.00  0.00     0.174 C 
ATOM     19  C   UNL d   1      -1.202   3.197  -5.185  0.00  0.00     0.034 C 
ENDBRANCH  17  18
ENDBRANCH  15  17
ENDBRANCH  14  15
ENDBRANCH   3  14
TORSDOF 5
