REMARK  5 active torsions:
REMARK  status: ('A' for Active; 'I' for Inactive)
REMARK    1  A    between atoms: C_13  and  C_3 
REMARK    2  A    between atoms: C_5  and  C_4 
REMARK    3  A    between atoms: C_14  and  C_9 
REMARK    4  A    between atoms: O_18  and  C_13 
REMARK    5  A    between atoms: C_23  and  O_18 
ROOT
ATOM      1  N   UNL d   1       1.391  -0.600  -0.236  0.00  0.00    -0.347 N 
ATOM      2  HN  UNL d   1       2.249  -1.102  -0.465  1.00  0.00     0.167 HD
ATOM      3  C   UNL d   1       1.287   0.772  -0.097  0.00  0.00     0.076 A 
ATOM      4  C   UNL d   1       0.216  -1.166  -0.029  0.00  0.00     0.084 A 
ATOM      5  S   UNL d   1      -1.077  -0.055   0.257  0.00  0.00    -0.081 SA
ATOM      6  C   UNL d   1       0.022   1.248   0.175  0.00  0.00     0.084 A 
ENDROOT
BRANCH   3   7
ATOM      7  C   UNL d   1       2.458   1.675  -0.224  0.00  0.00     0.128 A 
ATOM      8  C   UNL d   1       3.751   1.310  -0.504  0.00  0.00     0.079 A 
ATOM      9  C   UNL d   1       4.485   2.525  -0.482  0.00  0.00     0.132 A 
ATOM     10  N   UNL d   1       3.672   3.562  -0.218  0.00  0.00    -0.255 N 
ATOM     11  O   UNL d   1       2.411   3.026  -0.059  0.00  0.00    -0.235 OA
ATOM     12  HN  UNL d   1       3.934   4.545  -0.150  1.00  0.00     0.195 HD
BRANCH   9  13
ATOM     13  C   UNL d   1       5.927   2.683  -0.647  0.00  0.00     0.311 C 
ATOM     14  O   UNL d   1       6.681   1.738  -0.850  0.00  0.00    -0.258 OA
BRANCH  13  15
ATOM     15  O   UNL d   1       6.339   3.972  -0.459  0.00  0.00    -0.317 OA
BRANCH  15  16
ATOM     16  C   UNL d   1       7.728   4.144  -0.160  0.00  0.00     0.175 C 
ATOM     17  C   UNL d   1       7.920   3.945   1.334  0.00  0.00     0.034 C 
ENDBRANCH  15  16
ENDBRANCH  13  15
ENDBRANCH   9  13
ENDBRANCH   3   7
BRANCH   4  18
ATOM     18  C   UNL d   1      -0.028  -2.617  -0.063  0.00  0.00    -0.002 A 
ATOM     19  C   UNL d   1      -1.051  -3.230   0.683  0.00  0.00     0.016 A 
ATOM     20  C   UNL d   1      -1.251  -4.614   0.633  0.00  0.00     0.024 A 
ATOM     21  C   UNL d   1      -0.427  -5.405  -0.162  0.00  0.00     0.034 A 
ATOM     22  C   UNL d   1       0.600  -4.824  -0.902  0.00  0.00     0.024 A 
ATOM     23 CL   UNL d   1      -0.674  -7.105  -0.221  0.00  0.00    -0.084 Cl
ATOM     24  C   UNL d   1       0.800  -3.440  -0.849  0.00  0.00     0.016 A 
ENDBRANCH   4  18
TORSDOF 5
