REMARK  3 active torsions:
REMARK  status: ('A' for Active; 'I' for Inactive)
REMARK    1  A    between atoms: C_2  and  C_1 
REMARK       I    between atoms: N_4  and  C_1 
REMARK    2  A    between atoms: C_3  and  N_5 
REMARK    3  A    between atoms: N_5  and  N_4 
ROOT
ATOM      1  N   UNL d   1      -1.095   0.191  -1.430  0.00  0.00    -0.201 NA
ATOM      2  H   UNL d   1      -1.651   0.044  -0.577  0.00  0.00     0.153 HD
ENDROOT
BRANCH   1   3
ATOM      3  C   UNL d   1      -1.791  -0.243  -2.596  0.00  0.00     0.051 A 
ATOM      4  C   UNL d   1      -3.195  -0.331  -2.503  0.00  0.00     0.050 A 
ATOM      5  C   UNL d   1      -3.979  -0.641  -3.618  0.00  0.00     0.035 A 
ATOM      6 CL   UNL d   1      -5.690  -0.740  -3.459  0.00  0.00    -0.084 Cl
ATOM      7  C   UNL d   1      -3.390  -0.854  -4.858  0.00  0.00     0.026 A 
ATOM      8  C   UNL d   1      -2.007  -0.747  -4.984  0.00  0.00     0.027 A 
ATOM      9  C   UNL d   1      -1.212  -0.429  -3.873  0.00  0.00     0.057 A 
ATOM     10 CL   UNL d   1       0.482  -0.234  -4.189  0.00  0.00    -0.082 Cl
ENDBRANCH   1   3
BRANCH   1  11
ATOM     11  N   UNL d   1       0.176  -0.387  -1.259  0.00  0.00    -0.282 N 
ATOM     12  C   UNL d   1       0.578  -0.716   0.029  0.00  0.00     0.273 C 
ATOM     13  O   UNL d   1      -0.217  -0.669   0.968  0.00  0.00    -0.266 OA
ATOM     14  H   UNL d   1       0.866  -0.204  -1.983  0.00  0.00     0.184 HD
BRANCH  12  15
ATOM     15  C   UNL d   1       1.974  -1.106   0.181  0.00  0.00     0.073 A 
ATOM     16  S   UNL d   1       3.015  -1.339  -1.163  0.00  0.00    -0.097 SA
ATOM     17  C   UNL d   1       4.320  -1.808  -0.164  0.00  0.00     0.050 A 
ATOM     18  C   UNL d   1       3.988  -1.766   1.171  0.00  0.00     0.009 A 
ATOM     19  C   UNL d   1       2.638  -1.357   1.369  0.00  0.00     0.025 A 
ENDBRANCH  12  15
ENDBRANCH   1  11
TORSDOF 3
