REMARK  2 active torsions:
REMARK  status: ('A' for Active; 'I' for Inactive)
REMARK    1  A    between atoms: C_17  and  C_14 
REMARK    2  A    between atoms: N_15  and  C_16 
ROOT
ATOM      1  C   UNL d   1      -1.026  -0.907  -0.009  0.00  0.00     0.134 A 
ATOM      2  C   UNL d   1      -0.439   0.321   0.000  0.00  0.00     0.113 A 
ATOM      3  C   UNL d   1       1.799  -0.700  -0.021  0.00  0.00     0.138 A 
ATOM      4  N   UNL d   1      -2.433  -0.949   0.071  0.00  0.00    -0.288 N 
ATOM      5  C   UNL d   1       0.977   0.400  -0.013  0.00  0.00     0.129 A 
ATOM      6  N   UNL d   1      -0.187  -2.076  -0.093  0.00  0.00    -0.302 N 
ATOM      7  N   UNL d   1      -2.603   1.415  -0.018  0.00  0.00    -0.270 N 
ATOM      8  C   UNL d   1      -3.244   0.196  -0.017  0.00  0.00     0.332 C 
ATOM      9  C   UNL d   1      -1.238   1.567   0.049  0.00  0.00     0.268 C 
ATOM     10  C   UNL d   1       1.240  -2.027  -0.037  0.00  0.00     0.278 A 
ATOM     11  N   UNL d   1       3.116  -0.346  -0.015  0.00  0.00    -0.329 N 
ATOM     12  HN  UNL d   1       3.933  -0.957  -0.024  1.00  0.00     0.168 HD
ATOM     13  O   UNL d   1       1.816   1.496   0.001  0.00  0.00    -0.289 OA
ATOM     14  C   UNL d   1       3.085   0.969   0.004  0.00  0.00     0.159 A 
ATOM     15  O   UNL d   1      -4.473   0.120  -0.073  0.00  0.00    -0.246 OA
ATOM     16  O   UNL d   1      -0.701   2.670   0.133  0.00  0.00    -0.267 OA
ATOM     17  O   UNL d   1       1.957  -3.025  -0.015  0.00  0.00    -0.265 OA
ATOM     18  C   UNL d   1      -3.216  -2.162   0.267  0.00  0.00     0.163 C 
ATOM     19  C   UNL d   1      -3.403   2.629  -0.016  0.00  0.00     0.164 C 
ATOM     20  C   UNL d   1      -0.661  -3.438  -0.265  0.00  0.00     0.161 C 
ENDROOT
BRANCH  14  21
ATOM     21  C   UNL d   1       4.221   1.886   0.067  0.00  0.00     0.015 A 
ATOM     22  C   UNL d   1       4.083   3.281   0.111  0.00  0.00     0.018 A 
ATOM     23  C   UNL d   1       5.213   4.107   0.208  0.00  0.00     0.037 A 
ATOM     24  C   UNL d   1       6.493   3.535   0.263  0.00  0.00     0.102 A 
ATOM     25  C   UNL d   1       6.650   2.148   0.207  0.00  0.00     0.037 A 
ATOM     26  C   UNL d   1       5.517   1.337   0.110  0.00  0.00     0.018 A 
BRANCH  24  27
ATOM     27  N   UNL d   1       7.679   4.393   0.387  0.00  0.00    -0.116 N 
ATOM     28  O   UNL d   1       8.788   3.841   0.440  0.00  0.00    -0.532 OA
ATOM     29  O   UNL d   1       7.501   5.618   0.434  0.00  0.00    -0.532 OA
ENDBRANCH  24  27
ENDBRANCH  14  21
TORSDOF 2
