REMARK  3 active torsions:
REMARK  status: ('A' for Active; 'I' for Inactive)
REMARK    1  A    between atoms: C_3  and  S_1 
REMARK    2  A    between atoms: C_4  and  S_1 
REMARK    3  A    between atoms: C_8  and  C_4 
ROOT
ATOM      1  N   UNL d   1       4.125  -2.256   5.680  0.00  0.00    -0.191 NA
ATOM      2  C   UNL d   1       3.248  -2.293   4.921  0.00  0.00     0.099 C 
ATOM      3  C   UNL d   1       0.742  -1.215   2.349  0.00  0.00    -0.043 A 
ATOM      4  C   UNL d   1       2.153  -2.332   3.996  0.00  0.00     0.045 A 
ATOM      5  C   UNL d   1       1.829  -1.197   3.239  0.00  0.00     0.030 A 
ATOM      6  C   UNL d   1       0.328  -3.533   2.960  0.00  0.00     0.002 A 
ATOM      7  C   UNL d   1       0.004  -2.400   2.210  0.00  0.00     0.008 A 
ATOM      8  C   UNL d   1       1.396  -3.498   3.857  0.00  0.00     0.022 A 
ENDROOT
BRANCH   3   9
ATOM      9  C   UNL d   1       0.368   0.019   1.565  0.00  0.00     0.184 C 
BRANCH   9  10
ATOM     10  S   UNL d   1       1.179   0.001  -0.028  0.00  0.00     0.179 S 
ATOM     11  O   UNL d   1       2.613   0.114   0.166  0.00  0.00    -0.222 OA
ATOM     12  O   UNL d   1       0.614  -1.060  -0.842  0.00  0.00    -0.222 OA
BRANCH  10  13
ATOM     13  C   UNL d   1       0.641   1.540  -0.760  0.00  0.00     0.059 A 
ATOM     14  C   UNL d   1       1.435   2.685  -0.627  0.00  0.00     0.025 A 
ATOM     15  C   UNL d   1       1.038   3.872  -1.248  0.00  0.00     0.025 A 
ATOM     16  C   UNL d   1      -0.137   3.905  -2.000  0.00  0.00     0.034 A 
ATOM     17  C   UNL d   1      -0.924   2.761  -2.137  0.00  0.00     0.025 A 
ATOM     18 CL   UNL d   1      -0.612   5.365  -2.778  0.00  0.00    -0.084 Cl
ATOM     19  C   UNL d   1      -0.534   1.569  -1.520  0.00  0.00     0.025 A 
ENDBRANCH  10  13
ENDBRANCH   9  10
ENDBRANCH   3   9
TORSDOF 3
