REMARK  5 active torsions:
REMARK  status: ('A' for Active; 'I' for Inactive)
REMARK    1  A    between atoms: C_2  and  N_1 
REMARK    2  A    between atoms: C_3  and  C_17 
REMARK    3  A    between atoms: O_22  and  C_5 
REMARK    4  A    between atoms: N_9  and  N_19 
REMARK    5  A    between atoms: N_19  and  C_12 
ROOT
ATOM      1  N   UNL d   1      -1.490  -5.292   2.815  0.00  0.00    -0.309 N 
ATOM      2  HN  UNL d   1      -0.828  -4.910   3.490  1.00  0.00     0.186 HD
ATOM      3  C   UNL d   1      -2.090  -6.424   3.002  0.00  0.00     0.121 C 
ENDROOT
BRANCH   1   4
ATOM      4  N   UNL d   1      -1.800  -4.649   1.668  0.00  0.00    -0.286 N 
ATOM      5  H   UNL d   1      -2.453  -4.987   0.967  0.00  0.00     0.188 HD
BRANCH   4   6
ATOM      6  C   UNL d   1      -1.178  -3.442   1.333  0.00  0.00     0.119 A 
ATOM      7  C   UNL d   1      -0.265  -2.835   2.198  0.00  0.00     0.052 A 
ATOM      8  C   UNL d   1       0.326  -1.622   1.853  0.00  0.00     0.041 A 
ATOM      9  C   UNL d   1      -0.010  -1.048   0.631  0.00  0.00     0.118 A 
ATOM     10  C   UNL d   1      -0.911  -1.706  -0.190  0.00  0.00     0.125 A 
ATOM     11  N   UNL d   1      -1.501  -2.886   0.141  0.00  0.00    -0.349 N 
ATOM     12  HN  UNL d   1      -2.165  -3.337  -0.488  1.00  0.00     0.167 HD
BRANCH   9  13
ATOM     13  N   UNL d   1       0.565   0.224   0.220  0.00  0.00    -0.114 N 
ATOM     14  O   UNL d   1       0.230   0.677  -0.884  0.00  0.00    -0.532 OA
ATOM     15  O   UNL d   1       1.350   0.779   0.999  0.00  0.00    -0.532 OA
ENDBRANCH   9  13
ENDBRANCH   4   6
ENDBRANCH   1   4
BRANCH   3  16
ATOM     16  C   UNL d   1      -1.833  -7.220   4.221  0.00  0.00     0.017 A 
ATOM     17  C   UNL d   1      -2.486  -8.439   4.419  0.00  0.00     0.099 A 
ATOM     18  C   UNL d   1      -2.237  -9.178   5.581  0.00  0.00     0.069 A 
ATOM     19 CL   UNL d   1      -3.038 -10.684   5.841  0.00  0.00    -0.081 Cl
ATOM     20  C   UNL d   1      -1.339  -8.713   6.541  0.00  0.00     0.050 A 
ATOM     21  C   UNL d   1      -0.688  -7.499   6.334  0.00  0.00     0.036 A 
ATOM     22  C   UNL d   1      -0.927  -6.751   5.183  0.00  0.00     0.039 A 
ATOM     23 CL   UNL d   1       0.428  -6.922   7.510  0.00  0.00    -0.084 Cl
BRANCH  17  24
ATOM     24  O   UNL d   1      -3.362  -8.901   3.471  0.00  0.00    -0.358 OA
ATOM     25  H   UNL d   1      -3.689  -9.773   3.767  0.00  0.00     0.217 HD
ENDBRANCH  17  24
ENDBRANCH   3  16
TORSDOF 5
