REMARK  7 active torsions:
REMARK  status: ('A' for Active; 'I' for Inactive)
REMARK    1  A    between atoms: C_3  and  S_1 
REMARK    2  A    between atoms: N_11  and  S_1 
REMARK    3  A    between atoms: C_2  and  C_14 
REMARK    4  A    between atoms: O_25  and  C_4 
REMARK    5  A    between atoms: C_16  and  C_8 
REMARK    6  A    between atoms: N_15  and  N_11 
REMARK       I    between atoms: C_14  and  N_15 
REMARK    7  A    between atoms: O_27  and  C_16 
ROOT
ATOM      1  C   UNL d   1       0.152  -3.524   1.566  0.00  0.00     0.279 C 
ATOM      2  N   UNL d   1       0.945  -2.454   1.226  0.00  0.00    -0.256 N 
ATOM      3  O   UNL d   1      -1.008  -3.372   1.965  0.00  0.00    -0.266 OA
ATOM      4  H   UNL d   1       1.886  -2.565   0.829  0.00  0.00     0.191 HD
ENDROOT
BRANCH   2   5
ATOM      5  N   UNL d   1       0.324  -1.123   1.195  0.00  0.00    -0.219 N 
ATOM      6  H   UNL d   1      -0.698  -1.133   1.295  0.00  0.00     0.200 HD
BRANCH   5   7
ATOM      7  S   UNL d   1       0.935  -0.013   0.075  0.00  0.00     0.292 S 
ATOM      8  O   UNL d   1       2.299   0.306   0.429  0.00  0.00    -0.197 OA
ATOM      9  O   UNL d   1       0.572  -0.488  -1.242  0.00  0.00    -0.197 OA
BRANCH   7  10
ATOM     10  C   UNL d   1       0.021   1.504   0.285  0.00  0.00     0.153 A 
ATOM     11  N   UNL d   1      -0.010   2.259   1.448  0.00  0.00    -0.336 N 
ATOM     12  C   UNL d   1      -0.796   3.395   1.268  0.00  0.00     0.111 A 
ATOM     13  C   UNL d   1       0.675   1.952   2.690  0.00  0.00     0.157 C 
ATOM     14  C   UNL d   1      -1.265   3.344  -0.035  0.00  0.00     0.039 A 
ATOM     15  C   UNL d   1      -0.764   2.178  -0.639  0.00  0.00     0.046 A 
BRANCH  12  16
ATOM     16  C   UNL d   1      -1.050   4.421   2.267  0.00  0.00     0.309 C 
ATOM     17  O   UNL d   1      -0.633   4.419   3.417  0.00  0.00    -0.258 OA
BRANCH  16  18
ATOM     18  O   UNL d   1      -1.834   5.399   1.730  0.00  0.00    -0.321 OA
ATOM     19  C   UNL d   1      -2.147   6.470   2.621  0.00  0.00     0.213 C 
ENDBRANCH  16  18
ENDBRANCH  12  16
ENDBRANCH   7  10
ENDBRANCH   5   7
ENDBRANCH   2   5
BRANCH   1  20
ATOM     20  C   UNL d   1       0.732  -4.886   1.384  0.00  0.00     0.136 A 
ATOM     21  C   UNL d   1      -0.051  -5.958   1.649  0.00  0.00     0.106 A 
ATOM     22  C   UNL d   1       0.488  -7.255   1.420  0.00  0.00     0.066 A 
ATOM     23  S   UNL d   1      -0.339  -8.733   1.650  0.00  0.00    -0.097 SA
ATOM     24  C   UNL d   1       1.769  -7.471   0.959  0.00  0.00     0.055 A 
ATOM     25  C   UNL d   1       1.016  -9.645   1.130  0.00  0.00     0.053 A 
ATOM     26  C   UNL d   1       2.085  -8.842   0.792  0.00  0.00     0.038 A 
ATOM     27  N   UNL d   1       2.582  -6.385   0.708  0.00  0.00    -0.321 N 
ATOM     28  C   UNL d   1       2.137  -5.095   0.888  0.00  0.00     0.264 A 
ATOM     29  H   UNL d   1       3.525  -6.523   0.368  0.00  0.00     0.169 HD
ATOM     30  O   UNL d   1       2.868  -4.136   0.644  0.00  0.00    -0.267 OA
BRANCH  21  31
ATOM     31  O   UNL d   1      -1.351  -5.918   2.110  0.00  0.00    -0.358 OA
ATOM     32  H   UNL d   1      -1.617  -4.978   2.220  0.00  0.00     0.217 HD
ENDBRANCH  21  31
ENDBRANCH   1  20
TORSDOF 7
