REMARK  6 active torsions:
REMARK  status: ('A' for Active; 'I' for Inactive)
REMARK    1  A    between atoms: C_8  and  C_1 
REMARK    2  A    between atoms: C_9  and  C_2 
REMARK    3  A    between atoms: C_10  and  C_15 
REMARK       I    between atoms: C_11  and  N_12 
REMARK    4  A    between atoms: C_16  and  C_11 
REMARK    5  A    between atoms: N_12  and  C_13 
REMARK    6  A    between atoms: O_31  and  C_27 
ROOT
ATOM      1  C   UNL d   1      -0.164  -2.875   0.214  0.00  0.00     0.043 A 
ATOM      2  C   UNL d   1      -1.126  -2.942  -0.827  0.00  0.00     0.049 A 
ATOM      3  C   UNL d   1      -0.042  -4.050   1.031  0.00  0.00     0.018 A 
ATOM      4  C   UNL d   1      -1.747  -4.210  -1.066  0.00  0.00     0.030 A 
ATOM      5  C   UNL d   1      -0.709  -5.251   0.803  0.00  0.00     0.001 A 
ATOM      6  C   UNL d   1      -1.546  -5.341  -0.279  0.00  0.00     0.002 A 
ENDROOT
BRANCH   1   7
ATOM      7  C   UNL d   1       0.800  -1.825   0.622  0.00  0.00     0.177 A 
ATOM      8  O   UNL d   1       1.974  -2.341   1.180  0.00  0.00    -0.272 OA
ATOM      9  C   UNL d   1       2.562  -1.270   1.790  0.00  0.00     0.176 A 
ATOM     10  N   UNL d   1       1.889  -0.162   1.540  0.00  0.00    -0.277 N 
ATOM     11  N   UNL d   1       0.755  -0.525   0.803  0.00  0.00    -0.277 N 
ATOM     12  HN  UNL d   1       2.146   0.782   1.830  1.00  0.00     0.189 HD
ATOM     13  HN  UNL d   1       0.026   0.106   0.468  1.00  0.00     0.189 HD
BRANCH   9  14
ATOM     14  C   UNL d   1       3.727  -1.490   2.681  0.00  0.00     0.037 A 
ATOM     15  C   UNL d   1       4.340  -2.733   2.959  0.00  0.00     0.025 A 
ATOM     16  C   UNL d   1       5.423  -2.824   3.855  0.00  0.00     0.023 A 
ATOM     17 BR   UNL d   1       3.815  -4.405   2.213  0.00  0.00    -0.050 Br
ATOM     18  C   UNL d   1       5.913  -1.692   4.493  0.00  0.00     0.038 A 
ATOM     19  C   UNL d   1       5.329  -0.455   4.261  0.00  0.00     0.069 A 
ATOM     20  C   UNL d   1       4.253  -0.357   3.357  0.00  0.00     0.054 A 
BRANCH  19  21
ATOM     21  O   UNL d   1       5.907   0.566   4.961  0.00  0.00    -0.356 OA
ATOM     22  C   UNL d   1       5.206   1.799   5.016  0.00  0.00     0.210 C 
ENDBRANCH  19  21
ENDBRANCH   9  14
ENDBRANCH   1   7
BRANCH   2  23
ATOM     23  N   UNL d   1      -1.702  -1.981  -1.717  0.00  0.00    -0.322 N 
ATOM     24  C   UNL d   1      -1.700  -0.609  -1.774  0.00  0.00     0.256 C 
ATOM     25  O   UNL d   1      -0.935   0.126  -1.165  0.00  0.00    -0.267 OA
ATOM     26  H   UNL d   1      -2.386  -2.395  -2.326  0.00  0.00     0.169 HD
BRANCH  24  27
ATOM     27  C   UNL d   1      -2.799   0.026  -2.636  0.00  0.00     0.032 A 
ATOM     28  C   UNL d   1      -3.663  -0.672  -3.505  0.00  0.00     0.018 A 
ATOM     29  C   UNL d   1      -4.705  -0.011  -4.194  0.00  0.00     0.017 A 
ATOM     30  C   UNL d   1      -4.904   1.369  -4.044  0.00  0.00     0.048 A 
ATOM     31  C   UNL d   1      -4.037   2.071  -3.199  0.00  0.00     0.017 A 
ATOM     32  C   UNL d   1      -3.003   1.411  -2.511  0.00  0.00     0.018 A 
BRANCH  30  33
ATOM     33  C   UNL d   1      -6.041   2.088  -4.741  0.00  0.00     0.417 C 
ATOM     34  F   UNL d   1      -6.626   1.352  -5.729  0.00  0.00    -0.166 F 
ATOM     35  F   UNL d   1      -7.047   2.422  -3.886  0.00  0.00    -0.166 F 
ATOM     36  F   UNL d   1      -5.650   3.252  -5.330  0.00  0.00    -0.166 F 
ENDBRANCH  30  33
ENDBRANCH  24  27
ENDBRANCH   2  23
TORSDOF 6
