REMARK  4 active torsions:
REMARK  status: ('A' for Active; 'I' for Inactive)
REMARK    1  A    between atoms: N_2  and  S_1 
REMARK    2  A    between atoms: C_3  and  S_1 
REMARK    3  A    between atoms: C_11  and  N_6 
REMARK    4  A    between atoms: C_19  and  C_11 
ROOT
ATOM      1  N   UNL d   1       0.473   0.675  -1.230  0.00  0.00    -0.205 NA
ATOM      2  N   UNL d   1       0.992   2.749  -3.644  0.00  0.00     0.093 N 
ATOM      3  C   UNL d   1       0.931   2.105  -1.149  0.00  0.00     0.138 C 
ATOM      4  C   UNL d   1       0.447   2.989  -2.305  0.00  0.00     0.288 C 
ATOM      5  C   UNL d   1       0.261   0.254  -3.713  0.00  0.00     0.046 C 
ATOM      6  C   UNL d   1       1.011  -0.049  -2.422  0.00  0.00     0.109 C 
ATOM      7  C   UNL d   1       0.295   1.661  -4.323  0.00  0.00     0.274 C 
ENDROOT
BRANCH   1   8
ATOM      8  S   UNL d   1       0.860  -0.195   0.227  0.00  0.00     0.243 S 
ATOM      9  O   UNL d   1       2.248   0.086   0.539  0.00  0.00    -0.206 OA
ATOM     10  O   UNL d   1       0.386  -1.556   0.090  0.00  0.00    -0.206 OA
BRANCH   8  11
ATOM     11  C   UNL d   1      -0.163   0.579   1.454  0.00  0.00     0.074 A 
ATOM     12  C   UNL d   1      -1.544   0.365   1.404  0.00  0.00     0.026 A 
ATOM     13  C   UNL d   1      -2.364   0.920   2.389  0.00  0.00     0.025 A 
ATOM     14  C   UNL d   1      -1.792   1.678   3.416  0.00  0.00     0.034 A 
ATOM     15  C   UNL d   1      -0.414   1.887   3.464  0.00  0.00     0.025 A 
ATOM     16 CL   UNL d   1      -2.801   2.352   4.635  0.00  0.00    -0.084 Cl
ATOM     17  C   UNL d   1       0.412   1.331   2.484  0.00  0.00     0.026 A 
ENDBRANCH   8  11
ENDBRANCH   1   8
BRANCH   2  18
ATOM     18  C   UNL d   1       2.451   2.648  -3.765  0.00  0.00     0.311 C 
BRANCH  18  19
ATOM     19  C   UNL d   1       3.262   3.825  -3.266  0.00  0.00    -0.030 A 
ATOM     20  C   UNL d   1       4.473   3.585  -2.593  0.00  0.00     0.009 A 
ATOM     21  C   UNL d   1       5.304   4.641  -2.220  0.00  0.00     0.001 A 
ATOM     22  C   UNL d   1       4.935   5.951  -2.514  0.00  0.00     0.000 A 
ATOM     23  C   UNL d   1       3.736   6.204  -3.177  0.00  0.00     0.001 A 
ATOM     24  C   UNL d   1       2.906   5.147  -3.559  0.00  0.00     0.009 A 
ENDBRANCH  18  19
ENDBRANCH   2  18
TORSDOF 4
