REMARK  5 active torsions:
REMARK  status: ('A' for Active; 'I' for Inactive)
REMARK    1  A    between atoms: C_2  and  C_1 
REMARK    2  A    between atoms: O_8  and  C_2 
REMARK    3  A    between atoms: N_4  and  O_8 
REMARK    4  A    between atoms: C_11  and  C_7 
REMARK    5  A    between atoms: N_15  and  C_7 
ROOT
ATOM      1  N   UNL d   1       2.286   3.138   0.143  0.00  0.00    -0.246 N 
ATOM      2  HN  UNL d   1       1.325   3.422   0.333  1.00  0.00     0.196 HD
ATOM      3  C   UNL d   1       3.267   3.968  -0.046  0.00  0.00     0.109 C 
ENDROOT
BRANCH   1   4
ATOM      4  O   UNL d   1       2.711   1.793   0.053  0.00  0.00    -0.193 OA
BRANCH   4   5
ATOM      5  C   UNL d   1       1.639   0.940   0.203  0.00  0.00     0.323 C 
ATOM      6  O   UNL d   1       0.485   1.301   0.422  0.00  0.00    -0.257 OA
BRANCH   5   7
ATOM      7  C   UNL d   1       2.065  -0.449   0.082  0.00  0.00     0.103 A 
ATOM      8  C   UNL d   1       3.296  -1.029  -0.173  0.00  0.00     0.057 A 
ATOM      9  C   UNL d   1       3.237  -2.458  -0.197  0.00  0.00     0.032 A 
ATOM     10 CL   UNL d   1       4.793  -0.237  -0.446  0.00  0.00    -0.083 Cl
ATOM     11  C   UNL d   1       1.968  -2.934   0.037  0.00  0.00     0.052 A 
ATOM     12  S   UNL d   1       0.855  -1.667   0.283  0.00  0.00    -0.094 SA
ENDBRANCH   5   7
ENDBRANCH   4   5
ENDBRANCH   1   4
BRANCH   3  13
ATOM     13  C   UNL d   1       2.962   5.435   0.000  0.00  0.00     0.004 A 
ATOM     14  C   UNL d   1       1.868   5.902   0.743  0.00  0.00     0.016 A 
ATOM     15  C   UNL d   1       1.595   7.272   0.804  0.00  0.00     0.024 A 
ATOM     16  C   UNL d   1       2.405   8.173   0.115  0.00  0.00     0.034 A 
ATOM     17  C   UNL d   1       3.485   7.717  -0.640  0.00  0.00     0.024 A 
ATOM     18 CL   UNL d   1       2.070   9.859   0.193  0.00  0.00    -0.084 Cl
ATOM     19  C   UNL d   1       3.764   6.348  -0.698  0.00  0.00     0.016 A 
ENDBRANCH   3  13
BRANCH   3  20
ATOM     20  N   UNL d   1       4.568   3.576  -0.268  0.00  0.00    -0.286 NA
ATOM     21  H   UNL d   1       4.731   2.603  -0.029  0.00  0.00     0.125 HD
ATOM     22  H   UNL d   1       5.282   4.188   0.112  0.00  0.00     0.125 HD
ENDBRANCH   3  20
TORSDOF 5
