REMARK  0 active torsions:
REMARK  status: ('A' for Active; 'I' for Inactive)
ROOT
ATOM      1  C   UNL d   1       2.730  -0.744  -0.003  0.00  0.00     0.134 A 
ATOM      2  C   UNL d   1       1.781   0.246  -0.002  0.00  0.00     0.104 A 
ATOM      3  N   UNL d   1       4.092  -0.341  -0.003  0.00  0.00    -0.288 N 
ATOM      4  N   UNL d   1       3.530   1.965  -0.006  0.00  0.00    -0.270 N 
ATOM      5  N   UNL d   1       2.260  -2.098  -0.003  0.00  0.00    -0.303 N 
ATOM      6  C   UNL d   1       4.501   1.009  -0.005  0.00  0.00     0.332 A 
ATOM      7  C   UNL d   1       2.189   1.690  -0.001  0.00  0.00     0.267 A 
ATOM      8  C   UNL d   1      -0.097  -1.366  -0.001  0.00  0.00     0.061 A 
ATOM      9  C   UNL d   1       0.326  -0.065  -0.001  0.00  0.00     0.068 A 
ATOM     10  C   UNL d   1       0.883  -2.428  -0.002  0.00  0.00     0.261 A 
ATOM     11  N   UNL d   1      -0.588   0.939  -0.001  0.00  0.00    -0.354 N 
ATOM     12  HN  UNL d   1      -0.270   1.909  -0.001  1.00  0.00     0.166 HD
ATOM     13  C   UNL d   1      -1.460  -1.673  -0.001  0.00  0.00     0.033 A 
ATOM     14  C   UNL d   1      -2.394  -0.647  -0.001  0.00  0.00    -0.008 A 
ATOM     15  C   UNL d   1      -1.913   0.671  -0.000  0.00  0.00     0.043 A 
ATOM     16  O   UNL d   1       5.695   1.328  -0.005  0.00  0.00    -0.246 OA
ATOM     17  O   UNL d   1       1.378   2.615   0.003  0.00  0.00    -0.267 OA
ATOM     18  O   UNL d   1       0.453  -3.582  -0.001  0.00  0.00    -0.267 OA
ATOM     19  C   UNL d   1      -3.772  -0.925  -0.000  0.00  0.00     0.020 A 
ATOM     20  C   UNL d   1       5.289  -1.158  -0.001  0.00  0.00     0.163 C 
ATOM     21  C   UNL d   1       3.922   3.367  -0.007  0.00  0.00     0.164 C 
ATOM     22  C   UNL d   1       2.989  -3.350  -0.003  0.00  0.00     0.161 C 
ATOM     23  C   UNL d   1      -2.856   1.692   0.001  0.00  0.00     0.031 A 
ATOM     24  C   UNL d   1      -4.703   0.113   0.002  0.00  0.00    -0.061 A 
ATOM     25  C   UNL d   1      -4.234   1.429   0.002  0.00  0.00     0.009 A 
ATOM     26  C   UNL d   1      -6.173  -0.181   0.005  0.00  0.00     0.048 C 
ENDROOT
TORSDOF 0
