REMARK  4 active torsions:
REMARK  status: ('A' for Active; 'I' for Inactive)
REMARK    1  A    between atoms: C_2  and  C_1 
REMARK       I    between atoms: N_9  and  C_2 
REMARK    2  A    between atoms: C_4  and  N_9 
REMARK    3  A    between atoms: C_16  and  C_7 
REMARK    4  A    between atoms: C_20  and  C_8 
ROOT
ATOM      1  C   UNL d   1       0.171  -2.646   0.338  0.00  0.00     0.262 C 
ATOM      2  N   UNL d   1      -0.435  -3.691  -0.323  0.00  0.00    -0.302 N 
ATOM      3  O   UNL d   1       1.084  -2.758   1.152  0.00  0.00    -0.267 OA
ATOM      4  H   UNL d   1      -1.199  -3.546  -0.965  0.00  0.00     0.171 HD
ENDROOT
BRANCH   1   5
ATOM      5  C   UNL d   1      -0.298  -1.321  -0.017  0.00  0.00     0.093 C 
ATOM      6  C   UNL d   1      -1.589  -0.696  -0.107  0.00  0.00     0.083 C 
ATOM      7  N   UNL d   1      -1.433   0.578  -0.521  0.00  0.00    -0.259 N 
ATOM      8  O   UNL d   1      -0.092   0.835  -0.567  0.00  0.00    -0.241 OA
ATOM      9  HN  UNL d   1      -2.180   1.231  -0.757  1.00  0.00     0.195 HD
ATOM     10  C   UNL d   1       0.590  -0.279  -0.229  0.00  0.00     0.090 C 
ATOM     11  C   UNL d   1       2.059  -0.142  -0.157  0.00  0.00     0.080 C 
BRANCH   6  12
ATOM     12  C   UNL d   1      -2.958  -1.156   0.212  0.00  0.00    -0.006 A 
ATOM     13  C   UNL d   1      -4.035  -0.254   0.067  0.00  0.00     0.014 A 
ATOM     14  C   UNL d   1      -5.346  -0.608   0.395  0.00  0.00     0.001 A 
ATOM     15  C   UNL d   1      -5.618  -1.886   0.861  0.00  0.00     0.000 A 
ATOM     16  C   UNL d   1      -4.576  -2.795   1.020  0.00  0.00     0.001 A 
ATOM     17  C   UNL d   1      -3.256  -2.426   0.720  0.00  0.00     0.014 A 
ENDBRANCH   6  12
ENDBRANCH   1   5
BRANCH   2  18
ATOM     18  C   UNL d   1      -0.094  -4.981   0.008  0.00  0.00     0.168 A 
ATOM     19  S   UNL d   1      -1.146  -6.212  -0.541  0.00  0.00    -0.037 SA
ATOM     20  C   UNL d   1      -0.262  -7.290   0.468  0.00  0.00     0.074 A 
ATOM     21  N   UNL d   1       0.810  -6.754   1.009  0.00  0.00    -0.296 N 
ATOM     22  N   UNL d   1       0.898  -5.406   0.750  0.00  0.00    -0.279 N 
ATOM     23  HN  UNL d   1       1.494  -7.276   1.557  1.00  0.00     0.187 HD
ATOM     24  HN  UNL d   1       1.649  -4.808   1.095  1.00  0.00     0.189 HD
BRANCH  20  25
ATOM     25  C   UNL d   1      -0.632  -8.727   0.832  0.00  0.00     0.044 A 
ATOM     26  C   UNL d   1      -1.287  -9.668  -0.150  0.00  0.00     0.012 A 
ATOM     27  C   UNL d   1      -2.097  -9.096   0.963  0.00  0.00     0.012 A 
ENDBRANCH  20  25
ENDBRANCH   2  18
TORSDOF 4
