REMARK  4 active torsions:
REMARK  status: ('A' for Active; 'I' for Inactive)
REMARK    1  A    between atoms: C_4  and  C_2 
REMARK    2  A    between atoms: C_9  and  C_3 
REMARK    3  A    between atoms: O_8  and  C_4 
REMARK    4  A    between atoms: C_7  and  O_8 
ROOT
ATOM      1  S   UNL d   1      -0.905   0.034  -0.493  0.00  0.00    -0.082 SA
ATOM      2  C   UNL d   1       0.252   1.261  -0.222  0.00  0.00     0.081 A 
ATOM      3  C   UNL d   1       0.216  -1.226  -0.166  0.00  0.00     0.032 A 
ATOM      4  C   UNL d   1       1.502   0.719   0.010  0.00  0.00     0.026 A 
ATOM      5  C   UNL d   1       1.484  -0.703   0.024  0.00  0.00     0.023 A 
ENDROOT
BRANCH   2   6
ATOM      6  C   UNL d   1      -0.081   2.676  -0.194  0.00  0.00     0.305 C 
ATOM      7  O   UNL d   1       0.702   3.549   0.167  0.00  0.00    -0.258 OA
BRANCH   6   8
ATOM      8  O   UNL d   1      -1.404   2.904  -0.584  0.00  0.00    -0.274 OA
BRANCH   8   9
ATOM      9  C   UNL d   1      -2.019   4.169  -0.446  0.00  0.00     0.082 A 
ATOM     10  C   UNL d   1      -1.345   5.381  -0.584  0.00  0.00     0.061 A 
ATOM     11  C   UNL d   1      -2.040   6.573  -0.376  0.00  0.00     0.038 A 
ATOM     12 CL   UNL d   1      -1.207   8.075  -0.492  0.00  0.00    -0.084 Cl
ATOM     13  C   UNL d   1      -3.399   6.563  -0.069  0.00  0.00     0.048 A 
ATOM     14  C   UNL d   1      -4.069   5.345   0.020  0.00  0.00     0.038 A 
ATOM     15  C   UNL d   1      -3.387   4.144  -0.171  0.00  0.00     0.061 A 
ATOM     16 CL   UNL d   1      -5.751   5.322   0.378  0.00  0.00    -0.084 Cl
ENDBRANCH   8   9
ENDBRANCH   6   8
ENDBRANCH   2   6
BRANCH   3  17
ATOM     17  C   UNL d   1      -0.191  -2.640  -0.104  0.00  0.00     0.049 A 
ATOM     18  N   UNL d   1       0.837  -3.518  -0.224  0.00  0.00    -0.365 N 
ATOM     19  C   UNL d   1       0.556  -4.833  -0.094  0.00  0.00     0.088 A 
ATOM     20  HN  UNL d   1       1.788  -3.196  -0.404  1.00  0.00     0.165 HD
ATOM     21  C   UNL d   1      -0.711  -5.328   0.162  0.00  0.00     0.017 A 
ATOM     22  C   UNL d   1      -1.755  -4.420   0.282  0.00  0.00     0.004 A 
ATOM     23  C   UNL d   1      -1.496  -3.058   0.145  0.00  0.00     0.031 A 
ENDBRANCH   3  17
TORSDOF 4
