REMARK  5 active torsions:
REMARK  status: ('A' for Active; 'I' for Inactive)
REMARK    1  A    between atoms: S_2  and  C_1 
REMARK    2  A    between atoms: N_16  and  S_2 
REMARK    3  A    between atoms: N_11  and  C_21 
REMARK    4  A    between atoms: C_20  and  N_16 
REMARK    5  A    between atoms: C_21  and  C_20 
ROOT
ATOM      1  S   UNL d   1      -3.526  -2.818   1.282  0.00  0.00     0.261 S 
ATOM      2  O   UNL d   1      -4.956  -3.024   1.202  0.00  0.00    -0.200 OA
ATOM      3  O   UNL d   1      -2.969  -1.490   1.221  0.00  0.00    -0.200 OA
ENDROOT
BRANCH   1   4
ATOM      4  C   UNL d   1      -2.943  -3.586   2.739  0.00  0.00     0.110 A 
ATOM      5  C   UNL d   1      -1.575  -3.651   3.047  0.00  0.00     0.108 A 
ATOM      6  C   UNL d   1      -1.099  -4.320   4.251  0.00  0.00     0.086 A 
ATOM      7  N   UNL d   1      -0.505  -3.201   2.376  0.00  0.00    -0.238 N 
ATOM      8  N   UNL d   1       0.235  -4.224   4.287  0.00  0.00    -0.239 N 
ATOM      9  C   UNL d   1      -1.971  -4.943   5.164  0.00  0.00     0.034 A 
ATOM     10  O   UNL d   1       0.596  -3.536   3.143  0.00  0.00    -0.156 OA
ATOM     11  HN  UNL d   1       0.857  -4.585   5.010  1.00  0.00     0.197 HD
ATOM     12  C   UNL d   1      -3.334  -4.884   4.816  0.00  0.00     0.004 A 
ATOM     13  C   UNL d   1      -3.808  -4.229   3.650  0.00  0.00     0.028 A 
ATOM     14  HN  UNL d   1      -0.503  -2.711   1.482  1.00  0.00     0.197 HD
ENDBRANCH   1   4
BRANCH   1  15
ATOM     15  N   UNL d   1      -2.806  -3.718   0.050  0.00  0.00    -0.314 N 
ATOM     16  H   UNL d   1      -1.871  -3.356  -0.149  0.00  0.00     0.172 HD
BRANCH  15  17
ATOM     17  C   UNL d   1      -2.923  -5.188   0.047  0.00  0.00     0.152 C 
BRANCH  17  18
ATOM     18  C   UNL d   1      -4.364  -5.710   0.018  0.00  0.00     0.148 C 
BRANCH  18  19
ATOM     19  N   UNL d   1      -4.395  -7.159   0.046  0.00  0.00    -0.331 N 
ATOM     20  C   UNL d   1      -4.022  -7.897   1.168  0.00  0.00     0.318 C 
ATOM     21  N   UNL d   1      -4.413  -9.207   0.947  0.00  0.00    -0.341 N 
ATOM     22  O   UNL d   1      -3.450  -7.489   2.163  0.00  0.00    -0.247 OA
ATOM     23  C   UNL d   1      -4.898  -9.365  -0.397  0.00  0.00     0.144 C 
ATOM     24  H   UNL d   1      -4.077  -9.942   1.556  0.00  0.00     0.164 HD
ATOM     25  C   UNL d   1      -5.269  -7.944  -0.795  0.00  0.00     0.147 C 
ENDBRANCH  18  19
ENDBRANCH  17  18
ENDBRANCH  15  17
ENDBRANCH   1  15
TORSDOF 5
