REMARK  2 active torsions:
REMARK  status: ('A' for Active; 'I' for Inactive)
REMARK    1  A    between atoms: C_10  and  N_1 
REMARK    2  A    between atoms: C_8  and  C_5 
ROOT
ATOM      1  N   UNL d   1       2.321  -0.643  -0.045  0.00  0.00    -0.220 N 
ATOM      2  N   UNL d   1       2.292   0.732   0.051  0.00  0.00    -0.289 N 
ATOM      3  HN  UNL d   1       3.168   1.251   0.123  1.00  0.00     0.188 HD
ATOM      4  C   UNL d   1       1.168  -1.431   0.019  0.00  0.00     0.278 C 
ATOM      5  C   UNL d   1       1.162   1.375   0.050  0.00  0.00     0.070 C 
ATOM      6  C   UNL d   1      -0.118  -0.714  -0.014  0.00  0.00     0.046 A 
ATOM      7  C   UNL d   1      -0.139   0.674  -0.091  0.00  0.00     0.009 A 
ATOM      8  O   UNL d   1       1.123  -2.660   0.094  0.00  0.00    -0.265 OA
ATOM      9  C   UNL d   1      -1.317  -1.447  -0.032  0.00  0.00     0.018 A 
ATOM     10  C   UNL d   1      -1.367   1.318  -0.305  0.00  0.00     0.015 A 
ATOM     11  C   UNL d   1      -2.538  -0.792  -0.163  0.00  0.00     0.001 A 
ATOM     12  C   UNL d   1      -2.561   0.590  -0.321  0.00  0.00     0.001 A 
ENDROOT
BRANCH   5  13
ATOM     13  C   UNL d   1       1.246   2.866   0.205  0.00  0.00    -0.007 A 
ATOM     14  C   UNL d   1       2.311   3.549  -0.400  0.00  0.00     0.021 A 
ATOM     15  C   UNL d   1       2.439   4.945  -0.285  0.00  0.00    -0.055 A 
ATOM     16  C   UNL d   1       3.634   5.629  -0.894  0.00  0.00     0.049 C 
ATOM     17  C   UNL d   1       1.462   5.672   0.422  0.00  0.00    -0.056 A 
ATOM     18  C   UNL d   1       0.429   4.978   1.069  0.00  0.00     0.008 A 
ATOM     19  C   UNL d   1       1.524   7.171   0.538  0.00  0.00     0.049 C 
ATOM     20  C   UNL d   1       0.340   3.586   0.988  0.00  0.00     0.014 A 
ENDBRANCH   5  13
BRANCH   1  21
ATOM     21  C   UNL d   1       3.642  -1.194  -0.172  0.00  0.00     0.060 A 
ATOM     22  C   UNL d   1       3.868  -2.479  -0.692  0.00  0.00     0.031 A 
ATOM     23  C   UNL d   1       5.162  -2.998  -0.815  0.00  0.00     0.002 A 
ATOM     24  C   UNL d   1       6.259  -2.243  -0.413  0.00  0.00     0.000 A 
ATOM     25  C   UNL d   1       6.063  -0.963   0.096  0.00  0.00     0.002 A 
ATOM     26  C   UNL d   1       4.769  -0.440   0.202  0.00  0.00     0.031 A 
ENDBRANCH   1  21
TORSDOF 2
