REMARK  6 active torsions:
REMARK  status: ('A' for Active; 'I' for Inactive)
REMARK    1  A    between atoms: C_5  and  C_1 
REMARK    2  A    between atoms: C_8  and  C_2 
REMARK       I    between atoms: N_12  and  C_8 
REMARK    3  A    between atoms: C_21  and  N_12 
REMARK    4  A    between atoms: C_13  and  S_14 
REMARK    5  A    between atoms: S_14  and  C_25 
REMARK    6  A    between atoms: C_25  and  C_21 
ROOT
ATOM      1  C   UNL d   1      -1.153  -0.884   0.547  0.00  0.00     0.086 A 
ATOM      2  C   UNL d   1       0.037  -1.330  -0.126  0.00  0.00     0.092 A 
ATOM      3  N   UNL d   1      -1.079   0.442   0.758  0.00  0.00    -0.259 N 
ATOM      4  HN  UNL d   1      -1.762   1.016   1.253  1.00  0.00     0.195 HD
ATOM      5  O   UNL d   1       0.086   0.877   0.184  0.00  0.00    -0.241 OA
ATOM      6  C   UNL d   1       0.766  -0.176  -0.331  0.00  0.00     0.090 A 
ATOM      7  C   UNL d   1       2.050   0.168  -0.973  0.00  0.00     0.080 C 
ENDROOT
BRANCH   2   8
ATOM      8  C   UNL d   1       0.407  -2.673  -0.529  0.00  0.00     0.256 C 
ATOM      9  O   UNL d   1      -0.392  -3.449  -1.028  0.00  0.00    -0.267 OA
ATOM     10  N   UNL d   1       1.714  -3.017  -0.220  0.00  0.00    -0.356 N 
ATOM     11  H   UNL d   1       2.185  -2.434   0.463  0.00  0.00     0.162 HD
BRANCH  10  12
ATOM     12  C   UNL d   1       2.121  -4.410  -0.240  0.00  0.00     0.133 C 
BRANCH  12  13
ATOM     13  C   UNL d   1       3.630  -4.604  -0.054  0.00  0.00     0.094 C 
BRANCH  13  14
ATOM     14  S   UNL d   1       4.196  -3.961   1.568  0.00  0.00    -0.159 SA
BRANCH  14  15
ATOM     15  C   UNL d   1       6.004  -4.383   1.546  0.00  0.00    -0.003 C 
ATOM     16  C   UNL d   1       6.719  -3.588   0.448  0.00  0.00     0.026 C 
ATOM     17  C   UNL d   1       6.579  -3.973   2.913  0.00  0.00     0.026 C 
ATOM     18  C   UNL d   1       6.224  -5.889   1.355  0.00  0.00     0.026 C 
ENDBRANCH  14  15
ENDBRANCH  13  14
ENDBRANCH  12  13
ENDBRANCH  10  12
ENDBRANCH   2   8
BRANCH   1  19
ATOM     19  C   UNL d   1      -2.313  -1.639   1.053  0.00  0.00     0.037 A 
ATOM     20  C   UNL d   1      -2.164  -2.811   1.825  0.00  0.00     0.048 A 
ATOM     21 CL   UNL d   1      -0.631  -3.405   2.380  0.00  0.00    -0.083 Cl
ATOM     22  C   UNL d   1      -3.280  -3.529   2.286  0.00  0.00     0.025 A 
ATOM     23  C   UNL d   1      -4.567  -3.056   2.064  0.00  0.00     0.003 A 
ATOM     24  C   UNL d   1      -4.742  -1.871   1.360  0.00  0.00     0.025 A 
ATOM     25  C   UNL d   1      -3.635  -1.181   0.837  0.00  0.00     0.048 A 
ATOM     26 CL   UNL d   1      -4.023   0.238  -0.085  0.00  0.00    -0.083 Cl
ENDBRANCH   1  19
TORSDOF 6
