REMARK  4 active torsions:
REMARK  status: ('A' for Active; 'I' for Inactive)
REMARK    1  A    between atoms: N_2  and  S_1 
REMARK    2  A    between atoms: C_5  and  S_1 
REMARK    3  A    between atoms: S_4  and  N_2 
REMARK    4  A    between atoms: C_13  and  S_4 
ROOT
ATOM      1  N   UNL d   1       0.562   0.455  -1.445  0.00  0.00    -0.236 N 
ATOM      2  HN  UNL d   1       0.202  -0.286  -2.047  1.00  0.00     0.189 HD
ENDROOT
BRANCH   1   3
ATOM      3  S   UNL d   1       0.890   0.120   0.177  0.00  0.00     0.276 S 
ATOM      4  O   UNL d   1       2.032   0.883   0.636  0.00  0.00    -0.199 OA
ATOM      5  O   UNL d   1       0.855  -1.320   0.360  0.00  0.00    -0.199 OA
BRANCH   3   6
ATOM      6  C   UNL d   1      -0.480   0.728   1.138  0.00  0.00     0.122 A 
ATOM      7  S   UNL d   1      -2.008   0.027   0.795  0.00  0.00    -0.064 SA
ATOM      8  C   UNL d   1      -2.760   0.965   1.986  0.00  0.00     0.075 A 
ATOM      9 CL   UNL d   1      -4.445   0.792   2.268  0.00  0.00    -0.076 Cl
ATOM     10  C   UNL d   1      -1.904   1.815   2.636  0.00  0.00     0.033 A 
ATOM     11  C   UNL d   1      -0.573   1.679   2.140  0.00  0.00     0.035 A 
ENDBRANCH   3   6
ENDBRANCH   1   3
BRANCH   1  12
ATOM     12  S   UNL d   1       0.816   1.966  -2.075  0.00  0.00     0.061 S 
ATOM     13  O   UNL d   1       0.299   3.020  -1.236  0.00  0.00    -0.244 OA
ATOM     14  C   UNL d   1       0.011   1.952  -3.651  0.00  0.00     0.143 C 
BRANCH  12  15
ATOM     15  C   UNL d   1       2.530   2.109  -2.364  0.00  0.00     0.038 A 
ATOM     16  C   UNL d   1       3.171   1.159  -3.164  0.00  0.00     0.022 A 
ATOM     17  C   UNL d   1       4.531   1.298  -3.438  0.00  0.00     0.001 A 
ATOM     18  C   UNL d   1       5.241   2.376  -2.911  0.00  0.00     0.000 A 
ATOM     19  C   UNL d   1       4.597   3.313  -2.100  0.00  0.00     0.001 A 
ATOM     20  C   UNL d   1       3.237   3.181  -1.822  0.00  0.00     0.022 A 
ENDBRANCH  12  15
ENDBRANCH   1  12
TORSDOF 4
