REMARK  2 active torsions:
REMARK  status: ('A' for Active; 'I' for Inactive)
REMARK    1  A    between atoms: N_7  and  C_2 
REMARK    2  A    between atoms: C_8  and  C_5 
ROOT
ATOM      1  C   UNL d   1      -0.624   1.262   0.079  0.00  0.00     0.136 A 
ATOM      2  C   UNL d   1      -1.395   0.150   0.002  0.00  0.00     0.060 A 
ATOM      3  C   UNL d   1      -0.691  -1.124  -0.064  0.00  0.00     0.069 A 
ATOM      4  C   UNL d   1       0.865   1.195   0.071  0.00  0.00     0.312 A 
ATOM      5  C   UNL d   1       0.645  -1.202  -0.019  0.00  0.00     0.092 A 
ATOM      6  O   UNL d   1       1.439  -0.045   0.056  0.00  0.00    -0.273 OA
ATOM      7  O   UNL d   1       1.571   2.201   0.092  0.00  0.00    -0.258 OA
ATOM      8 CL   UNL d   1      -1.273   2.859   0.297  0.00  0.00    -0.075 Cl
ENDROOT
BRANCH   5   9
ATOM      9  C   UNL d   1       1.400  -2.475   0.006  0.00  0.00    -0.002 A 
ATOM     10  C   UNL d   1       0.911  -3.640  -0.612  0.00  0.00     0.015 A 
ATOM     11  C   UNL d   1       1.623  -4.845  -0.542  0.00  0.00     0.020 A 
ATOM     12  C   UNL d   1       2.839  -4.891   0.134  0.00  0.00     0.011 A 
ATOM     13  C   UNL d   1       3.354  -3.744   0.731  0.00  0.00     0.020 A 
ATOM     14 BR   UNL d   1       3.791  -6.521   0.244  0.00  0.00    -0.051 Br
ATOM     15  C   UNL d   1       2.637  -2.545   0.663  0.00  0.00     0.015 A 
ENDBRANCH   5   9
BRANCH   2  16
ATOM     16  N   UNL d   1      -2.803   0.079  -0.007  0.00  0.00    -0.388 N 
ATOM     17  C   UNL d   1      -3.661   1.056  -0.685  0.00  0.00     0.149 C 
ATOM     18  C   UNL d   1      -3.566  -1.000   0.630  0.00  0.00     0.149 C 
ENDBRANCH   2  16
TORSDOF 2
