REMARK  3 active torsions:
REMARK  status: ('A' for Active; 'I' for Inactive)
REMARK    1  A    between atoms: C_6  and  N_1 
REMARK    2  A    between atoms: N_13  and  C_2 
REMARK    3  A    between atoms: C_10  and  C_3 
ROOT
ATOM      1  N   UNL d   1       1.007  -0.603  -0.041  0.00  0.00    -0.240 N 
ATOM      2  C   UNL d   1       1.020   0.799   0.034  0.00  0.00     0.133 C 
ATOM      3  C   UNL d   1      -0.309   1.196   0.019  0.00  0.00     0.036 C 
ATOM      4  N   UNL d   1      -0.243  -1.073  -0.295  0.00  0.00    -0.302 N 
ATOM      5  HN  UNL d   1      -0.518  -2.030  -0.517  1.00  0.00     0.186 HD
ATOM      6  C   UNL d   1      -1.025  -0.002  -0.191  0.00  0.00     0.123 C 
ENDROOT
BRANCH   1   7
ATOM      7  C   UNL d   1       2.091  -1.519   0.065  0.00  0.00     0.061 A 
ATOM      8  C   UNL d   1       3.235  -1.205   0.809  0.00  0.00     0.055 A 
ATOM      9  C   UNL d   1       4.288  -2.120   0.877  0.00  0.00     0.037 A 
ATOM     10 CL   UNL d   1       5.687  -1.736   1.804  0.00  0.00    -0.084 Cl
ATOM     11  C   UNL d   1       4.219  -3.338   0.207  0.00  0.00     0.048 A 
ATOM     12  C   UNL d   1       3.071  -3.655  -0.514  0.00  0.00     0.037 A 
ATOM     13  C   UNL d   1       2.000  -2.765  -0.575  0.00  0.00     0.055 A 
ATOM     14 CL   UNL d   1       2.984  -5.153  -1.357  0.00  0.00    -0.084 Cl
ENDBRANCH   1   7
BRANCH   2  15
ATOM     15  N   UNL d   1       2.164   1.548   0.018  0.00  0.00    -0.383 N 
ATOM     16  H   UNL d   1       3.011   1.150  -0.383  0.00  0.00     0.157 HD
ATOM     17  H   UNL d   1       2.079   2.528  -0.251  0.00  0.00     0.157 HD
ENDBRANCH   2  15
BRANCH   3  18
ATOM     18  C   UNL d   1      -0.802   2.570   0.054  0.00  0.00    -0.021 A 
ATOM     19  C   UNL d   1      -1.938   2.924  -0.691  0.00  0.00     0.014 A 
ATOM     20  C   UNL d   1      -2.401   4.243  -0.707  0.00  0.00     0.024 A 
ATOM     21  C   UNL d   1      -1.730   5.221   0.022  0.00  0.00     0.034 A 
ATOM     22  C   UNL d   1      -0.616   4.886   0.786  0.00  0.00     0.024 A 
ATOM     23 CL   UNL d   1      -2.279   6.850  -0.024  0.00  0.00    -0.084 Cl
ATOM     24  C   UNL d   1      -0.164   3.562   0.814  0.00  0.00     0.014 A 
ENDBRANCH   3  18
TORSDOF 3
