REMARK  6 active torsions:
REMARK  status: ('A' for Active; 'I' for Inactive)
REMARK    1  A    between atoms: C_5  and  C_1 
REMARK    2  A    between atoms: C_7  and  C_2 
REMARK    3  A    between atoms: O_11  and  C_7 
REMARK    4  A    between atoms: N_9  and  O_11 
REMARK    5  A    between atoms: O_18  and  C_14 
REMARK    6  A    between atoms: C_24  and  O_18 
ROOT
ATOM      1  C   UNL d   1      -1.398  -0.703   0.223  0.00  0.00     0.087 A 
ATOM      2  C   UNL d   1      -0.115  -1.319   0.010  0.00  0.00     0.102 A 
ATOM      3  N   UNL d   1      -1.258   0.622   0.393  0.00  0.00    -0.259 N 
ATOM      4  HN  UNL d   1      -2.001   1.291   0.590  1.00  0.00     0.195 HD
ATOM      5  O   UNL d   1       0.074   0.902   0.252  0.00  0.00    -0.241 OA
ATOM      6  C   UNL d   1       0.757  -0.244   0.038  0.00  0.00     0.091 A 
ATOM      7  C   UNL d   1       2.223  -0.063  -0.104  0.00  0.00     0.080 C 
ENDROOT
BRANCH   2   8
ATOM      8  C   UNL d   1       0.308  -2.703  -0.133  0.00  0.00     0.320 C 
ATOM      9  O   UNL d   1       1.478  -3.053  -0.002  0.00  0.00    -0.257 OA
BRANCH   8  10
ATOM     10  O   UNL d   1      -0.718  -3.586  -0.411  0.00  0.00    -0.193 OA
BRANCH  10  11
ATOM     11  N   UNL d   1      -0.528  -4.727   0.402  0.00  0.00    -0.239 N 
ATOM     12  C   UNL d   1      -0.930  -5.830  -0.138  0.00  0.00     0.134 C 
ATOM     13  C   UNL d   1      -0.893  -7.076   0.697  0.00  0.00     0.099 C 
ATOM     14  HN  UNL d   1      -0.111  -4.684   1.332  1.00  0.00     0.197 HD
BRANCH  12  15
ATOM     15  O   UNL d   1      -1.365  -5.904  -1.413  0.00  0.00    -0.338 OA
BRANCH  15  16
ATOM     16  C   UNL d   1      -1.829  -7.154  -1.964  0.00  0.00     0.172 C 
ATOM     17  C   UNL d   1      -1.598  -7.158  -3.461  0.00  0.00     0.034 C 
ENDBRANCH  15  16
ENDBRANCH  12  15
ENDBRANCH  10  11
ENDBRANCH   8  10
ENDBRANCH   2   8
BRANCH   1  18
ATOM     18  C   UNL d   1      -2.751  -1.269   0.326  0.00  0.00     0.037 A 
ATOM     19  C   UNL d   1      -3.075  -2.239   1.292  0.00  0.00     0.048 A 
ATOM     20 CL   UNL d   1      -1.965  -2.743   2.524  0.00  0.00    -0.083 Cl
ATOM     21  C   UNL d   1      -4.367  -2.781   1.367  0.00  0.00     0.025 A 
ATOM     22  C   UNL d   1      -5.382  -2.304   0.543  0.00  0.00     0.003 A 
ATOM     23  C   UNL d   1      -5.104  -1.289  -0.365  0.00  0.00     0.025 A 
ATOM     24  C   UNL d   1      -3.800  -0.788  -0.491  0.00  0.00     0.048 A 
ATOM     25 CL   UNL d   1      -3.581   0.440  -1.697  0.00  0.00    -0.083 Cl
ENDBRANCH   1  18
TORSDOF 6
