REMARK  2 active torsions:
REMARK  status: ('A' for Active; 'I' for Inactive)
REMARK    1  A    between atoms: C_7  and  N_1 
REMARK    2  A    between atoms: O_8  and  C_2 
ROOT
ATOM      1  N   UNL d   1       0.909  -0.662   0.045  0.00  0.00    -0.234 N 
ATOM      2  C   UNL d   1       0.746   0.617   0.576  0.00  0.00     0.163 C 
ATOM      3  N   UNL d   1      -0.260  -1.135  -0.464  0.00  0.00    -0.296 N 
ATOM      4  HN  UNL d   1      -0.398  -1.963  -1.043  1.00  0.00     0.187 HD
ATOM      5  C   UNL d   1      -0.611   0.844   0.598  0.00  0.00     0.083 C 
ATOM      6  C   UNL d   1      -1.188  -0.272  -0.037  0.00  0.00     0.026 C 
ATOM      7  C   UNL d   1      -2.628  -0.529  -0.277  0.00  0.00     0.070 C 
ENDROOT
BRANCH   1   8
ATOM      8  C   UNL d   1       2.080  -1.469   0.023  0.00  0.00     0.059 A 
ATOM      9  C   UNL d   1       3.086  -1.297   0.982  0.00  0.00     0.032 A 
ATOM     10  C   UNL d   1       4.218  -2.117   0.962  0.00  0.00     0.009 A 
ATOM     11  C   UNL d   1       4.363  -3.106  -0.017  0.00  0.00    -0.062 A 
ATOM     12  C   UNL d   1       3.347  -3.285  -0.963  0.00  0.00     0.009 A 
ATOM     13  C   UNL d   1       5.574  -3.992  -0.008  0.00  0.00     0.048 C 
ATOM     14  C   UNL d   1       2.204  -2.481  -0.936  0.00  0.00     0.032 A 
ENDBRANCH   1   8
BRANCH   2  15
ATOM     15  O   UNL d   1       1.733   1.437   0.946  0.00  0.00    -0.345 OA
ATOM     16  H   UNL d   1       2.547   1.169   0.480  0.00  0.00     0.219 HD
ENDBRANCH   2  15
TORSDOF 2
