REMARK  7 active torsions:
REMARK  status: ('A' for Active; 'I' for Inactive)
REMARK    1  A    between atoms: O_10  and  C_1 
REMARK    2  A    between atoms: C_6  and  C_2 
REMARK    3  A    between atoms: C_12  and  C_3 
REMARK    4  A    between atoms: O_7  and  C_5 
REMARK    5  A    between atoms: C_11  and  O_7 
REMARK    6  A    between atoms: C_13  and  C_11 
REMARK    7  A    between atoms: C_17  and  C_12 
ROOT
ATOM      1  C   UNL d   1      -1.243   1.272  -0.094  0.00  0.00     0.088 C 
ATOM      2  C   UNL d   1      -2.058   0.132  -0.145  0.00  0.00     0.043 C 
ATOM      3  C   UNL d   1       0.184   1.200  -0.001  0.00  0.00     0.009 C 
ATOM      4  C   UNL d   1      -1.451  -1.113  -0.177  0.00  0.00     0.021 C 
ATOM      5  C   UNL d   1       0.766  -0.082   0.085  0.00  0.00     0.078 C 
ATOM      6  C   UNL d   1      -0.065  -1.211  -0.090  0.00  0.00     0.038 C 
ENDROOT
BRANCH   5   7
ATOM      7  O   UNL d   1       2.109  -0.219   0.400  0.00  0.00    -0.346 OA
BRANCH   7   8
ATOM      8  C   UNL d   1       2.495  -1.572   0.709  0.00  0.00     0.214 C 
BRANCH   8   9
ATOM      9  C   UNL d   1       3.794  -1.825   1.446  0.00  0.00    -0.034 A 
ATOM     10  C   UNL d   1       4.586  -0.822   1.996  0.00  0.00     0.009 A 
ATOM     11  C   UNL d   1       5.700  -1.167   2.775  0.00  0.00     0.001 A 
ATOM     12  C   UNL d   1       6.016  -2.508   3.012  0.00  0.00     0.000 A 
ATOM     13  C   UNL d   1       5.237  -3.515   2.457  0.00  0.00     0.001 A 
ATOM     14  C   UNL d   1       4.136  -3.171   1.673  0.00  0.00     0.009 A 
ENDBRANCH   8   9
ENDBRANCH   7   8
ENDBRANCH   5   7
BRANCH   3  15
ATOM     15  C   UNL d   1       0.904   2.541   0.016  0.00  0.00     0.044 C 
BRANCH  15  16
ATOM     16  C   UNL d   1       2.409   2.717   0.232  0.00  0.00     0.000 C 
ATOM     17  C   UNL d   1       3.258   2.443  -0.999  0.00  0.00     0.005 C 
ENDBRANCH  15  16
ENDBRANCH   3  15
BRANCH   1  18
ATOM     18  O   UNL d   1      -1.809   2.525  -0.071  0.00  0.00    -0.359 OA
ATOM     19  H   UNL d   1      -2.391   2.565   0.707  0.00  0.00     0.217 HD
ENDBRANCH   1  18
BRANCH   2  20
ATOM     20  C   UNL d   1      -3.546   0.132  -0.133  0.00  0.00     0.158 C 
ATOM     21  O   UNL d   1      -4.136  -0.747   0.490  0.00  0.00    -0.293 OA
ATOM     22  C   UNL d   1      -4.311   1.173  -0.890  0.00  0.00     0.097 C 
ENDBRANCH   2  20
TORSDOF 7
