REMARK  4 active torsions:
REMARK  status: ('A' for Active; 'I' for Inactive)
REMARK    1  A    between atoms: C_12  and  N_3 
REMARK    2  A    between atoms: C_8  and  C_4 
REMARK       I    between atoms: N_10  and  C_8 
REMARK       I    between atoms: C_9  and  N_11 
REMARK    3  A    between atoms: C_13  and  C_9 
REMARK    4  A    between atoms: N_11  and  N_10 
ROOT
ATOM      1  C   UNL d   1      -2.518   0.117  -0.285  0.00  0.00     0.290 C 
ATOM      2  N   UNL d   1      -3.070  -1.121  -0.542  0.00  0.00    -0.262 N 
ATOM      3  O   UNL d   1      -3.226   1.121  -0.170  0.00  0.00    -0.264 OA
ATOM      4  H   UNL d   1      -2.501  -1.961  -0.644  0.00  0.00     0.190 HD
ENDROOT
BRANCH   1   5
ATOM      5  C   UNL d   1      -1.062   0.141  -0.144  0.00  0.00     0.143 A 
ATOM      6  N   UNL d   1      -0.286  -0.962  -0.215  0.00  0.00    -0.272 N 
ATOM      7  N   UNL d   1       0.966  -0.457  -0.017  0.00  0.00    -0.196 N 
ATOM      8  HN  UNL d   1      -0.566  -1.929  -0.377  1.00  0.00     0.189 HD
ATOM      9  N   UNL d   1       1.037   0.879   0.201  0.00  0.00    -0.281 N 
ATOM     10  C   UNL d   1      -0.235   1.269   0.086  0.00  0.00     0.057 A 
ATOM     11  HN  UNL d   1       1.860   1.447   0.403  1.00  0.00     0.189 HD
ATOM     12  C   UNL d   1      -0.567   2.709   0.179  0.00  0.00     0.072 C 
BRANCH   7  13
ATOM     13  C   UNL d   1       2.144  -1.249  -0.080  0.00  0.00     0.074 A 
ATOM     14  C   UNL d   1       2.080  -2.603  -0.431  0.00  0.00     0.033 A 
ATOM     15  C   UNL d   1       3.260  -3.346  -0.544  0.00  0.00     0.002 A 
ATOM     16  C   UNL d   1       4.497  -2.749  -0.295  0.00  0.00     0.000 A 
ATOM     17  C   UNL d   1       4.563  -1.407   0.075  0.00  0.00     0.002 A 
ATOM     18  C   UNL d   1       3.392  -0.657   0.182  0.00  0.00     0.033 A 
ENDBRANCH   7  13
ENDBRANCH   1   5
BRANCH   2  19
ATOM     19  N   UNL d   1      -4.469  -1.234  -0.598  0.00  0.00    -0.263 N 
ATOM     20  C   UNL d   1      -5.027  -2.387  -1.110  0.00  0.00     0.270 C 
ATOM     21  O   UNL d   1      -4.352  -3.341  -1.489  0.00  0.00    -0.266 OA
ATOM     22  H   UNL d   1      -4.986  -0.367  -0.469  0.00  0.00     0.190 HD
BRANCH  20  23
ATOM     23  C   UNL d   1      -6.519  -2.431  -1.196  0.00  0.00     0.033 A 
ATOM     24  C   UNL d   1      -7.346  -1.599  -0.426  0.00  0.00     0.019 A 
ATOM     25  C   UNL d   1      -8.739  -1.711  -0.518  0.00  0.00     0.025 A 
ATOM     26  C   UNL d   1      -9.309  -2.655  -1.372  0.00  0.00     0.034 A 
ATOM     27  C   UNL d   1      -8.498  -3.489  -2.138  0.00  0.00     0.025 A 
ATOM     28 CL   UNL d   1     -11.020  -2.800  -1.466  0.00  0.00    -0.084 Cl
ATOM     29  C   UNL d   1      -7.107  -3.379  -2.048  0.00  0.00     0.019 A 
ENDBRANCH  20  23
ENDBRANCH   2  19
TORSDOF 4
