REMARK  6 active torsions:
REMARK  status: ('A' for Active; 'I' for Inactive)
REMARK    1  A    between atoms: C_3  and  C_1 
REMARK    2  A    between atoms: C_2  and  C_4 
REMARK    3  A    between atoms: C_5  and  N_8 
REMARK    4  A    between atoms: N_7  and  C_6 
REMARK       I    between atoms: C_10  and  N_7 
REMARK       I    between atoms: N_8  and  C_9 
REMARK    5  A    between atoms: C_9  and  C_12 
REMARK    6  A    between atoms: C_11  and  C_10 
ROOT
ATOM      1  C   UNL d   1       1.321  -1.089   0.636  0.00  0.00     0.080 C 
ATOM      2  C   UNL d   1       1.908   0.085   0.354  0.00  0.00     0.080 C 
ENDROOT
BRANCH   1   3
ATOM      3  C   UNL d   1       1.213  -2.098  -0.446  0.00  0.00     0.245 C 
ATOM      4  N   UNL d   1       0.465  -3.201  -0.090  0.00  0.00    -0.323 N 
ATOM      5  H   UNL d   1       0.246  -3.290   0.895  0.00  0.00     0.169 HD
ATOM      6  O   UNL d   1       1.825  -1.955  -1.499  0.00  0.00    -0.268 OA
BRANCH   4   7
ATOM      7  C   UNL d   1       0.360  -4.386  -0.859  0.00  0.00     0.050 A 
ATOM      8  C   UNL d   1       0.338  -4.473  -2.263  0.00  0.00     0.074 A 
ATOM      9  C   UNL d   1       0.439  -5.753  -2.859  0.00  0.00     0.018 A 
ATOM     10  C   UNL d   1       0.462  -6.917  -2.093  0.00  0.00     0.001 A 
ATOM     11  C   UNL d   1       0.360  -6.826  -0.713  0.00  0.00     0.002 A 
ATOM     12  C   UNL d   1       0.305  -5.573  -0.103  0.00  0.00     0.030 A 
BRANCH   8  13
ATOM     13  C   UNL d   1       0.086  -3.320  -3.211  0.00  0.00     0.419 C 
ATOM     14  F   UNL d   1      -0.479  -2.213  -2.653  0.00  0.00    -0.166 F 
ATOM     15  F   UNL d   1      -0.809  -3.685  -4.188  0.00  0.00    -0.166 F 
ATOM     16  F   UNL d   1       1.190  -2.919  -3.898  0.00  0.00    -0.166 F 
ENDBRANCH   8  13
ENDBRANCH   4   7
ENDBRANCH   1   3
BRANCH   2  17
ATOM     17  C   UNL d   1       2.191   1.052   1.438  0.00  0.00     0.245 C 
ATOM     18  N   UNL d   1       2.180   2.352   0.981  0.00  0.00    -0.323 N 
ATOM     19  H   UNL d   1       1.723   2.513   0.087  0.00  0.00     0.169 HD
ATOM     20  O   UNL d   1       2.368   0.675   2.588  0.00  0.00    -0.268 OA
BRANCH  18  21
ATOM     21  C   UNL d   1       2.619   3.491   1.695  0.00  0.00     0.050 A 
ATOM     22  C   UNL d   1       2.149   4.773   1.347  0.00  0.00     0.074 A 
ATOM     23  C   UNL d   1       2.648   5.899   2.036  0.00  0.00     0.018 A 
ATOM     24  C   UNL d   1       3.610   5.764   3.035  0.00  0.00     0.001 A 
ATOM     25  C   UNL d   1       4.075   4.499   3.370  0.00  0.00     0.002 A 
ATOM     26  C   UNL d   1       3.579   3.372   2.711  0.00  0.00     0.030 A 
BRANCH  22  27
ATOM     27  C   UNL d   1       1.060   5.006   0.332  0.00  0.00     0.419 C 
ATOM     28  F   UNL d   1       0.799   3.925  -0.461  0.00  0.00    -0.166 F 
ATOM     29  F   UNL d   1      -0.128   5.335   0.911  0.00  0.00    -0.166 F 
ATOM     30  F   UNL d   1       1.350   6.023  -0.528  0.00  0.00    -0.166 F 
ENDBRANCH  22  27
ENDBRANCH  18  21
ENDBRANCH   2  17
TORSDOF 6
