REMARK  4 active torsions:
REMARK  status: ('A' for Active; 'I' for Inactive)
REMARK    1  A    between atoms: C_12  and  N_2 
REMARK       I    between atoms: C_3  and  N_8 
REMARK    2  A    between atoms: C_5  and  C_3 
REMARK    3  A    between atoms: N_8  and  C_17 
REMARK    4  A    between atoms: C_17  and  C_12 
ROOT
ATOM      1  C   UNL d   1      -3.669  -3.956  -1.656  0.00  0.00     0.251 C 
ATOM      2  O   UNL d   1      -4.487  -3.040  -1.671  0.00  0.00    -0.268 OA
ATOM      3  N   UNL d   1      -2.382  -3.784  -1.197  0.00  0.00    -0.355 N 
ATOM      4  H   UNL d   1      -1.881  -4.592  -0.835  0.00  0.00     0.162 HD
ENDROOT
BRANCH   3   5
ATOM      5  C   UNL d   1      -1.941  -2.523  -0.626  0.00  0.00     0.143 C 
BRANCH   5   6
ATOM      6  C   UNL d   1      -2.611  -2.191   0.713  0.00  0.00     0.147 C 
BRANCH   6   7
ATOM      7  N   UNL d   1      -2.424  -3.156   1.792  0.00  0.00    -0.331 N 
ATOM      8  C   UNL d   1      -1.726  -4.361   1.772  0.00  0.00     0.318 C 
ATOM      9  N   UNL d   1      -1.890  -4.958   3.015  0.00  0.00    -0.341 N 
ATOM     10  O   UNL d   1      -1.107  -4.876   0.861  0.00  0.00    -0.247 OA
ATOM     11  C   UNL d   1      -2.922  -4.288   3.756  0.00  0.00     0.144 C 
ATOM     12  H   UNL d   1      -1.645  -5.935   3.108  0.00  0.00     0.164 HD
ATOM     13  C   UNL d   1      -2.973  -2.913   3.108  0.00  0.00     0.147 C 
ENDBRANCH   6   7
ENDBRANCH   5   6
ENDBRANCH   3   5
BRANCH   1  14
ATOM     14  C   UNL d   1      -4.057  -5.319  -2.134  0.00  0.00     0.032 A 
ATOM     15  C   UNL d   1      -3.140  -6.359  -2.327  0.00  0.00     0.017 A 
ATOM     16  C   UNL d   1      -3.571  -7.594  -2.831  0.00  0.00     0.007 A 
ATOM     17  C   UNL d   1      -4.920  -7.812  -3.137  0.00  0.00    -0.062 A 
ATOM     18  C   UNL d   1      -5.834  -6.771  -2.948  0.00  0.00     0.007 A 
ATOM     19  C   UNL d   1      -5.366  -9.142  -3.671  0.00  0.00     0.048 C 
ATOM     20  C   UNL d   1      -5.405  -5.537  -2.452  0.00  0.00     0.017 A 
ENDBRANCH   1  14
TORSDOF 4
