REMARK  3 active torsions:
REMARK  status: ('A' for Active; 'I' for Inactive)
REMARK    1  A    between atoms: C_8  and  N_1 
REMARK    2  A    between atoms: O_12  and  C_2 
REMARK    3  A    between atoms: N_6  and  C_9 
ROOT
ATOM      1  N   UNL d   1       0.871  -0.714   0.067  0.00  0.00    -0.234 N 
ATOM      2  C   UNL d   1      -0.411  -1.099  -0.322  0.00  0.00     0.163 C 
ATOM      3  N   UNL d   1       0.883   0.558   0.545  0.00  0.00    -0.296 N 
ATOM      4  HN  UNL d   1       1.646   1.037   1.024  1.00  0.00     0.187 HD
ATOM      5  C   UNL d   1      -1.181   0.037  -0.257  0.00  0.00     0.083 C 
ATOM      6  C   UNL d   1      -0.328   1.040   0.245  0.00  0.00     0.026 C 
ATOM      7  C   UNL d   1      -0.656   2.470   0.460  0.00  0.00     0.070 C 
ENDROOT
BRANCH   1   8
ATOM      8  C   UNL d   1       2.077  -1.461  -0.016  0.00  0.00     0.059 A 
ATOM      9  C   UNL d   1       2.246  -2.428  -1.018  0.00  0.00     0.034 A 
ATOM     10  C   UNL d   1       3.434  -3.158  -1.094  0.00  0.00     0.038 A 
ATOM     11  C   UNL d   1       4.451  -2.928  -0.158  0.00  0.00     0.103 A 
ATOM     12  C   UNL d   1       4.296  -1.950   0.836  0.00  0.00     0.038 A 
ATOM     13  C   UNL d   1       3.116  -1.202   0.891  0.00  0.00     0.034 A 
BRANCH  11  14
ATOM     14  N   UNL d   1       5.688  -3.715  -0.226  0.00  0.00    -0.116 N 
ATOM     15  O   UNL d   1       6.558  -3.496   0.629  0.00  0.00    -0.532 OA
ATOM     16  O   UNL d   1       5.786  -4.558  -1.128  0.00  0.00    -0.532 OA
ENDBRANCH  11  14
ENDBRANCH   1   8
BRANCH   2  17
ATOM     17  O   UNL d   1      -0.783  -2.337  -0.653  0.00  0.00    -0.345 OA
ATOM     18  H   UNL d   1      -0.144  -2.973  -0.282  0.00  0.00     0.219 HD
ENDBRANCH   2  17
TORSDOF 3
