REMARK  3 active torsions:
REMARK  status: ('A' for Active; 'I' for Inactive)
REMARK    1  A    between atoms: S_4  and  C_1 
REMARK    2  A    between atoms: C_7  and  C_2 
REMARK    3  A    between atoms: O_13  and  C_7 
ROOT
ATOM      1  C   UNL d   1      -0.059  -1.261   0.008  0.00  0.00     0.088 A 
ATOM      2  C   UNL d   1       0.208   1.064   0.012  0.00  0.00     0.103 A 
ATOM      3  C   UNL d   1      -0.707   0.019   0.009  0.00  0.00     0.079 A 
ATOM      4  S   UNL d   1       1.825   0.478   0.067  0.00  0.00    -0.093 SA
ATOM      5  C   UNL d   1       1.315  -1.144   0.019  0.00  0.00     0.075 A 
ATOM      6 CL   UNL d   1      -2.415   0.215   0.030  0.00  0.00    -0.081 Cl
ENDROOT
BRANCH   1   7
ATOM      7  S   UNL d   1      -0.845  -2.808  -0.081  0.00  0.00     0.174 S 
ATOM      8  O   UNL d   1      -1.710  -2.708  -1.236  0.00  0.00    -0.223 OA
ATOM      9  O   UNL d   1       0.239  -3.768  -0.019  0.00  0.00    -0.223 OA
ATOM     10  C   UNL d   1      -1.818  -2.985   1.388  0.00  0.00     0.167 C 
ENDBRANCH   1   7
BRANCH   2  11
ATOM     11  C   UNL d   1       0.032   2.507  -0.019  0.00  0.00     0.301 C 
ATOM     12  O   UNL d   1       0.830   3.334   0.406  0.00  0.00    -0.259 OA
BRANCH  11  13
ATOM     13  O   UNL d   1      -1.138   2.834  -0.639  0.00  0.00    -0.322 OA
ATOM     14  C   UNL d   1      -1.372   4.239  -0.754  0.00  0.00     0.213 C 
ENDBRANCH  11  13
ENDBRANCH   2  11
TORSDOF 3
