REMARK  4 active torsions:
REMARK  status: ('A' for Active; 'I' for Inactive)
REMARK    1  A    between atoms: S_15  and  C_3 
REMARK    2  A    between atoms: C_10  and  C_4 
REMARK    3  A    between atoms: O_17  and  C_10 
REMARK    4  A    between atoms: C_19  and  O_17 
ROOT
ATOM      1  C   UNL d   1      -0.784  -0.574  -0.014  0.00  0.00     0.032 A 
ATOM      2  C   UNL d   1      -1.539   0.653  -0.100  0.00  0.00    -0.020 A 
ATOM      3  C   UNL d   1      -1.559  -1.707   0.087  0.00  0.00     0.055 A 
ATOM      4  C   UNL d   1      -2.903   0.407  -0.044  0.00  0.00     0.088 A 
ATOM      5  S   UNL d   1      -3.216  -1.279   0.080  0.00  0.00    -0.076 SA
ATOM      6  C   UNL d   1       0.700  -0.487  -0.022  0.00  0.00     0.119 A 
ATOM      7  C   UNL d   1       1.318   0.739   0.089  0.00  0.00    -0.004 A 
ATOM      8  N   UNL d   1       2.900  -0.883  -0.104  0.00  0.00    -0.271 N 
ATOM      9  HN  UNL d   1       3.799  -1.359  -0.180  1.00  0.00     0.194 HD
ATOM     10  O   UNL d   1       1.635  -1.464  -0.118  0.00  0.00    -0.237 OA
ATOM     11  C   UNL d   1      -0.844   1.994  -0.268  0.00  0.00     0.046 C 
ATOM     12  C   UNL d   1       0.594   2.022   0.301  0.00  0.00     0.048 C 
ATOM     13  C   UNL d   1       2.687   0.430   0.029  0.00  0.00     0.124 A 
ENDROOT
BRANCH   4  14
ATOM     14  C   UNL d   1      -3.985   1.381  -0.041  0.00  0.00     0.300 C 
ATOM     15  O   UNL d   1      -3.839   2.598  -0.099  0.00  0.00    -0.259 OA
BRANCH  14  16
ATOM     16  O   UNL d   1      -5.195   0.771   0.133  0.00  0.00    -0.317 OA
BRANCH  16  17
ATOM     17  C   UNL d   1      -6.263   1.611   0.589  0.00  0.00     0.174 C 
ATOM     18  C   UNL d   1      -6.229   1.631   2.107  0.00  0.00     0.034 C 
ENDBRANCH  16  17
ENDBRANCH  14  16
ENDBRANCH   4  14
BRANCH   3  19
ATOM     19  S   UNL d   1      -0.992  -3.361   0.313  0.00  0.00    -0.126 SA
ATOM     20  C   UNL d   1      -2.248  -4.349  -0.524  0.00  0.00     0.096 C 
ENDBRANCH   3  19
TORSDOF 4
