REMARK  3 active torsions:
REMARK  status: ('A' for Active; 'I' for Inactive)
REMARK    1  A    between atoms: C_3  and  N_1 
REMARK       I    between atoms: C_5  and  N_9 
REMARK    2  A    between atoms: C_8  and  C_5 
REMARK    3  A    between atoms: N_9  and  C_13 
ROOT
ATOM      1  N   UNL d   1      -1.444  -7.574  -0.025  0.00  0.00    -0.197 NA
ATOM      2  C   UNL d   1      -1.909  -7.298  -1.053  0.00  0.00     0.068 C 
ATOM      3  C   UNL d   1      -2.484  -6.818  -2.313  0.00  0.00     0.226 C 
ENDROOT
BRANCH   3   4
ATOM      4  C   UNL d   1      -2.424  -5.304  -2.497  0.00  0.00     0.235 C 
ATOM      5  N   UNL d   1      -1.974  -4.573  -1.412  0.00  0.00    -0.326 N 
ATOM      6  H   UNL d   1      -1.756  -5.077  -0.555  0.00  0.00     0.169 HD
ATOM      7  O   UNL d   1      -2.760  -4.821  -3.579  0.00  0.00    -0.272 OA
BRANCH   5   8
ATOM      8  C   UNL d   1      -1.614  -3.211  -1.370  0.00  0.00     0.034 A 
ATOM      9  C   UNL d   1      -1.813  -2.297  -2.407  0.00  0.00     0.032 A 
ATOM     10  C   UNL d   1      -1.302  -0.994  -2.307  0.00  0.00     0.038 A 
ATOM     11  C   UNL d   1      -0.585  -0.614  -1.165  0.00  0.00     0.103 A 
ATOM     12  C   UNL d   1      -0.429  -1.505  -0.100  0.00  0.00     0.038 A 
ATOM     13  C   UNL d   1      -0.954  -2.793  -0.205  0.00  0.00     0.032 A 
BRANCH  11  14
ATOM     14  N   UNL d   1       0.042   0.712  -1.093  0.00  0.00    -0.116 N 
ATOM     15  O   UNL d   1       0.659   1.000  -0.057  0.00  0.00    -0.532 OA
ATOM     16  O   UNL d   1      -0.070   1.458  -2.075  0.00  0.00    -0.532 OA
ENDBRANCH  11  14
ENDBRANCH   5   8
ENDBRANCH   3   4
TORSDOF 3
