REMARK  5 active torsions:
REMARK  status: ('A' for Active; 'I' for Inactive)
REMARK    1  A    between atoms: C_6  and  C_1 
REMARK    2  A    between atoms: C_15  and  N_2 
REMARK    3  A    between atoms: C_8  and  C_3 
REMARK    4  A    between atoms: S_13  and  C_8 
REMARK    5  A    between atoms: C_17  and  S_13 
ROOT
ATOM      1  C   UNL d   1      -0.177  -1.278   0.010  0.00  0.00     0.102 C 
ATOM      2  N   UNL d   1       1.140  -0.829  -0.075  0.00  0.00    -0.253 N 
ATOM      3  C   UNL d   1      -0.986  -0.131  -0.020  0.00  0.00     0.076 C 
ATOM      4  N   UNL d   1       1.189   0.455  -0.482  0.00  0.00    -0.297 N 
ATOM      5  HN  UNL d   1       2.016   0.981  -0.765  1.00  0.00     0.187 HD
ATOM      6  C   UNL d   1      -0.066   0.891  -0.438  0.00  0.00     0.039 C 
ATOM      7  C   UNL d   1      -0.289   2.305  -0.857  0.00  0.00     0.071 C 
ENDROOT
BRANCH   3   8
ATOM      8  C   UNL d   1      -2.431   0.096   0.110  0.00  0.00     0.228 C 
ATOM      9  O   UNL d   1      -2.986   1.052  -0.414  0.00  0.00    -0.279 OA
BRANCH   8  10
ATOM     10  S   UNL d   1      -3.372  -0.983   1.107  0.00  0.00    -0.047 SA
BRANCH  10  11
ATOM     11  C   UNL d   1      -3.639  -0.124   2.631  0.00  0.00     0.008 A 
ATOM     12  C   UNL d   1      -4.739  -0.537   3.397  0.00  0.00     0.019 A 
ATOM     13  C   UNL d   1      -5.077   0.125   4.577  0.00  0.00     0.001 A 
ATOM     14  C   UNL d   1      -4.304   1.195   5.013  0.00  0.00     0.000 A 
ATOM     15  C   UNL d   1      -3.168   1.570   4.295  0.00  0.00     0.001 A 
ATOM     16  C   UNL d   1      -2.829   0.906   3.113  0.00  0.00     0.019 A 
ENDBRANCH  10  11
ENDBRANCH   8  10
ENDBRANCH   3   8
BRANCH   1  17
ATOM     17  C   UNL d   1      -0.578  -2.728  -0.037  0.00  0.00     0.087 A 
ATOM     18  N   UNL d   1      -1.685  -3.208   0.528  0.00  0.00    -0.259 N 
ATOM     19  O   UNL d   1      -1.709  -4.559   0.294  0.00  0.00    -0.242 OA
ATOM     20  HN  UNL d   1      -2.385  -2.671   1.040  1.00  0.00     0.195 HD
ATOM     21  C   UNL d   1      -0.620  -4.904  -0.433  0.00  0.00     0.074 A 
ATOM     22  C   UNL d   1       0.119  -3.777  -0.690  0.00  0.00     0.068 A 
ATOM     23  C   UNL d   1      -0.489  -6.332  -0.764  0.00  0.00     0.079 C 
ENDBRANCH   1  17
BRANCH   2  24
ATOM     24  C   UNL d   1       2.381  -1.490   0.185  0.00  0.00     0.057 A 
ATOM     25  C   UNL d   1       3.557  -0.945  -0.361  0.00  0.00     0.031 A 
ATOM     26  C   UNL d   1       4.785  -1.582  -0.180  0.00  0.00     0.002 A 
ATOM     27  C   UNL d   1       4.852  -2.759   0.558  0.00  0.00     0.000 A 
ATOM     28  C   UNL d   1       3.699  -3.283   1.143  0.00  0.00     0.002 A 
ATOM     29  C   UNL d   1       2.468  -2.639   0.980  0.00  0.00     0.031 A 
ENDBRANCH   2  24
TORSDOF 5
