REMARK  11 active torsions:
REMARK  status: ('A' for Active; 'I' for Inactive)
REMARK    1  A    between atoms: N_2  and  C_1 
REMARK    2  A    between atoms: C_3  and  C_8 
REMARK    3  A    between atoms: O_7  and  C_4 
REMARK    4  A    between atoms: C_6  and  O_7 
REMARK    5  A    between atoms: C_10  and  C_6 
REMARK    6  A    between atoms: C_23  and  C_22 
REMARK    7  A    between atoms: C_24  and  C_23 
REMARK    8  A    between atoms: C_27  and  C_24 
REMARK    9  A    between atoms: C_25  and  C_26 
REMARK   10  A    between atoms: C_26  and  C_28 
REMARK   11  A    between atoms: C_28  and  C_27 
ROOT
ATOM      1  C   UNL d   1       2.721  -3.230  -0.164  0.00  0.00     0.298 C 
ATOM      2  O   UNL d   1       1.982  -3.673   0.697  0.00  0.00    -0.259 OA
ENDROOT
BRANCH   1   3
ATOM      3  O   UNL d   1       2.710  -3.580  -1.514  0.00  0.00    -0.272 OA
BRANCH   3   4
ATOM      4  C   UNL d   1       1.974  -4.539  -2.256  0.00  0.00     0.112 A 
ATOM      5  C   UNL d   1       2.002  -4.395  -3.643  0.00  0.00     0.137 A 
ATOM      6  C   UNL d   1       1.447  -5.331  -4.510  0.00  0.00     0.055 A 
ATOM      7  C   UNL d   1       0.705  -6.388  -3.968  0.00  0.00     0.050 A 
ATOM      8  C   UNL d   1       0.634  -6.522  -2.567  0.00  0.00     0.019 A 
ATOM      9  C   UNL d   1       1.299  -5.617  -1.705  0.00  0.00     0.041 A 
BRANCH   5  10
ATOM     10  N   UNL d   1       2.338  -3.110  -4.197  0.00  0.00    -0.113 N 
ATOM     11  O   UNL d   1       1.397  -2.344  -4.416  0.00  0.00    -0.532 OA
ATOM     12  O   UNL d   1       3.531  -2.882  -4.439  0.00  0.00    -0.532 OA
ENDBRANCH   5  10
BRANCH   7  13
ATOM     13  C   UNL d   1      -0.104  -7.268  -4.902  0.00  0.00     0.417 C 
ATOM     14  F   UNL d   1       0.100  -6.972  -6.221  0.00  0.00    -0.166 F 
ATOM     15  F   UNL d   1       0.162  -8.591  -4.772  0.00  0.00    -0.166 F 
ATOM     16  F   UNL d   1      -1.440  -7.118  -4.698  0.00  0.00    -0.166 F 
ENDBRANCH   7  13
ENDBRANCH   3   4
ENDBRANCH   1   3
BRANCH   1  17
ATOM     17  C   UNL d   1       3.753  -2.158   0.022  0.00  0.00     0.040 A 
ATOM     18  C   UNL d   1       3.793  -1.438   1.218  0.00  0.00     0.018 A 
ATOM     19  C   UNL d   1       4.671  -0.348   1.364  0.00  0.00     0.008 A 
ATOM     20  C   UNL d   1       5.509   0.038   0.309  0.00  0.00    -0.058 A 
ATOM     21  C   UNL d   1       5.532  -0.741  -0.851  0.00  0.00     0.008 A 
ATOM     22  C   UNL d   1       4.662  -1.821  -0.999  0.00  0.00     0.018 A 
BRANCH  20  23
ATOM     23  C   UNL d   1       6.313   1.321   0.376  0.00  0.00     0.038 C 
BRANCH  23  24
ATOM     24  C   UNL d   1       5.871   2.363  -0.670  0.00  0.00     0.005 C 
BRANCH  24  25
ATOM     25  C   UNL d   1       4.405   2.789  -0.512  0.00  0.00     0.000 C 
BRANCH  25  26
ATOM     26  C   UNL d   1       3.977   3.795  -1.585  0.00  0.00     0.000 C 
BRANCH  26  27
ATOM     27  C   UNL d   1       2.501   4.169  -1.423  0.00  0.00    -0.000 C 
BRANCH  27  28
ATOM     28  C   UNL d   1       2.043   5.162  -2.491  0.00  0.00    -0.005 C 
ATOM     29  C   UNL d   1       0.576   5.526  -2.317  0.00  0.00     0.005 C 
ENDBRANCH  27  28
ENDBRANCH  26  27
ENDBRANCH  25  26
ENDBRANCH  24  25
ENDBRANCH  23  24
ENDBRANCH  20  23
ENDBRANCH   1  17
TORSDOF 11
