REMARK  5 active torsions:
REMARK  status: ('A' for Active; 'I' for Inactive)
REMARK    1  A    between atoms: N_5  and  C_1 
REMARK    2  A    between atoms: C_4  and  C_6 
REMARK    3  A    between atoms: C_19  and  N_9 
REMARK    4  A    between atoms: C_21  and  C_19 
REMARK    5  A    between atoms: O_20  and  C_21 
ROOT
ATOM      1  C   UNL d   1       0.057   1.300   0.003  0.00  0.00     0.680 A 
ATOM      2  N   UNL d   1       1.053   0.547  -0.485  0.00  0.00    -0.186 N 
ATOM      3  HN  UNL d   1       1.878   0.982  -0.898  1.00  0.00     0.184 HD
ATOM      4  C   UNL d   1       0.944  -0.805  -0.419  0.00  0.00     0.133 A 
ATOM      5  N   UNL d   1      -1.038   0.758   0.558  0.00  0.00    -0.202 N 
ATOM      6  HN  UNL d   1      -1.778   1.349   0.939  1.00  0.00     0.183 HD
ATOM      7  C   UNL d   1      -0.171  -1.421   0.122  0.00  0.00     0.052 A 
ATOM      8  C   UNL d   1      -1.138  -0.582   0.600  0.00  0.00     0.108 A 
ENDROOT
BRANCH   1   9
ATOM      9  N   UNL d   1       0.119   2.679  -0.124  0.00  0.00    -0.214 N 
ATOM     10  C   UNL d   1      -0.550   3.428   0.943  0.00  0.00     0.171 C 
ATOM     11  C   UNL d   1      -0.657   4.920   0.557  0.00  0.00     0.293 C 
ATOM     12  N   UNL d   1       0.620   5.570   0.181  0.00  0.00     0.093 N 
ATOM     13  C   UNL d   1       1.244   4.750  -0.893  0.00  0.00     0.293 C 
ATOM     14  C   UNL d   1       1.398   3.238  -0.578  0.00  0.00     0.171 C 
BRANCH  12  15
ATOM     15  C   UNL d   1       1.555   5.736   1.308  0.00  0.00     0.298 C 
BRANCH  15  16
ATOM     16  C   UNL d   1       1.033   6.608   2.460  0.00  0.00     0.194 C 
BRANCH  16  17
ATOM     17  O   UNL d   1       2.045   6.728   3.458  0.00  0.00    -0.399 OA
ATOM     18  H   UNL d   1       1.666   7.259   4.179  0.00  0.00     0.209 HD
ENDBRANCH  16  17
ENDBRANCH  15  16
ENDBRANCH  12  15
ENDBRANCH   1   9
BRANCH   4  19
ATOM     19  C   UNL d   1       2.072  -1.672  -0.944  0.00  0.00     0.433 C 
ATOM     20  F   UNL d   1       3.141  -0.977  -1.425  0.00  0.00    -0.165 F 
ATOM     21  F   UNL d   1       2.575  -2.507   0.014  0.00  0.00    -0.165 F 
ATOM     22  F   UNL d   1       1.670  -2.490  -1.961  0.00  0.00    -0.165 F 
ENDBRANCH   4  19
TORSDOF 5
