REMARK  3 active torsions:
REMARK  status: ('A' for Active; 'I' for Inactive)
REMARK    1  A    between atoms: S_8  and  C_1 
REMARK    2  A    between atoms: C_11  and  S_8 
REMARK    3  A    between atoms: N_15  and  C_13 
ROOT
ATOM      1  C   UNL d   1       2.494   0.035   0.015  0.00  0.00     0.118 A 
ATOM      2  N   UNL d   1       1.747  -0.099  -1.056  0.00  0.00    -0.342 N 
ATOM      3  HN  UNL d   1       2.100  -0.223  -2.004  1.00  0.00     0.167 HD
ATOM      4  C   UNL d   1       0.402  -0.046  -0.706  0.00  0.00     0.072 A 
ATOM      5  C   UNL d   1       0.160   0.061   0.669  0.00  0.00     0.037 A 
ATOM      6  S   UNL d   1       1.665   0.136   1.506  0.00  0.00    -0.063 SA
ATOM      7  C   UNL d   1      -0.728  -0.097  -1.554  0.00  0.00     0.063 A 
ATOM      8  C   UNL d   1      -1.143   0.097   1.200  0.00  0.00     0.045 A 
ATOM      9  C   UNL d   1      -2.029  -0.053  -1.058  0.00  0.00     0.050 A 
ATOM     10  C   UNL d   1      -2.222   0.039   0.313  0.00  0.00     0.037 A 
ATOM     11 CL   UNL d   1      -0.414  -0.207  -3.232  0.00  0.00    -0.082 Cl
ATOM     12 CL   UNL d   1      -3.825   0.082   0.941  0.00  0.00    -0.084 Cl
ENDROOT
BRANCH   1  13
ATOM     13  S   UNL d   1       4.242   0.028  -0.106  0.00  0.00    -0.063 SA
BRANCH  13  14
ATOM     14  C   UNL d   1       4.514   1.798   0.018  0.00  0.00     0.028 A 
ATOM     15  C   UNL d   1       4.192   2.687  -1.030  0.00  0.00     0.023 A 
ATOM     16  C   UNL d   1       4.421   4.056  -0.845  0.00  0.00     0.024 A 
ATOM     17  C   UNL d   1       5.035   4.534   0.314  0.00  0.00     0.002 A 
ATOM     18  C   UNL d   1       5.404   3.648   1.321  0.00  0.00     0.001 A 
ATOM     19  C   UNL d   1       5.144   2.284   1.175  0.00  0.00     0.021 A 
BRANCH  15  20
ATOM     20  N   UNL d   1       3.460   2.281  -2.156  0.00  0.00    -0.302 NA
ATOM     21  H   UNL d   1       3.478   1.276  -2.326  0.00  0.00     0.124 HD
ATOM     22  H   UNL d   1       3.619   2.829  -2.994  0.00  0.00     0.124 HD
ENDBRANCH  15  20
ENDBRANCH  13  14
ENDBRANCH   1  13
TORSDOF 3
