REMARK  4 active torsions:
REMARK  status: ('A' for Active; 'I' for Inactive)
REMARK    1  A    between atoms: O_8  and  C_7 
REMARK    2  A    between atoms: C_10  and  O_8 
REMARK    3  A    between atoms: C_9  and  C_10 
REMARK    4  A    between atoms: O_13  and  C_9 
ROOT
ATOM      1  C   UNL d   1      -1.204  -0.822  -0.025  0.00  0.00     0.123 A 
ATOM      2  C   UNL d   1       0.016   1.320  -0.070  0.00  0.00     0.198 C 
ATOM      3  O   UNL d   1      -0.036  -1.535  -0.179  0.00  0.00    -0.306 OA
ATOM      4  C   UNL d   1      -1.244   0.571   0.036  0.00  0.00     0.052 A 
ATOM      5  C   UNL d   1       1.253   0.532  -0.074  0.00  0.00     0.049 A 
ATOM      6  C   UNL d   1       1.156  -0.856  -0.107  0.00  0.00     0.090 A 
ATOM      7  C   UNL d   1      -2.400  -1.556   0.048  0.00  0.00     0.104 A 
ATOM      8  O   UNL d   1       0.031   2.544  -0.132  0.00  0.00    -0.286 OA
ATOM      9  C   UNL d   1      -2.457   1.244   0.203  0.00  0.00     0.018 A 
ATOM     10  C   UNL d   1       2.501   1.159  -0.015  0.00  0.00     0.018 A 
ATOM     11  C   UNL d   1      -3.606  -0.885   0.278  0.00  0.00     0.040 A 
ATOM     12  C   UNL d   1       2.317  -1.629  -0.071  0.00  0.00     0.038 A 
ATOM     13  C   UNL d   1      -3.632   0.511   0.348  0.00  0.00     0.004 A 
ATOM     14  C   UNL d   1       3.660   0.383   0.024  0.00  0.00     0.001 A 
ATOM     15  C   UNL d   1       3.568  -1.010  -0.001  0.00  0.00     0.003 A 
ENDROOT
BRANCH   7  16
ATOM     16  O   UNL d   1      -2.280  -2.908  -0.154  0.00  0.00    -0.333 OA
BRANCH  16  17
ATOM     17  C   UNL d   1      -3.449  -3.656  -0.492  0.00  0.00     0.222 C 
ATOM     18  C   UNL d   1      -3.017  -5.114  -0.608  0.00  0.00     0.051 C 
BRANCH  17  19
ATOM     19  C   UNL d   1      -4.082  -3.262  -1.831  0.00  0.00     0.170 C 
ATOM     20  O   UNL d   1      -5.267  -3.414  -2.096  0.00  0.00    -0.648 OA
BRANCH  19  21
ATOM     21  O   UNL d   1      -3.194  -2.762  -2.723  0.00  0.00    -0.775 OA
ATOM     22  H   UNL d   1      -2.297  -2.690  -2.334  0.00  0.00     0.167 HD
ENDBRANCH  19  21
ENDBRANCH  17  19
ENDBRANCH  16  17
ENDBRANCH   7  16
TORSDOF 4
