REMARK  7 active torsions:
REMARK  status: ('A' for Active; 'I' for Inactive)
REMARK    1  A    between atoms: C_7  and  C_1 
REMARK    2  A    between atoms: O_6  and  C_2 
REMARK    3  A    between atoms: C_3  and  O_6 
REMARK    4  A    between atoms: C_4  and  C_3 
REMARK    5  A    between atoms: O_10  and  C_5 
REMARK    6  A    between atoms: O_16  and  C_7 
REMARK    7  A    between atoms: C_17  and  O_10 
ROOT
ATOM      1  C   UNL d   1       1.100   3.372   0.096  0.00  0.00     0.091 A 
ATOM      2  C   UNL d   1       0.903   4.252  -0.961  0.00  0.00     0.164 A 
ATOM      3  N   UNL d   1      -0.184   5.057  -1.053  0.00  0.00    -0.346 N 
ATOM      4  HN  UNL d   1      -0.303   5.707  -1.831  1.00  0.00     0.167 HD
ATOM      5  C   UNL d   1       0.161   3.324   1.126  0.00  0.00     0.023 A 
ATOM      6  C   UNL d   1      -1.103   4.959  -0.066  0.00  0.00     0.090 A 
ATOM      7  C   UNL d   1      -0.969   4.130   1.038  0.00  0.00     0.018 A 
ENDROOT
BRANCH   1   8
ATOM      8  C   UNL d   1       2.196   2.398   0.086  0.00  0.00     0.303 C 
ATOM      9  O   UNL d   1       3.058   2.315   0.943  0.00  0.00    -0.259 OA
BRANCH   8  10
ATOM     10  O   UNL d   1       1.930   1.562  -0.956  0.00  0.00    -0.273 OA
BRANCH  10  11
ATOM     11  C   UNL d   1       2.722   0.480  -1.092  0.00  0.00     0.103 A 
ATOM     12  C   UNL d   1       2.373  -0.771  -0.613  0.00  0.00     0.114 A 
ATOM     13  S   UNL d   1       3.567  -1.929  -1.062  0.00  0.00    -0.093 SA
ATOM     14  C   UNL d   1       4.471  -0.778  -1.939  0.00  0.00     0.053 A 
ATOM     15  C   UNL d   1       3.914   0.477  -1.868  0.00  0.00     0.046 A 
BRANCH  12  16
ATOM     16  C   UNL d   1       1.188  -1.145   0.145  0.00  0.00     0.302 C 
ATOM     17  O   UNL d   1       0.340  -0.359   0.561  0.00  0.00    -0.259 OA
BRANCH  16  18
ATOM     18  O   UNL d   1       1.115  -2.499   0.295  0.00  0.00    -0.322 OA
ATOM     19  C   UNL d   1      -0.062  -3.044   0.895  0.00  0.00     0.213 C 
ENDBRANCH  16  18
ENDBRANCH  12  16
ENDBRANCH  10  11
ENDBRANCH   8  10
ENDBRANCH   1   8
BRANCH   2  20
ATOM     20  O   UNL d   1       1.911   4.374  -1.909  0.00  0.00    -0.293 OA
BRANCH  20  21
ATOM     21  C   UNL d   1       1.514   4.647  -3.196  0.00  0.00     0.077 A 
ATOM     22  C   UNL d   1       2.044   5.774  -3.826  0.00  0.00     0.037 A 
ATOM     23  C   UNL d   1       1.729   6.034  -5.161  0.00  0.00     0.003 A 
ATOM     24  C   UNL d   1       0.900   5.160  -5.866  0.00  0.00     0.000 A 
ATOM     25  C   UNL d   1       0.386   4.025  -5.238  0.00  0.00     0.003 A 
ATOM     26  C   UNL d   1       0.697   3.762  -3.904  0.00  0.00     0.037 A 
ENDBRANCH  20  21
ENDBRANCH   2  20
TORSDOF 7
