REMARK  8 active torsions:
REMARK  status: ('A' for Active; 'I' for Inactive)
REMARK    1  A    between atoms: C_3  and  C_6 
REMARK    2  A    between atoms: C_28  and  C_3 
REMARK    3  A    between atoms: S_14  and  C_28 
REMARK    4  A    between atoms: C_29  and  S_14 
REMARK    5  A    between atoms: O_15  and  C_23 
REMARK    6  A    between atoms: C_19  and  O_15 
REMARK    7  A    between atoms: C_23  and  C_16 
REMARK    8  A    between atoms: C_20  and  C_29 
ROOT
ATOM      1  C   UNL d   1      -6.852   5.565  -0.242  0.00  0.00     0.011 A 
ATOM      2  C   UNL d   1      -6.839   4.481   0.646  0.00  0.00     0.018 A 
ATOM      3  C   UNL d   1      -5.787   5.734  -1.132  0.00  0.00     0.018 A 
ATOM      4  C   UNL d   1      -4.677   3.793  -0.199  0.00  0.00     0.069 A 
ATOM      5  C   UNL d   1      -4.709   4.845  -1.115  0.00  0.00     0.037 A 
ATOM      6  C   UNL d   1      -5.760   3.593   0.656  0.00  0.00     0.037 A 
ENDROOT
BRANCH   1   7
ATOM      7  C   UNL d   1      -7.996   6.523  -0.185  0.00  0.00     0.168 C 
ATOM      8  O   UNL d   1      -8.668   6.563   0.844  0.00  0.00    -0.292 OA
BRANCH   7   9
ATOM      9  C   UNL d   1      -8.257   7.384  -1.413  0.00  0.00     0.158 C 
BRANCH   9  10
ATOM     10  S   UNL d   1      -9.616   8.569  -1.194  0.00  0.00    -0.157 SA
BRANCH  10  11
ATOM     11  C   UNL d   1      -8.838   9.658   0.039  0.00  0.00     0.112 C 
BRANCH  11  12
ATOM     12  C   UNL d   1      -9.760  10.779   0.437  0.00  0.00    -0.047 A 
ATOM     13  C   UNL d   1      -9.756  11.996  -0.263  0.00  0.00     0.033 A 
ATOM     14  C   UNL d   1     -10.614  13.036   0.110  0.00  0.00     0.056 A 
ATOM     15 CL   UNL d   1     -10.536  14.506  -0.796  0.00  0.00    -0.083 Cl
ATOM     16  C   UNL d   1     -11.492  12.863   1.186  0.00  0.00     0.055 A 
ATOM     17  C   UNL d   1     -11.513  11.649   1.877  0.00  0.00     0.026 A 
ATOM     18 CL   UNL d   1     -12.570  14.106   1.712  0.00  0.00    -0.083 Cl
ATOM     19  C   UNL d   1     -10.657  10.612   1.502  0.00  0.00     0.010 A 
ENDBRANCH  11  12
ENDBRANCH  10  11
ENDBRANCH   9  10
ENDBRANCH   7   9
ENDBRANCH   1   7
BRANCH   4  20
ATOM     20  O   UNL d   1      -3.639   2.912  -0.060  0.00  0.00    -0.347 OA
BRANCH  20  21
ATOM     21  C   UNL d   1      -2.365   3.419  -0.463  0.00  0.00     0.214 C 
BRANCH  21  22
ATOM     22  C   UNL d   1      -1.278   2.607   0.195  0.00  0.00    -0.032 A 
ATOM     23  C   UNL d   1      -0.411   3.205   1.123  0.00  0.00     0.035 A 
ATOM     24  C   UNL d   1       0.615   2.466   1.720  0.00  0.00     0.056 A 
ATOM     25  C   UNL d   1       0.780   1.116   1.394  0.00  0.00     0.055 A 
ATOM     26 CL   UNL d   1       1.645   3.285   2.840  0.00  0.00    -0.083 Cl
ATOM     27  C   UNL d   1      -0.086   0.513   0.478  0.00  0.00     0.026 A 
ATOM     28 CL   UNL d   1       2.030   0.143   2.084  0.00  0.00    -0.083 Cl
ATOM     29  C   UNL d   1      -1.109   1.253  -0.118  0.00  0.00     0.011 A 
ENDBRANCH  21  22
ENDBRANCH  20  21
ENDBRANCH   4  20
TORSDOF 8
