REMARK  6 active torsions:
REMARK  status: ('A' for Active; 'I' for Inactive)
REMARK    1  A    between atoms: C_3  and  C_1 
REMARK    2  A    between atoms: C_2  and  C_4 
REMARK    3  A    between atoms: C_5  and  S_8 
REMARK       I    between atoms: N_16  and  C_5 
REMARK    4  A    between atoms: S_8  and  C_7 
REMARK    5  A    between atoms: C_10  and  C_15 
REMARK    6  A    between atoms: C_13  and  N_16 
ROOT
ATOM      1  C   UNL d   1       0.708   1.498  -1.118  0.00  0.00     0.050 A 
ATOM      2  C   UNL d   1       0.172   1.714   1.252  0.00  0.00     0.050 A 
ATOM      3  C   UNL d   1       0.244   0.942   0.082  0.00  0.00     0.032 A 
ATOM      4  C   UNL d   1       1.008   3.648   0.017  0.00  0.00     0.011 A 
ATOM      5  C   UNL d   1       0.555   3.066   1.204  0.00  0.00     0.035 A 
ATOM      6  C   UNL d   1       1.082   2.854  -1.137  0.00  0.00     0.035 A 
ENDROOT
BRANCH   4   7
ATOM      7  S   UNL d   1       1.656   5.306  -0.061  0.00  0.00    -0.029 SA
BRANCH   7   8
ATOM      8  C   UNL d   1       0.443   6.310   0.711  0.00  0.00     0.288 C 
ATOM      9  N   UNL d   1       0.507   7.572   0.169  0.00  0.00    -0.328 N 
ATOM     10  H   UNL d   1       1.193   7.690  -0.566  0.00  0.00     0.169 HD
ATOM     11  O   UNL d   1      -0.313   5.931   1.591  0.00  0.00    -0.260 OA
BRANCH   9  12
ATOM     12  C   UNL d   1      -0.311   8.616   0.508  0.00  0.00     0.092 C 
ATOM     13  C   UNL d   1      -0.253   9.787  -0.145  0.00  0.00     0.029 C 
BRANCH  13  14
ATOM     14  C   UNL d   1      -1.093  10.930   0.057  0.00  0.00    -0.028 A 
ATOM     15  C   UNL d   1      -1.962  11.115   1.111  0.00  0.00     0.061 A 
ATOM     16  S   UNL d   1      -2.830  12.589   0.994  0.00  0.00    -0.113 SA
ATOM     17  C   UNL d   1      -2.043  12.999  -0.468  0.00  0.00     0.050 A 
ATOM     18  C   UNL d   1      -1.132  12.037  -0.849  0.00  0.00     0.019 A 
ENDBRANCH  13  14
ENDBRANCH   9  12
ENDBRANCH   7   8
ENDBRANCH   4   7
BRANCH   1  19
ATOM     19  C   UNL d   1       0.861   0.661  -2.366  0.00  0.00     0.417 C 
ATOM     20  F   UNL d   1       0.415  -0.617  -2.221  0.00  0.00    -0.166 F 
ATOM     21  F   UNL d   1       2.160   0.562  -2.763  0.00  0.00    -0.166 F 
ATOM     22  F   UNL d   1       0.183   1.176  -3.429  0.00  0.00    -0.166 F 
ENDBRANCH   1  19
BRANCH   2  23
ATOM     23  C   UNL d   1      -0.310   1.112   2.551  0.00  0.00     0.417 C 
ATOM     24  F   UNL d   1      -0.190  -0.246   2.581  0.00  0.00    -0.166 F 
ATOM     25  F   UNL d   1       0.379   1.567   3.633  0.00  0.00    -0.166 F 
ATOM     26  F   UNL d   1      -1.620   1.377   2.795  0.00  0.00    -0.166 F 
ENDBRANCH   2  23
TORSDOF 6
