REMARK  6 active torsions:
REMARK  status: ('A' for Active; 'I' for Inactive)
REMARK    1  A    between atoms: C_2  and  S_1 
REMARK    2  A    between atoms: C_6  and  S_1 
REMARK    3  A    between atoms: C_5  and  O_14 
REMARK    4  A    between atoms: C_7  and  C_5 
REMARK    5  A    between atoms: C_17  and  C_6 
REMARK    6  A    between atoms: O_14  and  C_17 
ROOT
ATOM      1  C   UNL d   1       0.209   1.635  -0.448  0.00  0.00     0.174 C 
ENDROOT
BRANCH   1   2
ATOM      2  S   UNL d   1       0.831   0.037   0.016  0.00  0.00     0.193 S 
ATOM      3  O   UNL d   1       2.192  -0.076  -0.479  0.00  0.00    -0.221 OA
ATOM      4  O   UNL d   1       0.535  -0.189   1.420  0.00  0.00    -0.221 OA
BRANCH   2   5
ATOM      5  C   UNL d   1      -0.141  -1.137  -0.909  0.00  0.00     0.128 A 
ATOM      6  N   UNL d   1      -1.108  -0.592  -1.692  0.00  0.00    -0.355 N 
ATOM      7  C   UNL d   1      -1.820  -1.471  -2.439  0.00  0.00     0.113 A 
ATOM      8  HN  UNL d   1      -1.286   0.412  -1.716  1.00  0.00     0.166 HD
ATOM      9  C   UNL d   1      -1.601  -2.843  -2.441  0.00  0.00     0.049 A 
ATOM     10  C   UNL d   1      -0.602  -3.362  -1.621  0.00  0.00     0.028 A 
ATOM     11 CL   UNL d   1      -2.534  -3.878  -3.442  0.00  0.00    -0.083 Cl
ATOM     12  C   UNL d   1       0.151  -2.493  -0.831  0.00  0.00     0.043 A 
ENDBRANCH   2   5
ENDBRANCH   1   2
BRANCH   1  13
ATOM     13  C   UNL d   1       0.989   2.732   0.252  0.00  0.00     0.194 C 
BRANCH  13  14
ATOM     14  O   UNL d   1       0.529   4.043  -0.147  0.00  0.00    -0.317 OA
BRANCH  14  15
ATOM     15  C   UNL d   1      -0.566   4.496   0.515  0.00  0.00     0.293 C 
ATOM     16  O   UNL d   1      -1.219   3.849   1.320  0.00  0.00    -0.259 OA
BRANCH  15  17
ATOM     17  C   UNL d   1      -0.888   5.906   0.161  0.00  0.00     0.041 A 
ATOM     18  C   UNL d   1      -0.143   6.648  -0.764  0.00  0.00     0.041 A 
ATOM     19  C   UNL d   1      -0.494   7.975  -1.025  0.00  0.00     0.035 A 
ATOM     20 CL   UNL d   1       0.424   8.895  -2.155  0.00  0.00    -0.084 Cl
ATOM     21  C   UNL d   1      -1.578   8.570  -0.379  0.00  0.00     0.024 A 
ATOM     22  C   UNL d   1      -2.325   7.835   0.539  0.00  0.00     0.003 A 
ATOM     23  C   UNL d   1      -1.980   6.508   0.807  0.00  0.00     0.018 A 
ENDBRANCH  15  17
ENDBRANCH  14  15
ENDBRANCH  13  14
ENDBRANCH   1  13
TORSDOF 6
