REMARK  4 active torsions:
REMARK  status: ('A' for Active; 'I' for Inactive)
REMARK    1  A    between atoms: C_2  and  S_1 
REMARK    2  A    between atoms: N_3  and  S_1 
REMARK    3  A    between atoms: C_19  and  N_7 
REMARK    4  A    between atoms: C_18  and  C_19 
ROOT
ATOM      1  N   UNL d   1       0.156  -1.039   0.164  0.00  0.00    -0.303 N 
ATOM      2  N   UNL d   1      -0.196  -2.470   2.733  0.00  0.00     0.095 N 
ATOM      3  C   UNL d   1      -0.498  -0.399   1.328  0.00  0.00     0.165 C 
ATOM      4  C   UNL d   1       0.100  -2.521   0.169  0.00  0.00     0.165 C 
ATOM      5  C   UNL d   1       0.424  -3.128   1.555  0.00  0.00     0.293 C 
ATOM      6  C   UNL d   1       0.040  -1.013   2.629  0.00  0.00     0.293 C 
ENDROOT
BRANCH   1   7
ATOM      7  S   UNL d   1       1.478  -0.244  -0.515  0.00  0.00     0.264 S 
ATOM      8  O   UNL d   1       2.160   0.470   0.544  0.00  0.00    -0.200 OA
ATOM      9  O   UNL d   1       2.199  -1.133  -1.399  0.00  0.00    -0.200 OA
BRANCH   7  10
ATOM     10  C   UNL d   1       0.642   0.951  -1.515  0.00  0.00     0.118 A 
ATOM     11  C   UNL d   1      -0.036   0.511  -2.648  0.00  0.00     0.142 A 
ATOM     12  C   UNL d   1      -0.751   1.409  -3.432  0.00  0.00     0.086 A 
ATOM     13  F   UNL d   1      -0.049  -0.783  -2.993  0.00  0.00    -0.204 F 
ATOM     14  C   UNL d   1      -0.785   2.748  -3.066  0.00  0.00     0.119 A 
ATOM     15  C   UNL d   1      -0.107   3.205  -1.937  0.00  0.00     0.044 A 
ATOM     16  F   UNL d   1      -1.492   3.614  -3.804  0.00  0.00    -0.206 F 
ATOM     17  C   UNL d   1       0.620   2.305  -1.155  0.00  0.00     0.031 A 
ENDBRANCH   7  10
ENDBRANCH   1   7
BRANCH   2  18
ATOM     18  C   UNL d   1      -1.621  -2.818   2.857  0.00  0.00     0.311 C 
BRANCH  18  19
ATOM     19  C   UNL d   1      -2.309  -2.177   4.050  0.00  0.00    -0.027 A 
ATOM     20  C   UNL d   1      -3.332  -1.231   3.859  0.00  0.00     0.048 A 
ATOM     21  C   UNL d   1      -3.943  -0.695   4.974  0.00  0.00     0.105 A 
ATOM     22  O   UNL d   1      -4.953   0.216   4.965  0.00  0.00    -0.323 OA
ATOM     23  C   UNL d   1      -3.576  -1.055   6.248  0.00  0.00     0.105 A 
ATOM     24  C   UNL d   1      -5.216   0.342   6.379  0.00  0.00     0.352 A 
ATOM     25  O   UNL d   1      -4.313  -0.425   7.200  0.00  0.00    -0.323 OA
ATOM     26  C   UNL d   1      -2.563  -1.962   6.479  0.00  0.00     0.040 A 
ATOM     27  C   UNL d   1      -1.926  -2.525   5.367  0.00  0.00     0.012 A 
ENDBRANCH  18  19
ENDBRANCH   2  18
TORSDOF 4
