REMARK  5 active torsions:
REMARK  status: ('A' for Active; 'I' for Inactive)
REMARK    1  A    between atoms: C_7  and  N_1 
REMARK    2  A    between atoms: C_6  and  O_10 
REMARK    3  A    between atoms: C_13  and  C_6 
REMARK    4  A    between atoms: C_12  and  C_7 
REMARK    5  A    between atoms: O_10  and  N_8 
ROOT
ATOM      1  N   UNL d   1       4.412  -1.170  -0.320  0.00  0.00    -0.264 N 
ATOM      2  HN  UNL d   1       5.414  -1.166  -0.511  1.00  0.00     0.194 HD
ATOM      3  C   UNL d   1       3.742  -2.251  -0.055  0.00  0.00     0.025 C 
ATOM      4  C   UNL d   1       2.252  -2.326   0.176  0.00  0.00     0.067 C 
ENDROOT
BRANCH   3   5
ATOM      5  C   UNL d   1       4.522  -3.560  -0.015  0.00  0.00     0.188 C 
BRANCH   5   6
ATOM      6  N   UNL d   1       4.931  -3.866   1.331  0.00  0.00    -0.285 N 
ATOM      7  C   UNL d   1       4.269  -4.705   2.200  0.00  0.00     0.373 A 
ATOM      8  O   UNL d   1       4.958  -4.822   3.415  0.00  0.00    -0.259 OA
ATOM      9  O   UNL d   1       3.214  -5.282   1.971  0.00  0.00    -0.237 OA
ATOM     10  C   UNL d   1       6.060  -4.006   3.212  0.00  0.00     0.107 A 
ATOM     11  C   UNL d   1       6.062  -3.409   1.966  0.00  0.00     0.073 A 
ATOM     12  C   UNL d   1       7.072  -3.791   4.124  0.00  0.00     0.040 A 
ATOM     13  C   UNL d   1       7.065  -2.557   1.563  0.00  0.00     0.033 A 
ATOM     14  C   UNL d   1       8.103  -2.320   2.472  0.00  0.00     0.002 A 
ATOM     15  C   UNL d   1       8.108  -2.934   3.741  0.00  0.00     0.003 A 
ENDBRANCH   5   6
ENDBRANCH   3   5
BRANCH   1  16
ATOM     16  O   UNL d   1       3.623  -0.005  -0.318  0.00  0.00    -0.195 OA
BRANCH  16  17
ATOM     17  C   UNL d   1       4.098   0.854  -1.269  0.00  0.00     0.315 C 
ATOM     18  O   UNL d   1       4.782   0.562  -2.243  0.00  0.00    -0.257 OA
BRANCH  17  19
ATOM     19  C   UNL d   1       3.704   2.259  -0.968  0.00  0.00     0.041 A 
ATOM     20  C   UNL d   1       4.127   3.258  -1.860  0.00  0.00     0.019 A 
ATOM     21  C   UNL d   1       3.869   4.605  -1.593  0.00  0.00     0.025 A 
ATOM     22  C   UNL d   1       3.183   4.958  -0.434  0.00  0.00     0.034 A 
ATOM     23  C   UNL d   1       2.741   3.976   0.452  0.00  0.00     0.025 A 
ATOM     24 CL   UNL d   1       2.894   6.618  -0.086  0.00  0.00    -0.084 Cl
ATOM     25  C   UNL d   1       3.000   2.625   0.187  0.00  0.00     0.019 A 
ENDBRANCH  17  19
ENDBRANCH  16  17
ENDBRANCH   1  16
TORSDOF 5
