REMARK  4 active torsions:
REMARK  status: ('A' for Active; 'I' for Inactive)
REMARK    1  A    between atoms: C_10  and  N_3 
REMARK    2  A    between atoms: C_9  and  N_4 
REMARK    3  A    between atoms: C_15  and  C_7 
REMARK    4  A    between atoms: N_14  and  C_13 
ROOT
ATOM      1  C   UNL d   1      -1.655  -0.134   0.019  0.00  0.00     0.344 C 
ATOM      2  C   UNL d   1       1.184   0.112  -0.042  0.00  0.00     0.102 C 
ATOM      3  N   UNL d   1      -1.023   1.117  -0.071  0.00  0.00    -0.229 N 
ATOM      4  N   UNL d   1      -0.820  -1.259   0.018  0.00  0.00    -0.229 N 
ATOM      5  C   UNL d   1       0.569  -1.229   0.077  0.00  0.00     0.272 C 
ATOM      6  C   UNL d   1       0.346   1.313  -0.240  0.00  0.00     0.272 C 
ATOM      7  C   UNL d   1       2.531   0.154   0.059  0.00  0.00     0.034 C 
ATOM      8  O   UNL d   1      -2.885  -0.229   0.088  0.00  0.00    -0.245 OA
ATOM      9  O   UNL d   1       1.283  -2.226   0.190  0.00  0.00    -0.266 OA
ATOM     10  O   UNL d   1       0.856   2.399  -0.505  0.00  0.00    -0.266 OA
ENDROOT
BRANCH   7  11
ATOM     11  C   UNL d   1       3.392   1.339   0.068  0.00  0.00    -0.035 A 
ATOM     12  C   UNL d   1       3.763   1.915   1.281  0.00  0.00     0.013 A 
ATOM     13  C   UNL d   1       4.611   3.032   1.307  0.00  0.00     0.030 A 
ATOM     14  C   UNL d   1       5.124   3.608   0.134  0.00  0.00     0.029 A 
ATOM     15  C   UNL d   1       4.726   3.007  -1.073  0.00  0.00     0.030 A 
ATOM     16  C   UNL d   1       3.874   1.893  -1.115  0.00  0.00     0.013 A 
BRANCH  14  17
ATOM     17  N   UNL d   1       6.024   4.665   0.149  0.00  0.00    -0.390 N 
ATOM     18  C   UNL d   1       5.982   5.691  -0.891  0.00  0.00     0.149 C 
ATOM     19  C   UNL d   1       6.728   5.056   1.367  0.00  0.00     0.149 C 
ENDBRANCH  14  17
ENDBRANCH   7  11
BRANCH   4  20
ATOM     20  C   UNL d   1      -1.450  -2.553   0.019  0.00  0.00     0.047 A 
ATOM     21  C   UNL d   1      -2.352  -2.896  -1.000  0.00  0.00     0.030 A 
ATOM     22  C   UNL d   1      -2.913  -4.173  -1.046  0.00  0.00     0.002 A 
ATOM     23  C   UNL d   1      -2.607  -5.108  -0.059  0.00  0.00     0.000 A 
ATOM     24  C   UNL d   1      -1.732  -4.770   0.972  0.00  0.00     0.002 A 
ATOM     25  C   UNL d   1      -1.145  -3.504   1.003  0.00  0.00     0.030 A 
ENDBRANCH   4  20
BRANCH   3  26
ATOM     26  C   UNL d   1      -1.851   2.291  -0.029  0.00  0.00     0.047 A 
ATOM     27  C   UNL d   1      -2.721   2.503   1.053  0.00  0.00     0.030 A 
ATOM     28  C   UNL d   1      -3.453   3.689   1.151  0.00  0.00     0.002 A 
ATOM     29  C   UNL d   1      -3.350   4.660   0.156  0.00  0.00     0.000 A 
ATOM     30  C   UNL d   1      -2.514   4.450  -0.936  0.00  0.00     0.002 A 
ATOM     31  C   UNL d   1      -1.761   3.276  -1.023  0.00  0.00     0.030 A 
ENDBRANCH   3  26
TORSDOF 4
