REMARK  4 active torsions:
REMARK  status: ('A' for Active; 'I' for Inactive)
REMARK    1  A    between atoms: N_11  and  C_2 
REMARK    2  A    between atoms: C_15  and  N_11 
REMARK    3  A    between atoms: O_14  and  C_17 
REMARK    4  A    between atoms: C_17  and  C_15 
ROOT
ATOM      1  C   UNL d   1       0.092  -0.766   0.064  0.00  0.00     0.076 A 
ATOM      2  C   UNL d   1       1.364  -1.391   0.075  0.00  0.00     0.123 A 
ATOM      3  S   UNL d   1      -1.498  -1.435   0.185  0.00  0.00    -0.095 SA
ATOM      4  C   UNL d   1       0.008   0.626  -0.006  0.00  0.00     0.060 A 
ATOM      5  C   UNL d   1      -1.344   1.121  -0.018  0.00  0.00    -0.027 A 
ATOM      6  C   UNL d   1      -2.250   0.083   0.057  0.00  0.00     0.059 A 
ATOM      7  N   UNL d   1       2.435  -0.554   0.087  0.00  0.00    -0.338 N 
ATOM      8  HN  UNL d   1       3.379  -0.936   0.154  1.00  0.00     0.168 HD
ATOM      9  N   UNL d   1       1.101   1.427  -0.050  0.00  0.00    -0.351 N 
ATOM     10  HN  UNL d   1       1.043   2.442  -0.123  1.00  0.00     0.166 HD
ATOM     11  C   UNL d   1       2.255   0.769   0.011  0.00  0.00     0.182 A 
ATOM     12  C   UNL d   1      -1.726   2.561  -0.094  0.00  0.00     0.051 C 
ENDROOT
BRANCH   2  13
ATOM     13  N   UNL d   1       1.601  -2.757   0.129  0.00  0.00    -0.368 N 
ATOM     14  C   UNL d   1       0.822  -3.697  -0.662  0.00  0.00     0.151 C 
BRANCH  13  15
ATOM     15  C   UNL d   1       2.921  -3.234   0.575  0.00  0.00     0.150 C 
BRANCH  15  16
ATOM     16  C   UNL d   1       2.882  -3.626   2.057  0.00  0.00     0.183 C 
BRANCH  16  17
ATOM     17  O   UNL d   1       2.113  -4.816   2.248  0.00  0.00    -0.399 OA
ATOM     18  H   UNL d   1       1.942  -4.886   3.202  0.00  0.00     0.209 HD
ENDBRANCH  16  17
ENDBRANCH  15  16
ENDBRANCH  13  15
ENDBRANCH   2  13
TORSDOF 4
