REMARK  4 active torsions:
REMARK  status: ('A' for Active; 'I' for Inactive)
REMARK    1  A    between atoms: S_2  and  C_1 
REMARK    2  A    between atoms: C_12  and  S_2 
REMARK    3  A    between atoms: C_7  and  C_4 
REMARK       I    between atoms: N_11  and  C_7 
REMARK    4  A    between atoms: C_17  and  N_11 
ROOT
ATOM      1  C   UNL d   1       0.736   1.314   0.147  0.00  0.00     0.078 A 
ATOM      2  C   UNL d   1       1.310  -0.012   0.063  0.00  0.00    -0.017 A 
ATOM      3  C   UNL d   1       0.319  -0.998   0.171  0.00  0.00     0.080 A 
ATOM      4  S   UNL d   1      -1.240  -0.320   0.358  0.00  0.00    -0.094 SA
ATOM      5  C   UNL d   1      -0.635   1.270   0.308  0.00  0.00     0.075 A 
ATOM      6  C   UNL d   1       2.765  -0.350  -0.103  0.00  0.00     0.051 C 
ENDROOT
BRANCH   3   7
ATOM      7  C   UNL d   1       0.526  -2.456   0.136  0.00  0.00     0.263 C 
ATOM      8  N   UNL d   1      -0.617  -3.253   0.157  0.00  0.00    -0.322 N 
ATOM      9  H   UNL d   1      -1.502  -2.766   0.100  0.00  0.00     0.169 HD
ATOM     10  O   UNL d   1       1.658  -2.923   0.040  0.00  0.00    -0.267 OA
BRANCH   8  11
ATOM     11  C   UNL d   1      -0.634  -4.664   0.041  0.00  0.00     0.036 A 
ATOM     12  C   UNL d   1       0.502  -5.458   0.227  0.00  0.00     0.048 A 
ATOM     13  C   UNL d   1       0.414  -6.811  -0.047  0.00  0.00     0.050 A 
ATOM     14  C   UNL d   1       1.472  -7.812   0.012  0.00  0.00     0.294 A 
ATOM     15  C   UNL d   1      -0.752  -7.410  -0.469  0.00  0.00    -0.018 A 
ATOM     16  O   UNL d   1       0.911  -8.986  -0.410  0.00  0.00    -0.313 OA
ATOM     17  O   UNL d   1       2.620  -7.645   0.363  0.00  0.00    -0.259 OA
ATOM     18  C   UNL d   1      -0.485  -8.833  -0.749  0.00  0.00     0.218 A 
ATOM     19  C   UNL d   1      -1.911  -6.663  -0.589  0.00  0.00     0.012 A 
ATOM     20  C   UNL d   1      -1.849  -5.285  -0.322  0.00  0.00     0.030 A 
ENDBRANCH   8  11
ENDBRANCH   3   7
BRANCH   1  21
ATOM     21  S   UNL d   1       1.578   2.845   0.068  0.00  0.00     0.207 S 
ATOM     22  O   UNL d   1       0.671   3.793   0.686  0.00  0.00    -0.217 OA
ATOM     23  O   UNL d   1       2.905   2.615   0.596  0.00  0.00    -0.217 OA
BRANCH  21  24
ATOM     24  C   UNL d   1       1.695   3.245  -1.660  0.00  0.00     0.064 A 
ATOM     25  C   UNL d   1       0.722   4.072  -2.237  0.00  0.00     0.025 A 
ATOM     26  C   UNL d   1       0.827   4.428  -3.584  0.00  0.00     0.025 A 
ATOM     27  C   UNL d   1       1.903   3.969  -4.342  0.00  0.00     0.034 A 
ATOM     28  C   UNL d   1       2.887   3.167  -3.760  0.00  0.00     0.025 A 
ATOM     29 CL   UNL d   1       2.024   4.403  -6.002  0.00  0.00    -0.084 Cl
ATOM     30  C   UNL d   1       2.791   2.809  -2.412  0.00  0.00     0.025 A 
ENDBRANCH  21  24
ENDBRANCH   1  21
TORSDOF 4
