REMARK  7 active torsions:
REMARK  status: ('A' for Active; 'I' for Inactive)
REMARK    1  A    between atoms: C_7  and  C_1 
REMARK    2  A    between atoms: C_2  and  C_5 
REMARK    3  A    between atoms: C_3  and  C_4 
REMARK    4  A    between atoms: C_8  and  O_19 
REMARK    5  A    between atoms: C_10  and  C_8 
REMARK    6  A    between atoms: C_30  and  C_14 
REMARK    7  A    between atoms: O_19  and  C_30 
ROOT
ATOM      1  C   UNL d   1      -0.002   1.069  -0.015  0.00  0.00     0.086 A 
ATOM      2  O   UNL d   1      -0.863   0.007   0.005  0.00  0.00    -0.312 OA
ATOM      3  C   UNL d   1       1.288   0.614   0.170  0.00  0.00     0.040 A 
ATOM      4  C   UNL d   1      -0.124  -1.125   0.187  0.00  0.00     0.078 A 
ATOM      5  C   UNL d   1       1.211  -0.797   0.303  0.00  0.00     0.038 A 
ENDROOT
BRANCH   1   6
ATOM      6  C   UNL d   1      -0.606   2.380  -0.257  0.00  0.00    -0.001 A 
ATOM      7  C   UNL d   1      -1.990   2.569  -0.131  0.00  0.00     0.030 A 
ATOM      8  C   UNL d   1      -2.590   3.810  -0.405  0.00  0.00     0.049 A 
ATOM      9  C   UNL d   1      -1.779   4.882  -0.806  0.00  0.00     0.032 A 
ATOM     10  C   UNL d   1      -0.391   4.722  -0.937  0.00  0.00     0.049 A 
ATOM     11  C   UNL d   1       0.182   3.470  -0.649  0.00  0.00     0.030 A 
BRANCH   8  12
ATOM     12  C   UNL d   1      -4.087   3.963  -0.270  0.00  0.00     0.417 C 
ATOM     13  F   UNL d   1      -4.540   5.194  -0.638  0.00  0.00    -0.166 F 
ATOM     14  F   UNL d   1      -4.772   3.070  -1.036  0.00  0.00    -0.166 F 
ATOM     15  F   UNL d   1      -4.517   3.772   1.007  0.00  0.00    -0.166 F 
ENDBRANCH   8  12
BRANCH  10  16
ATOM     16  C   UNL d   1       0.490   5.866  -1.384  0.00  0.00     0.417 C 
ATOM     17  F   UNL d   1      -0.208   6.964  -1.785  0.00  0.00    -0.166 F 
ATOM     18  F   UNL d   1       1.327   6.291  -0.399  0.00  0.00    -0.166 F 
ATOM     19  F   UNL d   1       1.288   5.527  -2.434  0.00  0.00    -0.166 F 
ENDBRANCH  10  16
ENDBRANCH   1   6
BRANCH   4  20
ATOM     20  C   UNL d   1      -0.867  -2.412   0.212  0.00  0.00     0.244 C 
BRANCH  20  21
ATOM     21  O   UNL d   1      -1.112  -2.713   1.588  0.00  0.00    -0.311 OA
BRANCH  21  22
ATOM     22  C   UNL d   1      -0.447  -3.777   2.105  0.00  0.00     0.293 C 
ATOM     23  O   UNL d   1       0.245  -4.567   1.484  0.00  0.00    -0.259 OA
BRANCH  22  24
ATOM     24  C   UNL d   1      -0.556  -3.752   3.585  0.00  0.00     0.040 A 
ATOM     25  C   UNL d   1       0.398  -4.475   4.318  0.00  0.00     0.027 A 
ATOM     26  C   UNL d   1       0.453  -4.270   5.684  0.00  0.00    -0.022 A 
ATOM     27  C   UNL d   1       1.385  -4.809   6.702  0.00  0.00     0.068 C 
ATOM     28  C   UNL d   1      -0.439  -3.411   6.314  0.00  0.00     0.075 A 
ATOM     29  C   UNL d   1       1.222  -3.685   7.723  0.00  0.00     0.180 C 
ATOM     30  O   UNL d   1      -0.151  -3.222   7.645  0.00  0.00    -0.350 OA
ATOM     31  C   UNL d   1      -1.456  -2.777   5.636  0.00  0.00     0.038 A 
ATOM     32  C   UNL d   1      -1.507  -2.943   4.250  0.00  0.00     0.020 A 
ENDBRANCH  22  24
ENDBRANCH  21  22
ENDBRANCH  20  21
ENDBRANCH   4  20
TORSDOF 7
