REMARK  2 active torsions:
REMARK  status: ('A' for Active; 'I' for Inactive)
REMARK    1  A    between atoms: N_4  and  C_1 
REMARK    2  A    between atoms: C_7  and  C_1 
ROOT
ATOM      1  C   UNL d   1       2.141  -0.023  -0.131  0.00  0.00     0.252 A 
ATOM      2  C   UNL d   1       1.181  -1.202  -0.052  0.00  0.00     0.207 A 
ATOM      3  C   UNL d   1       1.210   1.180  -0.075  0.00  0.00     0.207 A 
ATOM      4  C   UNL d   1      -0.187  -0.685  -0.004  0.00  0.00     0.027 A 
ATOM      5  C   UNL d   1      -0.170   0.702  -0.011  0.00  0.00     0.027 A 
ATOM      6  O   UNL d   1       1.488   2.369  -0.087  0.00  0.00    -0.288 OA
ATOM      7  O   UNL d   1       1.430  -2.394  -0.039  0.00  0.00    -0.288 OA
ATOM      8  C   UNL d   1      -1.371  -1.398   0.016  0.00  0.00     0.016 A 
ATOM      9  C   UNL d   1      -1.337   1.443   0.008  0.00  0.00     0.016 A 
ATOM     10  C   UNL d   1      -2.562  -0.667   0.034  0.00  0.00     0.001 A 
ATOM     11  C   UNL d   1      -2.546   0.741   0.032  0.00  0.00     0.001 A 
ENDROOT
BRANCH   1  12
ATOM     12  N   UNL d   1       2.670  -0.032  -1.557  0.00  0.00    -0.124 N 
ATOM     13  O   UNL d   1       3.891  -0.094  -1.759  0.00  0.00    -0.535 OA
ATOM     14  O   UNL d   1       1.825   0.015  -2.468  0.00  0.00    -0.535 OA
ENDBRANCH   1  12
BRANCH   1  15
ATOM     15  C   UNL d   1       3.259  -0.071   0.914  0.00  0.00    -0.008 A 
ATOM     16  C   UNL d   1       4.123  -1.185   0.990  0.00  0.00     0.011 A 
ATOM     17  C   UNL d   1       5.167  -1.238   1.917  0.00  0.00     0.001 A 
ATOM     18  C   UNL d   1       5.366  -0.187   2.804  0.00  0.00     0.000 A 
ATOM     19  C   UNL d   1       4.509   0.907   2.776  0.00  0.00     0.001 A 
ATOM     20  C   UNL d   1       3.464   0.963   1.847  0.00  0.00     0.011 A 
ENDBRANCH   1  15
TORSDOF 2
