REMARK  4 active torsions:
REMARK  status: ('A' for Active; 'I' for Inactive)
REMARK    1  A    between atoms: O_11  and  C_1 
REMARK    2  A    between atoms: C_12  and  C_1 
REMARK    3  A    between atoms: N_3  and  O_11 
REMARK    4  A    between atoms: C_15  and  C_14 
ROOT
ATOM      1  N   UNL d   1      -1.147   0.865   0.601  0.00  0.00    -0.268 N 
ATOM      2  HN  UNL d   1      -1.644   0.018   0.324  1.00  0.00     0.194 HD
ATOM      3  C   UNL d   1      -1.720   1.932   1.048  0.00  0.00     0.126 C 
ENDROOT
BRANCH   1   4
ATOM      4  O   UNL d   1       0.249   1.019   0.545  0.00  0.00    -0.200 OA
BRANCH   4   5
ATOM      5  C   UNL d   1       0.804  -0.131   0.027  0.00  0.00     0.285 C 
ATOM      6  O   UNL d   1       0.185  -1.152  -0.272  0.00  0.00    -0.263 OA
BRANCH   5   7
ATOM      7  C   UNL d   1       2.327  -0.030  -0.061  0.00  0.00     0.087 C 
ATOM      8  C   UNL d   1       2.854   1.370  -0.403  0.00  0.00     0.015 C 
ATOM      9  C   UNL d   1       2.558   1.772  -1.847  0.00  0.00     0.001 C 
ATOM     10  C   UNL d   1       3.079   0.739  -2.842  0.00  0.00     0.000 C 
ATOM     11  C   UNL d   1       2.580  -0.665  -2.519  0.00  0.00     0.001 C 
ATOM     12  C   UNL d   1       2.878  -1.054  -1.070  0.00  0.00     0.015 C 
ENDBRANCH   5   7
ENDBRANCH   4   5
ENDBRANCH   1   4
BRANCH   3  13
ATOM     13  C   UNL d   1      -3.192   1.993   1.166  0.00  0.00    -0.016 A 
ATOM     14  C   UNL d   1      -3.799   3.162   1.639  0.00  0.00     0.052 A 
ATOM     15  C   UNL d   1      -5.179   3.180   1.684  0.00  0.00     0.105 A 
ATOM     16  O   UNL d   1      -5.946   4.230   2.086  0.00  0.00    -0.323 OA
ATOM     17  C   UNL d   1      -5.940   2.099   1.297  0.00  0.00     0.105 A 
ATOM     18  C   UNL d   1      -7.271   3.709   1.843  0.00  0.00     0.352 A 
ATOM     19  O   UNL d   1      -7.274   2.335   1.405  0.00  0.00    -0.323 OA
ATOM     20  C   UNL d   1      -5.367   0.930   0.847  0.00  0.00     0.040 A 
ATOM     21  C   UNL d   1      -3.973   0.881   0.778  0.00  0.00     0.016 A 
ENDBRANCH   3  13
TORSDOF 4
