REMARK  3 active torsions:
REMARK  status: ('A' for Active; 'I' for Inactive)
REMARK    1  A    between atoms: C_2  and  C_1 
REMARK    2  A    between atoms: C_14  and  C_3 
REMARK    3  A    between atoms: O_16  and  C_14 
ROOT
ATOM      1  C   UNL d   1      -1.281  -0.950  -0.021  0.00  0.00     0.137 A 
ATOM      2  C   UNL d   1       0.044  -1.374  -0.050  0.00  0.00     0.100 A 
ATOM      3  O   UNL d   1      -1.273   0.420  -0.012  0.00  0.00    -0.235 OA
ATOM      4  N   UNL d   1       0.012   0.902   0.001  0.00  0.00    -0.264 N 
ATOM      5  HN  UNL d   1       0.301   1.880   0.016  1.00  0.00     0.194 HD
ATOM      6  C   UNL d   1       0.808  -0.172  -0.009  0.00  0.00     0.048 A 
ATOM      7  C   UNL d   1       2.276   0.041  -0.019  0.00  0.00     0.071 C 
ENDROOT
BRANCH   1   8
ATOM      8  C   UNL d   1      -2.521  -1.673   0.033  0.00  0.00     0.083 A 
ATOM      9  C   UNL d   1      -3.765  -1.345  -0.498  0.00  0.00     0.043 A 
ATOM     10  N   UNL d   1      -4.777  -2.261  -0.219  0.00  0.00    -0.298 N 
ATOM     11  C   UNL d   1      -4.146  -0.162  -1.311  0.00  0.00     0.071 C 
ATOM     12  N   UNL d   1      -4.351  -3.260   0.530  0.00  0.00    -0.269 N 
ATOM     13  HN  UNL d   1      -5.735  -2.171  -0.556  1.00  0.00     0.187 HD
ATOM     14  S   UNL d   1      -2.740  -3.124   0.932  0.00  0.00     0.006 SA
ATOM     15  HN  UNL d   1      -4.944  -4.033   0.831  1.00  0.00     0.195 HD
ENDBRANCH   1   8
BRANCH   2  16
ATOM     16  C   UNL d   1       0.497  -2.744  -0.134  0.00  0.00     0.297 C 
ATOM     17  O   UNL d   1      -0.119  -3.620  -0.725  0.00  0.00    -0.259 OA
BRANCH  16  18
ATOM     18  O   UNL d   1       1.661  -2.960   0.542  0.00  0.00    -0.322 OA
ATOM     19  C   UNL d   1       2.070  -4.330   0.559  0.00  0.00     0.213 C 
ENDBRANCH  16  18
ENDBRANCH   2  16
TORSDOF 3
