REMARK  3 active torsions:
REMARK  status: ('A' for Active; 'I' for Inactive)
REMARK    1  A    between atoms: C_2  and  C_1 
REMARK       I    between atoms: N_3  and  C_2 
REMARK    2  A    between atoms: C_8  and  N_3 
REMARK    3  A    between atoms: O_18  and  C_6 
ROOT
ATOM      1  C   UNL d   1      -2.675  -2.457  -0.238  0.00  0.00     0.259 C 
ATOM      2  N   UNL d   1      -1.962  -3.610   0.054  0.00  0.00    -0.323 N 
ATOM      3  O   UNL d   1      -3.863  -2.427  -0.557  0.00  0.00    -0.267 OA
ATOM      4  H   UNL d   1      -1.042  -3.516   0.460  0.00  0.00     0.169 HD
ENDROOT
BRANCH   1   5
ATOM      5  C   UNL d   1      -1.972  -1.137  -0.143  0.00  0.00     0.066 A 
ATOM      6  C   UNL d   1      -2.732   0.047  -0.231  0.00  0.00     0.081 A 
ATOM      7  C   UNL d   1      -2.128   1.303  -0.184  0.00  0.00     0.039 A 
ATOM      8  C   UNL d   1      -0.747   1.403  -0.052  0.00  0.00     0.022 A 
ATOM      9  C   UNL d   1       0.018   0.242   0.029  0.00  0.00     0.012 A 
ATOM     10  C   UNL d   1      -0.579  -1.024  -0.021  0.00  0.00     0.039 A 
ATOM     11 BR   UNL d   1       1.898   0.382   0.195  0.00  0.00    -0.051 Br
BRANCH   6  12
ATOM     12  O   UNL d   1      -4.096   0.064  -0.378  0.00  0.00    -0.360 OA
ATOM     13  H   UNL d   1      -4.401  -0.864  -0.495  0.00  0.00     0.217 HD
ENDBRANCH   6  12
ENDBRANCH   1   5
BRANCH   2  14
ATOM     14  C   UNL d   1      -2.423  -4.941  -0.109  0.00  0.00     0.036 A 
ATOM     15  C   UNL d   1      -3.652  -5.275  -0.689  0.00  0.00     0.056 A 
ATOM     16  C   UNL d   1      -4.026  -6.613  -0.845  0.00  0.00     0.074 A 
ATOM     17 CL   UNL d   1      -5.543  -6.988  -1.570  0.00  0.00    -0.081 Cl
ATOM     18  C   UNL d   1      -3.173  -7.626  -0.424  0.00  0.00     0.138 A 
ATOM     19  C   UNL d   1      -1.948  -7.315   0.155  0.00  0.00     0.046 A 
ATOM     20  F   UNL d   1      -3.509  -8.915  -0.573  0.00  0.00    -0.204 F 
ATOM     21  C   UNL d   1      -1.573  -5.976   0.312  0.00  0.00     0.032 A 
ENDBRANCH   2  14
TORSDOF 3
