REMARK  4 active torsions:
REMARK  status: ('A' for Active; 'I' for Inactive)
REMARK    1  A    between atoms: C_3  and  C_1 
REMARK    2  A    between atoms: C_9  and  C_2 
REMARK    3  A    between atoms: N_7  and  C_3 
REMARK    4  A    between atoms: C_12  and  N_7 
ROOT
ATOM      1  C   UNL d   1       1.180   0.459   0.273  0.00  0.00     0.093 C 
ATOM      2  C   UNL d   1       1.039  -0.873   0.326  0.00  0.00     0.107 C 
ATOM      3  O   UNL d   1      -0.277  -1.375   0.430  0.00  0.00    -0.271 OA
ATOM      4  C   UNL d   1      -1.087  -0.295   0.489  0.00  0.00     0.340 C 
ATOM      5  C   UNL d   1      -0.182   0.900   0.572  0.00  0.00     0.263 C 
ATOM      6  O   UNL d   1      -2.301  -0.281   0.475  0.00  0.00    -0.255 OA
ATOM      7  O   UNL d   1      -0.541   2.012   0.913  0.00  0.00    -0.281 OA
ENDROOT
BRANCH   1   8
ATOM      8  C   UNL d   1       2.316   1.395   0.130  0.00  0.00     0.118 C 
ATOM      9  S   UNL d   1       3.697   1.376   1.089  0.00  0.00    -0.059 SA
BRANCH   8  10
ATOM     10  N   UNL d   1       2.194   2.447  -0.762  0.00  0.00    -0.346 N 
ATOM     11  H   UNL d   1       2.823   3.217  -0.542  0.00  0.00     0.167 HD
BRANCH  10  12
ATOM     12  C   UNL d   1       1.097   2.756  -1.592  0.00  0.00     0.033 A 
ATOM     13  C   UNL d   1       0.618   4.070  -1.575  0.00  0.00     0.031 A 
ATOM     14  C   UNL d   1      -0.591   4.381  -2.203  0.00  0.00     0.026 A 
ATOM     15  C   UNL d   1      -1.290   3.391  -2.891  0.00  0.00     0.034 A 
ATOM     16  C   UNL d   1      -0.765   2.105  -2.999  0.00  0.00     0.026 A 
ATOM     17 CL   UNL d   1      -2.814   3.755  -3.599  0.00  0.00    -0.084 Cl
ATOM     18  C   UNL d   1       0.438   1.790  -2.360  0.00  0.00     0.031 A 
ENDBRANCH  10  12
ENDBRANCH   8  10
ENDBRANCH   1   8
BRANCH   2  19
ATOM     19  C   UNL d   1       2.058  -1.944   0.315  0.00  0.00    -0.001 A 
ATOM     20  C   UNL d   1       1.781  -3.128   1.028  0.00  0.00     0.014 A 
ATOM     21  C   UNL d   1       2.705  -4.172   1.101  0.00  0.00     0.001 A 
ATOM     22  C   UNL d   1       3.933  -4.050   0.463  0.00  0.00     0.000 A 
ATOM     23  C   UNL d   1       4.220  -2.899  -0.268  0.00  0.00     0.001 A 
ATOM     24  C   UNL d   1       3.281  -1.861  -0.357  0.00  0.00     0.014 A 
ENDBRANCH   2  19
TORSDOF 4
