REMARK  3 active torsions:
REMARK  status: ('A' for Active; 'I' for Inactive)
REMARK    1  A    between atoms: N_4  and  C_1 
REMARK    2  A    between atoms: C_5  and  C_1 
REMARK    3  A    between atoms: C_6  and  N_4 
ROOT
ATOM      1  C   UNL d   1       1.109   0.026  -0.094  0.00  0.00     0.144 C 
ATOM      2  N   UNL d   1       0.170   2.002  -1.601  0.00  0.00    -0.194 NA
ATOM      3  C   UNL d   1       0.572   1.134  -0.944  0.00  0.00     0.095 C 
ATOM      4  C   UNL d   1       2.641   0.147   0.071  0.00  0.00     0.061 C 
ENDROOT
BRANCH   1   5
ATOM      5  N   UNL d   1       0.766  -1.304  -0.670  0.00  0.00    -0.365 N 
ATOM      6  H   UNL d   1      -0.195  -1.564  -0.451  0.00  0.00     0.161 HD
BRANCH   5   7
ATOM      7  C   UNL d   1       1.111  -1.753  -1.946  0.00  0.00     0.029 A 
ATOM      8  C   UNL d   1       1.862  -1.032  -2.882  0.00  0.00     0.031 A 
ATOM      9  C   UNL d   1       2.237  -1.583  -4.114  0.00  0.00     0.026 A 
ATOM     10  C   UNL d   1       1.871  -2.883  -4.430  0.00  0.00     0.034 A 
ATOM     11  C   UNL d   1       1.133  -3.632  -3.524  0.00  0.00     0.026 A 
ATOM     12 CL   UNL d   1       2.339  -3.562  -5.939  0.00  0.00    -0.084 Cl
ATOM     13  C   UNL d   1       0.763  -3.070  -2.293  0.00  0.00     0.031 A 
ENDBRANCH   5   7
ENDBRANCH   1   5
BRANCH   1  14
ATOM     14  C   UNL d   1       0.557   0.138   1.355  0.00  0.00    -0.016 A 
ATOM     15  C   UNL d   1       0.351  -0.993   2.168  0.00  0.00     0.011 A 
ATOM     16  C   UNL d   1      -0.014  -0.857   3.513  0.00  0.00     0.001 A 
ATOM     17  C   UNL d   1      -0.167   0.408   4.077  0.00  0.00     0.000 A 
ATOM     18  C   UNL d   1       0.032   1.541   3.297  0.00  0.00     0.001 A 
ATOM     19  C   UNL d   1       0.388   1.409   1.954  0.00  0.00     0.011 A 
ENDBRANCH   1  14
TORSDOF 3
