REMARK  3 active torsions:
REMARK  status: ('A' for Active; 'I' for Inactive)
REMARK    1  A    between atoms: N_6  and  N_1 
REMARK       I    between atoms: C_5  and  N_6 
REMARK    2  A    between atoms: C_8  and  C_5 
REMARK    3  A    between atoms: C_10  and  C_7 
ROOT
ATOM      1  N   UNL d   1      -0.378  -4.125   2.051  0.00  0.00    -0.197 NA
ATOM      2  C   UNL d   1      -1.066  -3.279   1.655  0.00  0.00     0.068 C 
ATOM      3  C   UNL d   1      -1.871  -2.179   1.136  0.00  0.00     0.228 C 
ENDROOT
BRANCH   3   4
ATOM      4  C   UNL d   1      -1.072  -1.035   0.545  0.00  0.00     0.249 C 
ATOM      5  N   UNL d   1       0.313  -1.146   0.552  0.00  0.00    -0.269 N 
ATOM      6  H   UNL d   1       0.780  -1.960   0.930  0.00  0.00     0.190 HD
ATOM      7  O   UNL d   1      -1.679  -0.062   0.086  0.00  0.00    -0.271 OA
BRANCH   5   8
ATOM      8  N   UNL d   1       1.052  -0.131   0.030  0.00  0.00    -0.302 N 
ATOM      9  C   UNL d   1       2.355  -0.161   0.022  0.00  0.00     0.032 C 
ATOM     10  C   UNL d   1       3.210  -1.284   0.577  0.00  0.00     0.070 C 
ATOM     11  HN  UNL d   1       0.573   0.677  -0.368  1.00  0.00     0.186 HD
BRANCH   9  12
ATOM     12  C   UNL d   1       3.079   1.018  -0.584  0.00  0.00    -0.013 A 
ATOM     13  C   UNL d   1       2.334   2.092  -1.093  0.00  0.00     0.013 A 
ATOM     14  C   UNL d   1       2.974   3.203  -1.651  0.00  0.00     0.001 A 
ATOM     15  C   UNL d   1       4.365   3.252  -1.707  0.00  0.00     0.000 A 
ATOM     16  C   UNL d   1       5.116   2.190  -1.210  0.00  0.00     0.001 A 
ATOM     17  C   UNL d   1       4.479   1.076  -0.652  0.00  0.00     0.013 A 
ENDBRANCH   9  12
ENDBRANCH   5   8
ENDBRANCH   3   4
TORSDOF 3
