REMARK  5 active torsions:
REMARK  status: ('A' for Active; 'I' for Inactive)
REMARK    1  A    between atoms: S_12  and  C_3 
REMARK    2  A    between atoms: C_7  and  C_4 
REMARK    3  A    between atoms: O_14  and  C_7 
REMARK    4  A    between atoms: C_17  and  S_12 
REMARK    5  A    between atoms: C_19  and  C_17 
ROOT
ATOM      1  C   UNL d   1       0.119  -0.771  -0.012  0.00  0.00     0.041 A 
ATOM      2  C   UNL d   1       0.451   0.644  -0.046  0.00  0.00    -0.018 A 
ATOM      3  C   UNL d   1       1.247  -1.569  -0.032  0.00  0.00     0.056 A 
ATOM      4  C   UNL d   1       1.825   0.858  -0.093  0.00  0.00     0.088 A 
ATOM      5  S   UNL d   1       2.672  -0.630  -0.074  0.00  0.00    -0.076 SA
ATOM      6  C   UNL d   1      -1.274  -1.210   0.050  0.00  0.00     0.162 C 
ATOM      7  C   UNL d   1      -0.623   1.717  -0.040  0.00  0.00     0.050 C 
ATOM      8  C   UNL d   1      -2.033   1.177   0.344  0.00  0.00    -0.037 C 
ATOM      9  C   UNL d   1      -2.293  -0.168  -0.365  0.00  0.00     0.093 C 
ATOM     10  O   UNL d   1      -1.630  -2.337   0.392  0.00  0.00    -0.292 OA
ATOM     11  C   UNL d   1      -3.115   2.179  -0.102  0.00  0.00     0.015 C 
ATOM     12  C   UNL d   1      -2.151   1.007   1.874  0.00  0.00     0.015 C 
ENDROOT
BRANCH   3  13
ATOM     13  S   UNL d   1       1.414  -3.321   0.012  0.00  0.00    -0.122 SA
BRANCH  13  14
ATOM     14  C   UNL d   1       0.505  -3.873  -1.460  0.00  0.00     0.080 C 
BRANCH  14  15
ATOM     15  C   UNL d   1       1.080  -3.349  -2.774  0.00  0.00     0.006 C 
ATOM     16  C   UNL d   1       0.297  -3.911  -3.954  0.00  0.00     0.006 C 
ENDBRANCH  14  15
ENDBRANCH  13  14
ENDBRANCH   3  13
BRANCH   4  17
ATOM     17  C   UNL d   1       2.549   2.125  -0.153  0.00  0.00     0.300 C 
ATOM     18  O   UNL d   1       2.025   3.233  -0.209  0.00  0.00    -0.259 OA
BRANCH  17  19
ATOM     19  O   UNL d   1       3.901   1.926  -0.142  0.00  0.00    -0.322 OA
ATOM     20  C   UNL d   1       4.695   3.110  -0.200  0.00  0.00     0.213 C 
ENDBRANCH  17  19
ENDBRANCH   4  17
TORSDOF 5
