REMARK  5 active torsions:
REMARK  status: ('A' for Active; 'I' for Inactive)
REMARK    1  A    between atoms: C_2  and  C_1 
REMARK    2  A    between atoms: C_4  and  C_3 
REMARK       I    between atoms: N_5  and  C_4 
REMARK    3  A    between atoms: C_8  and  N_5 
REMARK    4  A    between atoms: C_6  and  C_8 
REMARK    5  A    between atoms: C_7  and  C_6 
ROOT
ATOM      1  C   UNL d   1       2.638  -2.265   0.701  0.00  0.00     0.252 C 
ATOM      2  N   UNL d   1       3.620  -3.179   0.385  0.00  0.00    -0.350 N 
ATOM      3  O   UNL d   1       1.500  -2.563   1.040  0.00  0.00    -0.268 OA
ATOM      4  H   UNL d   1       4.560  -2.876   0.163  0.00  0.00     0.163 HD
ENDROOT
BRANCH   1   5
ATOM      5  C   UNL d   1       3.015  -0.834   0.616  0.00  0.00     0.047 A 
ATOM      6  C   UNL d   1       2.171   0.095  -0.019  0.00  0.00     0.063 A 
ATOM      7  C   UNL d   1       2.526   1.460   0.030  0.00  0.00     0.017 A 
ATOM      8  C   UNL d   1       3.694   1.881   0.664  0.00  0.00     0.001 A 
ATOM      9  C   UNL d   1       4.532   0.946   1.268  0.00  0.00     0.001 A 
ATOM     10  C   UNL d   1       4.190  -0.409   1.250  0.00  0.00     0.018 A 
BRANCH   6  11
ATOM     11  C   UNL d   1       0.905  -0.279  -0.753  0.00  0.00     0.418 C 
ATOM     12  F   UNL d   1       0.841  -1.556  -1.211  0.00  0.00    -0.166 F 
ATOM     13  F   UNL d   1       0.742   0.489  -1.875  0.00  0.00    -0.166 F 
ATOM     14  F   UNL d   1      -0.215  -0.061  -0.010  0.00  0.00    -0.166 F 
ENDBRANCH   6  11
ENDBRANCH   1   5
BRANCH   2  15
ATOM     15  C   UNL d   1       3.342  -4.603   0.339  0.00  0.00     0.206 C 
BRANCH  15  16
ATOM     16  C   UNL d   1       4.024  -5.326   1.496  0.00  0.00     0.177 C 
ATOM     17  O   UNL d   1       5.249  -5.475   1.510  0.00  0.00    -0.291 OA
BRANCH  16  18
ATOM     18  C   UNL d   1       3.221  -5.802   2.663  0.00  0.00     0.011 A 
ATOM     19  C   UNL d   1       1.921  -5.349   2.916  0.00  0.00     0.017 A 
ATOM     20  C   UNL d   1       1.235  -5.767   4.064  0.00  0.00     0.025 A 
ATOM     21  C   UNL d   1       1.844  -6.641   4.958  0.00  0.00     0.034 A 
ATOM     22  C   UNL d   1       3.131  -7.115   4.711  0.00  0.00     0.025 A 
ATOM     23 CL   UNL d   1       1.008  -7.127   6.379  0.00  0.00    -0.084 Cl
ATOM     24  C   UNL d   1       3.818  -6.695   3.567  0.00  0.00     0.017 A 
ENDBRANCH  16  18
ENDBRANCH  15  16
ENDBRANCH   2  15
TORSDOF 5
