REMARK  7 active torsions:
REMARK  status: ('A' for Active; 'I' for Inactive)
REMARK    1  A    between atoms: C_5  and  S_1 
REMARK    2  A    between atoms: N_15  and  S_1 
REMARK    3  A    between atoms: C_3  and  C_6 
REMARK    4  A    between atoms: C_4  and  C_7 
REMARK    5  A    between atoms: N_8  and  C_24 
REMARK    6  A    between atoms: C_23  and  N_15 
REMARK    7  A    between atoms: C_24  and  C_23 
ROOT
ATOM      1  C   UNL d   1       0.380  -0.695   1.456  0.00  0.00     0.081 A 
ATOM      2  C   UNL d   1       0.307  -0.605   3.880  0.00  0.00     0.050 A 
ATOM      3  C   UNL d   1      -0.986  -2.297   2.658  0.00  0.00     0.050 A 
ATOM      4  C   UNL d   1       0.771  -0.097   2.660  0.00  0.00     0.041 A 
ATOM      5  C   UNL d   1      -0.492  -1.788   1.448  0.00  0.00     0.041 A 
ATOM      6  C   UNL d   1      -0.571  -1.706   3.867  0.00  0.00     0.032 A 
ENDROOT
BRANCH   1   7
ATOM      7  S   UNL d   1       1.014  -0.049  -0.078  0.00  0.00     0.258 S 
ATOM      8  O   UNL d   1       0.683   1.355  -0.116  0.00  0.00    -0.201 OA
ATOM      9  O   UNL d   1       0.646  -0.963  -1.136  0.00  0.00    -0.201 OA
BRANCH   7  10
ATOM     10  N   UNL d   1       2.680  -0.150   0.124  0.00  0.00    -0.314 N 
ATOM     11  H   UNL d   1       3.063   0.660   0.611  0.00  0.00     0.172 HD
BRANCH  10  12
ATOM     12  C   UNL d   1       3.270  -1.469   0.399  0.00  0.00     0.152 C 
BRANCH  12  13
ATOM     13  C   UNL d   1       4.793  -1.349   0.529  0.00  0.00     0.148 C 
BRANCH  13  14
ATOM     14  N   UNL d   1       5.432  -2.587   0.927  0.00  0.00    -0.331 N 
ATOM     15  C   UNL d   1       5.149  -3.259   2.112  0.00  0.00     0.318 C 
ATOM     16  N   UNL d   1       5.802  -4.478   2.065  0.00  0.00    -0.341 N 
ATOM     17  O   UNL d   1       4.442  -2.869   3.024  0.00  0.00    -0.247 OA
ATOM     18  C   UNL d   1       6.701  -4.528   0.943  0.00  0.00     0.144 C 
ATOM     19  H   UNL d   1       5.847  -5.056   2.894  0.00  0.00     0.164 HD
ATOM     20  C   UNL d   1       6.168  -3.439   0.018  0.00  0.00     0.147 C 
ENDBRANCH  13  14
ENDBRANCH  12  13
ENDBRANCH  10  12
ENDBRANCH   7  10
ENDBRANCH   1   7
BRANCH   2  21
ATOM     21  C   UNL d   1       0.722   0.017   5.194  0.00  0.00     0.417 C 
ATOM     22  F   UNL d   1       1.581   1.063   5.050  0.00  0.00    -0.166 F 
ATOM     23  F   UNL d   1      -0.342   0.500   5.893  0.00  0.00    -0.166 F 
ATOM     24  F   UNL d   1       1.342  -0.869   6.019  0.00  0.00    -0.166 F 
ENDBRANCH   2  21
BRANCH   3  25
ATOM     25  C   UNL d   1      -1.967  -3.448   2.682  0.00  0.00     0.417 C 
ATOM     26  F   UNL d   1      -2.286  -3.917   1.445  0.00  0.00    -0.166 F 
ATOM     27  F   UNL d   1      -1.498  -4.518   3.380  0.00  0.00    -0.166 F 
ATOM     28  F   UNL d   1      -3.145  -3.104   3.268  0.00  0.00    -0.166 F 
ENDBRANCH   3  25
TORSDOF 7
