REMARK  9 active torsions:
REMARK  status: ('A' for Active; 'I' for Inactive)
REMARK    1  A    between atoms: N_4  and  C_1 
REMARK       I    between atoms: C_2  and  N_4 
REMARK    2  A    between atoms: C_8  and  C_2 
REMARK    3  A    between atoms: S_14  and  C_5 
REMARK    4  A    between atoms: C_11  and  C_17 
REMARK    5  A    between atoms: C_12  and  C_11 
REMARK    6  A    between atoms: O_23  and  C_12 
REMARK    7  A    between atoms: C_20  and  S_14 
REMARK    8  A    between atoms: C_17  and  C_20 
REMARK    9  A    between atoms: C_27  and  O_23 
ROOT
ATOM      1  C   UNL d   1       0.127   1.171   0.038  0.00  0.00     0.168 C 
ATOM      2  S   UNL d   1       1.243  -0.021   0.511  0.00  0.00    -0.026 SA
ATOM      3  C   UNL d   1       0.240  -1.171  -0.261  0.00  0.00     0.130 C 
ATOM      4  N   UNL d   1      -0.999   0.687  -0.439  0.00  0.00    -0.278 N 
ATOM      5  HN  UNL d   1      -1.825   1.251  -0.640  1.00  0.00     0.189 HD
ATOM      6  N   UNL d   1      -0.926  -0.685  -0.634  0.00  0.00    -0.286 N 
ATOM      7  HN  UNL d   1      -1.683  -1.249  -1.019  1.00  0.00     0.188 HD
ENDROOT
BRANCH   1   8
ATOM      8  N   UNL d   1       0.379   2.518   0.163  0.00  0.00    -0.302 N 
ATOM      9  C   UNL d   1       1.628   3.076   0.359  0.00  0.00     0.263 C 
ATOM     10  O   UNL d   1       2.673   2.451   0.502  0.00  0.00    -0.267 OA
ATOM     11  H   UNL d   1      -0.403   3.102  -0.108  0.00  0.00     0.171 HD
BRANCH   9  12
ATOM     12  C   UNL d   1       1.705   4.560   0.344  0.00  0.00     0.109 A 
ATOM     13  C   UNL d   1       2.813   5.200   0.906  0.00  0.00     0.135 A 
ATOM     14  F   UNL d   1       3.783   4.510   1.523  0.00  0.00    -0.205 F 
ATOM     15  C   UNL d   1       2.944   6.589   0.866  0.00  0.00     0.043 A 
ATOM     16  C   UNL d   1       1.959   7.364   0.258  0.00  0.00     0.006 A 
ATOM     17  C   UNL d   1       0.845   6.742  -0.302  0.00  0.00     0.043 A 
ATOM     18  C   UNL d   1       0.726   5.352  -0.256  0.00  0.00     0.135 A 
ATOM     19  F   UNL d   1      -0.360   4.796  -0.815  0.00  0.00    -0.205 F 
ENDBRANCH   9  12
ENDBRANCH   1   8
BRANCH   3  20
ATOM     20  S   UNL d   1       0.679  -2.842  -0.564  0.00  0.00    -0.096 SA
BRANCH  20  21
ATOM     21  C   UNL d   1       2.488  -2.716  -0.653  0.00  0.00     0.160 C 
BRANCH  21  22
ATOM     22  C   UNL d   1       3.070  -3.892  -1.408  0.00  0.00     0.145 C 
ATOM     23  O   UNL d   1       3.433  -3.764  -2.582  0.00  0.00    -0.297 OA
BRANCH  22  24
ATOM     24  C   UNL d   1       3.139  -5.239  -0.740  0.00  0.00     0.190 C 
BRANCH  24  25
ATOM     25  C   UNL d   1       3.959  -5.266   0.512  0.00  0.00     0.265 C 
ATOM     26  O   UNL d   1       4.459  -4.292   1.052  0.00  0.00    -0.265 OA
BRANCH  25  27
ATOM     27  O   UNL d   1       4.041  -6.546   0.975  0.00  0.00    -0.322 OA
BRANCH  27  28
ATOM     28  C   UNL d   1       4.745  -6.728   2.213  0.00  0.00     0.174 C 
ATOM     29  C   UNL d   1       6.245  -6.772   1.981  0.00  0.00     0.034 C 
ENDBRANCH  27  28
ENDBRANCH  25  27
ENDBRANCH  24  25
ENDBRANCH  22  24
ENDBRANCH  21  22
ENDBRANCH  20  21
ENDBRANCH   3  20
TORSDOF 9
