REMARK  4 active torsions:
REMARK  status: ('A' for Active; 'I' for Inactive)
REMARK    1  A    between atoms: C_2  and  C_1 
REMARK    2  A    between atoms: C_4  and  C_2 
REMARK    3  A    between atoms: C_5  and  C_3 
REMARK    4  A    between atoms: C_6  and  C_7 
ROOT
ATOM      1  C   UNL d   1       2.844  -0.388   0.573  0.00  0.00     0.193 C 
ATOM      2  O   UNL d   1       1.921  -0.281   1.370  0.00  0.00    -0.287 OA
ENDROOT
BRANCH   1   3
ATOM      3  C   UNL d   1       2.991  -1.651  -0.206  0.00  0.00     0.029 A 
ATOM      4  C   UNL d   1       1.906  -2.300  -0.821  0.00  0.00     0.024 A 
ATOM      5  C   UNL d   1       2.160  -3.364  -1.708  0.00  0.00     0.016 A 
ATOM      6  C   UNL d   1       3.459  -3.817  -1.942  0.00  0.00     0.001 A 
ATOM      7  C   UNL d   1       4.519  -3.240  -1.255  0.00  0.00     0.001 A 
ATOM      8  C   UNL d   1       4.284  -2.183  -0.376  0.00  0.00     0.016 A 
BRANCH   4   9
ATOM      9  C   UNL d   1       0.475  -1.932  -0.680  0.00  0.00     0.156 C 
ATOM     10  O   UNL d   1      -0.197  -1.800  -1.704  0.00  0.00    -0.293 OA
ATOM     11  C   UNL d   1      -0.158  -1.868   0.683  0.00  0.00     0.097 C 
ENDBRANCH   4   9
ENDBRANCH   1   3
BRANCH   1  12
ATOM     12  C   UNL d   1       3.822   0.733   0.464  0.00  0.00     0.015 A 
ATOM     13  C   UNL d   1       3.825   1.693   1.479  0.00  0.00     0.016 A 
ATOM     14  C   UNL d   1       4.759   2.732   1.471  0.00  0.00     0.009 A 
ATOM     15  C   UNL d   1       5.729   2.839   0.459  0.00  0.00    -0.051 A 
ATOM     16  C   UNL d   1       5.684   1.895  -0.577  0.00  0.00     0.009 A 
ATOM     17  C   UNL d   1       4.728   0.870  -0.590  0.00  0.00     0.016 A 
BRANCH  15  18
ATOM     18  C   UNL d   1       6.766   3.974   0.503  0.00  0.00    -0.024 C 
ATOM     19  C   UNL d   1       7.827   3.893  -0.617  0.00  0.00     0.019 C 
ATOM     20  C   UNL d   1       6.038   5.327   0.358  0.00  0.00     0.019 C 
ATOM     21  C   UNL d   1       7.527   3.943   1.847  0.00  0.00     0.019 C 
ENDBRANCH  15  18
ENDBRANCH   1  12
TORSDOF 4
