REMARK  4 active torsions:
REMARK  status: ('A' for Active; 'I' for Inactive)
REMARK    1  A    between atoms: C_8  and  C_1 
REMARK    2  A    between atoms: N_5  and  C_10 
REMARK    3  A    between atoms: C_11  and  C_9 
REMARK    4  A    between atoms: C_14  and  C_15 
ROOT
ATOM      1  C   UNL d   1       0.035  -0.995   0.580  0.00  0.00     0.177 A 
ATOM      2  O   UNL d   1      -0.567   0.164   1.003  0.00  0.00    -0.273 OA
ATOM      3  N   UNL d   1       0.707  -0.843  -0.540  0.00  0.00    -0.277 N 
ATOM      4  HN  UNL d   1       1.239  -1.559  -1.035  1.00  0.00     0.189 HD
ATOM      5  N   UNL d   1       0.551   0.472  -0.912  0.00  0.00    -0.277 N 
ATOM      6  HN  UNL d   1       0.947   0.922  -1.737  1.00  0.00     0.189 HD
ATOM      7  C   UNL d   1      -0.210   1.038   0.005  0.00  0.00     0.174 A 
ENDROOT
BRANCH   7   8
ATOM      8  C   UNL d   1      -0.681   2.413   0.086  0.00  0.00     0.017 A 
ATOM      9  C   UNL d   1      -1.507   2.880   1.112  0.00  0.00     0.016 A 
ATOM     10  C   UNL d   1      -1.932   4.219   1.135  0.00  0.00     0.009 A 
ATOM     11  C   UNL d   1      -1.549   5.134   0.135  0.00  0.00    -0.051 A 
ATOM     12  C   UNL d   1      -0.721   4.650  -0.887  0.00  0.00     0.009 A 
ATOM     13  C   UNL d   1      -0.296   3.317  -0.911  0.00  0.00     0.016 A 
BRANCH  11  14
ATOM     14  C   UNL d   1      -2.034   6.594   0.175  0.00  0.00    -0.024 C 
ATOM     15  C   UNL d   1      -1.514   7.451  -1.003  0.00  0.00     0.019 C 
ATOM     16  C   UNL d   1      -3.576   6.634   0.121  0.00  0.00     0.019 C 
ATOM     17  C   UNL d   1      -1.557   7.275   1.475  0.00  0.00     0.019 C 
ENDBRANCH  11  14
ENDBRANCH   7   8
BRANCH   1  18
ATOM     18  C   UNL d   1      -0.116  -2.177   1.412  0.00  0.00     0.050 A 
ATOM     19  C   UNL d   1      -0.138  -3.476   0.879  0.00  0.00     0.117 A 
ATOM     20  C   UNL d   1      -0.192  -4.617   1.695  0.00  0.00     0.037 A 
ATOM     21  C   UNL d   1      -0.228  -4.464   3.078  0.00  0.00     0.002 A 
ATOM     22  C   UNL d   1      -0.222  -3.186   3.634  0.00  0.00     0.001 A 
ATOM     23  C   UNL d   1      -0.168  -2.053   2.811  0.00  0.00     0.018 A 
BRANCH  19  24
ATOM     24  N   UNL d   1      -0.172  -3.691  -0.557  0.00  0.00    -0.115 N 
ATOM     25  O   UNL d   1      -1.146  -3.235  -1.168  0.00  0.00    -0.532 OA
ATOM     26  O   UNL d   1       0.731  -4.387  -1.040  0.00  0.00    -0.532 OA
ENDBRANCH  19  24
ENDBRANCH   1  18
TORSDOF 4
