REMARK  8 active torsions:
REMARK  status: ('A' for Active; 'I' for Inactive)
REMARK    1  A    between atoms: S_9  and  C_2 
REMARK    2  A    between atoms: S_10  and  C_5 
REMARK    3  A    between atoms: C_13  and  S_9 
REMARK    4  A    between atoms: C_14  and  S_10 
REMARK    5  A    between atoms: C_11  and  C_14 
REMARK    6  A    between atoms: C_18  and  C_11 
REMARK    7  A    between atoms: C_12  and  C_13 
REMARK    8  A    between atoms: C_17  and  C_12 
ROOT
ATOM      1  C   UNL d   1      -0.367  -1.260  -0.040  0.00  0.00     0.103 A 
ATOM      2  C   UNL d   1       0.932  -0.775  -0.005  0.00  0.00     0.082 A 
ATOM      3  N   UNL d   1      -0.801   1.059  -0.062  0.00  0.00    -0.319 N 
ATOM      4  HN  UNL d   1      -1.341   1.924  -0.074  1.00  0.00     0.175 HD
ATOM      5  C   UNL d   1      -1.303  -0.173  -0.070  0.00  0.00     0.099 A 
ATOM      6  S   UNL d   1       0.846   0.948  -0.027  0.00  0.00    -0.005 SA
ATOM      7  C   UNL d   1      -0.720  -2.643  -0.011  0.00  0.00     0.104 C 
ATOM      8  N   UNL d   1      -0.941  -3.781   0.028  0.00  0.00    -0.191 NA
ENDROOT
BRANCH   2   9
ATOM      9  S   UNL d   1       2.515  -1.536   0.138  0.00  0.00    -0.112 SA
BRANCH   9  10
ATOM     10  C   UNL d   1       2.433  -3.081  -0.796  0.00  0.00     0.164 C 
BRANCH  10  11
ATOM     11  C   UNL d   1       2.035  -2.915  -2.250  0.00  0.00     0.169 C 
ATOM     12  O   UNL d   1       1.793  -1.831  -2.777  0.00  0.00    -0.291 OA
BRANCH  11  13
ATOM     13  C   UNL d   1       1.989  -4.145  -3.093  0.00  0.00     0.010 A 
ATOM     14  C   UNL d   1       1.746  -5.413  -2.549  0.00  0.00     0.015 A 
ATOM     15  C   UNL d   1       1.702  -6.534  -3.382  0.00  0.00     0.001 A 
ATOM     16  C   UNL d   1       1.904  -6.395  -4.755  0.00  0.00     0.000 A 
ATOM     17  C   UNL d   1       2.149  -5.136  -5.301  0.00  0.00     0.001 A 
ATOM     18  C   UNL d   1       2.189  -4.013  -4.473  0.00  0.00     0.015 A 
ENDBRANCH  11  13
ENDBRANCH  10  11
ENDBRANCH   9  10
ENDBRANCH   2   9
BRANCH   5  19
ATOM     19  S   UNL d   1      -3.061  -0.341  -0.006  0.00  0.00    -0.102 SA
BRANCH  19  20
ATOM     20  C   UNL d   1      -3.559   0.595  -1.493  0.00  0.00     0.164 C 
BRANCH  20  21
ATOM     21  C   UNL d   1      -3.102  -0.094  -2.771  0.00  0.00     0.169 C 
ATOM     22  O   UNL d   1      -2.417  -1.116  -2.773  0.00  0.00    -0.291 OA
BRANCH  21  23
ATOM     23  C   UNL d   1      -3.509   0.489  -4.089  0.00  0.00     0.010 A 
ATOM     24  C   UNL d   1      -4.349   1.603  -4.212  0.00  0.00     0.015 A 
ATOM     25  C   UNL d   1      -4.679   2.097  -5.481  0.00  0.00     0.001 A 
ATOM     26  C   UNL d   1      -4.176   1.485  -6.628  0.00  0.00     0.000 A 
ATOM     27  C   UNL d   1      -3.347   0.372  -6.515  0.00  0.00     0.001 A 
ATOM     28  C   UNL d   1      -3.017  -0.124  -5.253  0.00  0.00     0.015 A 
ENDBRANCH  21  23
ENDBRANCH  20  21
ENDBRANCH  19  20
ENDBRANCH   5  19
TORSDOF 8
