REMARK  4 active torsions:
REMARK  status: ('A' for Active; 'I' for Inactive)
REMARK       I    between atoms: N_3  and  C_1 
REMARK       I    between atoms: N_6  and  C_1 
REMARK       I    between atoms: C_2  and  N_4 
REMARK    1  A    between atoms: O_7  and  C_2 
REMARK    2  A    between atoms: C_5  and  C_8 
REMARK    3  A    between atoms: C_19  and  N_6 
REMARK    4  A    between atoms: C_15  and  O_7 
ROOT
ATOM      1  C   UNL d   1       1.026   0.278  -0.070  0.00  0.00     0.323 C 
ATOM      2  C   UNL d   1      -0.792  -0.603   5.077  0.00  0.00     0.363 C 
ATOM      3  N   UNL d   1       0.550   0.170   1.235  0.00  0.00    -0.331 N 
ATOM      4  N   UNL d   1      -0.074  -0.679   3.903  0.00  0.00    -0.325 N 
ATOM      5  N   UNL d   1       2.007   1.226  -0.282  0.00  0.00    -0.309 N 
ATOM      6  O   UNL d   1       0.581  -0.453  -0.952  0.00  0.00    -0.247 OA
ATOM      7  O   UNL d   1      -0.594   0.272   5.919  0.00  0.00    -0.238 OA
ATOM      8  C   UNL d   1       0.849   1.049   2.380  0.00  0.00     0.147 C 
ATOM      9  C   UNL d   1      -0.563  -0.770   1.484  0.00  0.00     0.147 C 
ATOM     10  C   UNL d   1      -0.362  -1.575   2.782  0.00  0.00     0.148 C 
ATOM     11  C   UNL d   1       1.033   0.246   3.676  0.00  0.00     0.148 C 
ATOM     12  H   UNL d   1       2.285   1.789   0.498  0.00  0.00     0.170 HD
ENDROOT
BRANCH   5  13
ATOM     13  C   UNL d   1       2.639   1.558  -1.505  0.00  0.00     0.036 A 
ATOM     14  C   UNL d   1       2.381   0.923  -2.719  0.00  0.00     0.030 A 
ATOM     15  C   UNL d   1       2.989   1.360  -3.903  0.00  0.00     0.018 A 
ATOM     16  C   UNL d   1       3.877   2.442  -3.896  0.00  0.00     0.048 A 
ATOM     17  C   UNL d   1       4.178   3.050  -2.670  0.00  0.00     0.018 A 
ATOM     18  C   UNL d   1       3.565   2.611  -1.488  0.00  0.00     0.030 A 
BRANCH  16  19
ATOM     19  C   UNL d   1       4.474   2.966  -5.180  0.00  0.00     0.417 C 
ATOM     20  F   UNL d   1       4.066   2.288  -6.290  0.00  0.00    -0.166 F 
ATOM     21  F   UNL d   1       4.153   4.271  -5.404  0.00  0.00    -0.166 F 
ATOM     22  F   UNL d   1       5.835   2.911  -5.187  0.00  0.00    -0.166 F 
ENDBRANCH  16  19
ENDBRANCH   5  13
BRANCH   2  23
ATOM     23  O   UNL d   1      -1.738  -1.574   5.210  0.00  0.00    -0.294 OA
BRANCH  23  24
ATOM     24  C   UNL d   1      -2.613  -1.574   6.376  0.00  0.00     0.061 C 
ATOM     25  C   UNL d   1      -3.449  -0.286   6.436  0.00  0.00     0.046 C 
ATOM     26  C   UNL d   1      -3.555  -2.774   6.182  0.00  0.00     0.046 C 
ATOM     27  C   UNL d   1      -1.834  -1.791   7.682  0.00  0.00     0.046 C 
ENDBRANCH  23  24
ENDBRANCH   2  23
TORSDOF 4
