REMARK  5 active torsions:
REMARK  status: ('A' for Active; 'I' for Inactive)
REMARK    1  A    between atoms: C_2  and  S_1 
REMARK    2  A    between atoms: N_9  and  S_1 
REMARK    3  A    between atoms: C_13  and  C_4 
REMARK    4  A    between atoms: C_5  and  C_14 
REMARK    5  A    between atoms: C_14  and  N_9 
ROOT
ATOM      1  S   UNL d   1       1.077   0.069  -0.049  0.00  0.00     0.248 S 
ATOM      2  O   UNL d   1       0.914   1.316   0.656  0.00  0.00    -0.205 OA
ATOM      3  O   UNL d   1       2.345  -0.334  -0.616  0.00  0.00    -0.205 OA
ENDROOT
BRANCH   1   4
ATOM      4  C   UNL d   1      -0.042   0.137  -1.440  0.00  0.00     0.116 A 
ATOM      5  S   UNL d   1      -1.438   1.103  -1.248  0.00  0.00    -0.075 SA
ATOM      6  C   UNL d   1      -2.011   0.762  -2.832  0.00  0.00     0.033 A 
ATOM      7  C   UNL d   1      -1.153  -0.114  -3.476  0.00  0.00     0.023 A 
ATOM      8  C   UNL d   1      -0.015  -0.459  -2.686  0.00  0.00     0.034 A 
BRANCH   6   9
ATOM      9  C   UNL d   1      -3.289   1.315  -3.310  0.00  0.00     0.049 A 
ATOM     10  N   UNL d   1      -3.939   0.521  -4.198  0.00  0.00    -0.365 N 
ATOM     11  C   UNL d   1      -5.168   0.916  -4.600  0.00  0.00     0.088 A 
ATOM     12  HN  UNL d   1      -3.517  -0.339  -4.549  1.00  0.00     0.165 HD
ATOM     13  C   UNL d   1      -5.788   2.075  -4.165  0.00  0.00     0.017 A 
ATOM     14  C   UNL d   1      -5.094   2.898  -3.288  0.00  0.00     0.004 A 
ATOM     15  C   UNL d   1      -3.823   2.521  -2.860  0.00  0.00     0.031 A 
ENDBRANCH   6   9
ENDBRANCH   1   4
BRANCH   1  16
ATOM     16  N   UNL d   1       0.534  -1.155   0.981  0.00  0.00    -0.211 NA
ATOM     17  H   UNL d   1      -0.464  -1.065   1.168  0.00  0.00     0.140 HD
BRANCH  16  18
ATOM     18  C   UNL d   1       0.971  -2.530   0.668  0.00  0.00     0.146 C 
BRANCH  18  19
ATOM     19  C   UNL d   1       0.464  -3.554   1.668  0.00  0.00    -0.007 A 
ATOM     20  C   UNL d   1       0.334  -4.912   1.316  0.00  0.00     0.087 A 
ATOM     21  C   UNL d   1      -0.169  -5.852   2.231  0.00  0.00     0.003 A 
ATOM     22  O   UNL d   1       0.701  -5.284   0.048  0.00  0.00    -0.325 OA
ATOM     23  C   UNL d   1      -0.346  -7.283   1.818  0.00  0.00     0.212 C 
ATOM     24  C   UNL d   1      -0.474  -5.451   3.535  0.00  0.00     0.054 A 
ATOM     25  O   UNL d   1      -0.335  -7.400   0.402  0.00  0.00    -0.362 OA
ATOM     26  C   UNL d   1       0.784  -6.702  -0.126  0.00  0.00     0.345 C 
ATOM     27  C   UNL d   1      -0.288  -4.127   3.905  0.00  0.00     0.117 A 
ATOM     28  C   UNL d   1       0.178  -3.185   2.994  0.00  0.00     0.053 A 
ATOM     29  F   UNL d   1      -0.566  -3.750   5.159  0.00  0.00    -0.206 F 
ENDBRANCH  18  19
ENDBRANCH  16  18
ENDBRANCH   1  16
TORSDOF 5
