REMARK  8 active torsions:
REMARK  status: ('A' for Active; 'I' for Inactive)
REMARK    1  A    between atoms: C_16  and  S_1 
REMARK    2  A    between atoms: N_23  and  S_1 
REMARK    3  A    between atoms: C_2  and  C_5 
REMARK    4  A    between atoms: C_9  and  S_27 
REMARK    5  A    between atoms: C_10  and  C_19 
REMARK    6  A    between atoms: C_28  and  N_23 
REMARK    7  A    between atoms: S_27  and  C_34 
REMARK    8  A    between atoms: C_34  and  C_28 
ROOT
ATOM      1  C   UNL d   1       3.908   1.488   6.050  0.00  0.00     0.015 A 
ATOM      2  C   UNL d   1       4.297   3.211   4.362  0.00  0.00     0.079 A 
ATOM      3  N   UNL d   1       4.669   0.910   3.818  0.00  0.00    -0.352 N 
ATOM      4  HN  UNL d   1       4.937   0.198   3.139  1.00  0.00     0.166 HD
ATOM      5  C   UNL d   1       4.692   2.219   3.476  0.00  0.00     0.091 A 
ATOM      6  C   UNL d   1       3.904   2.836   5.652  0.00  0.00     0.041 A 
ATOM      7  C   UNL d   1       4.284   0.547   5.081  0.00  0.00     0.018 A 
ATOM      8  C   UNL d   1       4.273   4.597   4.006  0.00  0.00     0.102 C 
ATOM      9  N   UNL d   1       4.221   5.726   3.751  0.00  0.00    -0.191 NA
ATOM     10  C   UNL d   1       4.327  -0.938   5.304  0.00  0.00     0.069 C 
ENDROOT
BRANCH   5  11
ATOM     11  S   UNL d   1       5.325   2.586   1.841  0.00  0.00    -0.110 SA
BRANCH  11  12
ATOM     12  C   UNL d   1       4.669   1.170   0.884  0.00  0.00     0.096 C 
BRANCH  12  13
ATOM     13  C   UNL d   1       3.144   1.218   0.853  0.00  0.00     0.115 C 
BRANCH  13  14
ATOM     14  N   UNL d   1       2.576   0.137   0.025  0.00  0.00    -0.215 NA
ATOM     15  H   UNL d   1       2.974   0.014  -0.907  0.00  0.00     0.140 HD
BRANCH  14  16
ATOM     16  S   UNL d   1       0.884   0.037  -0.008  0.00  0.00     0.241 S 
ATOM     17  O   UNL d   1       0.548  -1.132  -0.792  0.00  0.00    -0.206 OA
ATOM     18  O   UNL d   1       0.377   0.242   1.329  0.00  0.00    -0.206 OA
BRANCH  16  19
ATOM     19  C   UNL d   1       0.468   1.471  -0.980  0.00  0.00     0.075 A 
ATOM     20  C   UNL d   1       0.242   2.700  -0.349  0.00  0.00     0.041 A 
ATOM     21  C   UNL d   1      -0.009   3.845  -1.119  0.00  0.00     0.049 A 
ATOM     22  C   UNL d   1      -0.068   3.722  -2.518  0.00  0.00     0.016 A 
ATOM     23  C   UNL d   1       0.115   2.483  -3.137  0.00  0.00     0.002 A 
ATOM     24  C   UNL d   1       0.384   1.353  -2.369  0.00  0.00     0.025 A 
BRANCH  21  25
ATOM     25  C   UNL d   1      -0.195   5.198  -0.472  0.00  0.00     0.417 C 
ATOM     26  F   UNL d   1      -0.082   5.167   0.884  0.00  0.00    -0.166 F 
ATOM     27  F   UNL d   1       0.725   6.104  -0.903  0.00  0.00    -0.166 F 
ATOM     28  F   UNL d   1      -1.413   5.741  -0.738  0.00  0.00    -0.166 F 
ENDBRANCH  21  25
ENDBRANCH  16  19
ENDBRANCH  14  16
ENDBRANCH  13  14
ENDBRANCH  12  13
ENDBRANCH  11  12
ENDBRANCH   5  11
BRANCH   1  29
ATOM     29  C   UNL d   1       3.569   1.146   7.431  0.00  0.00     0.051 A 
ATOM     30  N   UNL d   1       4.187   0.099   8.093  0.00  0.00    -0.353 N 
ATOM     31  C   UNL d   1       3.716  -0.019   9.316  0.00  0.00     0.047 A 
ATOM     32  HN  UNL d   1       4.907  -0.500   7.688  1.00  0.00     0.166 HD
ATOM     33  C   UNL d   1       4.124  -1.078  10.278  0.00  0.00     0.076 C 
ATOM     34  S   UNL d   1       2.557   1.161   9.774  0.00  0.00    -0.087 SA
ATOM     35  C   UNL d   1       2.661   1.848   8.205  0.00  0.00     0.081 A 
ENDBRANCH   1  29
TORSDOF 8
