REMARK  3 active torsions:
REMARK  status: ('A' for Active; 'I' for Inactive)
REMARK    1  A    between atoms: C_6  and  C_1 
REMARK    2  A    between atoms: C_7  and  C_2 
REMARK    3  A    between atoms: S_17  and  C_5 
ROOT
ATOM      1  C   UNL d   1       1.287  -1.240   0.117  0.00  0.00     0.047 A 
ATOM      2  C   UNL d   1      -0.080  -1.378  -0.091  0.00  0.00     0.023 A 
ATOM      3  C   UNL d   1      -0.728  -0.084  -0.152  0.00  0.00     0.081 A 
ATOM      4  S   UNL d   1       1.734   0.398   0.355  0.00  0.00    -0.079 SA
ATOM      5  C   UNL d   1       0.154   0.964   0.041  0.00  0.00     0.063 A 
ATOM      6  C   UNL d   1      -2.139   0.136  -0.282  0.00  0.00     0.102 C 
ATOM      7  N   UNL d   1      -3.277   0.348  -0.389  0.00  0.00    -0.191 NA
ENDROOT
BRANCH   2   8
ATOM      8  C   UNL d   1      -0.811  -2.710  -0.161  0.00  0.00     0.018 A 
ATOM      9  S   UNL d   1      -2.197  -3.010  -1.123  0.00  0.00    -0.101 SA
ATOM     10  C   UNL d   1      -2.279  -4.644  -0.633  0.00  0.00     0.050 A 
ATOM     11  C   UNL d   1      -1.298  -4.959   0.275  0.00  0.00     0.008 A 
ATOM     12  C   UNL d   1      -0.472  -3.836   0.568  0.00  0.00     0.020 A 
ENDBRANCH   2   8
BRANCH   5  13
ATOM     13  S   UNL d   1      -0.183   2.694   0.119  0.00  0.00    -0.126 SA
ATOM     14  C   UNL d   1      -0.743   3.036  -1.566  0.00  0.00     0.096 C 
ENDBRANCH   5  13
BRANCH   1  15
ATOM     15  C   UNL d   1       2.335  -2.325   0.112  0.00  0.00     0.067 A 
ATOM     16  N   UNL d   1       2.208  -3.451  -0.600  0.00  0.00    -0.300 N 
ATOM     17  N   UNL d   1       3.304  -4.163  -0.306  0.00  0.00    -0.311 N 
ATOM     18  HN  UNL d   1       1.446  -3.710  -1.227  1.00  0.00     0.187 HD
ATOM     19  C   UNL d   1       4.136  -3.535   0.569  0.00  0.00     0.109 A 
ATOM     20  H   UNL d   1       3.408  -5.080  -0.730  0.00  0.00     0.186 HD
ATOM     21  C   UNL d   1       3.560  -2.313   0.824  0.00  0.00     0.051 A 
ENDBRANCH   1  15
TORSDOF 3
