REMARK  6 active torsions:
REMARK  status: ('A' for Active; 'I' for Inactive)
REMARK    1  A    between atoms: O_5  and  C_1 
REMARK    2  A    between atoms: O_10  and  C_2 
REMARK    3  A    between atoms: C_7  and  O_5 
REMARK    4  A    between atoms: C_17  and  C_6 
REMARK       I    between atoms: N_16  and  C_7 
REMARK    5  A    between atoms: C_13  and  O_10 
REMARK    6  A    between atoms: C_11  and  C_15 
ROOT
ATOM      1  C   UNL d   1       0.849  -1.211  -0.586  0.00  0.00     0.190 C 
ATOM      2  C   UNL d   1      -0.540  -1.212  -0.654  0.00  0.00     0.149 C 
ATOM      3  N   UNL d   1       1.605  -0.103  -0.411  0.00  0.00    -0.320 N 
ATOM      4  HN  UNL d   1       2.624  -0.131  -0.449  1.00  0.00     0.169 HD
ATOM      5  C   UNL d   1       0.932   1.034  -0.185  0.00  0.00     0.117 C 
ATOM      6  N   UNL d   1      -0.409   1.105  -0.079  0.00  0.00    -0.343 N 
ATOM      7  HN  UNL d   1      -0.869   1.988   0.141  1.00  0.00     0.167 HD
ATOM      8  C   UNL d   1      -1.131  -0.022  -0.271  0.00  0.00     0.045 C 
ATOM      9  C   UNL d   1      -2.601   0.139  -0.025  0.00  0.00     0.071 C 
ENDROOT
BRANCH   5  10
ATOM     10  C   UNL d   1       1.685   2.299  -0.037  0.00  0.00     0.008 A 
ATOM     11  C   UNL d   1       3.079   2.370  -0.220  0.00  0.00     0.016 A 
ATOM     12  C   UNL d   1       3.777   3.577  -0.066  0.00  0.00     0.017 A 
ATOM     13  C   UNL d   1       3.102   4.757   0.275  0.00  0.00     0.048 A 
ATOM     14  C   UNL d   1       1.716   4.707   0.443  0.00  0.00     0.017 A 
ATOM     15  C   UNL d   1       1.024   3.500   0.288  0.00  0.00     0.016 A 
BRANCH  13  16
ATOM     16  C   UNL d   1       3.834   6.062   0.474  0.00  0.00     0.417 C 
ATOM     17  F   UNL d   1       5.178   5.973   0.270  0.00  0.00    -0.166 F 
ATOM     18  F   UNL d   1       3.394   7.041  -0.365  0.00  0.00    -0.166 F 
ATOM     19  F   UNL d   1       3.680   6.555   1.734  0.00  0.00    -0.166 F 
ENDBRANCH  13  16
ENDBRANCH   5  10
BRANCH   1  20
ATOM     20  O   UNL d   1       1.608  -2.378  -0.786  0.00  0.00    -0.241 OA
BRANCH  20  21
ATOM     21  C   UNL d   1       1.357  -3.437   0.082  0.00  0.00     0.368 C 
ATOM     22  N   UNL d   1       2.253  -4.496  -0.087  0.00  0.00    -0.336 N 
ATOM     23  C   UNL d   1       2.002  -5.700   0.678  0.00  0.00     0.154 C 
ATOM     24  C   UNL d   1       3.633  -4.226  -0.447  0.00  0.00     0.154 C 
ATOM     25  O   UNL d   1       0.449  -3.467   0.909  0.00  0.00    -0.238 OA
ENDBRANCH  20  21
ENDBRANCH   1  20
BRANCH   2  26
ATOM     26  O   UNL d   1      -1.189  -2.372  -0.971  0.00  0.00    -0.303 OA
BRANCH  26  27
ATOM     27  C   UNL d   1      -2.243  -2.381  -1.858  0.00  0.00     0.098 A 
ATOM     28  C   UNL d   1      -3.167  -3.432  -1.732  0.00  0.00     0.069 A 
ATOM     29  C   UNL d   1      -4.280  -3.508  -2.571  0.00  0.00     0.050 A 
ATOM     30 CL   UNL d   1      -2.967  -4.665  -0.537  0.00  0.00    -0.081 Cl
ATOM     31  C   UNL d   1      -4.470  -2.533  -3.545  0.00  0.00     0.035 A 
ATOM     32  C   UNL d   1      -3.543  -1.504  -3.706  0.00  0.00     0.026 A 
ATOM     33 CL   UNL d   1      -5.856  -2.602  -4.562  0.00  0.00    -0.084 Cl
ATOM     34  C   UNL d   1      -2.417  -1.440  -2.880  0.00  0.00     0.041 A 
ENDBRANCH  26  27
ENDBRANCH   2  26
TORSDOF 6
