REMARK  10 active torsions:
REMARK  status: ('A' for Active; 'I' for Inactive)
REMARK    1  A    between atoms: S_13  and  C_2 
REMARK    2  A    between atoms: N_3  and  C_10 
REMARK    3  A    between atoms: N_4  and  C_11 
REMARK    4  A    between atoms: S_14  and  C_7 
REMARK    5  A    between atoms: C_25  and  S_13 
REMARK    6  A    between atoms: C_26  and  S_14 
REMARK    7  A    between atoms: C_17  and  C_21 
REMARK    8  A    between atoms: C_18  and  C_22 
REMARK    9  A    between atoms: C_21  and  C_26 
REMARK   10  A    between atoms: C_22  and  C_25 
ROOT
ATOM      1  C   UNL d   1      -0.353  -1.198  -0.031  0.00  0.00     0.103 A 
ATOM      2  C   UNL d   1       0.922  -0.686  -0.260  0.00  0.00     0.082 A 
ATOM      3  N   UNL d   1      -0.769   1.100   0.241  0.00  0.00    -0.319 N 
ATOM      4  HN  UNL d   1      -1.293   1.955   0.426  1.00  0.00     0.175 HD
ATOM      5  C   UNL d   1      -1.273  -0.129   0.247  0.00  0.00     0.099 A 
ATOM      6  S   UNL d   1       0.830   1.023  -0.111  0.00  0.00    -0.005 SA
ATOM      7  C   UNL d   1      -0.681  -2.593  -0.075  0.00  0.00     0.104 C 
ATOM      8  N   UNL d   1      -0.946  -3.724  -0.113  0.00  0.00    -0.191 NA
ENDROOT
BRANCH   2   9
ATOM      9  S   UNL d   1       2.407  -1.563  -0.654  0.00  0.00    -0.112 SA
BRANCH   9  10
ATOM     10  C   UNL d   1       3.686  -0.268  -0.619  0.00  0.00     0.164 C 
BRANCH  10  11
ATOM     11  C   UNL d   1       5.054  -0.844  -0.925  0.00  0.00     0.169 C 
ATOM     12  O   UNL d   1       5.819  -1.166  -0.015  0.00  0.00    -0.291 OA
BRANCH  11  13
ATOM     13  C   UNL d   1       5.511  -1.004  -2.344  0.00  0.00     0.013 A 
ATOM     14  C   UNL d   1       4.700  -0.698  -3.443  0.00  0.00     0.051 A 
ATOM     15  C   UNL d   1       5.179  -0.930  -4.745  0.00  0.00     0.103 A 
ATOM     16  C   UNL d   1       6.464  -1.441  -4.961  0.00  0.00     0.036 A 
ATOM     17  C   UNL d   1       7.279  -1.719  -3.866  0.00  0.00     0.003 A 
ATOM     18  C   UNL d   1       6.806  -1.503  -2.569  0.00  0.00     0.015 A 
BRANCH  15  19
ATOM     19  N   UNL d   1       4.306  -0.649  -5.893  0.00  0.00    -0.116 N 
ATOM     20  O   UNL d   1       3.185  -0.178  -5.656  0.00  0.00    -0.532 OA
ATOM     21  O   UNL d   1       4.742  -0.899  -7.025  0.00  0.00    -0.532 OA
ENDBRANCH  15  19
ENDBRANCH  11  13
ENDBRANCH  10  11
ENDBRANCH   9  10
ENDBRANCH   2   9
BRANCH   5  22
ATOM     22  S   UNL d   1      -2.993  -0.321   0.609  0.00  0.00    -0.102 SA
BRANCH  22  23
ATOM     23  C   UNL d   1      -3.512   1.425   0.718  0.00  0.00     0.164 C 
BRANCH  23  24
ATOM     24  C   UNL d   1      -4.993   1.529   1.015  0.00  0.00     0.169 C 
ATOM     25  O   UNL d   1      -5.812   1.662   0.104  0.00  0.00    -0.291 OA
BRANCH  24  26
ATOM     26  C   UNL d   1      -5.490   1.485   2.429  0.00  0.00     0.013 A 
ATOM     27  C   UNL d   1      -4.644   1.308   3.530  0.00  0.00     0.051 A 
ATOM     28  C   UNL d   1      -5.195   1.222   4.821  0.00  0.00     0.103 A 
ATOM     29  C   UNL d   1      -6.576   1.329   5.026  0.00  0.00     0.036 A 
ATOM     30  C   UNL d   1      -7.414   1.529   3.931  0.00  0.00     0.003 A 
ATOM     31  C   UNL d   1      -6.874   1.607   2.644  0.00  0.00     0.015 A 
BRANCH  28  32
ATOM     32  N   UNL d   1      -4.309   0.995   5.971  0.00  0.00    -0.116 N 
ATOM     33  O   UNL d   1      -3.091   0.932   5.751  0.00  0.00    -0.532 OA
ATOM     34  O   UNL d   1      -4.830   0.881   7.089  0.00  0.00    -0.532 OA
ENDBRANCH  28  32
ENDBRANCH  24  26
ENDBRANCH  23  24
ENDBRANCH  22  23
ENDBRANCH   5  22
TORSDOF 10
