REMARK  1 active torsions:
REMARK  status: ('A' for Active; 'I' for Inactive)
REMARK    1  A    between atoms: S_14  and  C_6 
ROOT
ATOM      1  C   UNL d   1       0.259  -0.744   0.004  0.00  0.00     0.151 A 
ATOM      2  N   UNL d   1       0.303   0.658   0.004  0.00  0.00    -0.242 N 
ATOM      3  C   UNL d   1       1.567  -1.164   0.003  0.00  0.00     0.125 A 
ATOM      4  N   UNL d   1       1.592   1.113   0.005  0.00  0.00    -0.284 N 
ATOM      5  HN  UNL d   1       1.911   2.082   0.006  1.00  0.00     0.188 HD
ATOM      6  C   UNL d   1       2.339   0.007   0.004  0.00  0.00     0.109 A 
ATOM      7  N   UNL d   1      -0.917  -1.444   0.004  0.00  0.00    -0.344 N 
ATOM      8  HN  UNL d   1      -0.932  -2.464   0.004  1.00  0.00     0.167 HD
ATOM      9  C   UNL d   1      -0.894   1.397   0.005  0.00  0.00     0.034 A 
ATOM     10  C   UNL d   1      -2.072   0.745   0.004  0.00  0.00     0.051 A 
ATOM     11  C   UNL d   1       2.001  -2.519   0.001  0.00  0.00     0.106 C 
ATOM     12  C   UNL d   1      -2.015  -0.748   0.005  0.00  0.00     0.009 A 
ATOM     13  N   UNL d   1       2.370  -3.619   0.000  0.00  0.00    -0.191 NA
ATOM     14  C   UNL d   1      -0.851   2.895   0.006  0.00  0.00     0.070 C 
ATOM     15  C   UNL d   1      -3.326  -1.495   0.008  0.00  0.00     0.068 C 
ENDROOT
BRANCH   6  16
ATOM     16  S   UNL d   1       4.090   0.021   0.005  0.00  0.00    -0.114 SA
ATOM     17  C   UNL d   1       4.502   1.772   0.001  0.00  0.00     0.097 C 
ENDBRANCH   6  16
TORSDOF 1
