REMARK  2 active torsions:
REMARK  status: ('A' for Active; 'I' for Inactive)
REMARK    1  A    between atoms: C_3  and  C_1 
REMARK       I    between atoms: C_8  and  N_2 
REMARK    2  A    between atoms: C_13  and  C_8 
ROOT
ATOM      1  C   UNL d   1      -0.140  -1.114  -0.133  0.00  0.00     0.058 C 
ATOM      2  S   UNL d   1       1.282  -0.341   0.458  0.00  0.00    -0.067 SA
ATOM      3  C   UNL d   1       0.593   1.199   0.173  0.00  0.00     0.092 C 
ATOM      4  N   UNL d   1      -0.520   1.171  -0.530  0.00  0.00    -0.352 N 
ATOM      5  HN  UNL d   1      -1.011   1.996  -0.874  1.00  0.00     0.166 HD
ATOM      6  C   UNL d   1      -0.934  -0.142  -0.737  0.00  0.00     0.025 C 
ATOM      7  C   UNL d   1       1.172   2.444   0.630  0.00  0.00     0.038 A 
ATOM      8  S   UNL d   1       2.564   2.533   1.636  0.00  0.00    -0.099 SA
ATOM      9  C   UNL d   1       0.685   3.713   0.365  0.00  0.00     0.022 A 
ATOM     10  C   UNL d   1       2.503   4.237   1.708  0.00  0.00     0.050 A 
ATOM     11  C   UNL d   1       1.452   4.746   0.982  0.00  0.00     0.008 A 
ATOM     12  C   UNL d   1      -2.166  -0.333  -1.549  0.00  0.00     0.070 C 
ENDROOT
BRANCH   1  13
ATOM     13  C   UNL d   1      -0.313  -2.548  -0.085  0.00  0.00     0.080 C 
ATOM     14  N   UNL d   1       0.178  -3.420   0.897  0.00  0.00    -0.223 N 
ATOM     15  C   UNL d   1       0.727  -3.165   2.174  0.00  0.00     0.247 C 
ATOM     16  N   UNL d   1       0.020  -4.729   0.519  0.00  0.00    -0.302 N 
ATOM     17  O   UNL d   1       0.467  -2.109   2.744  0.00  0.00    -0.271 OA
ATOM     18  C   UNL d   1      -0.728  -4.675  -0.578  0.00  0.00     0.110 C 
ATOM     19  HN  UNL d   1       0.394  -5.560   0.978  1.00  0.00     0.186 HD
ATOM     20  C   UNL d   1      -0.957  -3.361  -1.002  0.00  0.00     0.052 C 
BRANCH  15  21
ATOM     21  C   UNL d   1       1.608  -4.192   2.820  0.00  0.00     0.080 A 
ATOM     22  C   UNL d   1       1.631  -4.359   4.320  0.00  0.00     0.015 A 
ATOM     23  C   UNL d   1       2.808  -3.738   3.624  0.00  0.00     0.015 A 
ENDBRANCH  15  21
ENDBRANCH   1  13
TORSDOF 2
