REMARK  3 active torsions:
REMARK  status: ('A' for Active; 'I' for Inactive)
REMARK    1  A    between atoms: C_8  and  C_3 
REMARK    2  A    between atoms: N_5  and  C_4 
REMARK       I    between atoms: C_6  and  N_5 
REMARK       I    between atoms: N_11  and  C_6 
REMARK    3  A    between atoms: C_16  and  N_11 
ROOT
ATOM      1  N   UNL d   1       2.322   1.597   0.213  0.00  0.00    -0.294 N 
ATOM      2  C   UNL d   1       3.614   1.161   0.279  0.00  0.00     0.326 C 
ATOM      3  N   UNL d   1       3.808  -0.189   0.337  0.00  0.00    -0.309 N 
ATOM      4  O   UNL d   1       4.491   2.025   0.326  0.00  0.00    -0.247 OA
ATOM      5  H   UNL d   1       2.253   2.603   0.259  0.00  0.00     0.172 HD
ATOM      6  H   UNL d   1       2.964  -0.737   0.196  0.00  0.00     0.170 HD
ENDROOT
BRANCH   1   7
ATOM      7  C   UNL d   1       1.154   0.879   0.109  0.00  0.00     0.116 A 
ATOM      8  N   UNL d   1       1.137  -0.489  -0.077  0.00  0.00    -0.335 N 
ATOM      9  C   UNL d   1      -0.110  -0.899  -0.250  0.00  0.00     0.092 A 
ATOM     10  HN  UNL d   1       1.959  -1.093  -0.081  1.00  0.00     0.168 HD
ATOM     11  S   UNL d   1      -1.311   0.322  -0.055  0.00  0.00    -0.079 SA
ATOM     12  C   UNL d   1      -0.082   1.485   0.163  0.00  0.00     0.100 A 
BRANCH   9  13
ATOM     13  C   UNL d   1      -0.429  -2.272  -0.576  0.00  0.00     0.038 A 
ATOM     14  S   UNL d   1      -1.898  -2.735  -1.342  0.00  0.00    -0.099 SA
ATOM     15  C   UNL d   1      -1.444  -4.379  -1.398  0.00  0.00     0.050 A 
ATOM     16  C   UNL d   1      -0.206  -4.589  -0.839  0.00  0.00     0.008 A 
ATOM     17  C   UNL d   1       0.380  -3.376  -0.370  0.00  0.00     0.022 A 
ENDBRANCH   9  13
ENDBRANCH   1   7
BRANCH   3  18
ATOM     18  C   UNL d   1       5.009  -0.878   0.598  0.00  0.00     0.036 A 
ATOM     19  C   UNL d   1       6.232  -0.246   0.843  0.00  0.00     0.031 A 
ATOM     20  C   UNL d   1       7.375  -0.994   1.147  0.00  0.00     0.026 A 
ATOM     21  C   UNL d   1       7.300  -2.381   1.208  0.00  0.00     0.034 A 
ATOM     22  C   UNL d   1       6.092  -3.027   0.957  0.00  0.00     0.026 A 
ATOM     23 CL   UNL d   1       8.698  -3.299   1.605  0.00  0.00    -0.084 Cl
ATOM     24  C   UNL d   1       4.951  -2.276   0.650  0.00  0.00     0.031 A 
ENDBRANCH   3  18
TORSDOF 3
