REMARK  7 active torsions:
REMARK  status: ('A' for Active; 'I' for Inactive)
REMARK    1  A    between atoms: C_5  and  C_1 
REMARK    2  A    between atoms: C_14  and  C_4 
REMARK       I    between atoms: N_11  and  C_5 
REMARK    3  A    between atoms: C_9  and  C_15 
REMARK    4  A    between atoms: C_10  and  O_18 
REMARK    5  A    between atoms: N_13  and  N_11 
REMARK       I    between atoms: C_12  and  N_13 
REMARK    6  A    between atoms: C_16  and  C_12 
REMARK    7  A    between atoms: O_18  and  C_32 
ROOT
ATOM      1  C   UNL d   1       0.573  -1.089  -0.011  0.00  0.00     0.241 A 
ATOM      2  N   UNL d   1      -0.704  -0.756   0.014  0.00  0.00    -0.315 N 
ATOM      3  HN  UNL d   1      -1.524  -1.363   0.004  1.00  0.00     0.169 HD
ATOM      4  C   UNL d   1      -0.648   0.626   0.058  0.00  0.00     0.138 A 
ATOM      5  N   UNL d   1       0.603   1.118   0.050  0.00  0.00    -0.242 N 
ATOM      6  HN  UNL d   1       0.893   2.095   0.073  1.00  0.00     0.196 HD
ATOM      7  O   UNL d   1       1.410  -0.015   0.005  0.00  0.00    -0.212 OA
ENDROOT
BRANCH   1   8
ATOM      8  C   UNL d   1       1.146  -2.415  -0.050  0.00  0.00     0.313 C 
ATOM      9  N   UNL d   1       0.221  -3.447  -0.078  0.00  0.00    -0.260 N 
ATOM     10  H   UNL d   1      -0.787  -3.284  -0.101  0.00  0.00     0.190 HD
ATOM     11  O   UNL d   1       2.356  -2.657  -0.052  0.00  0.00    -0.262 OA
BRANCH   9  12
ATOM     12  N   UNL d   1       0.670  -4.772  -0.187  0.00  0.00    -0.263 N 
ATOM     13  C   UNL d   1      -0.276  -5.778  -0.205  0.00  0.00     0.270 C 
ATOM     14  O   UNL d   1      -1.482  -5.548  -0.156  0.00  0.00    -0.266 OA
ATOM     15  H   UNL d   1       1.667  -4.930  -0.054  0.00  0.00     0.190 HD
BRANCH  13  16
ATOM     16  C   UNL d   1       0.229  -7.178  -0.261  0.00  0.00     0.033 A 
ATOM     17  C   UNL d   1      -0.579  -8.190   0.273  0.00  0.00     0.018 A 
ATOM     18  C   UNL d   1      -0.175  -9.527   0.212  0.00  0.00     0.017 A 
ATOM     19  C   UNL d   1       1.040  -9.877  -0.395  0.00  0.00     0.048 A 
ATOM     20  C   UNL d   1       1.844  -8.858  -0.934  0.00  0.00     0.017 A 
ATOM     21  C   UNL d   1       1.443  -7.516  -0.868  0.00  0.00     0.018 A 
BRANCH  19  22
ATOM     22  C   UNL d   1       1.474 -11.321  -0.497  0.00  0.00     0.417 C 
ATOM     23  F   UNL d   1       0.616 -12.193   0.101  0.00  0.00    -0.166 F 
ATOM     24  F   UNL d   1       1.590 -11.737  -1.788  0.00  0.00    -0.166 F 
ATOM     25  F   UNL d   1       2.689 -11.540   0.077  0.00  0.00    -0.166 F 
ENDBRANCH  19  22
ENDBRANCH  13  16
ENDBRANCH   9  12
ENDBRANCH   1   8
BRANCH   4  26
ATOM     26  C   UNL d   1      -1.841   1.466   0.134  0.00  0.00     0.010 A 
ATOM     27  C   UNL d   1      -3.125   0.903   0.128  0.00  0.00     0.018 A 
ATOM     28  C   UNL d   1      -4.270   1.709   0.241  0.00  0.00     0.038 A 
ATOM     29  C   UNL d   1      -4.144   3.088   0.390  0.00  0.00     0.078 A 
ATOM     30  C   UNL d   1      -2.873   3.660   0.347  0.00  0.00     0.038 A 
ATOM     31  C   UNL d   1      -1.730   2.863   0.228  0.00  0.00     0.018 A 
BRANCH  29  32
ATOM     32  O   UNL d   1      -5.156   3.984   0.553  0.00  0.00    -0.255 OA
BRANCH  32  33
ATOM     33  C   UNL d   1      -6.378   3.558   1.136  0.00  0.00     0.530 C 
ATOM     34  F   UNL d   1      -6.269   2.426   1.863  0.00  0.00    -0.144 F 
ATOM     35  F   UNL d   1      -6.817   4.535   1.963  0.00  0.00    -0.144 F 
ATOM     36  F   UNL d   1      -7.304   3.377   0.171  0.00  0.00    -0.144 F 
ENDBRANCH  32  33
ENDBRANCH  29  32
ENDBRANCH   4  26
TORSDOF 7
