REMARK  4 active torsions:
REMARK  status: ('A' for Active; 'I' for Inactive)
REMARK    1  A    between atoms: C_6  and  C_1 
REMARK    2  A    between atoms: C_5  and  C_2 
REMARK    3  A    between atoms: O_9  and  C_5 
REMARK    4  A    between atoms: C_13  and  O_9 
ROOT
ATOM      1  C   UNL d   1      -1.408  -0.467   0.409  0.00  0.00     0.088 A 
ATOM      2  C   UNL d   1      -0.114  -1.096   0.359  0.00  0.00     0.100 A 
ATOM      3  N   UNL d   1      -1.278   0.839   0.111  0.00  0.00    -0.259 N 
ATOM      4  HN  UNL d   1      -2.037   1.514   0.021  1.00  0.00     0.195 HD
ATOM      5  O   UNL d   1       0.050   1.097  -0.047  0.00  0.00    -0.241 OA
ATOM      6  C   UNL d   1       0.752  -0.048   0.087  0.00  0.00     0.091 A 
ATOM      7  C   UNL d   1       2.213   0.111  -0.058  0.00  0.00     0.080 C 
ENDROOT
BRANCH   2   8
ATOM      8  C   UNL d   1       0.350  -2.463   0.516  0.00  0.00     0.303 C 
ATOM      9  O   UNL d   1       1.273  -2.909  -0.159  0.00  0.00    -0.259 OA
BRANCH   8  10
ATOM     10  O   UNL d   1      -0.269  -3.151   1.560  0.00  0.00    -0.275 OA
BRANCH  10  11
ATOM     11  C   UNL d   1       0.411  -4.314   1.982  0.00  0.00     0.079 A 
ATOM     12  C   UNL d   1       1.735  -4.254   2.429  0.00  0.00     0.037 A 
ATOM     13  C   UNL d   1       2.368  -5.412   2.887  0.00  0.00     0.003 A 
ATOM     14  C   UNL d   1       1.674  -6.624   2.921  0.00  0.00     0.000 A 
ATOM     15  C   UNL d   1       0.345  -6.673   2.495  0.00  0.00     0.003 A 
ATOM     16  C   UNL d   1      -0.293  -5.518   2.027  0.00  0.00     0.037 A 
ENDBRANCH  10  11
ENDBRANCH   8  10
ENDBRANCH   2   8
BRANCH   1  17
ATOM     17  C   UNL d   1      -2.768  -0.987   0.605  0.00  0.00     0.054 A 
ATOM     18  C   UNL d   1      -3.136  -2.220   0.053  0.00  0.00     0.130 A 
ATOM     19  F   UNL d   1      -2.231  -2.981  -0.580  0.00  0.00    -0.205 F 
ATOM     20  C   UNL d   1      -4.454  -2.690   0.097  0.00  0.00     0.043 A 
ATOM     21  C   UNL d   1      -5.452  -1.923   0.686  0.00  0.00     0.005 A 
ATOM     22  C   UNL d   1      -5.121  -0.697   1.251  0.00  0.00     0.025 A 
ATOM     23  C   UNL d   1      -3.794  -0.235   1.226  0.00  0.00     0.049 A 
ATOM     24 CL   UNL d   1      -3.531   1.281   2.030  0.00  0.00    -0.083 Cl
ENDBRANCH   1  17
TORSDOF 4
