REMARK  5 active torsions:
REMARK  status: ('A' for Active; 'I' for Inactive)
REMARK    1  A    between atoms: C_8  and  C_2 
REMARK    2  A    between atoms: C_11  and  N_5 
REMARK    3  A    between atoms: O_22  and  C_8 
REMARK    4  A    between atoms: C_14  and  C_15 
REMARK    5  A    between atoms: C_26  and  O_22 
ROOT
ATOM      1  C   UNL d   1      -0.700   1.267   0.014  0.00  0.00     0.098 C 
ATOM      2  C   UNL d   1       1.302  -0.101   0.108  0.00  0.00     0.131 C 
ATOM      3  N   UNL d   1       0.693  -1.244   0.118  0.00  0.00    -0.286 N 
ATOM      4  HN  UNL d   1       1.209  -2.120   0.189  1.00  0.00     0.188 HD
ATOM      5  N   UNL d   1      -0.681  -1.227   0.029  0.00  0.00    -0.238 N 
ATOM      6  C   UNL d   1      -1.430  -0.041   0.107  0.00  0.00     0.142 C 
ATOM      7  C   UNL d   1       0.644   1.246   0.011  0.00  0.00    -0.003 C 
ATOM      8  C   UNL d   1      -1.446   2.492  -0.015  0.00  0.00     0.104 C 
ATOM      9  N   UNL d   1      -1.963   3.530  -0.044  0.00  0.00    -0.191 NA
ATOM     10  N   UNL d   1      -2.714   0.049   0.307  0.00  0.00    -0.383 N 
ATOM     11  HN  UNL d   1      -3.241   0.922   0.315  1.00  0.00     0.157 HD
ATOM     12  C   UNL d   1       1.451   2.510  -0.059  0.00  0.00     0.052 C 
ATOM     13  H   UNL d   1      -3.121  -0.878   0.455  0.00  0.00     0.157 HD
ENDROOT
BRANCH   5  14
ATOM     14  C   UNL d   1      -1.268  -2.531  -0.013  0.00  0.00     0.058 A 
ATOM     15  C   UNL d   1      -2.447  -2.800  -0.720  0.00  0.00     0.032 A 
ATOM     16  C   UNL d   1      -3.083  -4.045  -0.629  0.00  0.00     0.010 A 
ATOM     17  C   UNL d   1      -2.537  -5.091   0.133  0.00  0.00    -0.051 A 
ATOM     18  C   UNL d   1      -1.306  -4.851   0.759  0.00  0.00     0.010 A 
ATOM     19  C   UNL d   1      -0.682  -3.600   0.681  0.00  0.00     0.032 A 
BRANCH  17  20
ATOM     20  C   UNL d   1      -3.283  -6.428   0.265  0.00  0.00    -0.024 C 
ATOM     21  C   UNL d   1      -2.507  -7.483   1.085  0.00  0.00     0.019 C 
ATOM     22  C   UNL d   1      -4.635  -6.196   0.975  0.00  0.00     0.019 C 
ATOM     23  C   UNL d   1      -3.539  -7.027  -1.134  0.00  0.00     0.019 C 
ENDBRANCH  17  20
ENDBRANCH   5  14
BRANCH   2  24
ATOM     24  C   UNL d   1       2.835  -0.161   0.179  0.00  0.00     0.312 C 
ATOM     25  O   UNL d   1       3.493   0.539   0.926  0.00  0.00    -0.258 OA
BRANCH  24  26
ATOM     26  O   UNL d   1       3.277  -1.011  -0.769  0.00  0.00    -0.317 OA
BRANCH  26  27
ATOM     27  C   UNL d   1       4.653  -0.893  -1.155  0.00  0.00     0.175 C 
ATOM     28  C   UNL d   1       4.657  -0.213  -2.511  0.00  0.00     0.034 C 
ENDBRANCH  26  27
ENDBRANCH  24  26
ENDBRANCH   2  24
TORSDOF 5
