REMARK  3 active torsions:
REMARK  status: ('A' for Active; 'I' for Inactive)
REMARK    1  A    between atoms: C_13  and  C_6 
REMARK    2  A    between atoms: O_12  and  C_10 
REMARK    3  A    between atoms: C_14  and  C_13 
ROOT
ATOM      1  C   UNL d   1       0.098  -0.775  -0.008  0.00  0.00     0.092 A 
ATOM      2  C   UNL d   1      -0.381   0.534   0.018  0.00  0.00     0.048 A 
ATOM      3  C   UNL d   1      -1.836   0.754   0.019  0.00  0.00     0.187 A 
ATOM      4  C   UNL d   1      -2.676  -0.456   0.025  0.00  0.00     0.088 A 
ATOM      5  O   UNL d   1      -0.729  -1.873  -0.020  0.00  0.00    -0.314 OA
ATOM      6  C   UNL d   1      -2.102  -1.668   0.016  0.00  0.00     0.057 A 
ATOM      7  C   UNL d   1       1.473  -1.014  -0.021  0.00  0.00     0.074 A 
ATOM      8  C   UNL d   1       0.504   1.616   0.040  0.00  0.00     0.021 A 
ATOM      9  O   UNL d   1      -2.334   1.869   0.016  0.00  0.00    -0.287 OA
ATOM     10  C   UNL d   1       2.351   0.068  -0.003  0.00  0.00     0.068 A 
ATOM     11  C   UNL d   1       1.879   1.378   0.033  0.00  0.00     0.037 A 
ENDROOT
BRANCH   6  12
ATOM     12  C   UNL d   1      -2.919  -2.935   0.009  0.00  0.00     0.065 C 
BRANCH  12  13
ATOM     13  C   UNL d   1      -2.647  -3.826   1.225  0.00  0.00     0.002 C 
ATOM     14  C   UNL d   1      -3.506  -5.082   1.191  0.00  0.00     0.005 C 
ENDBRANCH  12  13
ENDBRANCH   6  12
BRANCH  10  15
ATOM     15  O   UNL d   1       3.702  -0.114  -0.020  0.00  0.00    -0.361 OA
ATOM     16  H   UNL d   1       3.894  -1.064  -0.077  0.00  0.00     0.217 HD
ENDBRANCH  10  15
TORSDOF 3
