REMARK  3 active torsions:
REMARK  status: ('A' for Active; 'I' for Inactive)
REMARK    1  A    between atoms: C_10  and  C_1 
REMARK    2  A    between atoms: C_4  and  C_5 
REMARK       I    between atoms: C_5  and  N_8 
REMARK    3  A    between atoms: N_8  and  C_10 
ROOT
ATOM      1  C   UNL d   1       0.575   1.698   0.019  0.00  0.00    -0.004 A 
ATOM      2  C   UNL d   1      -0.497   0.790  -0.049  0.00  0.00     0.088 A 
ATOM      3  C   UNL d   1      -0.265  -0.593  -0.070  0.00  0.00     0.003 A 
ATOM      4  O   UNL d   1      -1.767   1.304  -0.065  0.00  0.00    -0.325 OA
ATOM      5  C   UNL d   1       1.049  -1.072  -0.080  0.00  0.00     0.054 A 
ATOM      6  C   UNL d   1       1.886   1.196  -0.004  0.00  0.00     0.054 A 
ATOM      7  C   UNL d   1       2.109  -0.176  -0.051  0.00  0.00     0.117 A 
ATOM      8  O   UNL d   1      -2.611  -0.893   0.332  0.00  0.00    -0.362 OA
ATOM      9  C   UNL d   1      -2.770   0.333  -0.367  0.00  0.00     0.345 C 
ATOM     10  C   UNL d   1      -1.424  -1.542  -0.106  0.00  0.00     0.212 C 
ATOM     11  F   UNL d   1       3.364  -0.642  -0.057  0.00  0.00    -0.206 F 
ENDROOT
BRANCH   1  12
ATOM     12  C   UNL d   1       0.356   3.185   0.115  0.00  0.00     0.164 C 
BRANCH  12  13
ATOM     13  N   UNL d   1       0.221   3.804  -1.182  0.00  0.00    -0.356 N 
ATOM     14  C   UNL d   1       1.266   4.442  -1.798  0.00  0.00     0.222 C 
ATOM     15  O   UNL d   1       2.405   4.498  -1.353  0.00  0.00    -0.273 OA
ATOM     16  H   UNL d   1      -0.668   3.722  -1.651  0.00  0.00     0.162 HD
BRANCH  14  17
ATOM     17  C   UNL d   1       0.905   5.085  -3.093  0.00  0.00     0.078 A 
ATOM     18  C   UNL d   1       1.676   4.747  -4.348  0.00  0.00     0.015 A 
ATOM     19  C   UNL d   1       1.829   6.103  -3.724  0.00  0.00     0.015 A 
ENDBRANCH  14  17
ENDBRANCH  12  13
ENDBRANCH   1  12
TORSDOF 3
