REMARK  5 active torsions:
REMARK  status: ('A' for Active; 'I' for Inactive)
REMARK    1  A    between atoms: S_7  and  C_1 
REMARK    2  A    between atoms: C_12  and  N_4 
REMARK    3  A    between atoms: C_11  and  S_7 
REMARK    4  A    between atoms: C_10  and  C_11 
REMARK    5  A    between atoms: C_14  and  C_10 
ROOT
ATOM      1  C   UNL d   1       2.400   0.103  -0.038  0.00  0.00     0.148 A 
ATOM      2  N   UNL d   1       1.739  -1.026   0.056  0.00  0.00    -0.335 N 
ATOM      3  HN  UNL d   1       2.126  -1.966   0.127  1.00  0.00     0.168 HD
ATOM      4  N   UNL d   1       1.563   1.196  -0.122  0.00  0.00    -0.321 N 
ATOM      5  C   UNL d   1       0.417  -0.670   0.039  0.00  0.00     0.062 A 
ATOM      6  C   UNL d   1       0.267   0.715  -0.046  0.00  0.00     0.063 A 
ATOM      7  C   UNL d   1      -0.715  -1.496   0.101  0.00  0.00     0.055 A 
ATOM      8  C   UNL d   1      -0.997   1.325  -0.052  0.00  0.00     0.034 A 
ATOM      9  C   UNL d   1      -1.976  -0.896   0.083  0.00  0.00     0.036 A 
ATOM     10  C   UNL d   1      -2.117   0.488   0.013  0.00  0.00     0.026 A 
ATOM     11 CL   UNL d   1      -3.384  -1.888   0.149  0.00  0.00    -0.084 Cl
ENDROOT
BRANCH   1  12
ATOM     12  S   UNL d   1       4.130   0.216  -0.012  0.00  0.00    -0.086 SA
BRANCH  12  13
ATOM     13  C   UNL d   1       4.594  -1.411  -0.664  0.00  0.00     0.166 C 
BRANCH  13  14
ATOM     14  C   UNL d   1       4.335  -1.553  -2.156  0.00  0.00     0.169 C 
ATOM     15  O   UNL d   1       3.791  -0.691  -2.846  0.00  0.00    -0.291 OA
BRANCH  14  16
ATOM     16  C   UNL d   1       4.806  -2.809  -2.828  0.00  0.00     0.010 A 
ATOM     17  C   UNL d   1       5.567  -3.780  -2.162  0.00  0.00     0.015 A 
ATOM     18  C   UNL d   1       6.023  -4.912  -2.847  0.00  0.00     0.001 A 
ATOM     19  C   UNL d   1       5.718  -5.086  -4.195  0.00  0.00     0.000 A 
ATOM     20  C   UNL d   1       4.953  -4.133  -4.862  0.00  0.00     0.001 A 
ATOM     21  C   UNL d   1       4.500  -2.999  -4.183  0.00  0.00     0.015 A 
ENDBRANCH  14  16
ENDBRANCH  13  14
ENDBRANCH  12  13
ENDBRANCH   1  12
BRANCH   4  22
ATOM     22  C   UNL d   1       1.962   2.592  -0.293  0.00  0.00     0.084 C 
ATOM     23  C   UNL d   1       1.436   3.196  -1.597  0.00  0.00     0.032 C 
ATOM     24  C   UNL d   1       1.613   3.453   0.922  0.00  0.00     0.032 C 
ENDBRANCH   4  22
TORSDOF 5
