REMARK  3 active torsions:
REMARK  status: ('A' for Active; 'I' for Inactive)
REMARK    1  A    between atoms: N_7  and  C_1 
REMARK    2  A    between atoms: C_4  and  C_10 
REMARK       I    between atoms: C_10  and  N_7 
REMARK    3  A    between atoms: O_19  and  C_15 
ROOT
ATOM      1  C   UNL d   1      -1.010   1.706  -0.068  0.00  0.00     0.138 A 
ATOM      2  N   UNL d   1      -2.018   0.836  -0.119  0.00  0.00    -0.282 N 
ATOM      3  HN  UNL d   1      -3.014   1.048  -0.164  1.00  0.00     0.189 HD
ATOM      4  C   UNL d   1       0.277   1.028  -0.050  0.00  0.00     0.071 A 
ATOM      5  N   UNL d   1      -1.455  -0.363  -0.100  0.00  0.00    -0.294 N 
ATOM      6  C   UNL d   1      -0.089  -0.335  -0.059  0.00  0.00     0.067 A 
ATOM      7  C   UNL d   1       1.684   1.290  -0.016  0.00  0.00     0.084 A 
ATOM      8  C   UNL d   1      -2.299  -1.535  -0.115  0.00  0.00     0.178 C 
ATOM      9  C   UNL d   1       0.819  -1.406  -0.025  0.00  0.00     0.032 A 
ATOM     10  C   UNL d   1       2.172  -1.117   0.019  0.00  0.00     0.005 A 
ATOM     11  C   UNL d   1       2.591   0.203   0.021  0.00  0.00     0.038 A 
ENDROOT
BRANCH   1  12
ATOM     12  N   UNL d   1      -1.291   3.059  -0.046  0.00  0.00    -0.306 N 
ATOM     13  C   UNL d   1      -2.556   3.619  -0.058  0.00  0.00     0.275 C 
ATOM     14  O   UNL d   1      -3.638   3.041  -0.032  0.00  0.00    -0.266 OA
ATOM     15  H   UNL d   1      -0.539   3.721  -0.044  0.00  0.00     0.170 HD
BRANCH  13  16
ATOM     16  C   UNL d   1      -2.522   5.086  -0.131  0.00  0.00     0.125 A 
ATOM     17  N   UNL d   1      -1.373   5.789  -0.126  0.00  0.00    -0.256 N 
ATOM     18  O   UNL d   1      -1.745   7.116  -0.294  0.00  0.00    -0.242 OA
ATOM     19  HN  UNL d   1      -0.427   5.423  -0.020  1.00  0.00     0.195 HD
ATOM     20  C   UNL d   1      -3.099   7.200  -0.401  0.00  0.00     0.075 A 
ATOM     21  C   UNL d   1      -3.640   5.950  -0.257  0.00  0.00     0.071 A 
ATOM     22  C   UNL d   1      -3.668   8.532  -0.674  0.00  0.00     0.079 C 
ENDBRANCH  13  16
ENDBRANCH   1  12
BRANCH   7  23
ATOM     23  O   UNL d   1       2.419   2.474  -0.001  0.00  0.00    -0.355 OA
ATOM     24  C   UNL d   1       1.775   3.719  -0.096  0.00  0.00     0.210 C 
ENDBRANCH   7  23
TORSDOF 3
