REMARK  8 active torsions:
REMARK  status: ('A' for Active; 'I' for Inactive)
REMARK    1  A    between atoms: N_2  and  C_1 
REMARK    2  A    between atoms: N_4  and  C_1 
REMARK    3  A    between atoms: C_3  and  N_2 
REMARK    4  A    between atoms: C_7  and  C_3 
REMARK    5  A    between atoms: C_9  and  C_3 
REMARK    6  A    between atoms: C_6  and  N_4 
REMARK    7  A    between atoms: C_11  and  C_7 
REMARK    8  A    between atoms: O_12  and  C_10 
ROOT
ATOM      1  N   UNL d   1       0.354  -1.214  -0.603  0.00  0.00    -0.358 N 
ATOM      2  H   UNL d   1       0.577  -0.674   0.222  0.00  0.00     0.162 HD
ENDROOT
BRANCH   1   3
ATOM      3  C   UNL d   1      -0.364  -0.522  -1.548  0.00  0.00     0.172 C 
ATOM      4  S   UNL d   1      -1.144  -1.133  -2.886  0.00  0.00    -0.041 SA
BRANCH   3   5
ATOM      5  N   UNL d   1      -0.474   0.824  -1.276  0.00  0.00    -0.333 N 
ATOM      6  H   UNL d   1      -1.282   1.288  -1.678  0.00  0.00     0.168 HD
BRANCH   5   7
ATOM      7  C   UNL d   1       0.588   1.667  -0.876  0.00  0.00     0.036 A 
ATOM      8  C   UNL d   1       1.927   1.287  -1.046  0.00  0.00     0.066 A 
ATOM      9  C   UNL d   1       2.965   2.124  -0.639  0.00  0.00     0.070 A 
ATOM     10  C   UNL d   1       2.650   3.355  -0.064  0.00  0.00     0.037 A 
ATOM     11  C   UNL d   1       1.319   3.761   0.068  0.00  0.00     0.005 A 
ATOM     12  C   UNL d   1       0.287   2.923  -0.356  0.00  0.00     0.029 A 
BRANCH   9  13
ATOM     13  O   UNL d   1       4.299   1.848  -0.748  0.00  0.00    -0.356 OA
ATOM     14  C   UNL d   1       4.652   0.635  -1.405  0.00  0.00     0.210 C 
ENDBRANCH   9  13
ENDBRANCH   5   7
ENDBRANCH   3   5
ENDBRANCH   1   3
BRANCH   1  15
ATOM     15  C   UNL d   1       0.993  -2.533  -0.688  0.00  0.00     0.121 C 
BRANCH  15  16
ATOM     16  C   UNL d   1       1.943  -2.781   0.526  0.00  0.00     0.068 C 
BRANCH  16  17
ATOM     17  C   UNL d   1       1.266  -2.957   1.873  0.00  0.00    -0.056 A 
ATOM     18  C   UNL d   1       0.734  -4.205   2.235  0.00  0.00     0.007 A 
ATOM     19  C   UNL d   1       0.017  -4.361   3.421  0.00  0.00     0.001 A 
ATOM     20  C   UNL d   1      -0.145  -3.280   4.281  0.00  0.00     0.000 A 
ATOM     21  C   UNL d   1       0.421  -2.047   3.960  0.00  0.00     0.001 A 
ATOM     22  C   UNL d   1       1.123  -1.884   2.762  0.00  0.00     0.007 A 
ENDBRANCH  16  17
ENDBRANCH  15  16
BRANCH  15  23
ATOM     23  C   UNL d   1       0.039  -3.695  -0.899  0.00  0.00    -0.035 A 
ATOM     24  C   UNL d   1       0.469  -4.810  -1.642  0.00  0.00     0.009 A 
ATOM     25  C   UNL d   1      -0.369  -5.914  -1.814  0.00  0.00     0.001 A 
ATOM     26  C   UNL d   1      -1.638  -5.915  -1.246  0.00  0.00     0.000 A 
ATOM     27  C   UNL d   1      -2.081  -4.820  -0.503  0.00  0.00     0.001 A 
ATOM     28  C   UNL d   1      -1.241  -3.719  -0.330  0.00  0.00     0.009 A 
ENDBRANCH  15  23
ENDBRANCH   1  15
TORSDOF 8
