REMARK  6 active torsions:
REMARK  status: ('A' for Active; 'I' for Inactive)
REMARK    1  A    between atoms: S_2  and  C_1 
REMARK    2  A    between atoms: C_13  and  S_2 
REMARK    3  A    between atoms: S_19  and  C_3 
REMARK    4  A    between atoms: C_7  and  C_5 
REMARK       I    between atoms: N_14  and  C_7 
REMARK    5  A    between atoms: C_8  and  C_17 
REMARK    6  A    between atoms: N_11  and  N_14 
ROOT
ATOM      1  C   UNL d   1      -0.207  -2.598  -0.007  0.00  0.00     0.277 C 
ATOM      2  N   UNL d   1      -1.560  -2.924  -0.057  0.00  0.00    -0.266 N 
ATOM      3  O   UNL d   1       0.683  -3.444   0.009  0.00  0.00    -0.265 OA
ATOM      4  H   UNL d   1      -2.270  -2.200  -0.055  0.00  0.00     0.190 HD
ENDROOT
BRANCH   1   5
ATOM      5  C   UNL d   1       0.120  -1.170   0.014  0.00  0.00     0.077 A 
ATOM      6  C   UNL d   1       1.387  -0.642   0.137  0.00  0.00     0.050 A 
ATOM      7  C   UNL d   1       1.443   0.802   0.086  0.00  0.00     0.084 A 
ATOM      8  C   UNL d   1       0.182   1.345  -0.127  0.00  0.00     0.063 A 
ATOM      9  S   UNL d   1      -1.021   0.070  -0.126  0.00  0.00    -0.076 SA
BRANCH   7  10
ATOM     10  S   UNL d   1       3.022   1.536   0.218  0.00  0.00     0.180 S 
ATOM     11  O   UNL d   1       2.825   2.879   0.705  0.00  0.00    -0.222 OA
ATOM     12  O   UNL d   1       3.777   0.580   1.006  0.00  0.00    -0.222 OA
BRANCH  10  13
ATOM     13  C   UNL d   1       3.689   1.543  -1.449  0.00  0.00     0.105 C 
ATOM     14  C   UNL d   1       2.950   2.501  -2.371  0.00  0.00     0.026 C 
ATOM     15  C   UNL d   1       5.176   1.895  -1.415  0.00  0.00     0.026 C 
ENDBRANCH  10  13
ENDBRANCH   7  10
BRANCH   8  16
ATOM     16  S   UNL d   1      -0.517   2.922  -0.492  0.00  0.00    -0.126 SA
ATOM     17  C   UNL d   1       0.547   4.249   0.049  0.00  0.00     0.096 C 
ENDBRANCH   8  16
ENDBRANCH   1   5
BRANCH   2  18
ATOM     18  N   UNL d   1      -1.917  -4.244  -0.050  0.00  0.00    -0.308 N 
ATOM     19  C   UNL d   1      -3.175  -4.534  -0.044  0.00  0.00     0.122 C 
ATOM     20  HN  UNL d   1      -1.209  -4.979  -0.050  1.00  0.00     0.186 HD
BRANCH  19  21
ATOM     21  C   UNL d   1      -3.629  -5.948  -0.028  0.00  0.00     0.024 A 
ATOM     22  C   UNL d   1      -2.927  -6.949   0.667  0.00  0.00     0.047 A 
ATOM     23 CL   UNL d   1      -1.584  -6.638   1.712  0.00  0.00    -0.083 Cl
ATOM     24  C   UNL d   1      -3.348  -8.286   0.599  0.00  0.00     0.025 A 
ATOM     25  C   UNL d   1      -4.477  -8.636  -0.137  0.00  0.00     0.003 A 
ATOM     26  C   UNL d   1      -5.199  -7.646  -0.797  0.00  0.00     0.025 A 
ATOM     27  C   UNL d   1      -4.782  -6.308  -0.743  0.00  0.00     0.047 A 
ATOM     28 CL   UNL d   1      -5.739  -5.160  -1.616  0.00  0.00    -0.083 Cl
ENDBRANCH  19  21
ENDBRANCH   2  18
TORSDOF 6
