REMARK  3 active torsions:
REMARK  status: ('A' for Active; 'I' for Inactive)
REMARK    1  A    between atoms: C_10  and  C_1 
REMARK    2  A    between atoms: C_9  and  O_12 
REMARK    3  A    between atoms: O_12  and  C_11 
ROOT
ATOM      1  C   UNL d   1      -0.461  -1.790  -0.013  0.00  0.00    -0.007 A 
ATOM      2  C   UNL d   1       0.261   0.574  -0.002  0.00  0.00     0.093 A 
ATOM      3  C   UNL d   1       0.604  -0.776   0.006  0.00  0.00     0.009 A 
ATOM      4  O   UNL d   1      -1.087   0.985   0.001  0.00  0.00    -0.275 OA
ATOM      5  C   UNL d   1      -2.113   0.056   0.009  0.00  0.00     0.289 A 
ATOM      6  C   UNL d   1      -1.736  -1.364  -0.013  0.00  0.00     0.095 A 
ATOM      7  C   UNL d   1       1.220   1.585  -0.008  0.00  0.00     0.075 A 
ATOM      8  C   UNL d   1       1.969  -1.111   0.031  0.00  0.00     0.018 A 
ATOM      9  C   UNL d   1       2.566   1.234  -0.021  0.00  0.00     0.081 A 
ATOM     10  O   UNL d   1      -3.292   0.386   0.029  0.00  0.00    -0.260 OA
ATOM     11  C   UNL d   1       2.946  -0.110   0.023  0.00  0.00     0.038 A 
ENDROOT
BRANCH   1  12
ATOM     12  C   UNL d   1      -0.244  -3.247  -0.063  0.00  0.00    -0.025 A 
ATOM     13  C   UNL d   1      -0.148  -3.901  -1.298  0.00  0.00     0.012 A 
ATOM     14  C   UNL d   1       0.141  -5.265  -1.350  0.00  0.00     0.001 A 
ATOM     15  C   UNL d   1       0.331  -5.982  -0.170  0.00  0.00     0.000 A 
ATOM     16  C   UNL d   1       0.217  -5.342   1.064  0.00  0.00     0.001 A 
ATOM     17  C   UNL d   1      -0.074  -3.978   1.119  0.00  0.00     0.012 A 
ENDBRANCH   1  12
BRANCH   9  18
ATOM     18  O   UNL d   1       3.615   2.177  -0.006  0.00  0.00    -0.279 OA
BRANCH  18  19
ATOM     19  C   UNL d   1       3.496   3.397  -0.671  0.00  0.00     0.260 C 
ATOM     20  O   UNL d   1       2.543   3.784  -1.332  0.00  0.00    -0.265 OA
ATOM     21  C   UNL d   1       4.745   4.205  -0.473  0.00  0.00     0.126 C 
ENDBRANCH  18  19
ENDBRANCH   9  18
TORSDOF 3
