REMARK  9 active torsions:
REMARK  status: ('A' for Active; 'I' for Inactive)
REMARK    1  A    between atoms: N_2  and  C_1 
REMARK    2  A    between atoms: C_3  and  C_7 
REMARK    3  A    between atoms: C_4  and  C_6 
REMARK    4  A    between atoms: C_9  and  C_10 
REMARK    5  A    between atoms: N_31  and  C_10 
REMARK    6  A    between atoms: N_11  and  O_23 
REMARK    7  A    between atoms: C_19  and  C_13 
REMARK    8  A    between atoms: C_18  and  C_20 
REMARK    9  A    between atoms: O_23  and  C_18 
ROOT
ATOM      1  C   UNL d   1       3.609  -5.095  -0.030  0.00  0.00     0.109 C 
ATOM      2  N   UNL d   1       3.804  -3.817   0.096  0.00  0.00    -0.246 N 
ATOM      3  HN  UNL d   1       4.678  -3.406   0.425  1.00  0.00     0.196 HD
ENDROOT
BRANCH   1   4
ATOM      4  C   UNL d   1       4.797  -5.994   0.153  0.00  0.00     0.005 A 
ATOM      5  C   UNL d   1       5.865  -5.598   0.969  0.00  0.00     0.031 A 
ATOM      6  C   UNL d   1       6.987  -6.428   1.133  0.00  0.00     0.049 A 
ATOM      7  C   UNL d   1       7.035  -7.652   0.442  0.00  0.00     0.032 A 
ATOM      8  C   UNL d   1       5.973  -8.063  -0.380  0.00  0.00     0.049 A 
ATOM      9  C   UNL d   1       4.856  -7.222  -0.519  0.00  0.00     0.031 A 
BRANCH   6  10
ATOM     10  C   UNL d   1       8.108  -6.019   2.061  0.00  0.00     0.417 C 
ATOM     11  F   UNL d   1       9.096  -6.953   2.153  0.00  0.00    -0.166 F 
ATOM     12  F   UNL d   1       8.719  -4.867   1.677  0.00  0.00    -0.166 F 
ATOM     13  F   UNL d   1       7.673  -5.815   3.335  0.00  0.00    -0.166 F 
ENDBRANCH   6  10
BRANCH   8  14
ATOM     14  C   UNL d   1       6.008  -9.396  -1.091  0.00  0.00     0.417 C 
ATOM     15  F   UNL d   1       7.141 -10.111  -0.850  0.00  0.00    -0.166 F 
ATOM     16  F   UNL d   1       4.973 -10.198  -0.719  0.00  0.00    -0.166 F 
ATOM     17  F   UNL d   1       5.920  -9.271  -2.442  0.00  0.00    -0.166 F 
ENDBRANCH   8  14
ENDBRANCH   1   4
BRANCH   1  18
ATOM     18  N   UNL d   1       2.389  -5.665  -0.314  0.00  0.00    -0.286 NA
ATOM     19  H   UNL d   1       2.234  -6.583   0.093  0.00  0.00     0.125 HD
ATOM     20  H   UNL d   1       1.618  -5.038  -0.104  0.00  0.00     0.125 HD
ENDBRANCH   1  18
BRANCH   2  21
ATOM     21  O   UNL d   1       2.670  -3.059  -0.274  0.00  0.00    -0.194 OA
BRANCH  21  22
ATOM     22  C   UNL d   1       2.791  -1.807   0.258  0.00  0.00     0.304 C 
ATOM     23  O   UNL d   1       3.182  -1.531   1.385  0.00  0.00    -0.258 OA
BRANCH  22  24
ATOM     24  C   UNL d   1       2.423  -0.739  -0.703  0.00  0.00     0.085 C 
ATOM     25  C   UNL d   1       2.067  -0.920  -1.986  0.00  0.00     0.018 C 
BRANCH  25  26
ATOM     26  C   UNL d   1       1.821   0.125  -2.941  0.00  0.00    -0.027 A 
ATOM     27  C   UNL d   1       1.960   1.539  -2.740  0.00  0.00     0.055 A 
ATOM     28  C   UNL d   1       1.668   2.255  -3.884  0.00  0.00     0.144 A 
ATOM     29  S   UNL d   1       1.233   1.259  -5.187  0.00  0.00    -0.077 SA
ATOM     30  C   UNL d   1       1.431  -0.154  -4.238  0.00  0.00     0.063 A 
BRANCH  28  31
ATOM     31  N   UNL d   1       1.713   3.687  -4.036  0.00  0.00    -0.108 N 
ATOM     32  O   UNL d   1       2.037   4.335  -3.034  0.00  0.00    -0.531 OA
ATOM     33  O   UNL d   1       1.425   4.171  -5.142  0.00  0.00    -0.531 OA
ENDBRANCH  28  31
ENDBRANCH  25  26
ENDBRANCH  22  24
ENDBRANCH  21  22
ENDBRANCH   2  21
TORSDOF 9
