REMARK  4 active torsions:
REMARK  status: ('A' for Active; 'I' for Inactive)
REMARK    1  A    between atoms: C_9  and  N_1 
REMARK    2  A    between atoms: C_6  and  C_8 
REMARK       I    between atoms: N_12  and  C_6 
REMARK    3  A    between atoms: C_7  and  N_12 
REMARK    4  A    between atoms: C_8  and  C_9 
ROOT
ATOM      1  C   UNL d   1       1.718   5.005   0.076  0.00  0.00     0.219 C 
ATOM      2  N   UNL d   1       2.936   4.918  -0.551  0.00  0.00    -0.356 N 
ATOM      3  O   UNL d   1       1.238   6.071   0.451  0.00  0.00    -0.274 OA
ATOM      4  H   UNL d   1       3.138   4.076  -1.069  0.00  0.00     0.162 HD
ENDROOT
BRANCH   1   5
ATOM      5  C   UNL d   1       0.917   3.719   0.176  0.00  0.00     0.123 C 
BRANCH   5   6
ATOM      6  C   UNL d   1       1.685   2.410   0.310  0.00  0.00     0.138 C 
BRANCH   6   7
ATOM      7  N   UNL d   1       2.569   2.329   1.456  0.00  0.00    -0.355 N 
ATOM      8  C   UNL d   1       2.124   2.285   2.755  0.00  0.00     0.099 A 
ATOM      9  C   UNL d   1       3.212   2.127   3.587  0.00  0.00    -0.034 A 
ATOM     10  C   UNL d   1       3.186   2.022   5.068  0.00  0.00     0.050 C 
ATOM     11  C   UNL d   1       4.368   2.067   2.750  0.00  0.00    -0.002 A 
ATOM     12  C   UNL d   1       3.942   2.183   1.422  0.00  0.00     0.045 A 
ATOM     13  C   UNL d   1       5.748   1.911   3.010  0.00  0.00     0.014 A 
ATOM     14  C   UNL d   1       4.852   2.132   0.351  0.00  0.00     0.030 A 
ATOM     15  C   UNL d   1       6.213   1.990   0.638  0.00  0.00     0.002 A 
ATOM     16  C   UNL d   1       6.658   1.880   1.950  0.00  0.00     0.001 A 
ENDBRANCH   6   7
ENDBRANCH   5   6
ENDBRANCH   1   5
BRANCH   2  17
ATOM     17  C   UNL d   1       3.711   6.088  -0.942  0.00  0.00     0.092 C 
ATOM     18  C   UNL d   1       3.964   7.156   0.148  0.00  0.00     0.064 C 
ATOM     19  C   UNL d   1       5.175   7.840  -0.421  0.00  0.00    -0.050 A 
ATOM     20  C   UNL d   1       5.643   9.118  -0.169  0.00  0.00     0.007 A 
ATOM     21  C   UNL d   1       5.861   6.981  -1.287  0.00  0.00    -0.050 A 
ATOM     22  C   UNL d   1       6.831   9.519  -0.785  0.00  0.00     0.001 A 
ATOM     23  C   UNL d   1       7.547   8.636  -1.610  0.00  0.00     0.001 A 
ATOM     24  C   UNL d   1       7.063   7.352  -1.864  0.00  0.00     0.007 A 
ATOM     25  C   UNL d   1       5.122   5.692  -1.443  0.00  0.00     0.064 C 
ENDBRANCH   2  17
TORSDOF 4
