REMARK  2 active torsions:
REMARK  status: ('A' for Active; 'I' for Inactive)
REMARK    1  A    between atoms: N_6  and  C_1 
REMARK    2  A    between atoms: C_2  and  C_3 
ROOT
ATOM      1  C   UNL d   1      -0.418   1.249   0.016  0.00  0.00     0.104 A 
ATOM      2  C   UNL d   1      -1.577  -1.173   0.776  0.00  0.00     0.065 A 
ATOM      3  N   UNL d   1      -0.217   0.766   1.268  0.00  0.00    -0.354 N 
ATOM      4  HN  UNL d   1       0.358   1.282   1.935  1.00  0.00     0.166 HD
ATOM      5  C   UNL d   1      -1.186   0.514  -0.910  0.00  0.00     0.073 A 
ATOM      6  C   UNL d   1      -1.756  -0.702  -0.527  0.00  0.00     0.044 A 
ATOM      7  C   UNL d   1      -0.789  -0.410   1.620  0.00  0.00     0.105 A 
ATOM      8 CL   UNL d   1      -1.572   1.095  -2.496  0.00  0.00    -0.081 Cl
ENDROOT
BRANCH   1   9
ATOM      9  N   UNL d   1       0.059   2.532  -0.286  0.00  0.00    -0.267 NA
ATOM     10  C   UNL d   1       0.310   3.387   0.891  0.00  0.00     0.107 C 
ATOM     11  C   UNL d   1       0.254   4.865   0.485  0.00  0.00     0.089 C 
ATOM     12  S   UNL d   1       1.500   5.307  -0.780  0.00  0.00    -0.167 SA
ATOM     13  C   UNL d   1       1.165   3.950  -1.960  0.00  0.00     0.089 C 
ATOM     14  C   UNL d   1       1.154   2.578  -1.273  0.00  0.00     0.107 C 
ENDBRANCH   1   9
BRANCH   2  15
ATOM     15  C   UNL d   1      -2.227  -2.420   1.282  0.00  0.00     0.418 C 
ATOM     16  F   UNL d   1      -2.998  -3.046   0.350  0.00  0.00    -0.166 F 
ATOM     17  F   UNL d   1      -1.325  -3.345   1.706  0.00  0.00    -0.166 F 
ATOM     18  F   UNL d   1      -3.047  -2.181   2.342  0.00  0.00    -0.166 F 
ENDBRANCH   2  15
TORSDOF 2
