REMARK  2 active torsions:
REMARK  status: ('A' for Active; 'I' for Inactive)
REMARK    1  A    between atoms: C_6  and  C_1 
REMARK       I    between atoms: N_9  and  C_6 
REMARK    2  A    between atoms: N_10  and  N_9 
ROOT
ATOM      1  C   UNL d   1      -0.883  -1.227   0.059  0.00  0.00     0.097 A 
ATOM      2  C   UNL d   1      -1.386   0.067   0.012  0.00  0.00     0.028 A 
ATOM      3  N   UNL d   1      -0.423   1.068  -0.016  0.00  0.00    -0.357 N 
ATOM      4  HN  UNL d   1      -0.625   2.067  -0.052  1.00  0.00     0.166 HD
ATOM      5  S   UNL d   1       0.838  -1.162   0.053  0.00  0.00    -0.070 SA
ATOM      6  C   UNL d   1       0.782   0.549   0.010  0.00  0.00     0.048 A 
ATOM      7  C   UNL d   1      -2.805   0.516  -0.000  0.00  0.00     0.070 C 
ATOM      8  C   UNL d   1       2.027   1.365   0.011  0.00  0.00     0.076 C 
ENDROOT
BRANCH   1   9
ATOM      9  C   UNL d   1      -1.610  -2.484   0.131  0.00  0.00     0.274 C 
ATOM     10  O   UNL d   1      -2.842  -2.566   0.174  0.00  0.00    -0.266 OA
ATOM     11  N   UNL d   1      -0.842  -3.650   0.168  0.00  0.00    -0.289 N 
ATOM     12  H   UNL d   1       0.158  -3.599  -0.020  0.00  0.00     0.183 HD
BRANCH  11  13
ATOM     13  N   UNL d   1      -1.476  -4.915   0.233  0.00  0.00    -0.247 NA
ATOM     14  H   UNL d   1      -2.488  -4.741   0.133  0.00  0.00     0.143 HD
ATOM     15  H   UNL d   1      -1.385  -5.265   1.191  0.00  0.00     0.143 HD
ENDBRANCH  11  13
ENDBRANCH   1   9
TORSDOF 2
