REMARK  3 active torsions:
REMARK  status: ('A' for Active; 'I' for Inactive)
REMARK    1  A    between atoms: C_9  and  C_3 
REMARK    2  A    between atoms: C_11  and  C_7 
REMARK       I    between atoms: N_10  and  C_9 
REMARK    3  A    between atoms: C_14  and  N_10 
ROOT
ATOM      1  C   UNL d   1       0.068  -0.955   0.006  0.00  0.00     0.030 A 
ATOM      2  C   UNL d   1      -0.166   0.384   0.007  0.00  0.00     0.024 A 
ATOM      3  C   UNL d   1      -2.259  -0.961  -0.024  0.00  0.00     0.081 A 
ATOM      4  C   UNL d   1      -1.115  -1.751  -0.009  0.00  0.00    -0.021 A 
ATOM      5  S   UNL d   1      -1.889   0.721   0.003  0.00  0.00    -0.083 SA
ATOM      6  S   UNL d   1       1.761  -1.334   0.019  0.00  0.00    -0.092 SA
ATOM      7  C   UNL d   1       2.177   0.340   0.008  0.00  0.00    -0.008 A 
ATOM      8  C   UNL d   1       1.050   1.153   0.008  0.00  0.00     0.035 A 
ATOM      9  C   UNL d   1      -0.970  -3.234  -0.010  0.00  0.00     0.051 C 
ENDROOT
BRANCH   3  10
ATOM     10  C   UNL d   1      -3.636  -1.480  -0.058  0.00  0.00     0.263 C 
ATOM     11  N   UNL d   1      -4.692  -0.579   0.033  0.00  0.00    -0.323 N 
ATOM     12  H   UNL d   1      -4.484   0.396  -0.119  0.00  0.00     0.169 HD
ATOM     13  O   UNL d   1      -3.834  -2.686  -0.202  0.00  0.00    -0.267 OA
BRANCH  11  14
ATOM     14  C   UNL d   1      -6.056  -0.981   0.095  0.00  0.00     0.035 A 
ATOM     15  C   UNL d   1      -6.452  -2.251   0.539  0.00  0.00     0.029 A 
ATOM     16  C   UNL d   1      -7.793  -2.647   0.512  0.00  0.00     0.002 A 
ATOM     17  C   UNL d   1      -8.762  -1.766   0.056  0.00  0.00     0.000 A 
ATOM     18  C   UNL d   1      -8.393  -0.481  -0.341  0.00  0.00     0.002 A 
ATOM     19  C   UNL d   1      -7.048  -0.082  -0.309  0.00  0.00     0.029 A 
ENDBRANCH  11  14
ENDBRANCH   3  10
BRANCH   7  20
ATOM     20  C   UNL d   1       3.675   0.708  -0.004  0.00  0.00    -0.018 C 
ATOM     21  C   UNL d   1       4.348   0.164  -1.285  0.00  0.00     0.020 C 
ATOM     22  C   UNL d   1       3.888   2.233   0.025  0.00  0.00     0.020 C 
ATOM     23  C   UNL d   1       4.390   0.114   1.231  0.00  0.00     0.020 C 
ENDBRANCH   7  20
TORSDOF 3
