REMARK  5 active torsions:
REMARK  status: ('A' for Active; 'I' for Inactive)
REMARK    1  A    between atoms: N_2  and  S_1 
REMARK    2  A    between atoms: C_8  and  S_1 
REMARK    3  A    between atoms: N_5  and  S_3 
REMARK       I    between atoms: C_4  and  N_5 
REMARK       I    between atoms: N_7  and  C_4 
REMARK    4  A    between atoms: C_13  and  N_7 
REMARK    5  A    between atoms: O_24  and  C_17 
ROOT
ATOM      1  N   UNL d   1       0.135   0.644   0.189  0.00  0.00    -0.305 N 
ATOM      2  S   UNL d   1       0.235   2.573   2.846  0.00  0.00    -0.120 SA
ATOM      3  C   UNL d   1       0.263   2.111   0.014  0.00  0.00     0.146 C 
ATOM      4  C   UNL d   1      -0.653   0.289   1.400  0.00  0.00     0.146 C 
ATOM      5  C   UNL d   1       0.979   2.793   1.185  0.00  0.00     0.105 C 
ATOM      6  C   UNL d   1       0.029   0.756   2.685  0.00  0.00     0.105 C 
ENDROOT
BRANCH   2   7
ATOM      7  N   UNL d   1      -1.192   2.984   2.537  0.00  0.00    -0.292 N 
ATOM      8  C   UNL d   1      -1.827   3.730   3.455  0.00  0.00     0.330 C 
ATOM      9  N   UNL d   1      -1.177   4.923   3.694  0.00  0.00    -0.306 N 
ATOM     10  O   UNL d   1      -2.949   3.477   3.889  0.00  0.00    -0.246 OA
ATOM     11  H   UNL d   1      -0.336   5.002   3.150  0.00  0.00     0.171 HD
ATOM     12  HN  UNL d   1      -1.649   2.706   1.668  1.00  0.00     0.178 HD
BRANCH   9  13
ATOM     13  C   UNL d   1      -1.674   6.056   4.350  0.00  0.00     0.069 A 
ATOM     14  C   UNL d   1      -1.385   7.348   3.876  0.00  0.00     0.095 A 
ATOM     15  C   UNL d   1      -1.748   8.457   4.655  0.00  0.00     0.039 A 
ATOM     16  C   UNL d   1      -2.387   8.295   5.886  0.00  0.00     0.003 A 
ATOM     17  C   UNL d   1      -2.697   7.016   6.337  0.00  0.00     0.002 A 
ATOM     18  C   UNL d   1      -2.361   5.903   5.562  0.00  0.00     0.032 A 
BRANCH  14  19
ATOM     19  O   UNL d   1      -0.770   7.698   2.697  0.00  0.00    -0.354 OA
ATOM     20  C   UNL d   1      -0.912   6.812   1.589  0.00  0.00     0.210 C 
ENDBRANCH  14  19
ENDBRANCH   9  13
ENDBRANCH   2   7
BRANCH   1  21
ATOM     21  S   UNL d   1       1.415  -0.345  -0.252  0.00  0.00     0.260 S 
ATOM     22  O   UNL d   1       1.266  -1.659   0.334  0.00  0.00    -0.200 OA
ATOM     23  O   UNL d   1       2.667   0.381  -0.158  0.00  0.00    -0.200 OA
BRANCH  21  24
ATOM     24  C   UNL d   1       1.084  -0.569  -1.996  0.00  0.00     0.079 A 
ATOM     25  C   UNL d   1       2.003  -0.137  -2.957  0.00  0.00     0.027 A 
ATOM     26  C   UNL d   1       1.735  -0.363  -4.310  0.00  0.00     0.025 A 
ATOM     27  C   UNL d   1       0.558  -1.013  -4.688  0.00  0.00     0.034 A 
ATOM     28  C   UNL d   1      -0.356  -1.444  -3.725  0.00  0.00     0.025 A 
ATOM     29 CL   UNL d   1       0.237  -1.292  -6.355  0.00  0.00    -0.084 Cl
ATOM     30  C   UNL d   1      -0.093  -1.225  -2.374  0.00  0.00     0.027 A 
ENDBRANCH  21  24
ENDBRANCH   1  21
TORSDOF 5
