REMARK  3 active torsions:
REMARK  status: ('A' for Active; 'I' for Inactive)
REMARK    1  A    between atoms: N_2  and  S_1 
REMARK    2  A    between atoms: C_3  and  S_1 
REMARK    3  A    between atoms: C_10  and  C_4 
ROOT
ATOM      1  N   UNL d   1       0.184  -0.561  -1.260  0.00  0.00    -0.297 N 
ATOM      2  C   UNL d   1      -0.938   0.332  -1.610  0.00  0.00     0.130 C 
ATOM      3  C   UNL d   1      -0.212  -1.930  -1.667  0.00  0.00     0.136 C 
ATOM      4  C   UNL d   1      -2.148  -0.531  -1.239  0.00  0.00     0.033 C 
ATOM      5  C   UNL d   1      -1.739  -1.922  -1.706  0.00  0.00     0.023 C 
ENDROOT
BRANCH   1   6
ATOM      6  S   UNL d   1       1.285  -0.343  -0.014  0.00  0.00     0.263 S 
ATOM      7  O   UNL d   1       1.985   0.899  -0.300  0.00  0.00    -0.200 OA
ATOM      8  O   UNL d   1       2.047  -1.556   0.164  0.00  0.00    -0.200 OA
BRANCH   6   9
ATOM      9  C   UNL d   1       0.358  -0.072   1.482  0.00  0.00     0.101 A 
ATOM     10  C   UNL d   1      -0.514  -1.010   2.040  0.00  0.00     0.059 A 
ATOM     11  C   UNL d   1      -1.281  -0.665   3.163  0.00  0.00     0.049 A 
ATOM     12 CL   UNL d   1      -0.698  -2.635   1.507  0.00  0.00    -0.083 Cl
ATOM     13  C   UNL d   1      -1.105   0.566   3.786  0.00  0.00     0.035 A 
ATOM     14  C   UNL d   1      -0.161   1.463   3.305  0.00  0.00     0.025 A 
ATOM     15 CL   UNL d   1      -2.040   0.962   5.173  0.00  0.00    -0.084 Cl
ATOM     16  C   UNL d   1       0.559   1.151   2.149  0.00  0.00     0.029 A 
ENDBRANCH   6   9
ENDBRANCH   1   6
BRANCH   2  17
ATOM     17  C   UNL d   1      -0.976   1.776  -1.187  0.00  0.00    -0.019 A 
ATOM     18  C   UNL d   1      -1.971   2.310  -0.372  0.00  0.00     0.096 A 
ATOM     19  N   UNL d   1      -2.150   3.632  -0.140  0.00  0.00    -0.375 N 
ATOM     20  C   UNL d   1      -1.300   4.479  -0.757  0.00  0.00     0.087 A 
ATOM     21  HN  UNL d   1      -2.892   3.971   0.471  1.00  0.00     0.164 HD
ATOM     22  C   UNL d   1      -0.256   4.062  -1.561  0.00  0.00     0.018 A 
ATOM     23  C   UNL d   1      -0.091   2.695  -1.769  0.00  0.00     0.012 A 
ENDBRANCH   2  17
TORSDOF 3
