REMARK  2 active torsions:
REMARK  status: ('A' for Active; 'I' for Inactive)
REMARK    1  A    between atoms: C_10  and  C_3 
REMARK       I    between atoms: C_9  and  N_8 
REMARK       I    between atoms: N_13  and  C_9 
REMARK    2  A    between atoms: C_15  and  N_13 
ROOT
ATOM      1  S   UNL d   1      -1.840   0.587   0.070  0.00  0.00    -0.037 SA
ATOM      2  C   UNL d   1      -0.185   0.986   0.124  0.00  0.00     0.169 A 
ATOM      3  C   UNL d   1      -1.366  -1.049   0.277  0.00  0.00     0.074 A 
ATOM      4  N   UNL d   1      -0.060  -1.224   0.340  0.00  0.00    -0.296 N 
ATOM      5  HN  UNL d   1       0.387  -2.134   0.454  1.00  0.00     0.187 HD
ATOM      6  N   UNL d   1       0.635  -0.030   0.235  0.00  0.00    -0.279 N 
ATOM      7  HN  UNL d   1       1.652   0.048   0.242  1.00  0.00     0.189 HD
ATOM      8  N   UNL d   1       0.083   2.318   0.057  0.00  0.00    -0.287 N 
ATOM      9  C   UNL d   1       1.302   2.919   0.136  0.00  0.00     0.326 C 
ATOM     10  N   UNL d   1       2.411   2.116   0.142  0.00  0.00    -0.309 N 
ATOM     11  O   UNL d   1       1.308   4.149   0.172  0.00  0.00    -0.247 OA
ATOM     12  H   UNL d   1      -0.699   2.954   0.026  0.00  0.00     0.172 HD
ATOM     13  H   UNL d   1       2.255   1.138  -0.072  0.00  0.00     0.170 HD
ENDROOT
BRANCH  10  14
ATOM     14  C   UNL d   1       3.753   2.531   0.287  0.00  0.00     0.036 A 
ATOM     15  C   UNL d   1       4.124   3.799   0.749  0.00  0.00     0.032 A 
ATOM     16  C   UNL d   1       5.473   4.143   0.881  0.00  0.00     0.044 A 
ATOM     17  C   UNL d   1       6.452   3.219   0.545  0.00  0.00     0.116 A 
ATOM     18  C   UNL d   1       6.107   1.954   0.089  0.00  0.00     0.044 A 
ATOM     19  F   UNL d   1       7.744   3.551   0.667  0.00  0.00    -0.206 F 
ATOM     20  C   UNL d   1       4.758   1.605  -0.030  0.00  0.00     0.032 A 
ENDBRANCH  10  14
BRANCH   3  21
ATOM     21  C   UNL d   1      -2.318  -2.242   0.398  0.00  0.00     0.044 A 
ATOM     22  C   UNL d   1      -3.556  -2.314  -0.474  0.00  0.00     0.012 A 
ATOM     23  C   UNL d   1      -3.705  -2.058   0.987  0.00  0.00     0.012 A 
ENDBRANCH   3  21
TORSDOF 2
