REMARK  3 active torsions:
REMARK  status: ('A' for Active; 'I' for Inactive)
REMARK    1  A    between atoms: C_4  and  C_1 
REMARK    2  A    between atoms: N_18  and  C_2 
REMARK    3  A    between atoms: C_14  and  C_12 
ROOT
ATOM      1  C   UNL d   1      -1.425   2.500   0.080  0.00  0.00     0.064 A 
ATOM      2  N   UNL d   1      -1.846   3.196  -0.984  0.00  0.00    -0.299 N 
ATOM      3  HN  UNL d   1      -1.754   2.950  -1.970  1.00  0.00     0.187 HD
ATOM      4  C   UNL d   1      -1.736   3.173   1.285  0.00  0.00     0.063 A 
ATOM      5  C   UNL d   1      -2.395   4.329   0.917  0.00  0.00     0.060 A 
ATOM      6  N   UNL d   1      -2.417   4.292  -0.454  0.00  0.00    -0.299 N 
ATOM      7  H   UNL d   1      -2.804   4.982  -1.089  0.00  0.00     0.187 HD
ENDROOT
BRANCH   1   8
ATOM      8  C   UNL d   1      -0.786   1.222   0.018  0.00  0.00     0.042 A 
ATOM      9  C   UNL d   1      -1.466   0.063   0.064  0.00  0.00     0.090 A 
ATOM     10  C   UNL d   1      -0.695  -1.232   0.012  0.00  0.00     0.283 A 
ATOM     11  O   UNL d   1      -1.317  -2.295  -0.023  0.00  0.00    -0.265 OA
ATOM     12  N   UNL d   1       0.685  -1.141  -0.002  0.00  0.00    -0.260 N 
ATOM     13  N   UNL d   1       1.381   0.035  -0.033  0.00  0.00    -0.300 N 
ATOM     14  C   UNL d   1       1.468  -2.360  -0.026  0.00  0.00     0.181 C 
ATOM     15  C   UNL d   1       0.702   1.139  -0.031  0.00  0.00     0.036 A 
ATOM     16  HN  UNL d   1       2.401   0.044  -0.056  1.00  0.00     0.187 HD
ATOM     17  C   UNL d   1       1.501   2.425  -0.066  0.00  0.00     0.070 C 
BRANCH   9  18
ATOM     18  N   UNL d   1      -2.860  -0.062   0.143  0.00  0.00    -0.297 NA
ATOM     19  H   UNL d   1      -3.341   0.666  -0.381  0.00  0.00     0.124 HD
ATOM     20  H   UNL d   1      -3.142  -1.004  -0.144  0.00  0.00     0.124 HD
ENDBRANCH   9  18
ENDBRANCH   1   8
BRANCH   5  21
ATOM     21  C   UNL d   1      -2.973   5.392   1.733  0.00  0.00    -0.006 A 
ATOM     22  C   UNL d   1      -2.368   5.742   2.950  0.00  0.00     0.039 A 
ATOM     23  C   UNL d   1      -2.934   6.716   3.780  0.00  0.00     0.056 A 
ATOM     24 CL   UNL d   1      -2.123   7.074   5.263  0.00  0.00    -0.083 Cl
ATOM     25  C   UNL d   1      -4.116   7.354   3.397  0.00  0.00     0.055 A 
ATOM     26  C   UNL d   1      -4.721   7.019   2.183  0.00  0.00     0.026 A 
ATOM     27 CL   UNL d   1      -4.885   8.549   4.378  0.00  0.00    -0.083 Cl
ATOM     28  C   UNL d   1      -4.152   6.045   1.355  0.00  0.00     0.015 A 
ENDBRANCH   5  21
TORSDOF 3
