REMARK  4 active torsions:
REMARK  status: ('A' for Active; 'I' for Inactive)
REMARK    1  A    between atoms: N_10  and  C_4 
REMARK    2  A    between atoms: C_11  and  N_5 
REMARK    3  A    between atoms: C_9  and  C_6 
REMARK    4  A    between atoms: C_12  and  C_11 
ROOT
ATOM      1  N   UNL d   1       5.156   2.693  -1.035  0.00  0.00    -0.197 NA
ATOM      2  C   UNL d   1       4.221   2.004  -1.097  0.00  0.00     0.060 C 
ATOM      3  C   UNL d   1       3.030   1.163  -1.153  0.00  0.00     0.146 C 
ENDROOT
BRANCH   3   4
ATOM      4  C   UNL d   1       2.137   1.445   0.049  0.00  0.00     0.165 C 
BRANCH   4   5
ATOM      5  N   UNL d   1       0.897   0.693   0.017  0.00  0.00    -0.276 N 
ATOM      6  C   UNL d   1      -0.388   1.175  -0.028  0.00  0.00     0.117 A 
ATOM      7  C   UNL d   1      -1.195   0.063  -0.017  0.00  0.00     0.081 A 
ATOM      8  C   UNL d   1      -0.322  -1.059   0.019  0.00  0.00     0.062 A 
ATOM      9  N   UNL d   1       0.960  -0.655   0.066  0.00  0.00    -0.296 N 
ATOM     10  HN  UNL d   1       1.795  -1.238   0.126  1.00  0.00     0.187 HD
BRANCH   6  11
ATOM     11  N   UNL d   1      -0.727   2.478  -0.083  0.00  0.00    -0.384 N 
ATOM     12  H   UNL d   1      -0.080   3.245   0.068  0.00  0.00     0.157 HD
ATOM     13  H   UNL d   1      -1.702   2.758   0.015  0.00  0.00     0.157 HD
ENDBRANCH   6  11
BRANCH   8  14
ATOM     14  C   UNL d   1      -0.693  -2.476  -0.007  0.00  0.00    -0.008 A 
ATOM     15  C   UNL d   1      -1.869  -2.894  -0.649  0.00  0.00     0.014 A 
ATOM     16  C   UNL d   1      -2.213  -4.248  -0.700  0.00  0.00     0.001 A 
ATOM     17  C   UNL d   1      -1.388  -5.199  -0.104  0.00  0.00     0.000 A 
ATOM     18  C   UNL d   1      -0.223  -4.798   0.547  0.00  0.00     0.001 A 
ATOM     19  C   UNL d   1       0.125  -3.444   0.593  0.00  0.00     0.014 A 
ENDBRANCH   8  14
ENDBRANCH   4   5
ENDBRANCH   3   4
TORSDOF 4
