REMARK  12 active torsions:
REMARK  status: ('A' for Active; 'I' for Inactive)
REMARK    1  A    between atoms: N_3  and  S_1 
REMARK    2  A    between atoms: C_5  and  S_1 
REMARK    3  A    between atoms: S_2  and  N_4 
REMARK    4  A    between atoms: C_13  and  S_2 
REMARK    5  A    between atoms: C_9  and  N_3 
REMARK    6  A    between atoms: N_4  and  N_10 
REMARK    7  A    between atoms: C_6  and  C_11 
REMARK    8  A    between atoms: C_7  and  C_12 
REMARK    9  A    between atoms: C_8  and  C_9 
REMARK       I    between atoms: N_10  and  C_8 
REMARK   10  A    between atoms: C_30  and  C_9 
REMARK   11  A    between atoms: C_36  and  C_30 
REMARK   12  A    between atoms: S_35  and  C_36 
ROOT
ATOM      1  C   UNL d   1       1.093  -2.193  -1.288  0.00  0.00     0.187 C 
ENDROOT
BRANCH   1   2
ATOM      2  C   UNL d   1       2.586  -2.487  -1.391  0.00  0.00     0.260 C 
ATOM      3  N   UNL d   1       3.307  -2.624  -0.223  0.00  0.00    -0.259 N 
ATOM      4  H   UNL d   1       2.970  -2.283   0.679  0.00  0.00     0.190 HD
ATOM      5  O   UNL d   1       3.116  -2.688  -2.491  0.00  0.00    -0.269 OA
BRANCH   3   6
ATOM      6  N   UNL d   1       4.730  -2.885  -0.373  0.00  0.00    -0.220 N 
ATOM      7  H   UNL d   1       5.125  -2.937  -1.318  0.00  0.00     0.200 HD
BRANCH   6   8
ATOM      8  S   UNL d   1       5.732  -3.320   0.897  0.00  0.00     0.276 S 
ATOM      9  O   UNL d   1       7.090  -3.334   0.403  0.00  0.00    -0.199 OA
ATOM     10  O   UNL d   1       5.346  -2.566   2.074  0.00  0.00    -0.199 OA
BRANCH   8  11
ATOM     11  C   UNL d   1       5.237  -5.013   1.158  0.00  0.00     0.081 A 
ATOM     12  C   UNL d   1       5.799  -6.027   0.372  0.00  0.00     0.027 A 
ATOM     13  C   UNL d   1       5.482  -7.361   0.640  0.00  0.00     0.025 A 
ATOM     14  C   UNL d   1       4.615  -7.672   1.689  0.00  0.00     0.034 A 
ATOM     15  C   UNL d   1       4.047  -6.660   2.464  0.00  0.00     0.025 A 
ATOM     16 CL   UNL d   1       4.264  -9.317   2.050  0.00  0.00    -0.084 Cl
ATOM     17  C   UNL d   1       4.358  -5.324   2.200  0.00  0.00     0.027 A 
ENDBRANCH   8  11
ENDBRANCH   6   8
ENDBRANCH   3   6
ENDBRANCH   1   2
BRANCH   1  18
ATOM     18  N   UNL d   1       0.646  -1.392  -0.131  0.00  0.00    -0.301 N 
ATOM     19  H   UNL d   1      -0.352  -1.404   0.076  0.00  0.00     0.173 HD
BRANCH  18  20
ATOM     20  S   UNL d   1       1.204   0.183   0.063  0.00  0.00     0.259 S 
ATOM     21  O   UNL d   1       2.612   0.095   0.365  0.00  0.00    -0.201 OA
ATOM     22  O   UNL d   1       0.269   0.811   0.964  0.00  0.00    -0.201 OA
BRANCH  20  23
ATOM     23  C   UNL d   1       1.017   0.937  -1.538  0.00  0.00     0.081 A 
ATOM     24  C   UNL d   1      -0.180   1.581  -1.871  0.00  0.00     0.041 A 
ATOM     25  C   UNL d   1      -0.279   2.298  -3.074  0.00  0.00     0.050 A 
ATOM     26  C   UNL d   1       0.837   2.347  -3.932  0.00  0.00     0.032 A 
ATOM     27  C   UNL d   1       2.044   1.706  -3.600  0.00  0.00     0.050 A 
ATOM     28  C   UNL d   1       2.121   0.994  -2.395  0.00  0.00     0.041 A 
BRANCH  25  29
ATOM     29  C   UNL d   1      -1.533   3.068  -3.429  0.00  0.00     0.417 C 
ATOM     30  F   UNL d   1      -2.520   2.954  -2.499  0.00  0.00    -0.166 F 
ATOM     31  F   UNL d   1      -1.295   4.401  -3.562  0.00  0.00    -0.166 F 
ATOM     32  F   UNL d   1      -2.079   2.663  -4.608  0.00  0.00    -0.166 F 
ENDBRANCH  25  29
BRANCH  27  33
ATOM     33  C   UNL d   1       3.256   1.849  -4.495  0.00  0.00     0.417 C 
ATOM     34  F   UNL d   1       4.350   1.185  -4.035  0.00  0.00    -0.166 F 
ATOM     35  F   UNL d   1       3.033   1.388  -5.754  0.00  0.00    -0.166 F 
ATOM     36  F   UNL d   1       3.635   3.149  -4.630  0.00  0.00    -0.166 F 
ENDBRANCH  27  33
ENDBRANCH  20  23
ENDBRANCH  18  20
ENDBRANCH   1  18
BRANCH   1  37
ATOM     37  C   UNL d   1       0.296  -3.514  -1.326  0.00  0.00     0.045 C 
BRANCH  37  38
ATOM     38  C   UNL d   1      -1.235  -3.362  -1.405  0.00  0.00     0.076 C 
BRANCH  38  39
ATOM     39  S   UNL d   1      -1.762  -2.238  -2.743  0.00  0.00    -0.173 SA
ATOM     40  C   UNL d   1      -3.530  -2.137  -2.376  0.00  0.00     0.089 C 
ENDBRANCH  38  39
ENDBRANCH  37  38
ENDBRANCH   1  37
TORSDOF 12
