REMARK  3 active torsions:
REMARK  status: ('A' for Active; 'I' for Inactive)
REMARK    1  A    between atoms: C_4  and  C_1 
REMARK    2  A    between atoms: O_8  and  C_4 
REMARK    3  A    between atoms: C_10  and  O_8 
ROOT
ATOM      1  C   UNL d   1      -2.602  -1.548   0.005  0.00  0.00     0.317 C 
ATOM      2  O   UNL d   1      -2.643  -2.772  -0.104  0.00  0.00    -0.257 OA
ENDROOT
BRANCH   1   3
ATOM      3  C   UNL d   1      -1.350  -0.813   0.173  0.00  0.00     0.132 A 
ATOM      4  N   UNL d   1      -1.298   0.529   0.233  0.00  0.00    -0.255 N 
ATOM      5  O   UNL d   1       0.043   0.860   0.297  0.00  0.00    -0.242 OA
ATOM      6  HN  UNL d   1      -2.088   1.174   0.230  1.00  0.00     0.195 HD
ATOM      7  C   UNL d   1       0.793  -0.273   0.286  0.00  0.00     0.075 A 
ATOM      8  C   UNL d   1      -0.040  -1.361   0.234  0.00  0.00     0.072 A 
ATOM      9  C   UNL d   1       2.256  -0.093   0.301  0.00  0.00     0.079 C 
ENDBRANCH   1   3
BRANCH   1  10
ATOM     10  O   UNL d   1      -3.713  -0.706  -0.067  0.00  0.00    -0.274 OA
BRANCH  10  11
ATOM     11  C   UNL d   1      -4.901  -1.160  -0.672  0.00  0.00     0.079 A 
ATOM     12  C   UNL d   1      -6.101  -0.709  -0.121  0.00  0.00     0.039 A 
ATOM     13  C   UNL d   1      -7.304  -0.974  -0.779  0.00  0.00     0.026 A 
ATOM     14  C   UNL d   1      -7.294  -1.679  -1.984  0.00  0.00     0.034 A 
ATOM     15  C   UNL d   1      -6.094  -2.141  -2.525  0.00  0.00     0.026 A 
ATOM     16 CL   UNL d   1      -8.769  -1.948  -2.829  0.00  0.00    -0.084 Cl
ATOM     17  C   UNL d   1      -4.889  -1.877  -1.870  0.00  0.00     0.039 A 
ENDBRANCH  10  11
ENDBRANCH   1  10
TORSDOF 3
