REMARK  0 active torsions:
REMARK  status: ('A' for Active; 'I' for Inactive)
ROOT
ATOM      1  N   UNL d   1       0.905   0.546  -0.001  0.00  0.00    -0.116 N 
ATOM      2  C   UNL d   1       1.626  -0.609  -0.002  0.00  0.00     0.720 A 
ATOM      3  C   UNL d   1       1.838   1.553  -0.001  0.00  0.00     0.213 A 
ATOM      4  N   UNL d   1       1.050  -1.851  -0.002  0.00  0.00    -0.130 N 
ATOM      5  HN  UNL d   1       1.639  -2.684  -0.003  1.00  0.00     0.205 HD
ATOM      6  N   UNL d   1       2.919  -0.444  -0.002  0.00  0.00    -0.128 N 
ATOM      7  HN  UNL d   1       3.644  -1.161  -0.002  1.00  0.00     0.205 HD
ATOM      8  N   UNL d   1      -0.201  -1.970  -0.001  0.00  0.00    -0.284 N 
ATOM      9  HN  UNL d   1      -0.626  -2.898  -0.000  1.00  0.00     0.187 HD
ATOM     10  C   UNL d   1      -0.489   0.482  -0.001  0.00  0.00     0.087 A 
ATOM     11  C   UNL d   1      -1.018  -0.819  -0.000  0.00  0.00     0.077 A 
ATOM     12  N   UNL d   1       3.079   0.914  -0.001  0.00  0.00    -0.261 N 
ATOM     13  C   UNL d   1      -1.352   1.579  -0.001  0.00  0.00     0.034 A 
ATOM     14  S   UNL d   1       1.717   3.206   0.001  0.00  0.00    -0.038 SA
ATOM     15  C   UNL d   1      -2.407  -0.999   0.001  0.00  0.00     0.040 A 
ATOM     16  C   UNL d   1      -2.738   1.385  -0.000  0.00  0.00     0.009 A 
ATOM     17  C   UNL d   1      -3.277   0.097   0.001  0.00  0.00    -0.060 A 
ATOM     18  C   UNL d   1      -4.761  -0.123   0.002  0.00  0.00     0.048 C 
ATOM     19  H   UNL d   1       3.993   1.353  -0.001  0.00  0.00     0.190 HD
ENDROOT
TORSDOF 0
