REMARK  0 active torsions:
REMARK  status: ('A' for Active; 'I' for Inactive)
ROOT
ATOM      1  C   UNL d   1      -0.295  -1.113  -0.000  0.00  0.00     0.180 A 
ATOM      2  N   UNL d   1      -0.626  -0.172  -0.870  0.00  0.00    -0.277 N 
ATOM      3  HN  UNL d   1      -1.227  -0.285  -1.686  1.00  0.00     0.189 HD
ATOM      4  C   UNL d   1      -0.748  -2.472  -0.073  0.00  0.00     0.057 A 
ATOM      5  N   UNL d   1      -0.003   0.993  -0.464  0.00  0.00    -0.288 N 
ATOM      6  HN  UNL d   1      -0.051   1.906  -0.916  1.00  0.00     0.188 HD
ATOM      7  O   UNL d   1       0.534  -0.620   0.984  0.00  0.00    -0.285 OA
ATOM      8  S   UNL d   1      -0.283  -3.636   1.096  0.00  0.00    -0.098 SA
ATOM      9  C   UNL d   1       0.662   0.683   0.621  0.00  0.00     0.251 A 
ATOM     10  C   UNL d   1      -1.577  -3.028  -1.031  0.00  0.00     0.024 A 
ATOM     11  C   UNL d   1      -1.190  -4.868   0.333  0.00  0.00     0.050 A 
ATOM     12  C   UNL d   1      -1.832  -4.412  -0.796  0.00  0.00     0.009 A 
ENDROOT
TORSDOF 0
