REMARK  2 active torsions:
REMARK  status: ('A' for Active; 'I' for Inactive)
REMARK    1  A    between atoms: C_2  and  N_1 
REMARK       I    between atoms: C_4  and  N_6 
REMARK    2  A    between atoms: N_6  and  C_10 
ROOT
ATOM      1  C   UNL d   1       0.170   0.700   1.038  0.00  0.00     0.103 A 
ATOM      2  C   UNL d   1       0.604   1.934   1.536  0.00  0.00     0.038 A 
ATOM      3  C   UNL d   1      -1.029   0.142   1.487  0.00  0.00     0.038 A 
ATOM      4  C   UNL d   1      -1.379   2.058   2.949  0.00  0.00     0.034 A 
ATOM      5  C   UNL d   1      -1.796   0.824   2.439  0.00  0.00     0.032 A 
ATOM      6  C   UNL d   1      -0.173   2.606   2.489  0.00  0.00     0.032 A 
ENDROOT
BRANCH   4   7
ATOM      7  N   UNL d   1      -2.106   2.794   3.910  0.00  0.00    -0.328 N 
ATOM      8  C   UNL d   1      -3.308   2.438   4.497  0.00  0.00     0.218 C 
ATOM      9  O   UNL d   1      -3.954   1.417   4.285  0.00  0.00    -0.274 OA
ATOM     10  C   UNL d   1      -3.819   3.456   5.487  0.00  0.00     0.117 C 
ATOM     11  H   UNL d   1      -1.698   3.675   4.197  0.00  0.00     0.169 HD
ENDBRANCH   4   7
BRANCH   1  12
ATOM     12  N   UNL d   1       0.976  -0.015   0.040  0.00  0.00    -0.116 N 
ATOM     13  O   UNL d   1       2.029   0.521  -0.336  0.00  0.00    -0.532 OA
ATOM     14  O   UNL d   1       0.558  -1.107  -0.366  0.00  0.00    -0.532 OA
ENDBRANCH   1  12
TORSDOF 2
