REMARK  4 active torsions:
REMARK  status: ('A' for Active; 'I' for Inactive)
REMARK       I    between atoms: N_3  and  C_1 
REMARK    1  A    between atoms: C_5  and  C_1 
REMARK    2  A    between atoms: N_7  and  N_3 
REMARK    3  A    between atoms: C_4  and  C_5 
REMARK    4  A    between atoms: O_9  and  C_8 
ROOT
ATOM      1  C   UNL d   1       2.988   0.428  -1.271  0.00  0.00    -0.047 A 
ATOM      2  C   UNL d   1       2.819   1.805  -1.501  0.00  0.00     0.044 A 
ATOM      3  C   UNL d   1       3.318   2.398  -2.663  0.00  0.00     0.068 A 
ATOM      4  C   UNL d   1       4.188   0.248  -3.368  0.00  0.00     0.003 A 
ATOM      5  C   UNL d   1       3.683  -0.343  -2.212  0.00  0.00     0.007 A 
ATOM      6  C   UNL d   1       4.000   1.612  -3.592  0.00  0.00     0.037 A 
ENDROOT
BRANCH   1   7
ATOM      7  C   UNL d   1       2.456  -0.198  -0.007  0.00  0.00     0.142 C 
BRANCH   7   8
ATOM      8  C   UNL d   1       3.447  -0.110   1.137  0.00  0.00     0.235 C 
ATOM      9  O   UNL d   1       3.559   0.884   1.853  0.00  0.00    -0.272 OA
ATOM     10  N   UNL d   1       4.232  -1.247   1.292  0.00  0.00    -0.294 N 
ATOM     11  H   UNL d   1       4.042  -2.091   0.755  0.00  0.00     0.183 HD
BRANCH  10  12
ATOM     12  N   UNL d   1       5.163  -1.310   2.349  0.00  0.00    -0.247 NA
ATOM     13  H   UNL d   1       4.942  -0.530   2.986  0.00  0.00     0.143 HD
ATOM     14  H   UNL d   1       6.081  -1.054   1.972  0.00  0.00     0.143 HD
ENDBRANCH  10  12
ENDBRANCH   7   8
ENDBRANCH   1   7
BRANCH   3  15
ATOM     15  O   UNL d   1       3.207   3.719  -3.003  0.00  0.00    -0.356 OA
ATOM     16  C   UNL d   1       2.512   4.561  -2.091  0.00  0.00     0.210 C 
ENDBRANCH   3  15
TORSDOF 4
