REMARK  5 active torsions:
REMARK  status: ('A' for Active; 'I' for Inactive)
REMARK    1  A    between atoms: C_4  and  C_1 
REMARK    2  A    between atoms: O_10  and  C_4 
REMARK    3  A    between atoms: N_7  and  O_10 
REMARK    4  A    between atoms: C_11  and  C_9 
REMARK    5  A    between atoms: N_16  and  C_9 
ROOT
ATOM      1  N   UNL d   1       3.595   0.617  -0.366  0.00  0.00    -0.246 N 
ATOM      2  HN  UNL d   1       3.547  -0.336  -0.725  1.00  0.00     0.196 HD
ATOM      3  C   UNL d   1       4.702   1.226  -0.072  0.00  0.00     0.109 C 
ENDROOT
BRANCH   1   4
ATOM      4  O   UNL d   1       2.461   1.430  -0.131  0.00  0.00    -0.193 OA
BRANCH   4   5
ATOM      5  C   UNL d   1       1.325   0.785  -0.572  0.00  0.00     0.323 C 
ATOM      6  O   UNL d   1       1.329  -0.264  -1.214  0.00  0.00    -0.257 OA
BRANCH   5   7
ATOM      7  C   UNL d   1       0.123   1.505  -0.169  0.00  0.00     0.104 A 
ATOM      8  C   UNL d   1      -0.079   2.699   0.507  0.00  0.00     0.063 A 
ATOM      9  C   UNL d   1      -1.476   2.990   0.737  0.00  0.00    -0.032 A 
ATOM     10 CL   UNL d   1       1.151   3.774   1.052  0.00  0.00    -0.082 Cl
ATOM     11  C   UNL d   1      -2.038   4.170   1.465  0.00  0.00     0.050 C 
ATOM     12  C   UNL d   1      -2.277   2.017   0.172  0.00  0.00     0.059 A 
ATOM     13  S   UNL d   1      -1.387   0.781  -0.578  0.00  0.00    -0.094 SA
ENDBRANCH   5   7
ENDBRANCH   4   5
ENDBRANCH   1   4
BRANCH   3  14
ATOM     14  C   UNL d   1       5.981   0.457  -0.235  0.00  0.00     0.004 A 
ATOM     15  C   UNL d   1       6.032  -0.640  -1.105  0.00  0.00     0.016 A 
ATOM     16  C   UNL d   1       7.221  -1.359  -1.263  0.00  0.00     0.024 A 
ATOM     17  C   UNL d   1       8.356  -0.987  -0.545  0.00  0.00     0.034 A 
ATOM     18  C   UNL d   1       8.312   0.095   0.335  0.00  0.00     0.024 A 
ATOM     19 CL   UNL d   1       9.820  -1.869  -0.739  0.00  0.00    -0.084 Cl
ATOM     20  C   UNL d   1       7.125   0.817   0.491  0.00  0.00     0.016 A 
ENDBRANCH   3  14
BRANCH   3  21
ATOM     21  N   UNL d   1       4.766   2.530   0.364  0.00  0.00    -0.286 NA
ATOM     22  H   UNL d   1       3.895   3.031   0.220  0.00  0.00     0.125 HD
ATOM     23  H   UNL d   1       5.566   3.061   0.034  0.00  0.00     0.125 HD
ENDBRANCH   3  21
TORSDOF 5
