REMARK  2 active torsions:
REMARK  status: ('A' for Active; 'I' for Inactive)
REMARK    1  A    between atoms: C_12  and  C_6 
REMARK    2  A    between atoms: C_16  and  C_7 
ROOT
ATOM      1  N   UNL d   1       1.423  -0.622  -0.065  0.00  0.00    -0.348 N 
ATOM      2  HN  UNL d   1       2.306  -1.132  -0.086  1.00  0.00     0.166 HD
ATOM      3  C   UNL d   1       0.228  -1.184  -0.083  0.00  0.00     0.091 A 
ATOM      4  S   UNL d   1      -1.448  -3.417  -0.143  0.00  0.00    -0.085 SA
ATOM      5  C   UNL d   1       0.071  -2.623  -0.073  0.00  0.00     0.039 A 
ATOM      6  C   UNL d   1       1.308   0.760  -0.014  0.00  0.00     0.050 A 
ATOM      7  C   UNL d   1      -0.755  -4.976   0.011  0.00  0.00     0.032 A 
ATOM      8  S   UNL d   1      -1.090  -0.075  -0.084  0.00  0.00    -0.081 SA
ATOM      9  C   UNL d   1       0.011   1.233  -0.030  0.00  0.00     0.082 A 
ATOM     10  C   UNL d   1       1.096  -3.548   0.003  0.00  0.00     0.023 A 
ATOM     11  C   UNL d   1       0.625  -4.893   0.034  0.00  0.00     0.023 A 
ENDROOT
BRANCH   6  12
ATOM     12  C   UNL d   1       2.486   1.620   0.017  0.00  0.00    -0.006 A 
ATOM     13  C   UNL d   1       2.469   2.864   0.666  0.00  0.00     0.053 A 
ATOM     14  C   UNL d   1       3.595   3.694   0.649  0.00  0.00     0.102 A 
ATOM     15  O   UNL d   1       3.424   4.905   1.276  0.00  0.00    -0.348 OA
ATOM     16  C   UNL d   1       4.775   3.262   0.033  0.00  0.00     0.102 A 
ATOM     17  C   UNL d   1       4.092   5.979   0.617  0.00  0.00     0.178 C 
ATOM     18  C   UNL d   1       5.536   6.093   1.076  0.00  0.00     0.053 C 
ATOM     19  C   UNL d   1       6.212   4.735   1.158  0.00  0.00     0.178 C 
ATOM     20  O   UNL d   1       5.957   3.958  -0.013  0.00  0.00    -0.348 OA
ATOM     21  C   UNL d   1       4.796   2.026  -0.621  0.00  0.00     0.040 A 
ATOM     22  C   UNL d   1       3.662   1.208  -0.621  0.00  0.00     0.017 A 
ENDBRANCH   6  12
BRANCH   7  23
ATOM     23  C   UNL d   1      -1.589  -6.183   0.097  0.00  0.00     0.049 A 
ATOM     24  N   UNL d   1      -1.012  -7.298  -0.416  0.00  0.00    -0.365 N 
ATOM     25  C   UNL d   1      -1.695  -8.458  -0.302  0.00  0.00     0.088 A 
ATOM     26  HN  UNL d   1      -0.098  -7.263  -0.869  1.00  0.00     0.165 HD
ATOM     27  C   UNL d   1      -2.927  -8.571   0.319  0.00  0.00     0.017 A 
ATOM     28  C   UNL d   1      -3.505  -7.421   0.841  0.00  0.00     0.004 A 
ATOM     29  C   UNL d   1      -2.832  -6.206   0.725  0.00  0.00     0.031 A 
ENDBRANCH   7  23
TORSDOF 2
