REMARK  6 active torsions:
REMARK  status: ('A' for Active; 'I' for Inactive)
REMARK    1  A    between atoms: C_2  and  N_1 
REMARK    2  A    between atoms: C_15  and  C_10 
REMARK    3  A    between atoms: C_13  and  O_19 
REMARK       I    between atoms: N_18  and  C_13 
REMARK    4  A    between atoms: C_20  and  C_15 
REMARK    5  A    between atoms: O_19  and  N_16 
REMARK    6  A    between atoms: C_22  and  N_18 
ROOT
ATOM      1  N   UNL d   1       0.626  -3.384   0.325  0.00  0.00    -0.264 N 
ATOM      2  HN  UNL d   1       0.358  -4.368   0.337  1.00  0.00     0.194 HD
ATOM      3  C   UNL d   1       1.843  -2.920   0.167  0.00  0.00     0.014 C 
ATOM      4  C   UNL d   1       2.195  -1.440   0.070  0.00  0.00     0.066 C 
ENDROOT
BRANCH   3   5
ATOM      5  C   UNL d   1       3.026  -3.870   0.115  0.00  0.00     0.132 C 
BRANCH   5   6
ATOM      6  C   UNL d   1       3.548  -4.094   1.488  0.00  0.00     0.102 A 
ATOM      7  N   UNL d   1       4.625  -3.471   1.999  0.00  0.00    -0.279 N 
ATOM      8  N   UNL d   1       4.701  -4.008   3.255  0.00  0.00    -0.232 N 
ATOM      9  HN  UNL d   1       5.230  -2.776   1.562  1.00  0.00     0.189 HD
ATOM     10  C   UNL d   1       3.661  -4.895   3.419  0.00  0.00     0.210 A 
ATOM     11  N   UNL d   1       2.939  -4.981   2.329  0.00  0.00    -0.339 N 
ATOM     12  HN  UNL d   1       2.122  -5.566   2.153  1.00  0.00     0.168 HD
BRANCH   8  13
ATOM     13  C   UNL d   1       5.703  -3.715   4.217  0.00  0.00     0.150 A 
ATOM     14  N   UNL d   1       5.661  -4.343   5.397  0.00  0.00    -0.243 N 
ATOM     15  O   UNL d   1       6.773  -3.891   6.087  0.00  0.00    -0.241 OA
ATOM     16  HN  UNL d   1       4.961  -5.012   5.720  1.00  0.00     0.196 HD
ATOM     17  C   UNL d   1       7.459  -3.006   5.314  0.00  0.00     0.076 A 
ATOM     18  C   UNL d   1       6.801  -2.841   4.113  0.00  0.00     0.086 A 
ATOM     19  C   UNL d   1       8.692  -2.460   5.910  0.00  0.00     0.079 C 
ENDBRANCH   8  13
ENDBRANCH   5   6
ENDBRANCH   3   5
BRANCH   1  20
ATOM     20  O   UNL d   1      -0.243  -2.291   0.475  0.00  0.00    -0.181 OA
BRANCH  20  21
ATOM     21  C   UNL d   1      -1.589  -2.564   0.560  0.00  0.00     0.387 C 
ATOM     22  N   UNL d   1      -1.960  -3.889   0.485  0.00  0.00    -0.301 N 
ATOM     23  H   UNL d   1      -1.180  -4.536   0.505  0.00  0.00     0.171 HD
ATOM     24  O   UNL d   1      -2.355  -1.612   0.700  0.00  0.00    -0.236 OA
BRANCH  22  25
ATOM     25  C   UNL d   1      -3.291  -4.371   0.415  0.00  0.00     0.037 A 
ATOM     26  C   UNL d   1      -4.396  -3.531   0.208  0.00  0.00     0.031 A 
ATOM     27  C   UNL d   1      -5.694  -4.041   0.104  0.00  0.00     0.026 A 
ATOM     28  C   UNL d   1      -5.907  -5.408   0.210  0.00  0.00     0.034 A 
ATOM     29  C   UNL d   1      -4.829  -6.263   0.427  0.00  0.00     0.026 A 
ATOM     30 CL   UNL d   1      -7.501  -6.036   0.058  0.00  0.00    -0.084 Cl
ATOM     31  C   UNL d   1      -3.525  -5.748   0.524  0.00  0.00     0.031 A 
ENDBRANCH  22  25
ENDBRANCH  20  21
ENDBRANCH   1  20
TORSDOF 6
