REMARK  3 active torsions:
REMARK  status: ('A' for Active; 'I' for Inactive)
REMARK    1  A    between atoms: C_8  and  C_7 
REMARK    2  A    between atoms: O_18  and  C_12 
REMARK    3  A    between atoms: C_19  and  O_18 
ROOT
ATOM      1  C   UNL d   1       3.248   1.165  -0.586  0.00  0.00     0.101 A 
ATOM      2  N   UNL d   1       2.506   3.239  -1.578  0.00  0.00    -0.299 N 
ATOM      3  N   UNL d   1       4.784   2.830  -1.409  0.00  0.00    -0.299 N 
ATOM      4  C   UNL d   1       2.131   2.059  -0.995  0.00  0.00     0.263 A 
ATOM      5  C   UNL d   1       4.649   1.604  -0.804  0.00  0.00     0.263 A 
ATOM      6  C   UNL d   1       3.778   3.653  -1.806  0.00  0.00     0.181 A 
ATOM      7  C   UNL d   1       2.892  -0.024  -0.060  0.00  0.00     0.037 C 
ATOM      8  S   UNL d   1       4.092   5.110  -2.543  0.00  0.00    -0.040 SA
ATOM      9  O   UNL d   1       0.947   1.776  -0.852  0.00  0.00    -0.267 OA
ATOM     10  O   UNL d   1       5.640   0.962  -0.483  0.00  0.00    -0.267 OA
ATOM     11  H   UNL d   1       1.748   3.839  -1.879  0.00  0.00     0.171 HD
ATOM     12  H   UNL d   1       5.737   3.132  -1.565  0.00  0.00     0.171 HD
ENDROOT
BRANCH   7  13
ATOM     13  C   UNL d   1       3.764  -1.147   0.307  0.00  0.00    -0.000 A 
ATOM     14  C   UNL d   1       4.403  -1.338   1.543  0.00  0.00     0.079 A 
ATOM     15  C   UNL d   1       5.201  -2.481   1.730  0.00  0.00     0.039 A 
ATOM     16  C   UNL d   1       5.339  -3.443   0.727  0.00  0.00     0.022 A 
ATOM     17  C   UNL d   1       4.698  -3.253  -0.491  0.00  0.00     0.011 A 
ATOM     18  C   UNL d   1       3.923  -2.117  -0.704  0.00  0.00     0.033 A 
ATOM     19 BR   UNL d   1       4.862  -4.547  -1.857  0.00  0.00    -0.051 Br
BRANCH  14  20
ATOM     20  O   UNL d   1       4.394  -0.526   2.644  0.00  0.00    -0.351 OA
BRANCH  20  21
ATOM     21  C   UNL d   1       3.238   0.267   2.890  0.00  0.00     0.171 C 
ATOM     22  C   UNL d   1       3.133   0.496   4.388  0.00  0.00     0.034 C 
ENDBRANCH  20  21
ENDBRANCH  14  20
ENDBRANCH   7  13
TORSDOF 3
