REMARK  5 active torsions:
REMARK  status: ('A' for Active; 'I' for Inactive)
REMARK    1  A    between atoms: S_3  and  C_1 
REMARK    2  A    between atoms: C_4  and  C_1 
REMARK    3  A    between atoms: C_2  and  O_5 
REMARK    4  A    between atoms: C_12  and  S_3 
REMARK    5  A    between atoms: O_5  and  C_13 
ROOT
ATOM      1  C   UNL d   1       1.086  -2.204   1.804  0.00  0.00     0.008 A 
ATOM      2  C   UNL d   1       2.732  -3.860   3.374  0.00  0.00     0.078 A 
ATOM      3  C   UNL d   1       2.081  -1.654   2.617  0.00  0.00     0.021 A 
ATOM      4  C   UNL d   1       0.948  -3.591   1.745  0.00  0.00     0.021 A 
ATOM      5  C   UNL d   1       2.915  -2.479   3.384  0.00  0.00     0.038 A 
ATOM      6  C   UNL d   1       1.772  -4.412   2.520  0.00  0.00     0.038 A 
ENDROOT
BRANCH   1   7
ATOM      7  S   UNL d   1      -0.084  -1.156   0.975  0.00  0.00    -0.048 SA
BRANCH   7   8
ATOM      8  C   UNL d   1       0.694  -0.813  -0.567  0.00  0.00     0.224 C 
ATOM      9  O   UNL d   1       1.828  -1.186  -0.834  0.00  0.00    -0.279 OA
BRANCH   8  10
ATOM     10  C   UNL d   1      -0.082   0.022  -1.535  0.00  0.00     0.021 A 
ATOM     11  C   UNL d   1      -1.486   0.075  -1.545  0.00  0.00     0.018 A 
ATOM     12  C   UNL d   1      -2.157   0.882  -2.469  0.00  0.00     0.025 A 
ATOM     13  C   UNL d   1      -1.435   1.637  -3.389  0.00  0.00     0.034 A 
ATOM     14  C   UNL d   1      -0.041   1.584  -3.398  0.00  0.00     0.025 A 
ATOM     15 CL   UNL d   1      -2.268   2.628  -4.521  0.00  0.00    -0.084 Cl
ATOM     16  C   UNL d   1       0.632   0.778  -2.479  0.00  0.00     0.018 A 
ENDBRANCH   8  10
ENDBRANCH   7   8
ENDBRANCH   1   7
BRANCH   2  17
ATOM     17  O   UNL d   1       3.438  -4.771   4.098  0.00  0.00    -0.255 OA
BRANCH  17  18
ATOM     18  C   UNL d   1       3.950  -4.415   5.375  0.00  0.00     0.530 C 
ATOM     19  F   UNL d   1       3.525  -3.220   5.835  0.00  0.00    -0.144 F 
ATOM     20  F   UNL d   1       3.565  -5.357   6.267  0.00  0.00    -0.144 F 
ATOM     21  F   UNL d   1       5.299  -4.410   5.328  0.00  0.00    -0.144 F 
ENDBRANCH  17  18
ENDBRANCH   2  17
TORSDOF 5
