REMARK  4 active torsions:
REMARK  status: ('A' for Active; 'I' for Inactive)
REMARK    1  A    between atoms: C_8  and  C_1 
REMARK    2  A    between atoms: C_9  and  C_5 
REMARK    3  A    between atoms: C_7  and  C_10 
REMARK    4  A    between atoms: O_19  and  C_8 
ROOT
ATOM      1  C   UNL d   1      -0.207  -1.067  -0.255  0.00  0.00     0.102 A 
ATOM      2  S   UNL d   1       1.237  -0.241  -0.679  0.00  0.00    -0.063 SA
ATOM      3  N   UNL d   1      -0.554   1.083   0.581  0.00  0.00    -0.352 N 
ATOM      4  HN  UNL d   1      -1.035   1.831   1.080  1.00  0.00     0.166 HD
ATOM      5  C   UNL d   1       0.626   1.207   0.011  0.00  0.00     0.085 A 
ATOM      6  C   UNL d   1      -1.054  -0.196   0.411  0.00  0.00     0.030 A 
ATOM      7  C   UNL d   1      -2.417  -0.473   0.944  0.00  0.00     0.070 C 
ENDROOT
BRANCH   5   8
ATOM      8  C   UNL d   1       1.386   2.463  -0.028  0.00  0.00    -0.002 A 
ATOM      9  C   UNL d   1       2.288   2.773  -1.057  0.00  0.00     0.015 A 
ATOM     10  C   UNL d   1       2.951   4.003  -1.079  0.00  0.00     0.017 A 
ATOM     11  C   UNL d   1       2.728   4.953  -0.072  0.00  0.00     0.048 A 
ATOM     12  C   UNL d   1       1.827   4.649   0.956  0.00  0.00     0.017 A 
ATOM     13  C   UNL d   1       1.164   3.420   0.975  0.00  0.00     0.015 A 
BRANCH  11  14
ATOM     14  C   UNL d   1       3.449   6.277  -0.112  0.00  0.00     0.417 C 
ATOM     15  F   UNL d   1       3.139   7.100   0.927  0.00  0.00    -0.166 F 
ATOM     16  F   UNL d   1       4.803   6.128  -0.081  0.00  0.00    -0.166 F 
ATOM     17  F   UNL d   1       3.177   6.983  -1.244  0.00  0.00    -0.166 F 
ENDBRANCH  11  14
ENDBRANCH   5   8
BRANCH   1  18
ATOM     18  C   UNL d   1      -0.421  -2.458  -0.595  0.00  0.00     0.185 C 
ATOM     19  O   UNL d   1      -1.418  -3.112  -0.322  0.00  0.00    -0.646 OA
BRANCH  18  20
ATOM     20  O   UNL d   1       0.619  -3.010  -1.276  0.00  0.00    -0.772 OA
ATOM     21  H   UNL d   1       1.345  -2.376  -1.421  0.00  0.00     0.167 HD
ENDBRANCH  18  20
ENDBRANCH   1  18
TORSDOF 4
