REMARK  5 active torsions:
REMARK  status: ('A' for Active; 'I' for Inactive)
REMARK    1  A    between atoms: C_2  and  S_1 
REMARK    2  A    between atoms: C_4  and  S_1 
REMARK    3  A    between atoms: N_11  and  C_6 
REMARK    4  A    between atoms: N_9  and  N_11 
REMARK    5  A    between atoms: C_12  and  C_13 
ROOT
ATOM      1  C   UNL d   1       0.360   1.658  -0.484  0.00  0.00     0.156 C 
ATOM      2  C   UNL d   1      -0.429   1.811  -1.644  0.00  0.00     0.113 C 
ATOM      3  N   UNL d   1      -1.081   1.953  -2.600  0.00  0.00    -0.191 NA
ATOM      4  C   UNL d   1       0.571   2.675   0.368  0.00  0.00     0.141 C 
ENDROOT
BRANCH   1   5
ATOM      5  S   UNL d   1       0.939   0.072  -0.089  0.00  0.00     0.194 S 
ATOM      6  O   UNL d   1       0.065  -0.915  -0.705  0.00  0.00    -0.221 OA
ATOM      7  O   UNL d   1       1.162  -0.007   1.347  0.00  0.00    -0.221 OA
BRANCH   5   8
ATOM      8  C   UNL d   1       2.570  -0.068  -0.899  0.00  0.00     0.058 C 
ATOM      9  C   UNL d   1       3.552   0.965  -0.329  0.00  0.00     0.031 C 
ATOM     10  C   UNL d   1       3.124  -1.477  -0.612  0.00  0.00     0.031 C 
ATOM     11  C   UNL d   1       2.445   0.112  -2.418  0.00  0.00     0.031 C 
ENDBRANCH   5   8
ENDBRANCH   1   5
BRANCH   4  12
ATOM     12  N   UNL d   1       0.129   3.977   0.221  0.00  0.00    -0.310 N 
ATOM     13  H   UNL d   1      -0.329   4.322   1.070  0.00  0.00     0.186 HD
BRANCH  12  14
ATOM     14  N   UNL d   1       0.952   4.877  -0.396  0.00  0.00    -0.315 N 
ATOM     15  C   UNL d   1       0.465   6.080  -0.460  0.00  0.00     0.088 C 
ATOM     16  HN  UNL d   1       1.866   4.627  -0.773  1.00  0.00     0.185 HD
BRANCH  15  17
ATOM     17  C   UNL d   1       1.176   7.219  -1.183  0.00  0.00    -0.018 C 
ATOM     18  C   UNL d   1       0.648   7.243  -2.622  0.00  0.00     0.020 C 
ATOM     19  C   UNL d   1       0.823   8.541  -0.488  0.00  0.00     0.020 C 
ATOM     20  C   UNL d   1       2.697   7.035  -1.183  0.00  0.00     0.020 C 
ENDBRANCH  15  17
ENDBRANCH  12  14
ENDBRANCH   4  12
TORSDOF 5
