REMARK  5 active torsions:
REMARK  status: ('A' for Active; 'I' for Inactive)
REMARK       I    between atoms: N_2  and  C_1 
REMARK       I    between atoms: N_3  and  C_1 
REMARK    1  A    between atoms: C_9  and  N_2 
REMARK    2  A    between atoms: C_10  and  N_3 
REMARK    3  A    between atoms: N_6  and  C_4 
REMARK    4  A    between atoms: C_13  and  N_6 
REMARK    5  A    between atoms: C_14  and  N_6 
ROOT
ATOM      1  C   UNL d   1      -0.857  -0.142  -1.050  0.00  0.00     0.325 C 
ATOM      2  N   UNL d   1       0.413  -0.702  -1.042  0.00  0.00    -0.309 N 
ATOM      3  N   UNL d   1      -1.164   0.450   0.164  0.00  0.00    -0.309 N 
ATOM      4  O   UNL d   1      -1.624  -0.188  -2.004  0.00  0.00    -0.247 OA
ATOM      5  H   UNL d   1       0.884  -0.760  -0.154  0.00  0.00     0.170 HD
ATOM      6  H   UNL d   1      -0.406   0.590   0.813  0.00  0.00     0.170 HD
ENDROOT
BRANCH   2   7
ATOM      7  C   UNL d   1       1.004  -1.411  -2.115  0.00  0.00     0.036 A 
ATOM      8  C   UNL d   1       0.477  -1.433  -3.404  0.00  0.00     0.032 A 
ATOM      9  C   UNL d   1       1.069  -2.201  -4.412  0.00  0.00     0.031 A 
ATOM     10  C   UNL d   1       2.229  -2.948  -4.193  0.00  0.00     0.030 A 
ATOM     11  C   UNL d   1       2.767  -2.890  -2.898  0.00  0.00     0.031 A 
ATOM     12  C   UNL d   1       2.168  -2.138  -1.872  0.00  0.00     0.032 A 
BRANCH  10  13
ATOM     13  N   UNL d   1       2.817  -3.676  -5.217  0.00  0.00    -0.382 N 
BRANCH  13  14
ATOM     14  C   UNL d   1       1.982  -4.375  -6.201  0.00  0.00     0.118 C 
ATOM     15  C   UNL d   1       1.930  -3.632  -7.528  0.00  0.00     0.026 C 
ENDBRANCH  13  14
BRANCH  13  16
ATOM     16  C   UNL d   1       4.266  -3.872  -5.282  0.00  0.00     0.118 C 
ATOM     17  C   UNL d   1       4.988  -2.550  -5.509  0.00  0.00     0.026 C 
ENDBRANCH  13  16
ENDBRANCH  10  13
ENDBRANCH   2   7
BRANCH   3  18
ATOM     18  C   UNL d   1      -2.425   0.976   0.541  0.00  0.00     0.036 A 
ATOM     19  C   UNL d   1      -3.575   0.884  -0.250  0.00  0.00     0.029 A 
ATOM     20  C   UNL d   1      -4.796   1.403   0.188  0.00  0.00     0.002 A 
ATOM     21  C   UNL d   1      -4.883   2.020   1.431  0.00  0.00     0.000 A 
ATOM     22  C   UNL d   1      -3.749   2.119   2.231  0.00  0.00     0.002 A 
ATOM     23  C   UNL d   1      -2.525   1.602   1.789  0.00  0.00     0.029 A 
ENDBRANCH   3  18
TORSDOF 5
