REMARK  4 active torsions:
REMARK  status: ('A' for Active; 'I' for Inactive)
REMARK    1  A    between atoms: C_5  and  C_1 
REMARK    2  A    between atoms: N_7  and  C_2 
REMARK    3  A    between atoms: N_8  and  C_3 
REMARK       I    between atoms: C_4  and  N_6 
REMARK       I    between atoms: N_10  and  C_4 
REMARK    4  A    between atoms: N_6  and  C_5 
ROOT
ATOM      1  C   UNL d   1       1.466  -0.301  -0.014  0.00  0.00     0.013 A 
ATOM      2  C   UNL d   1       0.544  -1.383  -0.222  0.00  0.00     0.039 A 
ATOM      3  C   UNL d   1       1.017   1.064  -0.043  0.00  0.00     0.039 A 
ATOM      4  C   UNL d   1      -0.364   1.302  -0.144  0.00  0.00     0.030 A 
ATOM      5  C   UNL d   1      -0.819  -1.052  -0.321  0.00  0.00     0.030 A 
ATOM      6  C   UNL d   1      -1.274   0.260  -0.250  0.00  0.00     0.005 A 
ENDROOT
BRANCH   1   7
ATOM      7  C   UNL d   1       2.871  -0.591   0.502  0.00  0.00     0.167 C 
BRANCH   7   8
ATOM      8  N   UNL d   1       3.923  -0.596  -0.493  0.00  0.00    -0.339 N 
ATOM      9  C   UNL d   1       5.217  -0.861  -0.114  0.00  0.00     0.315 C 
ATOM     10  O   UNL d   1       5.564  -1.028   1.046  0.00  0.00    -0.247 OA
ATOM     11  N   UNL d   1       6.062  -0.919  -1.185  0.00  0.00    -0.347 N 
ATOM     12  C   UNL d   1       7.487  -1.057  -0.978  0.00  0.00     0.151 C 
ATOM     13  H   UNL d   1       5.763  -0.442  -2.018  0.00  0.00     0.163 HD
ATOM     14  H   UNL d   1       3.670  -0.756  -1.452  0.00  0.00     0.164 HD
ENDBRANCH   7   8
ENDBRANCH   1   7
BRANCH   2  15
ATOM     15  N   UNL d   1       0.934  -2.721  -0.289  0.00  0.00    -0.389 N 
ATOM     16  C   UNL d   1       0.082  -3.816   0.175  0.00  0.00     0.149 C 
ATOM     17  C   UNL d   1       2.002  -3.117  -1.200  0.00  0.00     0.149 C 
ENDBRANCH   2  15
BRANCH   3  18
ATOM     18  N   UNL d   1       1.920   2.140   0.096  0.00  0.00    -0.389 N 
ATOM     19  C   UNL d   1       1.415   3.407   0.634  0.00  0.00     0.149 C 
ATOM     20  C   UNL d   1       2.812   2.329  -1.053  0.00  0.00     0.149 C 
ENDBRANCH   3  18
TORSDOF 4
