REMARK  9 active torsions:
REMARK  status: ('A' for Active; 'I' for Inactive)
REMARK    1  A    between atoms: S_2  and  C_1 
REMARK    2  A    between atoms: N_11  and  S_2 
REMARK    3  A    between atoms: C_7  and  C_4 
REMARK    4  A    between atoms: O_18  and  C_7 
REMARK       I    between atoms: C_8  and  N_16 
REMARK    5  A    between atoms: O_12  and  C_8 
REMARK    6  A    between atoms: C_19  and  N_11 
REMARK    7  A    between atoms: C_15  and  O_12 
REMARK    8  A    between atoms: N_16  and  C_20 
REMARK    9  A    between atoms: C_20  and  C_19 
ROOT
ATOM      1  S   UNL d   1       0.037   2.838  -0.153  0.00  0.00     0.257 S 
ATOM      2  O   UNL d   1      -0.416   3.318   1.131  0.00  0.00    -0.204 OA
ATOM      3  O   UNL d   1      -0.237   1.498  -0.618  0.00  0.00    -0.204 OA
ENDROOT
BRANCH   1   4
ATOM      4  C   UNL d   1      -0.717   3.941  -1.341  0.00  0.00     0.146 A 
ATOM      5  N   UNL d   1      -0.854   3.732  -2.708  0.00  0.00    -0.336 N 
ATOM      6  C   UNL d   1      -1.513   4.814  -3.293  0.00  0.00     0.111 A 
ATOM      7  C   UNL d   1      -0.404   2.583  -3.470  0.00  0.00     0.157 C 
ATOM      8  C   UNL d   1      -1.744   5.732  -2.282  0.00  0.00     0.039 A 
ATOM      9  C   UNL d   1      -1.258   5.194  -1.081  0.00  0.00     0.046 A 
BRANCH   6  10
ATOM     10  C   UNL d   1      -1.887   4.938  -4.695  0.00  0.00     0.309 C 
ATOM     11  O   UNL d   1      -1.671   4.115  -5.575  0.00  0.00    -0.258 OA
BRANCH  10  12
ATOM     12  O   UNL d   1      -2.533   6.123  -4.884  0.00  0.00    -0.321 OA
ATOM     13  C   UNL d   1      -2.991   6.357  -6.215  0.00  0.00     0.213 C 
ENDBRANCH  10  12
ENDBRANCH   6  10
ENDBRANCH   1   4
BRANCH   1  14
ATOM     14  N   UNL d   1       1.699   3.091  -0.245  0.00  0.00    -0.213 NA
ATOM     15  H   UNL d   1       2.030   2.727  -1.144  0.00  0.00     0.140 HD
BRANCH  14  16
ATOM     16  C   UNL d   1       2.167   4.484  -0.040  0.00  0.00     0.124 C 
BRANCH  16  17
ATOM     17  C   UNL d   1       3.703   4.535   0.034  0.00  0.00     0.140 C 
BRANCH  17  18
ATOM     18  N   UNL d   1       4.469   3.936  -1.053  0.00  0.00    -0.336 N 
ATOM     19  C   UNL d   1       4.002   3.502  -2.252  0.00  0.00     0.361 C 
ATOM     20  O   UNL d   1       2.836   3.555  -2.617  0.00  0.00    -0.238 OA
ATOM     21  H   UNL d   1       5.467   3.829  -0.931  0.00  0.00     0.164 HD
BRANCH  19  22
ATOM     22  O   UNL d   1       5.016   2.955  -2.955  0.00  0.00    -0.294 OA
BRANCH  22  23
ATOM     23  C   UNL d   1       4.761   2.399  -4.271  0.00  0.00     0.061 C 
ATOM     24  C   UNL d   1       4.217   3.478  -5.217  0.00  0.00     0.046 C 
ATOM     25  C   UNL d   1       6.135   1.928  -4.774  0.00  0.00     0.046 C 
ATOM     26  C   UNL d   1       3.826   1.184  -4.194  0.00  0.00     0.046 C 
ENDBRANCH  22  23
ENDBRANCH  19  22
ENDBRANCH  17  18
ENDBRANCH  16  17
ENDBRANCH  14  16
ENDBRANCH   1  14
TORSDOF 9
