REMARK  3 active torsions:
REMARK  status: ('A' for Active; 'I' for Inactive)
REMARK    1  A    between atoms: O_10  and  N_2 
REMARK    2  A    between atoms: C_5  and  O_10 
REMARK    3  A    between atoms: C_11  and  C_12 
ROOT
ATOM      1  C   UNL d   1       0.105   0.780  -0.014  0.00  0.00    -0.022 A 
ATOM      2  C   UNL d   1       0.204  -0.601   0.020  0.00  0.00     0.075 A 
ATOM      3  O   UNL d   1       1.496  -1.056   0.079  0.00  0.00    -0.350 OA
ATOM      4  C   UNL d   1      -1.129   1.401  -0.057  0.00  0.00     0.022 A 
ATOM      5  C   UNL d   1      -0.910  -1.417   0.013  0.00  0.00     0.038 A 
ATOM      6  C   UNL d   1      -2.276   0.593  -0.083  0.00  0.00    -0.018 A 
ATOM      7  C   UNL d   1      -2.170  -0.810  -0.047  0.00  0.00     0.015 A 
ATOM      8  C   UNL d   1       2.285   0.119  -0.226  0.00  0.00     0.180 C 
ATOM      9  C   UNL d   1       1.458   1.372   0.070  0.00  0.00     0.068 C 
ENDROOT
BRANCH   6  10
ATOM     10  C   UNL d   1      -3.614   1.217  -0.147  0.00  0.00     0.126 C 
ATOM     11  N   UNL d   1      -3.740   2.503  -0.184  0.00  0.00    -0.268 N 
ATOM     12  HN  UNL d   1      -2.961   3.161  -0.172  1.00  0.00     0.194 HD
BRANCH  11  13
ATOM     13  O   UNL d   1      -5.097   2.873  -0.245  0.00  0.00    -0.201 OA
BRANCH  13  14
ATOM     14  C   UNL d   1      -5.187   4.243  -0.286  0.00  0.00     0.277 C 
ATOM     15  O   UNL d   1      -4.261   5.048  -0.279  0.00  0.00    -0.264 OA
ATOM     16  C   UNL d   1      -6.622   4.673  -0.346  0.00  0.00     0.128 C 
ENDBRANCH  13  14
ENDBRANCH  11  13
ENDBRANCH   6  10
TORSDOF 3
