REMARK  6 active torsions:
REMARK  status: ('A' for Active; 'I' for Inactive)
REMARK    1  A    between atoms: C_14  and  C_3 
REMARK    2  A    between atoms: C_5  and  C_4 
REMARK    3  A    between atoms: C_16  and  C_9 
REMARK    4  A    between atoms: C_12  and  C_15 
REMARK    5  A    between atoms: O_25  and  C_14 
REMARK    6  A    between atoms: C_26  and  O_25 
ROOT
ATOM      1  N   UNL d   1       1.419  -0.603  -0.229  0.00  0.00    -0.347 N 
ATOM      2  HN  UNL d   1       2.278  -1.111  -0.440  1.00  0.00     0.167 HD
ATOM      3  C   UNL d   1       1.320   0.769  -0.090  0.00  0.00     0.076 A 
ATOM      4  C   UNL d   1       0.234  -1.156  -0.048  0.00  0.00     0.084 A 
ATOM      5  S   UNL d   1      -1.061  -0.031   0.171  0.00  0.00    -0.081 SA
ATOM      6  C   UNL d   1       0.056   1.258   0.143  0.00  0.00     0.084 A 
ENDROOT
BRANCH   3   7
ATOM      7  C   UNL d   1       2.499   1.664  -0.183  0.00  0.00     0.128 A 
ATOM      8  C   UNL d   1       3.792   1.296  -0.459  0.00  0.00     0.079 A 
ATOM      9  C   UNL d   1       4.523   2.511  -0.452  0.00  0.00     0.132 A 
ATOM     10  N   UNL d   1       3.716   3.546  -0.163  0.00  0.00    -0.255 N 
ATOM     11  O   UNL d   1       2.456   3.013  -0.001  0.00  0.00    -0.235 OA
ATOM     12  HN  UNL d   1       3.982   4.528  -0.081  1.00  0.00     0.195 HD
BRANCH   9  13
ATOM     13  C   UNL d   1       5.957   2.676  -0.657  0.00  0.00     0.311 C 
ATOM     14  O   UNL d   1       6.713   1.735  -0.876  0.00  0.00    -0.258 OA
BRANCH  13  15
ATOM     15  O   UNL d   1       6.363   3.968  -0.481  0.00  0.00    -0.317 OA
BRANCH  15  16
ATOM     16  C   UNL d   1       7.737   4.137  -0.119  0.00  0.00     0.175 C 
ATOM     17  C   UNL d   1       7.846   3.946   1.384  0.00  0.00     0.034 C 
ENDBRANCH  15  16
ENDBRANCH  13  15
ENDBRANCH   9  13
ENDBRANCH   3   7
BRANCH   4  18
ATOM     18  C   UNL d   1      -0.021  -2.606  -0.040  0.00  0.00    -0.002 A 
ATOM     19  C   UNL d   1      -1.060  -3.171   0.715  0.00  0.00     0.015 A 
ATOM     20  C   UNL d   1      -1.276  -4.551   0.725  0.00  0.00     0.017 A 
ATOM     21  C   UNL d   1      -0.453  -5.405  -0.019  0.00  0.00     0.048 A 
ATOM     22  C   UNL d   1       0.597  -4.851  -0.764  0.00  0.00     0.017 A 
ATOM     23  C   UNL d   1       0.812  -3.467  -0.770  0.00  0.00     0.015 A 
BRANCH  21  24
ATOM     24  C   UNL d   1      -0.714  -6.891   0.002  0.00  0.00     0.417 C 
ATOM     25  F   UNL d   1       0.138  -7.607  -0.781  0.00  0.00    -0.166 F 
ATOM     26  F   UNL d   1      -0.609  -7.419   1.252  0.00  0.00    -0.166 F 
ATOM     27  F   UNL d   1      -1.969  -7.201  -0.429  0.00  0.00    -0.166 F 
ENDBRANCH  21  24
ENDBRANCH   4  18
TORSDOF 6
