REMARK  5 active torsions:
REMARK  status: ('A' for Active; 'I' for Inactive)
REMARK    1  A    between atoms: N_2  and  S_1 
REMARK    2  A    between atoms: C_3  and  S_1 
REMARK    3  A    between atoms: C_19  and  N_2 
REMARK       I    between atoms: C_7  and  N_10 
REMARK    4  A    between atoms: N_10  and  C_18 
REMARK    5  A    between atoms: C_20  and  C_19 
ROOT
ATOM      1  S   UNL d   1       0.987  -0.265   0.179  0.00  0.00     0.259 S 
ATOM      2  O   UNL d   1       0.365   0.236   1.385  0.00  0.00    -0.201 OA
ATOM      3  O   UNL d   1       2.421  -0.266   0.001  0.00  0.00    -0.201 OA
ENDROOT
BRANCH   1   4
ATOM      4  N   UNL d   1       0.346   0.531  -1.136  0.00  0.00    -0.311 N 
ATOM      5  H   UNL d   1       0.705   0.226  -2.038  0.00  0.00     0.172 HD
BRANCH   4   6
ATOM      6  C   UNL d   1      -1.047   0.982  -1.120  0.00  0.00     0.170 C 
BRANCH   6   7
ATOM      7  C   UNL d   1      -1.217   2.154  -2.066  0.00  0.00    -0.037 A 
ATOM      8  C   UNL d   1      -0.216   3.144  -2.132  0.00  0.00     0.048 A 
ATOM      9  C   UNL d   1      -0.396   4.207  -2.986  0.00  0.00     0.105 A 
ATOM     10  O   UNL d   1       0.476   5.233  -3.165  0.00  0.00    -0.323 OA
ATOM     11  C   UNL d   1      -1.524   4.329  -3.757  0.00  0.00     0.105 A 
ATOM     12  C   UNL d   1      -0.280   6.069  -4.062  0.00  0.00     0.352 A 
ATOM     13  O   UNL d   1      -1.506   5.456  -4.519  0.00  0.00    -0.323 OA
ATOM     14  C   UNL d   1      -2.535   3.393  -3.715  0.00  0.00     0.040 A 
ATOM     15  C   UNL d   1      -2.381   2.297  -2.853  0.00  0.00     0.012 A 
ENDBRANCH   6   7
ENDBRANCH   4   6
ENDBRANCH   1   4
BRANCH   1  16
ATOM     16  C   UNL d   1       0.430  -1.927  -0.093  0.00  0.00     0.079 A 
ATOM     17  C   UNL d   1       1.211  -2.781  -0.875  0.00  0.00     0.027 A 
ATOM     18  C   UNL d   1       0.814  -4.107  -1.054  0.00  0.00     0.031 A 
ATOM     19  C   UNL d   1      -0.357  -4.589  -0.452  0.00  0.00     0.034 A 
ATOM     20  C   UNL d   1      -1.121  -3.722   0.336  0.00  0.00     0.031 A 
ATOM     21  C   UNL d   1      -0.729  -2.391   0.524  0.00  0.00     0.027 A 
BRANCH  19  22
ATOM     22  N   UNL d   1      -0.674  -5.944  -0.671  0.00  0.00    -0.328 N 
ATOM     23  C   UNL d   1      -1.779  -6.635  -0.208  0.00  0.00     0.218 C 
ATOM     24  O   UNL d   1      -2.711  -6.176   0.443  0.00  0.00    -0.274 OA
ATOM     25  C   UNL d   1      -1.764  -8.093  -0.595  0.00  0.00     0.117 C 
ATOM     26  H   UNL d   1      -0.013  -6.466  -1.232  0.00  0.00     0.169 HD
ENDBRANCH  19  22
ENDBRANCH   1  16
TORSDOF 5
