REMARK  4 active torsions:
REMARK  status: ('A' for Active; 'I' for Inactive)
REMARK    1  A    between atoms: N_4  and  C_1 
REMARK    2  A    between atoms: C_7  and  C_2 
REMARK    3  A    between atoms: S_3  and  N_5 
REMARK    4  A    between atoms: C_14  and  S_3 
REMARK       I    between atoms: N_5  and  C_7 
ROOT
ATOM      1  N   UNL d   1       3.971  -0.845  -0.166  0.00  0.00    -0.279 N 
ATOM      2  HN  UNL d   1       4.766  -1.473  -0.046  1.00  0.00     0.179 HD
ATOM      3  C   UNL d   1       2.677  -1.354  -0.336  0.00  0.00     0.268 C 
ATOM      4  O   UNL d   1       1.679  -0.760   0.057  0.00  0.00    -0.267 OA
ENDROOT
BRANCH   3   5
ATOM      5  C   UNL d   1       2.498  -2.641  -0.982  0.00  0.00     0.101 A 
ATOM      6  C   UNL d   1       3.375  -3.691  -1.129  0.00  0.00     0.207 A 
ATOM      7  N   UNL d   1       2.750  -4.666  -1.845  0.00  0.00    -0.276 N 
ATOM      8  N   UNL d   1       1.476  -4.326  -2.157  0.00  0.00    -0.307 N 
ATOM      9  C   UNL d   1       3.209  -5.970  -2.264  0.00  0.00     0.179 C 
ATOM     10  C   UNL d   1       1.330  -3.109  -1.625  0.00  0.00     0.128 A 
ATOM     11  HN  UNL d   1       0.789  -4.872  -2.677  1.00  0.00     0.186 HD
BRANCH   6  12
ATOM     12  N   UNL d   1       4.669  -3.865  -0.594  0.00  0.00    -0.095 N 
ATOM     13  O   UNL d   1       4.764  -3.831   0.637  0.00  0.00    -0.530 OA
ATOM     14  O   UNL d   1       5.574  -4.106  -1.400  0.00  0.00    -0.530 OA
ENDBRANCH   6  12
ENDBRANCH   3   5
BRANCH   1  15
ATOM     15  S   UNL d   1       4.168   0.684  -0.165  0.00  0.00     0.055 S 
ATOM     16  O   UNL d   1       3.619   1.564  -1.182  0.00  0.00    -0.245 OA
ATOM     17  C   UNL d   1       5.910   1.022  -0.133  0.00  0.00     0.142 C 
BRANCH  15  18
ATOM     18  C   UNL d   1       3.604   1.288   1.418  0.00  0.00     0.038 A 
ATOM     19  C   UNL d   1       4.175   0.789   2.593  0.00  0.00     0.022 A 
ATOM     20  C   UNL d   1       3.719   1.255   3.828  0.00  0.00     0.001 A 
ATOM     21  C   UNL d   1       2.696   2.204   3.885  0.00  0.00     0.000 A 
ATOM     22  C   UNL d   1       2.128   2.695   2.708  0.00  0.00     0.001 A 
ATOM     23  C   UNL d   1       2.582   2.240   1.470  0.00  0.00     0.022 A 
ENDBRANCH  15  18
ENDBRANCH   1  15
TORSDOF 4
