REMARK  2 active torsions:
REMARK  status: ('A' for Active; 'I' for Inactive)
REMARK    1  A    between atoms: C_7  and  N_2 
REMARK    2  A    between atoms: O_8  and  C_7 
ROOT
ATOM      1  N   UNL d   1       2.353   0.037   0.060  0.00  0.00    -0.017 NA
ATOM      2  N   UNL d   1       1.553  -1.050   0.047  0.00  0.00    -0.250 N 
ATOM      3  N   UNL d   1       1.570   1.108   0.063  0.00  0.00    -0.282 N 
ATOM      4  HN  UNL d   1       1.883   2.079   0.071  1.00  0.00     0.184 HD
ATOM      5  C   UNL d   1       0.228  -0.705   0.054  0.00  0.00     0.079 A 
ATOM      6  C   UNL d   1       0.268   0.683   0.053  0.00  0.00     0.074 A 
ATOM      7  C   UNL d   1      -0.964  -1.438   0.038  0.00  0.00     0.033 A 
ATOM      8  C   UNL d   1      -0.932   1.408   0.036  0.00  0.00     0.033 A 
ATOM      9  C   UNL d   1      -2.153  -0.698   0.022  0.00  0.00     0.002 A 
ATOM     10  C   UNL d   1      -2.140   0.699   0.021  0.00  0.00     0.002 A 
ENDROOT
BRANCH   2  11
ATOM     11  C   UNL d   1       2.134  -2.376  -0.016  0.00  0.00     0.314 C 
BRANCH  11  12
ATOM     12  O   UNL d   1       1.663  -3.093  -1.163  0.00  0.00    -0.375 OA
ATOM     13  C   UNL d   1       2.160  -2.557  -2.385  0.00  0.00     0.203 C 
ENDBRANCH  11  12
ENDBRANCH   2  11
TORSDOF 2
