REMARK  9 active torsions:
REMARK  status: ('A' for Active; 'I' for Inactive)
REMARK    1  A    between atoms: C_9  and  N_1 
REMARK    2  A    between atoms: C_10  and  C_2 
REMARK    3  A    between atoms: S_8  and  C_5 
REMARK    4  A    between atoms: C_12  and  S_8 
REMARK    5  A    between atoms: C_14  and  C_9 
REMARK    6  A    between atoms: C_11  and  C_12 
REMARK    7  A    between atoms: C_15  and  C_11 
REMARK    8  A    between atoms: O_22  and  C_14 
REMARK    9  A    between atoms: O_23  and  C_14 
ROOT
ATOM      1  N   UNL d   1      -0.203  -1.133  -0.188  0.00  0.00    -0.306 N 
ATOM      2  C   UNL d   1       0.983  -0.431  -0.379  0.00  0.00     0.134 A 
ATOM      3  N   UNL d   1       0.671   0.851  -0.517  0.00  0.00    -0.283 N 
ATOM      4  HN  UNL d   1       1.339   1.606  -0.673  1.00  0.00     0.188 HD
ATOM      5  C   UNL d   1      -1.198  -0.182  -0.227  0.00  0.00     0.163 A 
ATOM      6  N   UNL d   1      -0.682   1.006  -0.418  0.00  0.00    -0.278 N 
ATOM      7  HN  UNL d   1      -1.196   1.884  -0.481  1.00  0.00     0.189 HD
ENDROOT
BRANCH   5   8
ATOM      8  S   UNL d   1      -2.891  -0.503  -0.072  0.00  0.00    -0.085 SA
BRANCH   8   9
ATOM      9  C   UNL d   1      -3.558   0.487  -1.444  0.00  0.00     0.166 C 
BRANCH   9  10
ATOM     10  C   UNL d   1      -3.236  -0.119  -2.807  0.00  0.00     0.169 C 
ATOM     11  O   UNL d   1      -2.456  -1.058  -2.964  0.00  0.00    -0.291 OA
BRANCH  10  12
ATOM     12  C   UNL d   1      -3.912   0.454  -4.020  0.00  0.00     0.010 A 
ATOM     13  C   UNL d   1      -4.868   1.478  -3.953  0.00  0.00     0.015 A 
ATOM     14  C   UNL d   1      -5.479   1.944  -5.119  0.00  0.00     0.001 A 
ATOM     15  C   UNL d   1      -5.139   1.407  -6.360  0.00  0.00     0.000 A 
ATOM     16  C   UNL d   1      -4.184   0.398  -6.438  0.00  0.00     0.001 A 
ATOM     17  C   UNL d   1      -3.574  -0.076  -5.275  0.00  0.00     0.015 A 
ENDBRANCH  10  12
ENDBRANCH   9  10
ENDBRANCH   8   9
ENDBRANCH   5   8
BRANCH   1  18
ATOM     18  C   UNL d   1      -0.407  -2.567  -0.220  0.00  0.00     0.193 C 
BRANCH  18  19
ATOM     19  C   UNL d   1      -0.419  -3.278   1.151  0.00  0.00     0.276 C 
BRANCH  19  20
ATOM     20  O   UNL d   1      -1.482  -2.764   1.957  0.00  0.00    -0.364 OA
ATOM     21  C   UNL d   1      -1.442  -3.267   3.288  0.00  0.00     0.204 C 
ENDBRANCH  19  20
BRANCH  19  22
ATOM     22  O   UNL d   1      -0.604  -4.691   1.003  0.00  0.00    -0.364 OA
ATOM     23  C   UNL d   1       0.425  -5.360   0.293  0.00  0.00     0.204 C 
ENDBRANCH  19  22
ENDBRANCH  18  19
ENDBRANCH   1  18
BRANCH   2  24
ATOM     24  C   UNL d   1       2.381  -0.900  -0.444  0.00  0.00     0.010 A 
ATOM     25  C   UNL d   1       3.300  -0.137  -1.192  0.00  0.00     0.017 A 
ATOM     26  C   UNL d   1       4.675  -0.401  -1.161  0.00  0.00     0.025 A 
ATOM     27  C   UNL d   1       5.155  -1.446  -0.383  0.00  0.00     0.034 A 
ATOM     28  C   UNL d   1       4.267  -2.244   0.331  0.00  0.00     0.025 A 
ATOM     29 CL   UNL d   1       6.847  -1.728  -0.264  0.00  0.00    -0.084 Cl
ATOM     30  C   UNL d   1       2.892  -1.969   0.299  0.00  0.00     0.017 A 
ENDBRANCH   2  24
TORSDOF 9
