REMARK  5 active torsions:
REMARK  status: ('A' for Active; 'I' for Inactive)
REMARK    1  A    between atoms: C_7  and  C_2 
REMARK    2  A    between atoms: S_20  and  C_10 
REMARK       I    between atoms: N_13  and  C_16 
REMARK    3  A    between atoms: C_14  and  N_13 
REMARK    4  A    between atoms: C_16  and  C_25 
REMARK    5  A    between atoms: C_25  and  S_20 
ROOT
ATOM      1  C   UNL d   1       3.805   0.411   0.183  0.00  0.00     0.053 A 
ATOM      2  N   UNL d   1       4.589  -0.367  -0.580  0.00  0.00    -0.336 N 
ATOM      3  HN  UNL d   1       4.201  -1.019  -1.262  1.00  0.00     0.168 HD
ATOM      4  C   UNL d   1       5.912  -0.240  -0.395  0.00  0.00     0.145 A 
ATOM      5  N   UNL d   1       6.498   0.606   0.460  0.00  0.00    -0.347 N 
ATOM      6  HN  UNL d   1       7.513   0.664   0.546  1.00  0.00     0.167 HD
ATOM      7  C   UNL d   1       4.312   1.307   1.103  0.00  0.00     0.048 A 
ATOM      8  C   UNL d   1       5.684   1.372   1.196  0.00  0.00     0.092 A 
ENDROOT
BRANCH   4   9
ATOM      9  S   UNL d   1       6.945  -1.438  -1.197  0.00  0.00    -0.085 SA
BRANCH   9  10
ATOM     10  C   UNL d   1       7.876  -1.975   0.272  0.00  0.00     0.185 C 
BRANCH  10  11
ATOM     11  C   UNL d   1       7.007  -2.459   1.427  0.00  0.00     0.231 C 
ATOM     12  N   UNL d   1       5.769  -2.966   1.091  0.00  0.00    -0.325 N 
ATOM     13  H   UNL d   1       5.612  -3.219   0.117  0.00  0.00     0.169 HD
ATOM     14  O   UNL d   1       7.456  -2.465   2.579  0.00  0.00    -0.272 OA
BRANCH  12  15
ATOM     15  C   UNL d   1       4.743  -3.313   1.997  0.00  0.00     0.056 A 
ATOM     16  C   UNL d   1       3.811  -4.300   1.636  0.00  0.00     0.062 A 
ATOM     17  C   UNL d   1       2.769  -4.647   2.499  0.00  0.00     0.050 A 
ATOM     18 CL   UNL d   1       3.969  -5.168   0.148  0.00  0.00    -0.082 Cl
ATOM     19  C   UNL d   1       2.629  -3.973   3.708  0.00  0.00     0.035 A 
ATOM     20  C   UNL d   1       3.533  -2.978   4.074  0.00  0.00     0.026 A 
ATOM     21 CL   UNL d   1       1.326  -4.369   4.759  0.00  0.00    -0.084 Cl
ATOM     22  C   UNL d   1       4.598  -2.658   3.224  0.00  0.00     0.033 A 
ENDBRANCH  12  15
ENDBRANCH  10  11
ENDBRANCH   9  10
ENDBRANCH   4   9
BRANCH   1  23
ATOM     23  C   UNL d   1       2.352   0.264  -0.044  0.00  0.00     0.039 C 
ATOM     24  S   UNL d   1       1.298   0.344   1.336  0.00  0.00    -0.079 SA
ATOM     25  C   UNL d   1      -0.037   0.292   0.350  0.00  0.00     0.057 A 
ATOM     26  C   UNL d   1       0.232   0.152  -0.961  0.00  0.00     0.002 A 
ATOM     27  S   UNL d   1      -1.658   0.408   0.722  0.00  0.00    -0.093 SA
ATOM     28  C   UNL d   1       1.631   0.040  -1.240  0.00  0.00    -0.030 C 
ATOM     29  C   UNL d   1      -0.929   0.140  -1.776  0.00  0.00    -0.043 A 
ATOM     30  C   UNL d   1       2.301  -0.202  -2.553  0.00  0.00     0.050 C 
ATOM     31  C   UNL d   1      -1.094   0.042  -3.253  0.00  0.00     0.049 C 
ATOM     32  C   UNL d   1      -2.047   0.282  -0.948  0.00  0.00     0.058 A 
ENDBRANCH   1  23
TORSDOF 5
