REMARK  5 active torsions:
REMARK  status: ('A' for Active; 'I' for Inactive)
REMARK    1  A    between atoms: C_3  and  S_1 
REMARK    2  A    between atoms: N_4  and  S_1 
REMARK    3  A    between atoms: C_2  and  C_5 
REMARK    4  A    between atoms: C_19  and  N_4 
REMARK    5  A    between atoms: C_20  and  C_19 
ROOT
ATOM      1  S   UNL d   1       1.311   0.223  -0.274  0.00  0.00     0.259 S 
ATOM      2  O   UNL d   1       0.854   1.272   0.602  0.00  0.00    -0.201 OA
ATOM      3  O   UNL d   1       2.702   0.075  -0.647  0.00  0.00    -0.201 OA
ENDROOT
BRANCH   1   4
ATOM      4  C   UNL d   1       0.340   0.344  -1.764  0.00  0.00     0.080 A 
ATOM      5  C   UNL d   1      -0.951   0.891  -1.699  0.00  0.00     0.041 A 
ATOM      6  C   UNL d   1      -1.698   1.069  -2.874  0.00  0.00     0.049 A 
ATOM      7  C   UNL d   1      -1.129   0.693  -4.101  0.00  0.00     0.016 A 
ATOM      8  C   UNL d   1       0.162   0.156  -4.161  0.00  0.00     0.002 A 
ATOM      9  C   UNL d   1       0.900  -0.013  -2.990  0.00  0.00     0.025 A 
BRANCH   6  10
ATOM     10  C   UNL d   1      -3.087   1.663  -2.841  0.00  0.00     0.417 C 
ATOM     11  F   UNL d   1      -3.501   2.017  -1.594  0.00  0.00    -0.166 F 
ATOM     12  F   UNL d   1      -3.194   2.786  -3.605  0.00  0.00    -0.166 F 
ATOM     13  F   UNL d   1      -4.028   0.799  -3.314  0.00  0.00    -0.166 F 
ENDBRANCH   6  10
ENDBRANCH   1   4
BRANCH   1  14
ATOM     14  N   UNL d   1       0.785  -1.228   0.376  0.00  0.00    -0.311 N 
ATOM     15  H   UNL d   1      -0.233  -1.276   0.433  0.00  0.00     0.172 HD
BRANCH  14  16
ATOM     16  C   UNL d   1       1.410  -2.479  -0.078  0.00  0.00     0.170 C 
BRANCH  16  17
ATOM     17  C   UNL d   1       0.603  -3.619   0.504  0.00  0.00    -0.037 A 
ATOM     18  C   UNL d   1      -0.508  -4.099  -0.207  0.00  0.00     0.048 A 
ATOM     19  C   UNL d   1      -1.441  -4.828   0.492  0.00  0.00     0.105 A 
ATOM     20  O   UNL d   1      -2.662  -5.204   0.020  0.00  0.00    -0.323 OA
ATOM     21  C   UNL d   1      -1.272  -5.152   1.820  0.00  0.00     0.105 A 
ATOM     22  C   UNL d   1      -3.312  -5.535   1.264  0.00  0.00     0.352 C 
ATOM     23  O   UNL d   1      -2.376  -5.759   2.339  0.00  0.00    -0.323 OA
ATOM     24  C   UNL d   1      -0.140  -4.799   2.517  0.00  0.00     0.040 A 
ATOM     25  C   UNL d   1       0.801  -4.007   1.853  0.00  0.00     0.012 A 
ENDBRANCH  16  17
ENDBRANCH  14  16
ENDBRANCH   1  14
TORSDOF 5
