REMARK  4 active torsions:
REMARK  status: ('A' for Active; 'I' for Inactive)
REMARK    1  A    between atoms: N_2  and  S_1 
REMARK    2  A    between atoms: C_5  and  S_1 
REMARK    3  A    between atoms: C_7  and  N_2 
REMARK    4  A    between atoms: C_3  and  C_7 
ROOT
ATOM      1  S   UNL d   1       1.138  -0.039  -0.106  0.00  0.00     0.241 S 
ATOM      2  O   UNL d   1       0.634  -0.737  -1.268  0.00  0.00    -0.206 OA
ATOM      3  O   UNL d   1       2.556   0.053   0.169  0.00  0.00    -0.206 OA
ENDROOT
BRANCH   1   4
ATOM      4  N   UNL d   1       0.412  -0.692   1.274  0.00  0.00    -0.211 NA
ATOM      5  H   UNL d   1       0.418  -0.031   2.051  0.00  0.00     0.140 HD
BRANCH   4   6
ATOM      6  C   UNL d   1      -0.908  -1.300   1.057  0.00  0.00     0.151 C 
BRANCH   6   7
ATOM      7  C   UNL d   1      -1.438  -1.786   2.379  0.00  0.00     0.002 A 
ATOM      8  C   UNL d   1      -1.285  -3.022   2.997  0.00  0.00    -0.047 A 
ATOM      9  C   UNL d   1      -2.028  -3.078   4.226  0.00  0.00     0.015 A 
ATOM     10  C   UNL d   1      -0.488  -4.181   2.492  0.00  0.00     0.049 C 
ATOM     11  C   UNL d   1      -2.689  -1.905   4.505  0.00  0.00     0.051 A 
ATOM     12  S   UNL d   1      -2.414  -0.721   3.312  0.00  0.00    -0.105 SA
ENDBRANCH   6   7
ENDBRANCH   4   6
ENDBRANCH   1   4
BRANCH   1  13
ATOM     13  C   UNL d   1       0.507   1.627  -0.143  0.00  0.00     0.074 A 
ATOM     14  C   UNL d   1       1.236   2.648   0.474  0.00  0.00     0.025 A 
ATOM     15  C   UNL d   1       0.813   3.973   0.351  0.00  0.00     0.008 A 
ATOM     16  C   UNL d   1      -0.332   4.290  -0.394  0.00  0.00    -0.062 A 
ATOM     17  C   UNL d   1      -1.055   3.257  -1.008  0.00  0.00     0.008 A 
ATOM     18  C   UNL d   1      -0.742   5.724  -0.559  0.00  0.00     0.048 C 
ATOM     19  C   UNL d   1      -0.635   1.929  -0.891  0.00  0.00     0.025 A 
ENDBRANCH   1  13
TORSDOF 4
