REMARK  2 active torsions:
REMARK  status: ('A' for Active; 'I' for Inactive)
REMARK    1  A    between atoms: C_11  and  C_1 
REMARK    2  A    between atoms: C_12  and  C_2 
ROOT
ATOM      1  N   UNL d   1      -0.993  -4.214  -2.075  0.00  0.00    -0.197 NA
ATOM      2  C   UNL d   1      -0.582  -3.679  -1.132  0.00  0.00     0.063 C 
ATOM      3  C   UNL d   1      -0.098  -3.045   0.108  0.00  0.00     0.164 C 
ENDROOT
BRANCH   3   4
ATOM      4  C   UNL d   1      -0.035  -1.516   0.040  0.00  0.00    -0.023 A 
ATOM      5  C   UNL d   1      -1.265  -0.779   0.040  0.00  0.00    -0.017 A 
ATOM      6  C   UNL d   1      -1.235   0.637  -0.007  0.00  0.00    -0.017 A 
ATOM      7  C   UNL d   1      -2.538  -1.412   0.080  0.00  0.00     0.013 A 
ATOM      8  C   UNL d   1      -2.481   1.325  -0.038  0.00  0.00     0.013 A 
ATOM      9  C   UNL d   1       0.027   1.311  -0.028  0.00  0.00    -0.023 A 
ATOM     10  C   UNL d   1      -3.710   0.669  -0.009  0.00  0.00     0.001 A 
ATOM     11  C   UNL d   1      -3.740  -0.706   0.052  0.00  0.00     0.001 A 
ATOM     12  C   UNL d   1       1.257   0.578  -0.058  0.00  0.00    -0.017 A 
ATOM     13  C   UNL d   1       1.228  -0.842  -0.020  0.00  0.00    -0.017 A 
ATOM     14  C   UNL d   1       2.528   1.214  -0.130  0.00  0.00     0.013 A 
ATOM     15  C   UNL d   1       2.476  -1.525  -0.045  0.00  0.00     0.013 A 
ATOM     16  C   UNL d   1       3.704  -0.867  -0.087  0.00  0.00     0.001 A 
ATOM     17  C   UNL d   1       3.731   0.509  -0.134  0.00  0.00     0.001 A 
BRANCH   9  18
ATOM     18  C   UNL d   1       0.055   2.840  -0.056  0.00  0.00     0.164 C 
ATOM     19  C   UNL d   1       0.003   3.381  -1.423  0.00  0.00     0.063 C 
ATOM     20  N   UNL d   1      -0.042   3.833  -2.491  0.00  0.00    -0.197 NA
ENDBRANCH   9  18
ENDBRANCH   3   4
TORSDOF 2
