REMARK  3 active torsions:
REMARK  status: ('A' for Active; 'I' for Inactive)
REMARK    1  A    between atoms: C_7  and  C_2 
REMARK    2  A    between atoms: C_8  and  N_4 
REMARK    3  A    between atoms: O_13  and  N_9 
ROOT
ATOM      1  C   UNL d   1      -0.358  -0.967   0.586  0.00  0.00     0.276 A 
ATOM      2  C   UNL d   1       1.007  -0.558   0.169  0.00  0.00     0.069 A 
ATOM      3  N   UNL d   1      -0.445   1.158  -0.282  0.00  0.00    -0.194 NA
ATOM      4  N   UNL d   1      -1.206   0.104   0.291  0.00  0.00    -0.235 N 
ATOM      5  C   UNL d   1       0.889   0.705  -0.285  0.00  0.00     0.021 A 
ATOM      6  O   UNL d   1      -0.616  -2.070   1.044  0.00  0.00    -0.266 OA
ATOM      7  C   UNL d   1      -0.747   2.497   0.247  0.00  0.00     0.143 C 
ATOM      8  C   UNL d   1       1.985   1.622  -0.728  0.00  0.00     0.065 C 
ENDROOT
BRANCH   4   9
ATOM      9  C   UNL d   1      -2.614   0.027   0.176  0.00  0.00     0.055 A 
ATOM     10  C   UNL d   1      -3.349  -0.782   1.052  0.00  0.00     0.031 A 
ATOM     11  C   UNL d   1      -4.745  -0.831   0.980  0.00  0.00     0.002 A 
ATOM     12  C   UNL d   1      -5.421  -0.091   0.014  0.00  0.00     0.000 A 
ATOM     13  C   UNL d   1      -4.703   0.695  -0.883  0.00  0.00     0.002 A 
ATOM     14  C   UNL d   1      -3.308   0.757  -0.799  0.00  0.00     0.031 A 
ENDBRANCH   4   9
BRANCH   2  15
ATOM     15  C   UNL d   1       2.181  -1.432   0.312  0.00  0.00     0.132 C 
ATOM     16  N   UNL d   1       3.352  -1.184  -0.183  0.00  0.00    -0.279 N 
ATOM     17  HN  UNL d   1       3.606  -0.351  -0.713  1.00  0.00     0.193 HD
BRANCH  16  18
ATOM     18  O   UNL d   1       4.212  -2.244   0.125  0.00  0.00    -0.290 OA
ATOM     19  H   UNL d   1       5.033  -1.990  -0.335  0.00  0.00     0.244 HD
ENDBRANCH  16  18
ENDBRANCH   2  15
TORSDOF 3
