REMARK  4 active torsions:
REMARK  status: ('A' for Active; 'I' for Inactive)
REMARK    1  A    between atoms: C_2  and  C_1 
REMARK    2  A    between atoms: O_15  and  C_1 
REMARK    3  A    between atoms: N_4  and  O_15 
REMARK    4  A    between atoms: C_19  and  C_18 
ROOT
ATOM      1  N   UNL d   1       3.236  -0.414   1.335  0.00  0.00    -0.268 N 
ATOM      2  HN  UNL d   1       2.916  -0.871   2.189  1.00  0.00     0.194 HD
ATOM      3  C   UNL d   1       4.265   0.364   1.250  0.00  0.00     0.126 C 
ENDROOT
BRANCH   1   4
ATOM      4  O   UNL d   1       2.622  -0.539   0.070  0.00  0.00    -0.194 OA
BRANCH   4   5
ATOM      5  C   UNL d   1       1.523  -1.369   0.161  0.00  0.00     0.339 C 
ATOM      6  O   UNL d   1       1.148  -1.961   1.170  0.00  0.00    -0.255 OA
BRANCH   5   7
ATOM      7  C   UNL d   1       0.853  -1.452  -1.118  0.00  0.00     0.151 A 
ATOM      8  O   UNL d   1       1.306  -0.734  -2.196  0.00  0.00    -0.317 OA
ATOM      9  C   UNL d   1       0.479  -1.008  -3.239  0.00  0.00     0.143 A 
ATOM     10  C   UNL d   1      -0.503  -1.892  -2.859  0.00  0.00     0.027 A 
ATOM     11  C   UNL d   1      -0.264  -2.178  -1.494  0.00  0.00     0.045 A 
ENDBRANCH   5   7
ENDBRANCH   4   5
ENDBRANCH   1   4
BRANCH   3  12
ATOM     12  C   UNL d   1       5.070   0.705   2.441  0.00  0.00    -0.016 A 
ATOM     13  C   UNL d   1       6.151   1.583   2.300  0.00  0.00     0.052 A 
ATOM     14  C   UNL d   1       6.835   1.932   3.447  0.00  0.00     0.105 A 
ATOM     15  O   UNL d   1       7.885   2.794   3.513  0.00  0.00    -0.323 OA
ATOM     16  C   UNL d   1       6.491   1.433   4.683  0.00  0.00     0.105 A 
ATOM     17  C   UNL d   1       8.116   2.834   4.938  0.00  0.00     0.352 A 
ATOM     18  O   UNL d   1       7.279   1.922   5.678  0.00  0.00    -0.323 OA
ATOM     19  C   UNL d   1       5.449   0.547   4.846  0.00  0.00     0.040 A 
ATOM     20  C   UNL d   1       4.726   0.182   3.706  0.00  0.00     0.016 A 
ENDBRANCH   3  12
TORSDOF 4
