REMARK  4 active torsions:
REMARK  status: ('A' for Active; 'I' for Inactive)
REMARK    1  A    between atoms: S_11  and  C_1 
REMARK    2  A    between atoms: C_8  and  C_4 
REMARK    3  A    between atoms: C_10  and  C_7 
REMARK    4  A    between atoms: O_13  and  C_8 
ROOT
ATOM      1  C   UNL d   1      -1.123  -1.256  -0.049  0.00  0.00     0.093 C 
ATOM      2  N   UNL d   1      -1.761  -0.032   0.072  0.00  0.00    -0.335 N 
ATOM      3  HN  UNL d   1      -2.764   0.013   0.252  1.00  0.00     0.168 HD
ATOM      4  C   UNL d   1       0.224  -1.380  -0.106  0.00  0.00     0.140 C 
ATOM      5  C   UNL d   1       0.995  -0.122  -0.019  0.00  0.00     0.266 C 
ATOM      6  N   UNL d   1       0.288   1.032  -0.164  0.00  0.00    -0.308 N 
ATOM      7  C   UNL d   1      -1.069   1.051  -0.046  0.00  0.00     0.119 C 
ATOM      8  O   UNL d   1       2.202  -0.086   0.212  0.00  0.00    -0.267 OA
ATOM      9  H   UNL d   1       0.835   1.879  -0.094  0.00  0.00     0.170 HD
ENDROOT
BRANCH   7  10
ATOM     10  C   UNL d   1      -1.722   2.387  -0.043  0.00  0.00     0.008 A 
ATOM     11  C   UNL d   1      -2.903   2.567   0.685  0.00  0.00     0.015 A 
ATOM     12  C   UNL d   1      -3.539   3.811   0.691  0.00  0.00     0.001 A 
ATOM     13  C   UNL d   1      -3.003   4.872  -0.037  0.00  0.00     0.000 A 
ATOM     14  C   UNL d   1      -1.837   4.693  -0.780  0.00  0.00     0.001 A 
ATOM     15  C   UNL d   1      -1.196   3.452  -0.788  0.00  0.00     0.015 A 
ENDBRANCH   7  10
BRANCH   1  16
ATOM     16  S   UNL d   1      -2.156  -2.685  -0.240  0.00  0.00    -0.116 SA
ATOM     17  C   UNL d   1      -3.794  -2.000   0.108  0.00  0.00     0.097 C 
ENDBRANCH   1  16
BRANCH   4  18
ATOM     18  C   UNL d   1       0.990  -2.615  -0.373  0.00  0.00     0.301 C 
ATOM     19  O   UNL d   1       1.879  -2.670  -1.213  0.00  0.00    -0.259 OA
BRANCH  18  20
ATOM     20  O   UNL d   1       0.615  -3.647   0.424  0.00  0.00    -0.322 OA
ATOM     21  C   UNL d   1       1.270  -4.878   0.108  0.00  0.00     0.213 C 
ENDBRANCH  18  20
ENDBRANCH   4  18
TORSDOF 4
