REMARK  6 active torsions:
REMARK  status: ('A' for Active; 'I' for Inactive)
REMARK    1  A    between atoms: C_6  and  C_1 
REMARK    2  A    between atoms: C_9  and  N_2 
REMARK    3  A    between atoms: C_12  and  C_3 
REMARK    4  A    between atoms: S_8  and  C_6 
REMARK    5  A    between atoms: C_11  and  S_8 
REMARK    6  A    between atoms: C_21  and  C_12 
ROOT
ATOM      1  C   UNL d   1      -0.270   1.000   0.005  0.00  0.00     0.063 A 
ATOM      2  N   UNL d   1       0.561  -1.084   0.083  0.00  0.00    -0.260 N 
ATOM      3  C   UNL d   1       0.906   0.255  -0.207  0.00  0.00     0.050 A 
ATOM      4  N   UNL d   1      -0.712  -1.182   0.527  0.00  0.00    -0.304 N 
ATOM      5  HN  UNL d   1      -1.180  -2.014   0.888  1.00  0.00     0.186 HD
ATOM      6  C   UNL d   1      -1.219   0.028   0.393  0.00  0.00     0.126 A 
ENDROOT
BRANCH   1   7
ATOM      7  C   UNL d   1      -0.544   2.441  -0.107  0.00  0.00     0.227 C 
ATOM      8  O   UNL d   1       0.145   3.232  -0.729  0.00  0.00    -0.279 OA
BRANCH   7   9
ATOM      9  S   UNL d   1      -1.999   2.945   0.768  0.00  0.00    -0.048 SA
BRANCH   9  10
ATOM     10  C   UNL d   1      -2.276   4.662   0.417  0.00  0.00     0.008 A 
ATOM     11  C   UNL d   1      -2.001   5.272  -0.811  0.00  0.00     0.020 A 
ATOM     12  C   UNL d   1      -2.299   6.623  -1.018  0.00  0.00     0.020 A 
ATOM     13  C   UNL d   1      -2.901   7.365  -0.006  0.00  0.00     0.011 A 
ATOM     14  C   UNL d   1      -3.213   6.769   1.210  0.00  0.00     0.020 A 
ATOM     15 BR   UNL d   1      -3.307   9.189  -0.290  0.00  0.00    -0.051 Br
ATOM     16  C   UNL d   1      -2.901   5.423   1.417  0.00  0.00     0.020 A 
ENDBRANCH   9  10
ENDBRANCH   7   9
ENDBRANCH   1   7
BRANCH   3  17
ATOM     17  C   UNL d   1       2.337   0.618  -0.538  0.00  0.00     0.060 C 
BRANCH  17  18
ATOM     18  C   UNL d   1       2.721   2.089  -0.630  0.00  0.00     0.002 C 
ATOM     19  C   UNL d   1       4.224   2.259  -0.839  0.00  0.00     0.005 C 
ENDBRANCH  17  18
ENDBRANCH   3  17
BRANCH   2  20
ATOM     20  C   UNL d   1       1.296  -2.308  -0.011  0.00  0.00     0.056 A 
ATOM     21  C   UNL d   1       0.923  -3.366   0.843  0.00  0.00     0.031 A 
ATOM     22  C   UNL d   1       1.542  -4.613   0.754  0.00  0.00     0.002 A 
ATOM     23  C   UNL d   1       2.526  -4.828  -0.202  0.00  0.00     0.000 A 
ATOM     24  C   UNL d   1       2.899  -3.792  -1.060  0.00  0.00     0.002 A 
ATOM     25  C   UNL d   1       2.290  -2.534  -0.965  0.00  0.00     0.031 A 
ENDBRANCH   2  20
TORSDOF 6
