REMARK  2 active torsions:
REMARK  status: ('A' for Active; 'I' for Inactive)
REMARK    1  A    between atoms: C_3  and  C_4 
REMARK       I    between atoms: N_5  and  C_3 
REMARK    2  A    between atoms: C_7  and  N_5 
ROOT
ATOM      1  N   UNL d   1       6.525   1.905  -1.886  0.00  0.00    -0.197 NA
ATOM      2  C   UNL d   1       6.187   0.911  -2.381  0.00  0.00     0.068 C 
ATOM      3  C   UNL d   1       5.692  -0.331  -2.963  0.00  0.00     0.226 C 
ENDROOT
BRANCH   3   4
ATOM      4  C   UNL d   1       4.216  -0.304  -3.319  0.00  0.00     0.235 C 
ATOM      5  N   UNL d   1       3.418   0.559  -2.586  0.00  0.00    -0.326 N 
ATOM      6  H   UNL d   1       3.869   1.272  -2.021  0.00  0.00     0.169 HD
ATOM      7  O   UNL d   1       3.805  -1.094  -4.170  0.00  0.00    -0.272 OA
BRANCH   5   8
ATOM      8  C   UNL d   1       2.005   0.584  -2.541  0.00  0.00     0.034 A 
ATOM      9  C   UNL d   1       1.186  -0.363  -3.160  0.00  0.00     0.031 A 
ATOM     10  C   UNL d   1      -0.203  -0.320  -2.995  0.00  0.00     0.021 A 
ATOM     11  C   UNL d   1      -0.779   0.678  -2.215  0.00  0.00     0.011 A 
ATOM     12  C   UNL d   1       0.020   1.644  -1.612  0.00  0.00     0.021 A 
ATOM     13 BR   UNL d   1      -2.651   0.707  -1.957  0.00  0.00    -0.051 Br
ATOM     14  C   UNL d   1       1.408   1.596  -1.775  0.00  0.00     0.031 A 
ENDBRANCH   5   8
ENDBRANCH   3   4
TORSDOF 2
