REMARK  3 active torsions:
REMARK  status: ('A' for Active; 'I' for Inactive)
REMARK    1  A    between atoms: C_8  and  C_3 
REMARK    2  A    between atoms: C_11  and  C_4 
REMARK    3  A    between atoms: N_6  and  C_9 
ROOT
ATOM      1  N   UNL d   1       1.234  -0.568   0.546  0.00  0.00    -0.349 N 
ATOM      2  HN  UNL d   1       1.984  -1.062   1.029  1.00  0.00     0.166 HD
ATOM      3  C   UNL d   1       0.188  -1.148  -0.016  0.00  0.00     0.085 A 
ATOM      4  C   UNL d   1       1.168   0.811   0.388  0.00  0.00     0.050 A 
ATOM      5  S   UNL d   1      -0.947  -0.053  -0.720  0.00  0.00    -0.081 SA
ATOM      6  C   UNL d   1       0.056   1.261  -0.297  0.00  0.00     0.082 A 
ENDROOT
BRANCH   3   7
ATOM      7  C   UNL d   1      -0.064  -2.602  -0.043  0.00  0.00    -0.000 A 
ATOM      8  C   UNL d   1       0.401  -3.415   1.011  0.00  0.00     0.044 A 
ATOM      9  C   UNL d   1       0.171  -4.804   1.017  0.00  0.00     0.039 A 
ATOM     10  C   UNL d   1      -0.529  -5.378  -0.055  0.00  0.00     0.030 A 
ATOM     11  C   UNL d   1      -0.982  -4.586  -1.110  0.00  0.00     0.003 A 
ATOM     12  C   UNL d   1      -0.748  -3.213  -1.105  0.00  0.00     0.014 A 
BRANCH   9  13
ATOM     13  N   UNL d   1       0.646  -5.627   2.088  0.00  0.00    -0.333 N 
ATOM     14  C   UNL d   1       0.521  -7.003   2.190  0.00  0.00     0.096 A 
ATOM     15  C   UNL d   1       1.136  -7.440   3.342  0.00  0.00     0.019 A 
ATOM     16  C   UNL d   1       1.644  -6.302   3.996  0.00  0.00     0.019 A 
ATOM     17  C   UNL d   1       1.326  -5.209   3.219  0.00  0.00     0.096 A 
ENDBRANCH   9  13
ENDBRANCH   3   7
BRANCH   4  18
ATOM     18  C   UNL d   1       2.221   1.700   0.867  0.00  0.00    -0.009 A 
ATOM     19  C   UNL d   1       3.545   1.243   0.939  0.00  0.00     0.015 A 
ATOM     20  C   UNL d   1       4.575   2.102   1.337  0.00  0.00     0.024 A 
ATOM     21  C   UNL d   1       4.285   3.422   1.677  0.00  0.00     0.034 A 
ATOM     22  C   UNL d   1       2.973   3.886   1.637  0.00  0.00     0.024 A 
ATOM     23 CL   UNL d   1       5.552   4.488   2.144  0.00  0.00    -0.084 Cl
ATOM     24  C   UNL d   1       1.945   3.027   1.236  0.00  0.00     0.015 A 
ENDBRANCH   4  18
TORSDOF 3
