REMARK  6 active torsions:
REMARK  status: ('A' for Active; 'I' for Inactive)
REMARK    1  A    between atoms: C_3  and  C_1 
REMARK    2  A    between atoms: C_5  and  C_1 
REMARK    3  A    between atoms: C_2  and  C_4 
REMARK    4  A    between atoms: C_8  and  C_2 
REMARK    5  A    between atoms: C_4  and  C_5 
REMARK    6  A    between atoms: O_14  and  C_11 
ROOT
ATOM      1  C   UNL d   1       0.914   0.043   0.167  0.00  0.00     0.160 C 
ATOM      2  O   UNL d   1       0.331   0.354   1.204  0.00  0.00    -0.292 OA
ENDROOT
BRANCH   1   3
ATOM      3  C   UNL d   1       2.341   0.426  -0.012  0.00  0.00     0.010 A 
ATOM      4  C   UNL d   1       2.806   1.597   0.596  0.00  0.00     0.018 A 
ATOM      5  C   UNL d   1       4.154   1.961   0.494  0.00  0.00     0.037 A 
ATOM      6  C   UNL d   1       5.048   1.150  -0.206  0.00  0.00     0.068 A 
ATOM      7  C   UNL d   1       4.576  -0.011  -0.825  0.00  0.00     0.037 A 
ATOM      8  C   UNL d   1       3.230  -0.376  -0.734  0.00  0.00     0.018 A 
BRANCH   6   9
ATOM      9  O   UNL d   1       6.388   1.373  -0.359  0.00  0.00    -0.356 OA
ATOM     10  C   UNL d   1       6.939   2.482   0.341  0.00  0.00     0.210 C 
ENDBRANCH   6   9
ENDBRANCH   1   3
BRANCH   1  11
ATOM     11  C   UNL d   1       0.253  -0.773  -0.928  0.00  0.00     0.091 C 
BRANCH  11  12
ATOM     12  C   UNL d   1      -1.270  -0.684  -0.883  0.00  0.00     0.091 C 
BRANCH  12  13
ATOM     13  C   UNL d   1      -1.793   0.692  -1.268  0.00  0.00     0.160 C 
ATOM     14  O   UNL d   1      -1.038   1.627  -1.536  0.00  0.00    -0.292 OA
BRANCH  13  15
ATOM     15  C   UNL d   1      -3.274   0.893  -1.348  0.00  0.00     0.010 A 
ATOM     16  C   UNL d   1      -4.180  -0.167  -1.192  0.00  0.00     0.015 A 
ATOM     17  C   UNL d   1      -5.553   0.057  -1.325  0.00  0.00     0.001 A 
ATOM     18  C   UNL d   1      -6.031   1.336  -1.603  0.00  0.00     0.000 A 
ATOM     19  C   UNL d   1      -5.139   2.397  -1.745  0.00  0.00     0.001 A 
ATOM     20  C   UNL d   1      -3.765   2.175  -1.620  0.00  0.00     0.015 A 
ENDBRANCH  13  15
ENDBRANCH  12  13
ENDBRANCH  11  12
ENDBRANCH   1  11
TORSDOF 6
