REMARK  1 active torsions:
REMARK  status: ('A' for Active; 'I' for Inactive)
REMARK    1  A    between atoms: O_10  and  C_6 
ROOT
ATOM      1  C   UNL d   1       0.779  -0.948  -0.019  0.00  0.00     0.052 A 
ATOM      2  C   UNL d   1       0.093   1.734  -0.011  0.00  0.00     0.064 A 
ATOM      3  C   UNL d   1      -0.915   0.767  -0.012  0.00  0.00     0.058 A 
ATOM      4  C   UNL d   1      -0.569  -0.583  -0.016  0.00  0.00     0.057 A 
ATOM      5  C   UNL d   1       1.794   0.024  -0.018  0.00  0.00     0.069 A 
ATOM      6  C   UNL d   1       1.456   1.385  -0.014  0.00  0.00     0.091 A 
ATOM      7 CL   UNL d   1       3.400  -0.612  -0.024  0.00  0.00    -0.081 Cl
ATOM      8 CL   UNL d   1      -2.555   1.306  -0.007  0.00  0.00    -0.082 Cl
ATOM      9 CL   UNL d   1      -1.746  -1.845  -0.017  0.00  0.00    -0.082 Cl
ENDROOT
BRANCH   6  10
ATOM     10  O   UNL d   1       2.245   2.500  -0.011  0.00  0.00    -0.354 OA
ATOM     11  C   UNL d   1       3.658   2.396  -0.013  0.00  0.00     0.210 C 
ENDBRANCH   6  10
TORSDOF 1
