REMARK  2 active torsions:
REMARK  status: ('A' for Active; 'I' for Inactive)
REMARK    1  A    between atoms: N_2  and  S_1 
REMARK    2  A    between atoms: C_3  and  S_1 
ROOT
ATOM      1  S   UNL d   1       0.916   0.000   0.166  0.00  0.00     0.260 S 
ATOM      2  O   UNL d   1       0.128   0.885  -0.654  0.00  0.00    -0.200 OA
ATOM      3  O   UNL d   1       2.359  -0.053   0.044  0.00  0.00    -0.200 OA
ENDROOT
BRANCH   1   4
ATOM      4  N   UNL d   1       0.343  -1.596  -0.017  0.00  0.00    -0.305 N 
ATOM      5  C   UNL d   1      -1.110  -1.762  -0.297  0.00  0.00     0.145 C 
ATOM      6  C   UNL d   1      -1.427  -3.123  -0.921  0.00  0.00     0.094 C 
ATOM      7  S   UNL d   1      -1.009  -4.480   0.215  0.00  0.00    -0.166 SA
ATOM      8  C   UNL d   1       0.742  -4.038   0.443  0.00  0.00     0.094 C 
ATOM      9  C   UNL d   1       0.911  -2.599   0.935  0.00  0.00     0.145 C 
ENDBRANCH   1   4
BRANCH   1  10
ATOM     10  C   UNL d   1       0.562   0.410   1.868  0.00  0.00     0.081 A 
ATOM     11  C   UNL d   1       1.620   0.691   2.742  0.00  0.00     0.050 A 
ATOM     12  C   UNL d   1       1.358   0.965   4.088  0.00  0.00     0.057 A 
ATOM     13 CL   UNL d   1       2.704   1.312   5.113  0.00  0.00    -0.083 Cl
ATOM     14  C   UNL d   1       0.040   0.946   4.562  0.00  0.00     0.055 A 
ATOM     15  C   UNL d   1      -1.015   0.695   3.677  0.00  0.00     0.027 A 
ATOM     16 CL   UNL d   1      -0.352   1.221   6.221  0.00  0.00    -0.083 Cl
ATOM     17  C   UNL d   1      -0.758   0.449   2.325  0.00  0.00     0.027 A 
ENDBRANCH   1  10
TORSDOF 2
