REMARK  5 active torsions:
REMARK  status: ('A' for Active; 'I' for Inactive)
REMARK    1  A    between atoms: C_4  and  C_1 
REMARK    2  A    between atoms: C_3  and  O_5 
REMARK    3  A    between atoms: O_5  and  C_4 
REMARK    4  A    between atoms: O_19  and  C_8 
REMARK    5  A    between atoms: C_10  and  C_9 
ROOT
ATOM      1  C   UNL d   1       2.677  -3.692  -0.302  0.00  0.00     0.130 A 
ATOM      2  C   UNL d   1       1.686  -3.720  -1.294  0.00  0.00     0.048 A 
ATOM      3  C   UNL d   1       2.639  -4.623   0.745  0.00  0.00     0.104 A 
ATOM      4  C   UNL d   1       0.502  -5.488  -0.104  0.00  0.00    -0.030 A 
ATOM      5  C   UNL d   1       0.599  -4.593  -1.180  0.00  0.00     0.031 A 
ATOM      6  C   UNL d   1       1.546  -5.499   0.838  0.00  0.00     0.049 A 
ATOM      7 BR   UNL d   1       1.784  -2.672  -2.878  0.00  0.00    -0.048 Br
ENDROOT
BRANCH   1   8
ATOM      8  O   UNL d   1       3.773  -2.816  -0.414  0.00  0.00    -0.270 OA
BRANCH   8   9
ATOM      9  C   UNL d   1       3.576  -1.427  -0.411  0.00  0.00     0.305 C 
ATOM     10  O   UNL d   1       2.533  -0.869  -0.102  0.00  0.00    -0.258 OA
BRANCH   9  11
ATOM     11  C   UNL d   1       4.779  -0.769  -0.914  0.00  0.00     0.082 A 
ATOM     12  S   UNL d   1       6.282  -1.585  -0.961  0.00  0.00    -0.084 SA
ATOM     13  C   UNL d   1       7.065  -0.301  -1.783  0.00  0.00     0.016 A 
ATOM     14  C   UNL d   1       8.398  -0.286  -2.238  0.00  0.00     0.019 A 
ATOM     15  C   UNL d   1       6.204   0.781  -1.979  0.00  0.00    -0.018 A 
ATOM     16  C   UNL d   1       8.860   0.830  -2.933  0.00  0.00     0.001 A 
ATOM     17  C   UNL d   1       8.024   1.915  -3.158  0.00  0.00     0.001 A 
ATOM     18  C   UNL d   1       6.707   1.905  -2.676  0.00  0.00     0.013 A 
ATOM     19  C   UNL d   1       4.905   0.515  -1.416  0.00  0.00     0.038 A 
ENDBRANCH   9  11
ENDBRANCH   8   9
ENDBRANCH   1   8
BRANCH   3  20
ATOM     20  O   UNL d   1       3.538  -4.778   1.766  0.00  0.00    -0.353 OA
ATOM     21  C   UNL d   1       4.907  -4.520   1.484  0.00  0.00     0.210 C 
ENDBRANCH   3  20
BRANCH   4  22
ATOM     22  C   UNL d   1      -0.696  -6.396   0.086  0.00  0.00     0.141 C 
ATOM     23  S   UNL d   1      -1.036  -7.458  -1.353  0.00  0.00    -0.148 SA
ATOM     24  C   UNL d   1      -2.837  -7.450  -1.172  0.00  0.00     0.085 C 
ATOM     25  C   UNL d   1      -3.246  -6.032  -0.834  0.00  0.00     0.085 C 
ATOM     26  S   UNL d   1      -2.195  -5.442   0.519  0.00  0.00    -0.148 SA
ENDBRANCH   4  22
TORSDOF 5
