REMARK  4 active torsions:
REMARK  status: ('A' for Active; 'I' for Inactive)
REMARK    1  A    between atoms: C_6  and  C_1 
REMARK    2  A    between atoms: N_11  and  C_2 
REMARK    3  A    between atoms: O_13  and  C_6 
REMARK    4  A    between atoms: C_16  and  O_13 
ROOT
ATOM      1  C   UNL d   1       2.488   0.019  -0.043  0.00  0.00     0.110 A 
ATOM      2  C   UNL d   1       1.614  -1.053  -0.053  0.00  0.00     0.079 A 
ATOM      3  S   UNL d   1       1.630   1.515  -0.078  0.00  0.00    -0.062 SA
ATOM      4  C   UNL d   1       0.241  -0.649  -0.047  0.00  0.00     0.094 A 
ATOM      5  C   UNL d   1       0.125   0.737  -0.053  0.00  0.00     0.104 A 
ATOM      6  N   UNL d   1      -0.863  -1.460  -0.023  0.00  0.00    -0.360 N 
ATOM      7  HN  UNL d   1      -0.811  -2.479  -0.018  1.00  0.00     0.165 HD
ATOM      8  N   UNL d   1      -1.038   1.428  -0.037  0.00  0.00    -0.357 N 
ATOM      9  HN  UNL d   1      -1.098   2.446  -0.044  1.00  0.00     0.166 HD
ATOM     10  C   UNL d   1      -2.027  -0.776  -0.005  0.00  0.00     0.105 A 
ATOM     11  C   UNL d   1      -2.111   0.607  -0.012  0.00  0.00     0.106 A 
ENDROOT
BRANCH   1  12
ATOM     12  C   UNL d   1       3.936  -0.023   0.044  0.00  0.00     0.302 C 
ATOM     13  O   UNL d   1       4.603  -1.051   0.136  0.00  0.00    -0.259 OA
BRANCH  12  14
ATOM     14  O   UNL d   1       4.465   1.232   0.114  0.00  0.00    -0.317 OA
BRANCH  14  15
ATOM     15  C   UNL d   1       5.783   1.321   0.669  0.00  0.00     0.174 C 
ATOM     16  C   UNL d   1       5.647   1.417   2.179  0.00  0.00     0.034 C 
ENDBRANCH  14  15
ENDBRANCH  12  14
ENDBRANCH   1  12
BRANCH   2  17
ATOM     17  N   UNL d   1       1.999  -2.350  -0.041  0.00  0.00    -0.396 N 
ATOM     18  H   UNL d   1       2.976  -2.639   0.018  0.00  0.00     0.156 HD
ATOM     19  H   UNL d   1       1.316  -3.103   0.011  0.00  0.00     0.156 HD
ENDBRANCH   2  17
TORSDOF 4
