REMARK  4 active torsions:
REMARK  status: ('A' for Active; 'I' for Inactive)
REMARK    1  A    between atoms: S_2  and  C_3 
REMARK    2  A    between atoms: C_7  and  S_2 
REMARK    3  A    between atoms: C_4  and  C_7 
REMARK    4  A    between atoms: O_9  and  C_4 
ROOT
ATOM      1  C   UNL d   1      -0.170   1.021  -0.037  0.00  0.00    -0.024 A 
ATOM      2  C   UNL d   1      -1.571   1.193  -0.053  0.00  0.00     0.008 A 
ATOM      3  C   UNL d   1       0.338  -0.299  -0.050  0.00  0.00     0.041 A 
ATOM      4 CL   UNL d   1       2.041  -0.622  -0.036  0.00  0.00    -0.084 Cl
ATOM      5  C   UNL d   1       0.804   2.168   0.028  0.00  0.00     0.051 C 
ATOM      6  C   UNL d   1      -1.885  -1.231  -0.044  0.00  0.00     0.003 A 
ATOM      7  C   UNL d   1      -2.408   0.060  -0.039  0.00  0.00     0.019 A 
ATOM      8  C   UNL d   1      -0.510  -1.410  -0.052  0.00  0.00     0.024 A 
ENDROOT
BRANCH   2   9
ATOM      9  S   UNL d   1      -2.441   2.764   0.029  0.00  0.00    -0.119 SA
BRANCH   9  10
ATOM     10  C   UNL d   1      -1.981   3.566  -1.548  0.00  0.00     0.189 C 
BRANCH  10  11
ATOM     11  C   UNL d   1      -2.360   2.771  -2.775  0.00  0.00     0.149 C 
ATOM     12  O   UNL d   1      -1.764   2.863  -3.838  0.00  0.00    -0.649 OA
BRANCH  11  13
ATOM     13  O   UNL d   1      -3.480   2.019  -2.646  0.00  0.00    -0.776 OA
ATOM     14  H   UNL d   1      -3.825   2.054  -1.732  0.00  0.00     0.167 HD
ENDBRANCH  11  13
ENDBRANCH  10  11
ENDBRANCH   9  10
ENDBRANCH   2   9
TORSDOF 4
