REMARK  5 active torsions:
REMARK  status: ('A' for Active; 'I' for Inactive)
REMARK    1  A    between atoms: C_13  and  N_2 
REMARK    2  A    between atoms: C_15  and  C_5 
REMARK    3  A    between atoms: C_10  and  C_14 
REMARK    4  A    between atoms: C_14  and  C_13 
REMARK    5  A    between atoms: C_17  and  C_18 
ROOT
ATOM      1  N   UNL d   1       5.535  -4.385   0.139  0.00  0.00    -0.323 N 
ATOM      2  HN  UNL d   1       6.385  -3.831   0.249  1.00  0.00     0.169 HD
ATOM      3  C   UNL d   1       5.403  -5.761   0.068  0.00  0.00     0.137 A 
ATOM      4  N   UNL d   1       4.128  -6.170  -0.054  0.00  0.00    -0.242 N 
ATOM      5  HN  UNL d   1       3.779  -7.126  -0.115  1.00  0.00     0.196 HD
ATOM      6  C   UNL d   1       4.291  -3.970   0.031  0.00  0.00     0.150 A 
ATOM      7  O   UNL d   1       3.394  -4.990  -0.078  0.00  0.00    -0.223 OA
ENDROOT
BRANCH   6   8
ATOM      8  C   UNL d   1       3.724  -2.598   0.033  0.00  0.00     0.107 C 
BRANCH   8   9
ATOM      9  C   UNL d   1       4.712  -1.574  -0.522  0.00  0.00     0.142 C 
BRANCH   9  10
ATOM     10  N   UNL d   1       4.176  -0.230  -0.529  0.00  0.00    -0.290 N 
ATOM     11  C   UNL d   1       3.460   0.349  -1.560  0.00  0.00     0.372 A 
ATOM     12  O   UNL d   1       3.113   1.672  -1.254  0.00  0.00    -0.259 OA
ATOM     13  O   UNL d   1       3.149  -0.199  -2.609  0.00  0.00    -0.237 OA
ATOM     14  C   UNL d   1       3.650   1.838   0.014  0.00  0.00     0.107 A 
ATOM     15  C   UNL d   1       3.586   2.992   0.764  0.00  0.00     0.040 A 
ATOM     16  C   UNL d   1       4.285   0.702   0.479  0.00  0.00     0.073 A 
ATOM     17  C   UNL d   1       4.184   2.972   2.027  0.00  0.00     0.003 A 
ATOM     18  C   UNL d   1       4.826   1.808   2.502  0.00  0.00     0.002 A 
ATOM     19  C   UNL d   1       4.880   0.649   1.720  0.00  0.00     0.033 A 
ENDBRANCH   9  10
ENDBRANCH   8   9
ENDBRANCH   6   8
BRANCH   3  20
ATOM     20  C   UNL d   1       6.547  -6.675   0.073  0.00  0.00     0.010 A 
ATOM     21  C   UNL d   1       7.855  -6.197   0.196  0.00  0.00     0.016 A 
ATOM     22  C   UNL d   1       8.952  -7.072   0.111  0.00  0.00     0.009 A 
ATOM     23  C   UNL d   1       8.782  -8.454  -0.106  0.00  0.00    -0.051 A 
ATOM     24  C   UNL d   1       7.462  -8.926  -0.172  0.00  0.00     0.009 A 
ATOM     25  C   UNL d   1       6.365  -8.054  -0.085  0.00  0.00     0.016 A 
BRANCH  23  26
ATOM     26  C   UNL d   1      10.001  -9.376  -0.307  0.00  0.00    -0.024 C 
ATOM     27  C   UNL d   1       9.623 -10.846  -0.606  0.00  0.00     0.019 C 
ATOM     28  C   UNL d   1      10.835  -8.875  -1.509  0.00  0.00     0.019 C 
ATOM     29  C   UNL d   1      10.895  -9.380   0.950  0.00  0.00     0.019 C 
ENDBRANCH  23  26
ENDBRANCH   3  20
TORSDOF 5
