REMARK  6 active torsions:
REMARK  status: ('A' for Active; 'I' for Inactive)
REMARK    1  A    between atoms: N_2  and  C_1 
REMARK    2  A    between atoms: C_3  and  C_7 
REMARK    3  A    between atoms: S_6  and  C_3 
REMARK    4  A    between atoms: O_8  and  C_4 
REMARK    5  A    between atoms: C_11  and  S_6 
REMARK    6  A    between atoms: C_9  and  O_8 
ROOT
ATOM      1  C   UNL d   1       1.244  -0.527  -0.385  0.00  0.00     0.137 C 
ATOM      2  C   UNL d   1       0.297  -1.493  -0.048  0.00  0.00     0.109 C 
ATOM      3  C   UNL d   1       0.917   0.832  -0.482  0.00  0.00     0.055 C 
ATOM      4  C   UNL d   1      -0.366   1.251  -0.126  0.00  0.00     0.024 C 
ATOM      5  C   UNL d   1      -1.034  -1.088   0.088  0.00  0.00     0.041 C 
ATOM      6  C   UNL d   1      -1.353   0.275   0.093  0.00  0.00     0.019 C 
ENDROOT
BRANCH   4   7
ATOM      7  C   UNL d   1      -0.736   2.677   0.135  0.00  0.00     0.225 C 
ATOM      8  O   UNL d   1      -1.912   2.969   0.344  0.00  0.00    -0.279 OA
BRANCH   7   9
ATOM      9  S   UNL d   1       0.470   3.950   0.094  0.00  0.00    -0.030 SA
BRANCH   9  10
ATOM     10  C   UNL d   1       1.578   3.561   1.439  0.00  0.00     0.077 A 
ATOM     11  N   UNL d   1       1.728   2.273   1.819  0.00  0.00    -0.360 N 
ATOM     12  C   UNL d   1       2.725   1.981   2.686  0.00  0.00     0.089 A 
ATOM     13  HN  UNL d   1       1.109   1.544   1.463  1.00  0.00     0.166 HD
ATOM     14  C   UNL d   1       3.579   2.928   3.218  0.00  0.00     0.017 A 
ATOM     15  C   UNL d   1       3.389   4.253   2.854  0.00  0.00     0.004 A 
ATOM     16  C   UNL d   1       2.378   4.578   1.950  0.00  0.00     0.037 A 
ENDBRANCH   9  10
ENDBRANCH   7   9
ENDBRANCH   4   7
BRANCH   1  17
ATOM     17  N   UNL d   1       2.635  -0.891  -0.530  0.00  0.00    -0.113 N 
ATOM     18  O   UNL d   1       3.212  -1.339   0.471  0.00  0.00    -0.532 OA
ATOM     19  O   UNL d   1       3.161  -0.664  -1.628  0.00  0.00    -0.532 OA
ENDBRANCH   1  17
BRANCH   2  20
ATOM     20  O   UNL d   1       0.693  -2.802   0.105  0.00  0.00    -0.307 OA
BRANCH  20  21
ATOM     21  C   UNL d   1       0.074  -3.572   1.070  0.00  0.00     0.098 A 
ATOM     22  C   UNL d   1      -0.185  -4.916   0.774  0.00  0.00     0.069 A 
ATOM     23  C   UNL d   1      -0.867  -5.722   1.688  0.00  0.00     0.050 A 
ATOM     24 CL   UNL d   1       0.305  -5.612  -0.728  0.00  0.00    -0.081 Cl
ATOM     25  C   UNL d   1      -1.278  -5.184   2.906  0.00  0.00     0.035 A 
ATOM     26  C   UNL d   1      -0.975  -3.865   3.237  0.00  0.00     0.026 A 
ATOM     27 CL   UNL d   1      -2.170  -6.155   4.010  0.00  0.00    -0.084 Cl
ATOM     28  C   UNL d   1      -0.275  -3.064   2.332  0.00  0.00     0.041 A 
ENDBRANCH  20  21
ENDBRANCH   2  20
TORSDOF 6
