REMARK  3 active torsions:
REMARK  status: ('A' for Active; 'I' for Inactive)
REMARK    1  A    between atoms: C_2  and  C_1 
REMARK    2  A    between atoms: C_3  and  C_1 
REMARK    3  A    between atoms: C_7  and  C_3 
ROOT
ATOM      1  C   UNL d   1       0.867   0.073   0.003  0.00  0.00     0.163 C 
ATOM      2  O   UNL d   1       1.937   0.541   0.405  0.00  0.00    -0.292 OA
ENDROOT
BRANCH   1   3
ATOM      3  C   UNL d   1       0.222   0.676  -1.204  0.00  0.00     0.010 A 
ATOM      4  C   UNL d   1      -1.018   0.256  -1.703  0.00  0.00     0.017 A 
ATOM      5  C   UNL d   1      -1.574   0.881  -2.827  0.00  0.00     0.025 A 
ATOM      6  C   UNL d   1      -0.898   1.926  -3.453  0.00  0.00     0.034 A 
ATOM      7  C   UNL d   1       0.342   2.343  -2.978  0.00  0.00     0.025 A 
ATOM      8 CL   UNL d   1      -1.604   2.711  -4.811  0.00  0.00    -0.084 Cl
ATOM      9  C   UNL d   1       0.900   1.717  -1.860  0.00  0.00     0.017 A 
ENDBRANCH   1   3
BRANCH   1  10
ATOM     10  C   UNL d   1       0.225  -1.104   0.710  0.00  0.00     0.122 C 
BRANCH  10  11
ATOM     11  C   UNL d   1      -0.657  -0.743   1.881  0.00  0.00    -0.051 A 
ATOM     12  C   UNL d   1      -1.971  -1.227   1.956  0.00  0.00     0.008 A 
ATOM     13  C   UNL d   1      -2.730  -1.052   3.117  0.00  0.00     0.007 A 
ATOM     14  C   UNL d   1      -2.194  -0.386   4.226  0.00  0.00    -0.062 A 
ATOM     15  C   UNL d   1      -0.902   0.142   4.134  0.00  0.00     0.007 A 
ATOM     16  C   UNL d   1      -2.958  -0.336   5.516  0.00  0.00     0.048 C 
ATOM     17  C   UNL d   1      -0.143  -0.030   2.972  0.00  0.00     0.008 A 
ENDBRANCH  10  11
ENDBRANCH   1  10
TORSDOF 3
