REMARK  7 active torsions:
REMARK  status: ('A' for Active; 'I' for Inactive)
REMARK    1  A    between atoms: C_9  and  N_3 
REMARK    2  A    between atoms: S_10  and  C_8 
REMARK    3  A    between atoms: C_17  and  S_10 
REMARK       I    between atoms: C_12  and  N_13 
REMARK    4  A    between atoms: N_13  and  C_16 
REMARK    5  A    between atoms: C_14  and  C_17 
REMARK    6  A    between atoms: C_15  and  C_14 
REMARK    7  A    between atoms: O_25  and  C_22 
ROOT
ATOM      1  N   UNL d   1      -0.404  -1.149   0.062  0.00  0.00    -0.256 N 
ATOM      2  HN  UNL d   1      -0.646  -2.123  -0.119  1.00  0.00     0.191 HD
ATOM      3  N   UNL d   1       0.815  -0.562   0.177  0.00  0.00    -0.180 N 
ATOM      4  N   UNL d   1       0.759   0.780   0.383  0.00  0.00    -0.219 N 
ATOM      5  HN  UNL d   1       1.546   1.421   0.477  1.00  0.00     0.210 HD
ATOM      6  N   UNL d   1      -0.525   1.081   0.435  0.00  0.00    -0.263 N 
ATOM      7  HN  UNL d   1      -0.932   2.004   0.584  1.00  0.00     0.190 HD
ATOM      8  C   UNL d   1      -1.198  -0.090   0.251  0.00  0.00     0.177 A 
ENDROOT
BRANCH   8   9
ATOM      9  S   UNL d   1      -2.935  -0.212   0.333  0.00  0.00    -0.083 SA
BRANCH   9  10
ATOM     10  C   UNL d   1      -3.347   1.509   0.746  0.00  0.00     0.166 C 
BRANCH  10  11
ATOM     11  C   UNL d   1      -4.849   1.678   0.853  0.00  0.00     0.169 C 
ATOM     12  O   UNL d   1      -5.516   2.001  -0.131  0.00  0.00    -0.291 OA
BRANCH  11  13
ATOM     13  C   UNL d   1      -5.548   1.457   2.161  0.00  0.00     0.011 A 
ATOM     14  C   UNL d   1      -4.889   1.043   3.324  0.00  0.00     0.018 A 
ATOM     15  C   UNL d   1      -5.609   0.817   4.507  0.00  0.00     0.037 A 
ATOM     16  C   UNL d   1      -6.992   0.996   4.537  0.00  0.00     0.068 A 
ATOM     17  C   UNL d   1      -7.647   1.449   3.394  0.00  0.00     0.037 A 
ATOM     18  C   UNL d   1      -6.934   1.671   2.212  0.00  0.00     0.018 A 
BRANCH  16  19
ATOM     19  O   UNL d   1      -7.783   0.797   5.634  0.00  0.00    -0.356 OA
ATOM     20  C   UNL d   1      -7.361  -0.250   6.502  0.00  0.00     0.210 C 
ENDBRANCH  16  19
ENDBRANCH  11  13
ENDBRANCH  10  11
ENDBRANCH   9  10
ENDBRANCH   8   9
BRANCH   3  21
ATOM     21  C   UNL d   1       2.045  -1.272   0.177  0.00  0.00     0.078 A 
ATOM     22  C   UNL d   1       3.230  -0.581   0.485  0.00  0.00     0.062 A 
ATOM     23  C   UNL d   1       4.452  -1.250   0.575  0.00  0.00     0.036 A 
ATOM     24  C   UNL d   1       4.486  -2.622   0.307  0.00  0.00     0.029 A 
ATOM     25  C   UNL d   1       3.315  -3.315  -0.025  0.00  0.00     0.005 A 
ATOM     26  C   UNL d   1       2.089  -2.646  -0.079  0.00  0.00     0.033 A 
BRANCH  23  27
ATOM     27  N   UNL d   1       5.658  -0.618   0.959  0.00  0.00    -0.327 N 
ATOM     28  C   UNL d   1       5.828   0.711   1.309  0.00  0.00     0.218 C 
ATOM     29  O   UNL d   1       4.975   1.591   1.290  0.00  0.00    -0.274 OA
ATOM     30  C   UNL d   1       7.229   1.043   1.759  0.00  0.00     0.117 C 
ATOM     31  H   UNL d   1       6.473  -1.217   1.014  0.00  0.00     0.169 HD
ENDBRANCH  23  27
ENDBRANCH   3  21
TORSDOF 7
