REMARK  5 active torsions:
REMARK  status: ('A' for Active; 'I' for Inactive)
REMARK    1  A    between atoms: C_7  and  N_1 
REMARK    2  A    between atoms: N_15  and  C_4 
REMARK    3  A    between atoms: C_11  and  C_6 
REMARK    4  A    between atoms: C_8  and  O_13 
REMARK    5  A    between atoms: O_13  and  C_22 
ROOT
ATOM      1  N   UNL d   1       0.872  -0.746   0.026  0.00  0.00    -0.240 N 
ATOM      2  N   UNL d   1       0.908   0.588   0.293  0.00  0.00    -0.291 N 
ATOM      3  HN  UNL d   1       1.704   1.132   0.627  1.00  0.00     0.187 HD
ATOM      4  C   UNL d   1      -0.437  -1.187  -0.179  0.00  0.00     0.123 C 
ATOM      5  C   UNL d   1      -1.206  -0.050  -0.247  0.00  0.00     0.081 C 
ATOM      6  C   UNL d   1      -0.328   1.034   0.021  0.00  0.00     0.062 C 
ENDROOT
BRANCH   6   7
ATOM      7  C   UNL d   1      -0.674   2.459   0.062  0.00  0.00    -0.008 A 
ATOM      8  C   UNL d   1      -1.759   2.959  -0.674  0.00  0.00     0.016 A 
ATOM      9  C   UNL d   1      -2.117   4.316  -0.609  0.00  0.00     0.038 A 
ATOM     10  C   UNL d   1      -1.410   5.184   0.219  0.00  0.00     0.078 A 
ATOM     11  C   UNL d   1      -0.294   4.703   0.910  0.00  0.00     0.038 A 
ATOM     12  C   UNL d   1       0.071   3.355   0.836  0.00  0.00     0.016 A 
BRANCH  10  13
ATOM     13  O   UNL d   1      -1.681   6.501   0.433  0.00  0.00    -0.255 OA
BRANCH  13  14
ATOM     14  C   UNL d   1      -2.992   6.984   0.191  0.00  0.00     0.530 C 
ATOM     15  F   UNL d   1      -3.946   6.040   0.344  0.00  0.00    -0.144 F 
ATOM     16  F   UNL d   1      -3.252   7.973   1.076  0.00  0.00    -0.144 F 
ATOM     17  F   UNL d   1      -3.072   7.499  -1.053  0.00  0.00    -0.144 F 
ENDBRANCH  13  14
ENDBRANCH  10  13
ENDBRANCH   6   7
BRANCH   1  18
ATOM     18  C   UNL d   1       2.079  -1.502  -0.002  0.00  0.00     0.060 A 
ATOM     19  C   UNL d   1       2.172  -2.678  -0.760  0.00  0.00     0.057 A 
ATOM     20  C   UNL d   1       3.354  -3.427  -0.756  0.00  0.00     0.058 A 
ATOM     21 CL   UNL d   1       3.396  -4.860  -1.724  0.00  0.00    -0.082 Cl
ATOM     22  C   UNL d   1       4.445  -3.007   0.009  0.00  0.00     0.055 A 
ATOM     23  C   UNL d   1       4.365  -1.819   0.740  0.00  0.00     0.028 A 
ATOM     24 CL   UNL d   1       5.919  -3.908   0.094  0.00  0.00    -0.083 Cl
ATOM     25  C   UNL d   1       3.193  -1.057   0.720  0.00  0.00     0.033 A 
ENDBRANCH   1  18
BRANCH   4  26
ATOM     26  N   UNL d   1      -0.837  -2.482  -0.239  0.00  0.00    -0.384 N 
ATOM     27  H   UNL d   1      -0.280  -3.205   0.215  0.00  0.00     0.157 HD
ATOM     28  H   UNL d   1      -1.832  -2.691  -0.169  0.00  0.00     0.157 HD
ENDBRANCH   4  26
TORSDOF 5
