REMARK  1 active torsions:
REMARK  status: ('A' for Active; 'I' for Inactive)
REMARK    1  A    between atoms: N_9  and  C_3 
ROOT
ATOM      1  N   UNL d   1      -0.895   1.155  -0.436  0.00  0.00    -0.153 N 
ATOM      2  HN  UNL d   1      -1.419   1.937  -0.830  1.00  0.00     0.187 HD
ATOM      3  C   UNL d   1      -1.454   0.038  -0.084  0.00  0.00     0.697 C 
ATOM      4  C   UNL d   1       0.466   1.192  -0.230  0.00  0.00     0.283 C 
ATOM      5  N   UNL d   1       0.595  -1.163   0.484  0.00  0.00    -0.285 N 
ATOM      6  HN  UNL d   1       1.069  -2.025   0.755  1.00  0.00     0.187 HD
ATOM      7  N   UNL d   1      -0.766  -1.044   0.426  0.00  0.00    -0.132 N 
ATOM      8  C   UNL d   1       1.229  -0.072   0.162  0.00  0.00     0.090 C 
ATOM      9  O   UNL d   1       1.129   2.217  -0.351  0.00  0.00    -0.265 OA
ATOM     10  C   UNL d   1       2.725  -0.013   0.159  0.00  0.00     0.076 C 
ATOM     11  H   UNL d   1      -1.290  -1.915   0.431  0.00  0.00     0.205 HD
ENDROOT
BRANCH   3  12
ATOM     12  N   UNL d   1      -2.809  -0.193  -0.192  0.00  0.00    -0.216 N 
ATOM     13  C   UNL d   1      -3.640   0.649  -1.064  0.00  0.00     0.141 C 
ATOM     14  C   UNL d   1      -4.776   1.129  -0.176  0.00  0.00     0.022 C 
ATOM     15  C   UNL d   1      -4.996  -0.049   0.751  0.00  0.00     0.022 C 
ATOM     16  C   UNL d   1      -3.584  -0.569   1.001  0.00  0.00     0.141 C 
ENDBRANCH   3  12
TORSDOF 1
