REMARK  6 active torsions:
REMARK  status: ('A' for Active; 'I' for Inactive)
REMARK    1  A    between atoms: N_7  and  C_1 
REMARK    2  A    between atoms: C_4  and  N_7 
REMARK    3  A    between atoms: C_15  and  C_5 
REMARK    4  A    between atoms: C_17  and  C_6 
REMARK    5  A    between atoms: O_19  and  C_15 
REMARK    6  A    between atoms: C_24  and  O_19 
ROOT
ATOM      1  C   UNL d   1       1.247  -3.375   0.002  0.00  0.00     0.684 A 
ATOM      2  C   UNL d   1       3.362  -5.120  -0.093  0.00  0.00     0.078 A 
ATOM      3  N   UNL d   1       1.339  -4.221  -1.039  0.00  0.00    -0.195 N 
ATOM      4  HN  UNL d   1       0.636  -4.218  -1.778  1.00  0.00     0.184 HD
ATOM      5  C   UNL d   1       2.394  -5.084  -1.084  0.00  0.00     0.040 A 
ATOM      6  N   UNL d   1       2.129  -3.378   1.007  0.00  0.00    -0.201 N 
ATOM      7  HN  UNL d   1       2.019  -2.749   1.802  1.00  0.00     0.183 HD
ATOM      8  C   UNL d   1       3.163  -4.233   0.941  0.00  0.00     0.125 A 
ATOM      9  C   UNL d   1       2.431  -5.977  -2.289  0.00  0.00     0.070 C 
ENDROOT
BRANCH   1  10
ATOM     10  N   UNL d   1       0.198  -2.463  -0.038  0.00  0.00    -0.170 N 
ATOM     11  H   UNL d   1      -0.318  -2.560  -0.897  0.00  0.00     0.186 HD
BRANCH  10  12
ATOM     12  C   UNL d   1       0.209  -1.281   0.611  0.00  0.00     0.164 A 
ATOM     13  N   UNL d   1       0.995  -0.947   1.607  0.00  0.00    -0.339 N 
ATOM     14  C   UNL d   1       0.843   0.372   1.983  0.00  0.00     0.025 A 
ATOM     15  HN  UNL d   1       1.646  -1.591   2.055  1.00  0.00     0.168 HD
ATOM     16  C   UNL d   1      -0.133   1.039   1.266  0.00  0.00     0.079 A 
ATOM     17  S   UNL d   1      -0.852  -0.012   0.118  0.00  0.00    -0.063 SA
BRANCH  14  18
ATOM     18  C   UNL d   1       1.741   0.921   3.079  0.00  0.00    -0.008 C 
ATOM     19  C   UNL d   1       2.678  -0.172   3.643  0.00  0.00     0.021 C 
ATOM     20  C   UNL d   1       2.622   2.054   2.522  0.00  0.00     0.021 C 
ATOM     21  C   UNL d   1       0.888   1.461   4.243  0.00  0.00     0.021 C 
ENDBRANCH  14  18
ENDBRANCH  10  12
ENDBRANCH   1  10
BRANCH   2  22
ATOM     22  C   UNL d   1       4.500  -6.063  -0.075  0.00  0.00     0.296 C 
ATOM     23  O   UNL d   1       4.687  -6.948  -0.891  0.00  0.00    -0.259 OA
BRANCH  22  24
ATOM     24  O   UNL d   1       5.250  -5.836   1.033  0.00  0.00    -0.318 OA
BRANCH  24  25
ATOM     25  C   UNL d   1       6.167  -6.873   1.408  0.00  0.00     0.174 C 
ATOM     26  C   UNL d   1       5.429  -7.856   2.297  0.00  0.00     0.034 C 
ENDBRANCH  24  25
ENDBRANCH  22  24
ENDBRANCH   2  22
TORSDOF 6
