REMARK  8 active torsions:
REMARK  status: ('A' for Active; 'I' for Inactive)
REMARK    1  A    between atoms: C_4  and  C_1 
REMARK       I    between atoms: C_2  and  N_5 
REMARK    2  A    between atoms: C_8  and  C_2 
REMARK    3  A    between atoms: O_6  and  C_3 
REMARK    4  A    between atoms: O_25  and  C_4 
REMARK    5  A    between atoms: N_5  and  C_11 
REMARK    6  A    between atoms: C_15  and  O_6 
REMARK    7  A    between atoms: C_12  and  C_13 
REMARK    8  A    between atoms: C_32  and  O_25 
ROOT
ATOM      1  C   UNL d   1       1.628  -0.044  -0.078  0.00  0.00     0.075 A 
ATOM      2  C   UNL d   1       0.797  -1.121  -0.426  0.00  0.00     0.092 A 
ATOM      3  C   UNL d   1       1.030   1.211   0.161  0.00  0.00     0.050 A 
ATOM      4  C   UNL d   1      -0.348   1.407  -0.019  0.00  0.00     0.036 A 
ATOM      5  C   UNL d   1      -0.562  -0.913  -0.679  0.00  0.00     0.040 A 
ATOM      6  C   UNL d   1      -1.127   0.347  -0.492  0.00  0.00     0.032 A 
ENDROOT
BRANCH   4   7
ATOM      7  N   UNL d   1      -1.028   2.613   0.259  0.00  0.00    -0.323 N 
ATOM      8  C   UNL d   1      -0.531   3.722   0.920  0.00  0.00     0.256 C 
ATOM      9  O   UNL d   1       0.615   3.865   1.334  0.00  0.00    -0.267 OA
ATOM     10  H   UNL d   1      -1.994   2.653  -0.037  0.00  0.00     0.169 HD
BRANCH   8  11
ATOM     11  C   UNL d   1      -1.496   4.845   1.101  0.00  0.00     0.032 A 
ATOM     12  C   UNL d   1      -2.863   4.652   1.322  0.00  0.00     0.017 A 
ATOM     13  C   UNL d   1      -3.723   5.758   1.420  0.00  0.00     0.009 A 
ATOM     14  C   UNL d   1      -3.244   7.078   1.301  0.00  0.00    -0.051 A 
ATOM     15  C   UNL d   1      -1.858   7.244   1.144  0.00  0.00     0.009 A 
ATOM     16  C   UNL d   1      -0.996   6.147   1.048  0.00  0.00     0.017 A 
BRANCH  14  17
ATOM     17  C   UNL d   1      -4.217   8.275   1.302  0.00  0.00    -0.024 C 
ATOM     18  C   UNL d   1      -3.511   9.640   1.124  0.00  0.00     0.019 C 
ATOM     19  C   UNL d   1      -5.211   8.124   0.128  0.00  0.00     0.019 C 
ATOM     20  C   UNL d   1      -5.011   8.341   2.622  0.00  0.00     0.019 C 
ENDBRANCH  14  17
ENDBRANCH   8  11
ENDBRANCH   4   7
BRANCH   1  21
ATOM     21  C   UNL d   1       3.113  -0.230   0.041  0.00  0.00     0.296 C 
ATOM     22  O   UNL d   1       3.713  -1.249  -0.250  0.00  0.00    -0.259 OA
BRANCH  21  23
ATOM     23  O   UNL d   1       3.683   0.904   0.524  0.00  0.00    -0.318 OA
BRANCH  23  24
ATOM     24  C   UNL d   1       5.102   0.882   0.753  0.00  0.00     0.174 C 
ATOM     25  C   UNL d   1       5.834   1.475  -0.437  0.00  0.00     0.034 C 
ENDBRANCH  23  24
ENDBRANCH  21  23
ENDBRANCH   1  21
BRANCH   2  26
ATOM     26  O   UNL d   1       1.249  -2.406  -0.600  0.00  0.00    -0.308 OA
BRANCH  26  27
ATOM     27  C   UNL d   1       1.366  -3.207   0.516  0.00  0.00     0.093 A 
ATOM     28  C   UNL d   1       1.541  -4.569   0.270  0.00  0.00     0.064 A 
ATOM     29  C   UNL d   1       1.761  -5.435   1.336  0.00  0.00     0.052 A 
ATOM     30 CL   UNL d   1       1.999  -7.114   1.064  0.00  0.00    -0.083 Cl
ATOM     31  C   UNL d   1       1.792  -4.914   2.620  0.00  0.00     0.111 A 
ATOM     32  N   UNL d   1       1.587  -3.606   2.904  0.00  0.00    -0.371 N 
ATOM     33  C   UNL d   1       1.381  -2.783   1.843  0.00  0.00     0.124 A 
ATOM     34  HN  UNL d   1       1.588  -3.258   3.862  1.00  0.00     0.164 HD
ENDBRANCH  26  27
ENDBRANCH   2  26
TORSDOF 8
