REMARK  3 active torsions:
REMARK  status: ('A' for Active; 'I' for Inactive)
REMARK    1  A    between atoms: C_5  and  N_1 
REMARK       I    between atoms: C_2  and  N_4 
REMARK    2  A    between atoms: C_3  and  C_2 
REMARK    3  A    between atoms: N_6  and  C_7 
ROOT
ATOM      1  C   UNL d   1      -3.004  -1.794  -8.605  0.00  0.00     0.274 C 
ATOM      2  N   UNL d   1      -2.226  -1.593  -7.466  0.00  0.00    -0.345 N 
ATOM      3  N   UNL d   1      -2.061  -0.922  -4.668  0.00  0.00    -0.364 N 
ATOM      4  C   UNL d   1      -2.199  -2.665  -6.445  0.00  0.00     0.145 C 
ATOM      5  C   UNL d   1      -1.449  -0.425  -7.018  0.00  0.00     0.145 C 
ATOM      6  O   UNL d   1      -3.631  -2.873  -8.662  0.00  0.00    -0.268 OA
ATOM      7  C   UNL d   1      -2.012   0.128  -5.695  0.00  0.00     0.144 C 
ATOM      8  C   UNL d   1      -2.699  -2.186  -5.062  0.00  0.00     0.144 C 
ENDROOT
BRANCH   3   9
ATOM      9  C   UNL d   1      -1.280  -0.799  -3.540  0.00  0.00     0.103 A 
ATOM     10  C   UNL d   1      -1.588  -1.487  -2.362  0.00  0.00     0.051 A 
ATOM     11  C   UNL d   1      -0.826  -1.298  -1.205  0.00  0.00     0.041 A 
ATOM     12  C   UNL d   1       0.250  -0.419  -1.253  0.00  0.00     0.118 A 
ATOM     13  C   UNL d   1       0.517   0.226  -2.443  0.00  0.00     0.125 A 
ATOM     14  N   UNL d   1      -0.228   0.053  -3.569  0.00  0.00    -0.350 N 
ATOM     15  HN  UNL d   1       0.004   0.559  -4.424  1.00  0.00     0.166 HD
BRANCH  12  16
ATOM     16  N   UNL d   1       1.067  -0.165  -0.077  0.00  0.00    -0.114 N 
ATOM     17  O   UNL d   1       2.022   0.619  -0.199  0.00  0.00    -0.532 OA
ATOM     18  O   UNL d   1       0.762  -0.747   0.973  0.00  0.00    -0.532 OA
ENDBRANCH  12  16
ENDBRANCH   3   9
BRANCH   1  19
ATOM     19  C   UNL d   1      -3.132  -0.847  -9.845  0.00  0.00     0.269 C 
ATOM     20 CL   UNL d   1      -2.500   0.799  -9.765  0.00  0.00    -0.073 Cl
ATOM     21 CL   UNL d   1      -2.341  -1.686 -11.226  0.00  0.00    -0.073 Cl
ATOM     22 CL   UNL d   1      -4.896  -0.688 -10.210  0.00  0.00    -0.073 Cl
ENDBRANCH   1  19
TORSDOF 3
