REMARK  7 active torsions:
REMARK  status: ('A' for Active; 'I' for Inactive)
REMARK    1  A    between atoms: C_2  and  C_1 
REMARK    2  A    between atoms: C_15  and  N_3 
REMARK    3  A    between atoms: C_20  and  N_6 
REMARK    4  A    between atoms: S_14  and  C_7 
REMARK    5  A    between atoms: C_17  and  S_14 
REMARK    6  A    between atoms: C_16  and  C_17 
REMARK    7  A    between atoms: C_19  and  C_16 
ROOT
ATOM      1  C   UNL d   1      -0.070  -1.253   0.228  0.00  0.00     0.158 A 
ATOM      2  N   UNL d   1       1.243  -0.772   0.197  0.00  0.00    -0.274 N 
ATOM      3  N   UNL d   1      -0.911  -0.240   0.276  0.00  0.00    -0.281 N 
ATOM      4  HN  UNL d   1      -1.925  -0.310   0.367  1.00  0.00     0.188 HD
ATOM      5  C   UNL d   1       1.081   0.605   0.103  0.00  0.00     0.168 A 
ATOM      6  N   UNL d   1      -0.193   0.923   0.185  0.00  0.00    -0.278 N 
ATOM      7  HN  UNL d   1      -0.577   1.868   0.182  1.00  0.00     0.189 HD
ENDROOT
BRANCH   5   8
ATOM      8  S   UNL d   1       2.370   1.760  -0.030  0.00  0.00    -0.084 SA
BRANCH   8   9
ATOM      9  C   UNL d   1       1.661   3.248   0.704  0.00  0.00     0.166 C 
BRANCH   9  10
ATOM     10  C   UNL d   1       1.629   3.203   2.223  0.00  0.00     0.169 C 
ATOM     11  O   UNL d   1       1.813   2.179   2.880  0.00  0.00    -0.291 OA
BRANCH  10  12
ATOM     12  C   UNL d   1       1.354   4.484   2.952  0.00  0.00     0.010 A 
ATOM     13  C   UNL d   1       1.222   5.715   2.294  0.00  0.00     0.015 A 
ATOM     14  C   UNL d   1       0.983   6.883   3.023  0.00  0.00     0.001 A 
ATOM     15  C   UNL d   1       0.866   6.831   4.411  0.00  0.00     0.000 A 
ATOM     16  C   UNL d   1       0.991   5.613   5.074  0.00  0.00     0.001 A 
ATOM     17  C   UNL d   1       1.237   4.444   4.349  0.00  0.00     0.015 A 
ENDBRANCH  10  12
ENDBRANCH   9  10
ENDBRANCH   8   9
ENDBRANCH   5   8
BRANCH   2  18
ATOM     18  C   UNL d   1       2.446  -1.537   0.288  0.00  0.00     0.043 A 
ATOM     19  C   UNL d   1       3.585  -1.192  -0.450  0.00  0.00     0.030 A 
ATOM     20  C   UNL d   1       4.762  -1.936  -0.324  0.00  0.00     0.002 A 
ATOM     21  C   UNL d   1       4.805  -3.039   0.522  0.00  0.00     0.000 A 
ATOM     22  C   UNL d   1       3.673  -3.403   1.245  0.00  0.00     0.002 A 
ATOM     23  C   UNL d   1       2.499  -2.652   1.139  0.00  0.00     0.030 A 
ENDBRANCH   2  18
BRANCH   1  24
ATOM     24  C   UNL d   1      -0.494  -2.615   0.070  0.00  0.00     0.098 A 
ATOM     25  N   UNL d   1      -1.597  -3.187   0.659  0.00  0.00    -0.289 N 
ATOM     26  N   UNL d   1      -1.709  -4.512   0.401  0.00  0.00    -0.303 N 
ATOM     27  C   UNL d   1      -0.704  -4.774  -0.438  0.00  0.00     0.024 A 
ATOM     28  HN  UNL d   1      -2.405  -5.163   0.766  1.00  0.00     0.186 HD
ATOM     29  C   UNL d   1       0.057  -3.619  -0.706  0.00  0.00     0.061 A 
ATOM     30  C   UNL d   1      -0.486  -6.146  -0.950  0.00  0.00     0.070 C 
BRANCH  25  31
ATOM     31  C   UNL d   1      -2.582  -2.584   1.540  0.00  0.00     0.145 C 
ATOM     32  C   UNL d   1      -3.830  -2.151   0.792  0.00  0.00     0.028 C 
ENDBRANCH  25  31
ENDBRANCH   1  24
TORSDOF 7
