REMARK  3 active torsions:
REMARK  status: ('A' for Active; 'I' for Inactive)
REMARK    1  A    between atoms: C_11  and  C_7 
REMARK    2  A    between atoms: O_17  and  C_8 
REMARK    3  A    between atoms: O_18  and  C_13 
ROOT
ATOM      1  C   UNL d   1       1.328   0.023  -0.638  0.00  0.00     0.101 A 
ATOM      2  N   UNL d   1      -0.614  -1.350  -1.043  0.00  0.00    -0.275 N 
ATOM      3  N   UNL d   1      -0.624   0.839  -1.792  0.00  0.00    -0.275 N 
ATOM      4  C   UNL d   1       0.635  -1.283  -0.494  0.00  0.00     0.265 A 
ATOM      5  C   UNL d   1       0.644   1.124  -1.369  0.00  0.00     0.265 A 
ATOM      6  C   UNL d   1      -1.276  -0.349  -1.680  0.00  0.00     0.329 A 
ATOM      7  C   UNL d   1       2.544   0.128  -0.065  0.00  0.00     0.034 C 
ATOM      8  O   UNL d   1       1.140   2.216  -1.615  0.00  0.00    -0.267 OA
ATOM      9  O   UNL d   1       1.122  -2.250   0.082  0.00  0.00    -0.267 OA
ATOM     10  O   UNL d   1      -2.403  -0.510  -2.136  0.00  0.00    -0.246 OA
ATOM     11  H   UNL d   1      -1.102  -2.230  -0.954  0.00  0.00     0.173 HD
ATOM     12  H   UNL d   1      -1.105   1.572  -2.291  0.00  0.00     0.173 HD
ENDROOT
BRANCH   7  13
ATOM     13  C   UNL d   1       3.370   1.337  -0.016  0.00  0.00    -0.032 A 
ATOM     14  C   UNL d   1       3.208   2.230   1.052  0.00  0.00     0.051 A 
ATOM     15  C   UNL d   1       3.925   3.430   1.090  0.00  0.00     0.102 A 
ATOM     16  C   UNL d   1       4.827   3.707   0.053  0.00  0.00     0.099 A 
ATOM     17  C   UNL d   1       5.016   2.808  -0.998  0.00  0.00     0.040 A 
ATOM     18  C   UNL d   1       4.284   1.621  -1.033  0.00  0.00     0.014 A 
BRANCH  15  19
ATOM     19  O   UNL d   1       3.803   4.381   2.069  0.00  0.00    -0.353 OA
ATOM     20  C   UNL d   1       2.880   4.118   3.117  0.00  0.00     0.210 C 
ENDBRANCH  15  19
BRANCH  16  21
ATOM     21  O   UNL d   1       5.531   4.882   0.075  0.00  0.00    -0.358 OA
ATOM     22  H   UNL d   1       6.066   4.944  -0.731  0.00  0.00     0.217 HD
ENDBRANCH  16  21
ENDBRANCH   7  13
TORSDOF 3
