REMARK  5 active torsions:
REMARK  status: ('A' for Active; 'I' for Inactive)
REMARK    1  A    between atoms: S_13  and  C_5 
REMARK    2  A    between atoms: C_12  and  C_7 
REMARK    3  A    between atoms: O_17  and  C_12 
REMARK    4  A    between atoms: C_15  and  S_13 
REMARK    5  A    between atoms: C_25  and  O_17 
ROOT
ATOM      1  C   UNL d   1       0.201  -0.787  -0.018  0.00  0.00     0.051 A 
ATOM      2  C   UNL d   1       0.165   0.603  -0.062  0.00  0.00     0.135 A 
ATOM      3  N   UNL d   1       2.357   0.009  -0.131  0.00  0.00    -0.301 N 
ATOM      4  HN  UNL d   1       3.373   0.069  -0.188  1.00  0.00     0.187 HD
ATOM      5  C   UNL d   1      -1.036  -1.474   0.058  0.00  0.00     0.039 A 
ATOM      6  N   UNL d   1       1.466   1.019  -0.106  0.00  0.00    -0.280 N 
ATOM      7  C   UNL d   1      -2.194  -0.682   0.170  0.00  0.00     0.073 A 
ATOM      8  C   UNL d   1       1.597  -1.094  -0.063  0.00  0.00     0.037 A 
ATOM      9  N   UNL d   1      -0.923   1.396  -0.046  0.00  0.00    -0.349 N 
ATOM     10  HN  UNL d   1      -0.881   2.413  -0.121  1.00  0.00     0.167 HD
ATOM     11  C   UNL d   1      -2.078   0.704   0.081  0.00  0.00     0.108 A 
ATOM     12  C   UNL d   1       1.942   2.379  -0.073  0.00  0.00     0.179 C 
ATOM     13  C   UNL d   1       2.263  -2.422  -0.021  0.00  0.00     0.070 C 
ENDROOT
BRANCH   5  14
ATOM     14  S   UNL d   1      -0.997  -3.246   0.047  0.00  0.00    -0.088 SA
BRANCH  14  15
ATOM     15  C   UNL d   1      -1.145  -3.696  -1.675  0.00  0.00     0.005 A 
ATOM     16  C   UNL d   1      -0.673  -2.913  -2.736  0.00  0.00     0.020 A 
ATOM     17  C   UNL d   1      -0.823  -3.341  -4.061  0.00  0.00     0.025 A 
ATOM     18  C   UNL d   1      -1.436  -4.561  -4.333  0.00  0.00     0.034 A 
ATOM     19  C   UNL d   1      -1.879  -5.368  -3.290  0.00  0.00     0.025 A 
ATOM     20 CL   UNL d   1      -1.647  -5.070  -5.961  0.00  0.00    -0.084 Cl
ATOM     21  C   UNL d   1      -1.730  -4.938  -1.968  0.00  0.00     0.020 A 
ENDBRANCH  14  15
ENDBRANCH   5  14
BRANCH   7  22
ATOM     22  C   UNL d   1      -3.557  -1.179   0.437  0.00  0.00     0.296 C 
ATOM     23  O   UNL d   1      -4.559  -0.650  -0.008  0.00  0.00    -0.259 OA
BRANCH  22  24
ATOM     24  O   UNL d   1      -3.510  -2.174   1.353  0.00  0.00    -0.318 OA
BRANCH  24  25
ATOM     25  C   UNL d   1      -4.771  -2.664   1.829  0.00  0.00     0.174 C 
ATOM     26  C   UNL d   1      -5.407  -3.597   0.816  0.00  0.00     0.034 C 
ENDBRANCH  24  25
ENDBRANCH  22  24
ENDBRANCH   7  22
TORSDOF 5
