REMARK  6 active torsions:
REMARK  status: ('A' for Active; 'I' for Inactive)
REMARK    1  A    between atoms: C_15  and  C_3 
REMARK    2  A    between atoms: C_18  and  C_6 
REMARK    3  A    between atoms: C_8  and  O_17 
REMARK    4  A    between atoms: C_9  and  S_16 
REMARK    5  A    between atoms: S_16  and  C_18 
REMARK    6  A    between atoms: O_17  and  C_24 
ROOT
ATOM      1  N   UNL d   1      -0.443  -0.468   0.110  0.00  0.00    -0.322 N 
ATOM      2  HN  UNL d   1      -1.181  -0.965   0.608  1.00  0.00     0.169 HD
ATOM      3  C   UNL d   1      -0.468   0.810  -0.418  0.00  0.00     0.137 A 
ATOM      4  N   UNL d   1       0.688   1.181  -0.988  0.00  0.00    -0.242 N 
ATOM      5  HN  UNL d   1       0.918   2.076  -1.419  1.00  0.00     0.196 HD
ATOM      6  C   UNL d   1       0.768  -0.883  -0.188  0.00  0.00     0.158 A 
ATOM      7  O   UNL d   1       1.500   0.061  -0.854  0.00  0.00    -0.222 OA
ENDROOT
BRANCH   3   8
ATOM      8  C   UNL d   1      -1.679   1.629  -0.425  0.00  0.00     0.010 A 
ATOM      9  C   UNL d   1      -2.852   1.156   0.177  0.00  0.00     0.018 A 
ATOM     10  C   UNL d   1      -4.045   1.879   0.072  0.00  0.00     0.038 A 
ATOM     11  C   UNL d   1      -4.090   3.076  -0.645  0.00  0.00     0.078 A 
ATOM     12  C   UNL d   1      -2.913   3.598  -1.175  0.00  0.00     0.038 A 
ATOM     13  C   UNL d   1      -1.717   2.872  -1.077  0.00  0.00     0.018 A 
BRANCH  11  14
ATOM     14  O   UNL d   1      -5.316   3.663  -0.714  0.00  0.00    -0.255 OA
BRANCH  14  15
ATOM     15  C   UNL d   1      -5.676   4.330  -1.917  0.00  0.00     0.530 C 
ATOM     16  F   UNL d   1      -4.814   4.134  -2.939  0.00  0.00    -0.144 F 
ATOM     17  F   UNL d   1      -6.889   3.881  -2.311  0.00  0.00    -0.144 F 
ATOM     18  F   UNL d   1      -5.775   5.657  -1.680  0.00  0.00    -0.144 F 
ENDBRANCH  14  15
ENDBRANCH  11  14
ENDBRANCH   3   8
BRANCH   6  19
ATOM     19  C   UNL d   1       1.372  -2.232   0.023  0.00  0.00     0.166 C 
BRANCH  19  20
ATOM     20  S   UNL d   1       3.196  -2.248  -0.089  0.00  0.00    -0.121 SA
BRANCH  20  21
ATOM     21  C   UNL d   1       3.555  -3.955   0.307  0.00  0.00     0.007 A 
ATOM     22  C   UNL d   1       4.239  -4.178   1.519  0.00  0.00     0.027 A 
ATOM     23  C   UNL d   1       4.668  -5.454   1.908  0.00  0.00    -0.039 A 
ATOM     24  C   UNL d   1       5.443  -5.620   3.187  0.00  0.00     0.050 C 
ATOM     25  C   UNL d   1       4.394  -6.533   1.064  0.00  0.00     0.040 A 
ATOM     26  C   UNL d   1       3.712  -6.330  -0.139  0.00  0.00     0.032 A 
ATOM     27 CL   UNL d   1       4.904  -8.137   1.447  0.00  0.00    -0.084 Cl
ATOM     28  C   UNL d   1       3.302  -5.045  -0.544  0.00  0.00    -0.044 A 
ATOM     29  C   UNL d   1       2.636  -4.942  -1.889  0.00  0.00     0.049 C 
ENDBRANCH  20  21
ENDBRANCH  19  20
ENDBRANCH   6  19
TORSDOF 6
