REMARK  5 active torsions:
REMARK  status: ('A' for Active; 'I' for Inactive)
REMARK    1  A    between atoms: S_10  and  C_2 
REMARK    2  A    between atoms: C_6  and  C_4 
REMARK    3  A    between atoms: O_13  and  C_6 
REMARK    4  A    between atoms: O_14  and  N_8 
REMARK    5  A    between atoms: C_18  and  O_13 
ROOT
ATOM      1  C   UNL d   1      -2.296   1.168   0.344  0.00  0.00     0.020 C 
ATOM      2  C   UNL d   1      -3.611   1.541   0.085  0.00  0.00     0.054 C 
ATOM      3  C   UNL d   1      -2.260  -0.145   1.000  0.00  0.00    -0.021 C 
ATOM      4  C   UNL d   1      -3.523  -0.660   1.254  0.00  0.00     0.088 C 
ATOM      5  S   UNL d   1      -4.724   0.470   0.837  0.00  0.00    -0.076 SA
ATOM      6  C   UNL d   1      -1.014   1.798  -0.032  0.00  0.00     0.044 C 
ATOM      7  N   UNL d   1      -0.722   3.049  -0.202  0.00  0.00    -0.271 N 
ATOM      8  HN  UNL d   1       0.187   3.360  -0.547  1.00  0.00     0.194 HD
ATOM      9  C   UNL d   1      -0.967  -0.877   1.278  0.00  0.00     0.041 C 
ATOM     10  C   UNL d   1       0.170   0.840  -0.156  0.00  0.00     0.060 C 
ATOM     11  C   UNL d   1       0.260   0.021   1.127  0.00  0.00     0.011 C 
ENDROOT
BRANCH   4  12
ATOM     12  C   UNL d   1      -3.863  -1.985   1.755  0.00  0.00     0.300 C 
ATOM     13  O   UNL d   1      -3.054  -2.883   1.973  0.00  0.00    -0.259 OA
BRANCH  12  14
ATOM     14  O   UNL d   1      -5.215  -2.143   1.853  0.00  0.00    -0.317 OA
BRANCH  14  15
ATOM     15  C   UNL d   1      -5.688  -3.494   1.921  0.00  0.00     0.174 C 
ATOM     16  C   UNL d   1      -5.831  -4.020   0.504  0.00  0.00     0.034 C 
ENDBRANCH  14  15
ENDBRANCH  12  14
ENDBRANCH   4  12
BRANCH   2  17
ATOM     17  S   UNL d   1      -4.264   2.903  -0.832  0.00  0.00    -0.126 SA
ATOM     18  C   UNL d   1      -5.295   2.092  -2.071  0.00  0.00     0.096 C 
ENDBRANCH   2  17
BRANCH   7  19
ATOM     19  O   UNL d   1      -1.743   3.934   0.123  0.00  0.00    -0.285 OA
ATOM     20  C   UNL d   1      -1.391   5.225  -0.362  0.00  0.00     0.237 C 
ENDBRANCH   7  19
TORSDOF 5
