REMARK  9 active torsions:
REMARK  status: ('A' for Active; 'I' for Inactive)
REMARK    1  A    between atoms: S_11  and  C_3 
REMARK    2  A    between atoms: C_7  and  C_5 
REMARK    3  A    between atoms: C_6  and  C_10 
REMARK    4  A    between atoms: C_12  and  C_7 
REMARK    5  A    between atoms: C_22  and  S_11 
REMARK    6  A    between atoms: O_23  and  C_12 
REMARK    7  A    between atoms: C_13  and  C_22 
REMARK       I    between atoms: N_14  and  C_13 
REMARK    8  A    between atoms: C_16  and  N_14 
REMARK    9  A    between atoms: C_29  and  O_23 
ROOT
ATOM      1  N   UNL d   1       1.292  -1.255   0.197  0.00  0.00    -0.352 N 
ATOM      2  HN  UNL d   1       1.333  -2.272   0.256  1.00  0.00     0.166 HD
ATOM      3  C   UNL d   1       2.395  -0.581   0.262  0.00  0.00     0.062 C 
ATOM      4  S   UNL d   1       1.191   1.798  -0.642  0.00  0.00    -0.116 SA
ATOM      5  C   UNL d   1       2.587   0.921   0.122  0.00  0.00     0.118 C 
ATOM      6  C   UNL d   1       0.042  -0.635   0.050  0.00  0.00     0.049 A 
ATOM      7  C   UNL d   1      -0.154   0.725  -0.212  0.00  0.00     0.028 A 
ATOM      8  C   UNL d   1      -1.086  -1.457   0.188  0.00  0.00     0.031 A 
ATOM      9  C   UNL d   1      -1.452   1.258  -0.227  0.00  0.00     0.021 A 
ATOM     10  C   UNL d   1      -2.379  -0.933   0.130  0.00  0.00     0.002 A 
ATOM     11  C   UNL d   1      -2.562   0.433  -0.047  0.00  0.00     0.002 A 
ENDROOT
BRANCH   3  12
ATOM     12  S   UNL d   1       3.903  -1.500   0.567  0.00  0.00    -0.106 SA
BRANCH  12  13
ATOM     13  C   UNL d   1       3.186  -3.099   1.037  0.00  0.00     0.183 C 
BRANCH  13  14
ATOM     14  C   UNL d   1       4.116  -4.068   1.750  0.00  0.00     0.231 C 
ATOM     15  N   UNL d   1       5.476  -3.948   1.511  0.00  0.00    -0.327 N 
ATOM     16  H   UNL d   1       5.784  -3.081   1.083  0.00  0.00     0.169 HD
ATOM     17  O   UNL d   1       3.612  -4.926   2.474  0.00  0.00    -0.272 OA
BRANCH  15  18
ATOM     18  C   UNL d   1       6.473  -4.801   2.051  0.00  0.00     0.035 A 
ATOM     19  C   UNL d   1       6.188  -6.076   2.554  0.00  0.00     0.045 A 
ATOM     20  C   UNL d   1       7.168  -6.852   3.196  0.00  0.00     0.050 A 
ATOM     21  C   UNL d   1       8.472  -6.348   3.290  0.00  0.00     0.016 A 
ATOM     22  C   UNL d   1       8.786  -5.109   2.732  0.00  0.00     0.003 A 
ATOM     23  C   UNL d   1       7.793  -4.344   2.105  0.00  0.00     0.029 A 
BRANCH  20  24
ATOM     24  C   UNL d   1       6.814  -8.182   3.812  0.00  0.00     0.417 C 
ATOM     25  F   UNL d   1       5.526  -8.570   3.593  0.00  0.00    -0.166 F 
ATOM     26  F   UNL d   1       7.590  -9.199   3.344  0.00  0.00    -0.166 F 
ATOM     27  F   UNL d   1       6.977  -8.185   5.165  0.00  0.00    -0.166 F 
ENDBRANCH  20  24
ENDBRANCH  15  18
ENDBRANCH  13  14
ENDBRANCH  12  13
ENDBRANCH   3  12
BRANCH   5  28
ATOM     28  C   UNL d   1       3.007   1.631   1.399  0.00  0.00     0.133 C 
BRANCH  28  29
ATOM     29  C   UNL d   1       2.084   1.429   2.564  0.00  0.00     0.260 C 
ATOM     30  O   UNL d   1       1.239   2.228   2.928  0.00  0.00    -0.265 OA
BRANCH  29  31
ATOM     31  O   UNL d   1       2.445   0.294   3.233  0.00  0.00    -0.322 OA
BRANCH  31  32
ATOM     32  C   UNL d   1       2.073   0.264   4.616  0.00  0.00     0.174 C 
ATOM     33  C   UNL d   1       3.128   1.031   5.397  0.00  0.00     0.034 C 
ENDBRANCH  31  32
ENDBRANCH  29  31
ENDBRANCH  28  29
ENDBRANCH   5  28
TORSDOF 9
