REMARK  4 active torsions:
REMARK  status: ('A' for Active; 'I' for Inactive)
REMARK    1  A    between atoms: C_2  and  C_1 
REMARK       I    between atoms: N_3  and  C_1 
REMARK       I    between atoms: C_4  and  N_3 
REMARK       I    between atoms: N_7  and  C_4 
REMARK    2  A    between atoms: O_16  and  C_5 
REMARK    3  A    between atoms: C_6  and  N_7 
REMARK    4  A    between atoms: O_19  and  C_8 
ROOT
ATOM      1  C   UNL d   1       0.837   0.029   0.145  0.00  0.00     0.265 C 
ATOM      2  N   UNL d   1      -0.115  -0.177   1.143  0.00  0.00    -0.275 N 
ATOM      3  C   UNL d   1      -1.497  -0.082   1.218  0.00  0.00     0.327 C 
ATOM      4  N   UNL d   1      -2.170  -0.531   0.112  0.00  0.00    -0.306 N 
ATOM      5  O   UNL d   1       2.038  -0.032   0.406  0.00  0.00    -0.267 OA
ATOM      6  O   UNL d   1      -2.014   0.297   2.267  0.00  0.00    -0.247 OA
ATOM      7  H   UNL d   1       0.304  -0.059   2.057  0.00  0.00     0.173 HD
ATOM      8  H   UNL d   1      -1.700  -1.317  -0.322  0.00  0.00     0.170 HD
ENDROOT
BRANCH   1   9
ATOM      9  C   UNL d   1       0.430   0.357  -1.232  0.00  0.00     0.100 A 
ATOM     10  C   UNL d   1      -0.143  -0.613  -2.066  0.00  0.00     0.104 A 
ATOM     11  C   UNL d   1      -0.623  -0.239  -3.328  0.00  0.00     0.045 A 
ATOM     12 BR   UNL d   1      -1.548  -1.463  -4.442  0.00  0.00    -0.048 Br
ATOM     13  C   UNL d   1      -0.454   1.070  -3.785  0.00  0.00     0.025 A 
ATOM     14  C   UNL d   1       0.198   2.010  -2.987  0.00  0.00     0.039 A 
ATOM     15  C   UNL d   1       0.670   1.651  -1.721  0.00  0.00     0.086 A 
BRANCH  10  16
ATOM     16  O   UNL d   1      -0.381  -1.888  -1.607  0.00  0.00    -0.353 OA
ATOM     17  C   UNL d   1       0.806  -2.685  -1.657  0.00  0.00     0.210 C 
ENDBRANCH  10  16
BRANCH  15  18
ATOM     18  O   UNL d   1       1.263   2.576  -0.904  0.00  0.00    -0.355 OA
ATOM     19  C   UNL d   1       2.360   3.277  -1.496  0.00  0.00     0.210 C 
ENDBRANCH  15  18
ENDBRANCH   1   9
BRANCH   4  20
ATOM     20  C   UNL d   1      -3.574  -0.470  -0.080  0.00  0.00     0.064 A 
ATOM     21  C   UNL d   1      -4.326   0.703   0.136  0.00  0.00     0.061 A 
ATOM     22 CL   UNL d   1      -3.616   2.227   0.556  0.00  0.00    -0.082 Cl
ATOM     23  C   UNL d   1      -5.700   0.723  -0.136  0.00  0.00     0.026 A 
ATOM     24  C   UNL d   1      -6.335  -0.401  -0.654  0.00  0.00     0.002 A 
ATOM     25  C   UNL d   1      -5.600  -1.558  -0.895  0.00  0.00     0.009 A 
ATOM     26  C   UNL d   1      -4.226  -1.614  -0.596  0.00  0.00    -0.034 A 
ATOM     27  C   UNL d   1      -3.520  -2.921  -0.867  0.00  0.00     0.050 C 
ENDBRANCH   4  20
TORSDOF 4
