REMARK  5 active torsions:
REMARK  status: ('A' for Active; 'I' for Inactive)
REMARK       I    between atoms: C_4  and  N_1 
REMARK       I    between atoms: C_5  and  N_1 
REMARK    1  A    between atoms: C_6  and  N_1 
REMARK    2  A    between atoms: C_2  and  C_4 
REMARK    3  A    between atoms: C_3  and  C_5 
REMARK    4  A    between atoms: C_25  and  C_11 
REMARK    5  A    between atoms: C_24  and  C_12 
ROOT
ATOM      1  N   UNL d   1       0.941   0.030  -0.230  0.00  0.00    -0.226 N 
ATOM      2  C   UNL d   1       0.166   1.067   0.339  0.00  0.00     0.271 C 
ATOM      3  C   UNL d   1       0.304  -1.166  -0.596  0.00  0.00     0.271 C 
ATOM      4  O   UNL d   1      -0.682   0.797   1.192  0.00  0.00    -0.266 OA
ATOM      5  O   UNL d   1       0.900  -2.159  -0.994  0.00  0.00    -0.266 OA
ENDROOT
BRANCH   1   6
ATOM      6  C   UNL d   1       2.403   0.213  -0.280  0.00  0.00     0.140 C 
ATOM      7  N   UNL d   1       2.818   1.448   0.133  0.00  0.00    -0.348 N 
ATOM      8  C   UNL d   1       4.111   1.831  -0.021  0.00  0.00     0.114 C 
ATOM      9  HN  UNL d   1       2.149   2.088   0.561  1.00  0.00     0.167 HD
ATOM     10  C   UNL d   1       5.057   0.999  -0.548  0.00  0.00     0.021 C 
ATOM     11  N   UNL d   1       4.721  -0.258  -0.868  0.00  0.00    -0.359 N 
ATOM     12  C   UNL d   1       6.461   1.429  -0.821  0.00  0.00     0.069 C 
ATOM     13  C   UNL d   1       3.421  -0.674  -0.702  0.00  0.00     0.051 C 
ATOM     14  HN  UNL d   1       5.424  -0.901  -1.232  1.00  0.00     0.165 HD
ATOM     15  C   UNL d   1       3.360  -2.142  -0.979  0.00  0.00     0.072 C 
ENDBRANCH   1   6
BRANCH   2  16
ATOM     16  C   UNL d   1       0.356   2.470  -0.068  0.00  0.00     0.093 A 
ATOM     17  C   UNL d   1       0.120   3.677   0.693  0.00  0.00     0.083 A 
ATOM     18  N   UNL d   1       0.386   4.759  -0.061  0.00  0.00    -0.259 N 
ATOM     19  O   UNL d   1       0.762   4.303  -1.291  0.00  0.00    -0.241 OA
ATOM     20  HN  UNL d   1       0.320   5.734   0.231  1.00  0.00     0.195 HD
ATOM     21  C   UNL d   1       0.725   2.950  -1.317  0.00  0.00     0.090 A 
ATOM     22  C   UNL d   1       1.062   2.361  -2.628  0.00  0.00     0.080 C 
BRANCH  17  23
ATOM     23  C   UNL d   1      -0.346   3.884   2.074  0.00  0.00    -0.006 A 
ATOM     24  C   UNL d   1      -1.112   5.023   2.392  0.00  0.00     0.014 A 
ATOM     25  C   UNL d   1      -1.585   5.240   3.690  0.00  0.00     0.001 A 
ATOM     26  C   UNL d   1      -1.298   4.321   4.693  0.00  0.00     0.000 A 
ATOM     27  C   UNL d   1      -0.519   3.202   4.404  0.00  0.00     0.001 A 
ATOM     28  C   UNL d   1      -0.033   2.993   3.108  0.00  0.00     0.014 A 
ENDBRANCH  17  23
ENDBRANCH   2  16
BRANCH   3  29
ATOM     29  C   UNL d   1      -1.146  -1.341  -0.545  0.00  0.00     0.093 A 
ATOM     30  C   UNL d   1      -1.837  -2.498  -0.025  0.00  0.00     0.083 A 
ATOM     31  N   UNL d   1      -3.145  -2.432  -0.315  0.00  0.00    -0.259 N 
ATOM     32  O   UNL d   1      -3.328  -1.275  -1.028  0.00  0.00    -0.241 OA
ATOM     33  HN  UNL d   1      -3.863  -3.109  -0.057  1.00  0.00     0.195 HD
ATOM     34  C   UNL d   1      -2.142  -0.634  -1.194  0.00  0.00     0.090 A 
ATOM     35  C   UNL d   1      -2.216   0.544  -2.074  0.00  0.00     0.080 C 
BRANCH  30  36
ATOM     36  C   UNL d   1      -1.303  -3.667   0.682  0.00  0.00    -0.006 A 
ATOM     37  C   UNL d   1      -1.780  -4.955   0.381  0.00  0.00     0.014 A 
ATOM     38  C   UNL d   1      -1.279  -6.079   1.046  0.00  0.00     0.001 A 
ATOM     39  C   UNL d   1      -0.296  -5.930   2.021  0.00  0.00     0.000 A 
ATOM     40  C   UNL d   1       0.182  -4.659   2.335  0.00  0.00     0.001 A 
ATOM     41  C   UNL d   1      -0.322  -3.533   1.675  0.00  0.00     0.014 A 
ENDBRANCH  30  36
ENDBRANCH   3  29
TORSDOF 5
