REMARK  3 active torsions:
REMARK  status: ('A' for Active; 'I' for Inactive)
REMARK       I    between atoms: N_3  and  C_1 
REMARK    1  A    between atoms: C_8  and  C_1 
REMARK    2  A    between atoms: C_2  and  N_4 
REMARK    3  A    between atoms: N_4  and  N_3 
ROOT
ATOM      1  N   UNL d   1       0.908  -2.228   1.002  0.00  0.00    -0.202 NA
ATOM      2  H   UNL d   1       1.935  -2.122   1.013  0.00  0.00     0.153 HD
ENDROOT
BRANCH   1   3
ATOM      3  C   UNL d   1       0.445  -2.730   2.252  0.00  0.00     0.051 A 
ATOM      4  C   UNL d   1      -0.918  -2.666   2.598  0.00  0.00     0.050 A 
ATOM      5  C   UNL d   1      -1.383  -3.232   3.785  0.00  0.00     0.035 A 
ATOM      6 CL   UNL d   1      -3.052  -3.116   4.186  0.00  0.00    -0.084 Cl
ATOM      7  C   UNL d   1      -0.513  -3.898   4.642  0.00  0.00     0.026 A 
ATOM      8  C   UNL d   1       0.838  -4.008   4.302  0.00  0.00     0.027 A 
ATOM      9  C   UNL d   1       1.307  -3.439   3.112  0.00  0.00     0.057 A 
ATOM     10 CL   UNL d   1       2.986  -3.612   2.736  0.00  0.00    -0.082 Cl
ENDBRANCH   1   3
BRANCH   1  11
ATOM     11  N   UNL d   1       0.282  -1.022   0.627  0.00  0.00    -0.286 N 
ATOM     12  C   UNL d   1       1.070  -0.055   0.024  0.00  0.00     0.246 C 
ATOM     13  O   UNL d   1       2.299  -0.132  -0.021  0.00  0.00    -0.271 OA
ATOM     14  H   UNL d   1      -0.671  -1.106   0.276  0.00  0.00     0.184 HD
BRANCH  12  15
ATOM     15  C   UNL d   1       0.316   1.184  -0.440  0.00  0.00     0.140 C 
ATOM     16  S   UNL d   1      -1.448   0.864  -0.833  0.00  0.00    -0.155 SA
ATOM     17  C   UNL d   1      -2.090   2.311   0.058  0.00  0.00     0.075 C 
ATOM     18  C   UNL d   1      -0.873   3.176   0.333  0.00  0.00     0.012 C 
ATOM     19  C   UNL d   1       0.269   2.231   0.666  0.00  0.00     0.025 C 
ENDBRANCH  12  15
ENDBRANCH   1  11
TORSDOF 3
