REMARK  8 active torsions:
REMARK  status: ('A' for Active; 'I' for Inactive)
REMARK    1  A    between atoms: C_2  and  C_1 
REMARK    2  A    between atoms: C_3  and  C_5 
REMARK    3  A    between atoms: C_6  and  C_4 
REMARK       I    between atoms: C_5  and  N_17 
REMARK    4  A    between atoms: O_20  and  C_6 
REMARK    5  A    between atoms: N_18  and  C_9 
REMARK    6  A    between atoms: N_17  and  C_23 
REMARK    7  A    between atoms: C_24  and  N_18 
REMARK    8  A    between atoms: C_23  and  C_24 
ROOT
ATOM      1  C   UNL d   1      -1.042  -7.476  -1.793  0.00  0.00     0.137 C 
ENDROOT
BRANCH   1   2
ATOM      2  N   UNL d   1      -0.278  -8.690  -1.541  0.00  0.00    -0.356 N 
ATOM      3  C   UNL d   1      -0.497  -9.865  -2.206  0.00  0.00     0.252 C 
ATOM      4  O   UNL d   1      -1.314  -9.981  -3.111  0.00  0.00    -0.268 OA
ATOM      5  H   UNL d   1       0.223  -8.714  -0.655  0.00  0.00     0.162 HD
BRANCH   3   6
ATOM      6  C   UNL d   1       0.394 -11.023  -1.869  0.00  0.00     0.048 A 
ATOM      7  C   UNL d   1       0.886 -11.380  -0.601  0.00  0.00     0.053 A 
ATOM      8  C   UNL d   1       1.779 -12.466  -0.475  0.00  0.00     0.019 A 
ATOM      9  C   UNL d   1       2.140 -13.226  -1.585  0.00  0.00     0.001 A 
ATOM     10  C   UNL d   1       1.620 -12.908  -2.834  0.00  0.00     0.001 A 
ATOM     11  C   UNL d   1       0.761 -11.818  -2.974  0.00  0.00     0.018 A 
BRANCH   7  12
ATOM     12  C   UNL d   1       0.537 -10.666   0.649  0.00  0.00     0.177 C 
ATOM     13  O   UNL d   1       0.564  -9.453   0.759  0.00  0.00    -0.646 OA
BRANCH  12  14
ATOM     14  O   UNL d   1       0.229 -11.491   1.673  0.00  0.00    -0.773 OA
ATOM     15  H   UNL d   1       0.159 -12.439   1.452  0.00  0.00     0.167 HD
ENDBRANCH  12  14
ENDBRANCH   7  12
ENDBRANCH   3   6
ENDBRANCH   1   2
BRANCH   1  16
ATOM     16  C   UNL d   1      -0.257  -6.238  -1.339  0.00  0.00     0.113 C 
BRANCH  16  17
ATOM     17  N   UNL d   1      -1.053  -5.027  -1.432  0.00  0.00    -0.277 NA
ATOM     18  H   UNL d   1      -1.567  -4.889  -2.299  0.00  0.00     0.129 HD
BRANCH  17  19
ATOM     19  C   UNL d   1      -0.479  -3.812  -1.096  0.00  0.00     0.079 A 
ATOM     20  C   UNL d   1       0.451  -3.657  -0.074  0.00  0.00     0.043 A 
ATOM     21  C   UNL d   1       0.909  -2.380   0.254  0.00  0.00     0.021 A 
ATOM     22  C   UNL d   1       0.413  -1.272  -0.430  0.00  0.00     0.063 A 
ATOM     23  C   UNL d   1      -0.500  -1.517  -1.441  0.00  0.00     0.105 A 
ATOM     24  N   UNL d   1      -0.943  -2.752  -1.784  0.00  0.00    -0.356 N 
ATOM     25  HN  UNL d   1      -1.612  -2.875  -2.545  1.00  0.00     0.166 HD
BRANCH  22  26
ATOM     26  C   UNL d   1       0.826   0.120  -0.076  0.00  0.00     0.418 C 
ATOM     27  F   UNL d   1       0.213   1.082  -0.821  0.00  0.00    -0.166 F 
ATOM     28  F   UNL d   1       2.163   0.326  -0.231  0.00  0.00    -0.166 F 
ATOM     29  F   UNL d   1       0.552   0.428   1.223  0.00  0.00    -0.166 F 
ENDBRANCH  22  26
ENDBRANCH  17  19
ENDBRANCH  16  17
ENDBRANCH   1  16
TORSDOF 8
