REMARK  8 active torsions:
REMARK  status: ('A' for Active; 'I' for Inactive)
REMARK    1  A    between atoms: N_3  and  S_1 
REMARK    2  A    between atoms: C_5  and  S_1 
REMARK    3  A    between atoms: S_2  and  C_4 
REMARK    4  A    between atoms: C_9  and  S_2 
REMARK    5  A    between atoms: C_6  and  N_3 
REMARK    6  A    between atoms: C_7  and  N_3 
REMARK    7  A    between atoms: C_4  and  C_7 
REMARK    8  A    between atoms: C_8  and  C_6 
ROOT
ATOM      1  N   UNL d   1       0.349  -1.401  -0.280  0.00  0.00    -0.201 NA
ENDROOT
BRANCH   1   2
ATOM      2  S   UNL d   1       1.278  -0.008   0.113  0.00  0.00     0.244 S 
ATOM      3  O   UNL d   1       0.714   1.145  -0.553  0.00  0.00    -0.206 OA
ATOM      4  O   UNL d   1       2.672  -0.348  -0.063  0.00  0.00    -0.206 OA
BRANCH   2   5
ATOM      5  C   UNL d   1       1.055   0.210   1.867  0.00  0.00     0.074 A 
ATOM      6  C   UNL d   1       1.718  -0.662   2.738  0.00  0.00     0.026 A 
ATOM      7  C   UNL d   1       1.730  -0.391   4.107  0.00  0.00     0.025 A 
ATOM      8  C   UNL d   1       1.087   0.748   4.595  0.00  0.00     0.034 A 
ATOM      9  C   UNL d   1       0.418   1.613   3.727  0.00  0.00     0.025 A 
ATOM     10 CL   UNL d   1       1.151   1.108   6.276  0.00  0.00    -0.084 Cl
ATOM     11  C   UNL d   1       0.403   1.347   2.354  0.00  0.00     0.026 A 
ENDBRANCH   2   5
ENDBRANCH   1   2
BRANCH   1  12
ATOM     12  C   UNL d   1      -1.139  -1.267  -0.176  0.00  0.00     0.153 C 
BRANCH  12  13
ATOM     13  C   UNL d   1      -1.775  -0.513  -1.313  0.00  0.00    -0.004 C 
ATOM     14  S   UNL d   1      -2.223  -1.298  -2.776  0.00  0.00    -0.105 SA
ATOM     15  C   UNL d   1      -2.630   0.178  -3.528  0.00  0.00     0.050 C 
ATOM     16  C   UNL d   1      -2.592   1.228  -2.641  0.00  0.00     0.008 C 
ATOM     17  C   UNL d   1      -2.143   0.820  -1.352  0.00  0.00     0.016 C 
ENDBRANCH  12  13
ENDBRANCH   1  12
BRANCH   1  18
ATOM     18  C   UNL d   1       0.863  -2.085  -1.518  0.00  0.00     0.123 C 
BRANCH  18  19
ATOM     19  C   UNL d   1       0.353  -3.505  -1.687  0.00  0.00     0.161 C 
BRANCH  19  20
ATOM     20  S   UNL d   1       0.943  -4.220  -3.209  0.00  0.00     0.176 S 
ATOM     21  O   UNL d   1       0.467  -5.589  -3.276  0.00  0.00    -0.223 OA
ATOM     22  O   UNL d   1       0.671  -3.292  -4.288  0.00  0.00    -0.223 OA
BRANCH  20  23
ATOM     23  C   UNL d   1       2.707  -4.313  -3.006  0.00  0.00     0.059 A 
ATOM     24  C   UNL d   1       3.232  -5.206  -2.068  0.00  0.00     0.025 A 
ATOM     25  C   UNL d   1       4.614  -5.278  -1.889  0.00  0.00     0.025 A 
ATOM     26  C   UNL d   1       5.456  -4.470  -2.654  0.00  0.00     0.034 A 
ATOM     27  C   UNL d   1       4.930  -3.590  -3.600  0.00  0.00     0.025 A 
ATOM     28 CL   UNL d   1       7.159  -4.567  -2.431  0.00  0.00    -0.084 Cl
ATOM     29  C   UNL d   1       3.548  -3.509  -3.784  0.00  0.00     0.025 A 
ENDBRANCH  20  23
ENDBRANCH  19  20
ENDBRANCH  18  19
ENDBRANCH   1  18
TORSDOF 8
