REMARK  3 active torsions:
REMARK  status: ('A' for Active; 'I' for Inactive)
REMARK    1  A    between atoms: C_14  and  C_5 
REMARK    2  A    between atoms: C_13  and  C_6 
REMARK    3  A    between atoms: C_11  and  C_13 
ROOT
ATOM      1  N   UNL d   1      -5.126  -2.423   0.801  0.00  0.00    -0.277 N 
ATOM      2  HN  UNL d   1      -5.964  -2.494   1.378  1.00  0.00     0.189 HD
ATOM      3  C   UNL d   1      -5.041  -1.889  -0.399  0.00  0.00     0.174 A 
ATOM      4  O   UNL d   1      -3.772  -1.964  -0.917  0.00  0.00    -0.277 OA
ATOM      5  N   UNL d   1      -3.858  -2.870   1.127  0.00  0.00    -0.281 N 
ATOM      6  HN  UNL d   1      -3.576  -3.334   1.990  1.00  0.00     0.189 HD
ATOM      7  C   UNL d   1      -3.090  -2.579   0.100  0.00  0.00     0.144 A 
ENDROOT
BRANCH   7   8
ATOM      8  C   UNL d   1      -1.619  -2.702  -0.054  0.00  0.00     0.126 C 
BRANCH   8   9
ATOM      9  C   UNL d   1      -1.165  -4.080  -0.450  0.00  0.00    -0.024 A 
ATOM     10  C   UNL d   1      -0.956  -4.554  -1.731  0.00  0.00     0.059 A 
ATOM     11  S   UNL d   1      -0.376  -6.152  -1.787  0.00  0.00    -0.075 SA
ATOM     12 BR   UNL d   1      -1.245  -3.568  -3.305  0.00  0.00    -0.042 Br
ATOM     13  C   UNL d   1      -0.395  -6.257  -0.099  0.00  0.00     0.053 A 
ATOM     14 BR   UNL d   1       0.151  -7.781   0.842  0.00  0.00    -0.043 Br
ATOM     15  C   UNL d   1      -0.841  -5.111   0.508  0.00  0.00     0.036 A 
ENDBRANCH   8   9
ENDBRANCH   7   8
BRANCH   3  16
ATOM     16  C   UNL d   1      -6.035  -1.180  -1.197  0.00  0.00     0.017 A 
ATOM     17  C   UNL d   1      -5.736  -0.702  -2.485  0.00  0.00     0.017 A 
ATOM     18  C   UNL d   1      -6.678   0.026  -3.217  0.00  0.00     0.025 A 
ATOM     19  C   UNL d   1      -7.933   0.282  -2.669  0.00  0.00     0.034 A 
ATOM     20  C   UNL d   1      -8.256  -0.196  -1.401  0.00  0.00     0.025 A 
ATOM     21 CL   UNL d   1      -9.082   1.202  -3.559  0.00  0.00    -0.084 Cl
ATOM     22  C   UNL d   1      -7.310  -0.925  -0.670  0.00  0.00     0.017 A 
ENDBRANCH   3  16
TORSDOF 3
