REMARK  2 active torsions:
REMARK  status: ('A' for Active; 'I' for Inactive)
REMARK    1  A    between atoms: N_7  and  C_1 
REMARK       I    between atoms: C_6  and  N_7 
REMARK       I    between atoms: N_9  and  C_6 
REMARK       I    between atoms: C_10  and  N_9 
REMARK       I    between atoms: N_11  and  C_10 
REMARK    2  A    between atoms: C_16  and  N_11 
ROOT
ATOM      1  C   UNL d   1       1.343  -3.090  -1.290  0.00  0.00     0.681 C 
ATOM      2  N   UNL d   1       1.069  -4.044  -2.228  0.00  0.00    -0.170 N 
ATOM      3  N   UNL d   1       1.993  -3.442  -0.130  0.00  0.00    -0.141 N 
ATOM      4  C   UNL d   1       2.024  -2.721   1.037  0.00  0.00     0.339 C 
ATOM      5  N   UNL d   1       2.900  -3.137   2.001  0.00  0.00    -0.308 N 
ATOM      6  N   UNL d   1       1.019  -1.859  -1.487  0.00  0.00    -0.234 N 
ATOM      7  HN  UNL d   1       1.226  -1.106  -0.831  1.00  0.00     0.174 HD
ATOM      8  O   UNL d   1       1.222  -1.844   1.358  0.00  0.00    -0.246 OA
ATOM      9  H   UNL d   1       0.568  -3.707  -3.037  0.00  0.00     0.186 HD
ATOM     10  H   UNL d   1       2.256  -4.415  -0.051  0.00  0.00     0.189 HD
ATOM     11  H   UNL d   1       2.645  -2.739   2.897  0.00  0.00     0.170 HD
ATOM     12  H   UNL d   1       0.532  -1.724  -2.371  0.00  0.00     0.174 HD
ENDROOT
BRANCH   2  13
ATOM     13  C   UNL d   1       1.286  -5.377  -2.198  0.00  0.00     0.165 A 
ATOM     14  S   UNL d   1       0.751  -6.342  -3.525  0.00  0.00    -0.044 SA
ATOM     15  C   UNL d   1       1.356  -7.721  -2.750  0.00  0.00     0.077 A 
ATOM     16 BR   UNL d   1       1.246  -9.437  -3.490  0.00  0.00    -0.041 Br
ATOM     17  C   UNL d   1       1.923  -7.405  -1.536  0.00  0.00     0.032 A 
ATOM     18  N   UNL d   1       1.884  -6.045  -1.233  0.00  0.00    -0.338 N 
ATOM     19  C   UNL d   1       2.552  -8.333  -0.559  0.00  0.00     0.070 C 
ATOM     20  HN  UNL d   1       2.266  -5.626  -0.385  1.00  0.00     0.168 HD
ENDBRANCH   2  13
BRANCH   5  21
ATOM     21  C   UNL d   1       4.079  -3.895   1.961  0.00  0.00     0.036 A 
ATOM     22  C   UNL d   1       4.818  -4.134   0.801  0.00  0.00     0.031 A 
ATOM     23  C   UNL d   1       6.016  -4.856   0.870  0.00  0.00     0.026 A 
ATOM     24  C   UNL d   1       6.471  -5.344   2.094  0.00  0.00     0.034 A 
ATOM     25  C   UNL d   1       5.748  -5.102   3.256  0.00  0.00     0.026 A 
ATOM     26 CL   UNL d   1       7.941  -6.234   2.172  0.00  0.00    -0.084 Cl
ATOM     27  C   UNL d   1       4.562  -4.367   3.190  0.00  0.00     0.031 A 
ENDBRANCH   5  21
TORSDOF 2
