REMARK  4 active torsions:
REMARK  status: ('A' for Active; 'I' for Inactive)
REMARK    1  A    between atoms: S_7  and  C_2 
REMARK    2  A    between atoms: C_9  and  C_4 
REMARK    3  A    between atoms: C_8  and  S_7 
REMARK    4  A    between atoms: O_19  and  C_9 
ROOT
ATOM      1  C   UNL d   1       0.145  -0.779   0.079  0.00  0.00     0.042 A 
ATOM      2  C   UNL d   1       1.259  -1.585  -0.044  0.00  0.00     0.062 A 
ATOM      3  C   UNL d   1       0.467   0.629  -0.021  0.00  0.00    -0.018 A 
ATOM      4  C   UNL d   1       1.840   0.835  -0.136  0.00  0.00     0.088 A 
ATOM      5  S   UNL d   1       2.683  -0.659  -0.186  0.00  0.00    -0.075 SA
ATOM      6  C   UNL d   1      -1.231  -1.229   0.255  0.00  0.00     0.162 C 
ATOM      7  C   UNL d   1      -0.614   1.695  -0.006  0.00  0.00     0.050 C 
ATOM      8  C   UNL d   1      -2.021   1.158   0.404  0.00  0.00    -0.037 C 
ATOM      9  C   UNL d   1      -2.275  -0.236  -0.211  0.00  0.00     0.093 C 
ATOM     10  O   UNL d   1      -1.546  -2.307   0.748  0.00  0.00    -0.292 OA
ATOM     11  C   UNL d   1      -3.115   2.113  -0.111  0.00  0.00     0.015 C 
ATOM     12  C   UNL d   1      -2.141   1.089   1.941  0.00  0.00     0.015 C 
ENDROOT
BRANCH   2  13
ATOM     13  S   UNL d   1       1.332  -3.347  -0.067  0.00  0.00    -0.075 SA
BRANCH  13  14
ATOM     14  C   UNL d   1       1.246  -3.573  -1.815  0.00  0.00     0.046 A 
ATOM     15  S   UNL d   1      -0.101  -3.109  -2.768  0.00  0.00    -0.095 SA
ATOM     16  C   UNL d   1       0.622  -3.701  -4.200  0.00  0.00     0.051 A 
ATOM     17  C   UNL d   1       1.856  -4.263  -3.959  0.00  0.00     0.009 A 
ATOM     18  C   UNL d   1       2.210  -4.198  -2.579  0.00  0.00     0.027 A 
ENDBRANCH  13  14
ENDBRANCH   2  13
BRANCH   4  19
ATOM     19  C   UNL d   1       2.560   2.102  -0.222  0.00  0.00     0.300 C 
ATOM     20  O   UNL d   1       2.032   3.211  -0.258  0.00  0.00    -0.259 OA
BRANCH  19  21
ATOM     21  O   UNL d   1       3.913   1.910  -0.233  0.00  0.00    -0.322 OA
ATOM     22  C   UNL d   1       4.699   3.098  -0.257  0.00  0.00     0.213 C 
ENDBRANCH  19  21
ENDBRANCH   4  19
TORSDOF 4
