REMARK  3 active torsions:
REMARK  status: ('A' for Active; 'I' for Inactive)
REMARK    1  A    between atoms: C_6  and  N_1 
REMARK    2  A    between atoms: C_3  and  C_5 
REMARK    3  A    between atoms: C_7  and  C_4 
ROOT
ATOM      1  N   UNL d   1       0.977   0.125  -0.001  0.00  0.00    -0.366 N 
ATOM      2  HN  UNL d   1       0.506  -0.778   0.052  1.00  0.00     0.165 HD
ATOM      3  C   UNL d   1       0.288   1.215  -0.085  0.00  0.00     0.088 C 
ENDROOT
BRANCH   3   4
ATOM      4  C   UNL d   1      -1.188   1.164  -0.065  0.00  0.00     0.018 C 
ATOM      5  C   UNL d   1      -1.903   2.296  -0.010  0.00  0.00     0.013 C 
BRANCH   5   6
ATOM      6  C   UNL d   1      -3.374   2.338   0.059  0.00  0.00    -0.036 A 
ATOM      7  C   UNL d   1      -4.128   1.326   0.669  0.00  0.00     0.011 A 
ATOM      8  C   UNL d   1      -5.522   1.423   0.751  0.00  0.00     0.001 A 
ATOM      9  C   UNL d   1      -6.175   2.540   0.234  0.00  0.00     0.000 A 
ATOM     10  C   UNL d   1      -5.436   3.560  -0.360  0.00  0.00     0.001 A 
ATOM     11  C   UNL d   1      -4.045   3.461  -0.444  0.00  0.00     0.011 A 
ENDBRANCH   5   6
ENDBRANCH   3   4
BRANCH   1  12
ATOM     12  C   UNL d   1       2.380   0.193   0.018  0.00  0.00     0.031 A 
ATOM     13  C   UNL d   1       3.099   1.140   0.758  0.00  0.00     0.029 A 
ATOM     14  C   UNL d   1       4.497   1.112   0.789  0.00  0.00     0.002 A 
ATOM     15  C   UNL d   1       5.190   0.123   0.094  0.00  0.00     0.000 A 
ATOM     16  C   UNL d   1       4.487  -0.835  -0.632  0.00  0.00     0.002 A 
ATOM     17  C   UNL d   1       3.090  -0.797  -0.667  0.00  0.00     0.029 A 
ENDBRANCH   1  12
TORSDOF 3
