REMARK  3 active torsions:
REMARK  status: ('A' for Active; 'I' for Inactive)
REMARK    1  A    between atoms: C_2  and  C_1 
REMARK    2  A    between atoms: C_15  and  C_7 
REMARK    3  A    between atoms: C_14  and  N_13 
ROOT
ATOM      1  C   UNL d   1       0.397  -2.684  -0.155  0.00  0.00     0.056 A 
ATOM      2  N   UNL d   1       1.514  -3.036   0.569  0.00  0.00    -0.335 N 
ATOM      3  HN  UNL d   1       2.053  -2.395   1.150  1.00  0.00     0.168 HD
ATOM      4  C   UNL d   1       1.792  -4.310   0.409  0.00  0.00     0.149 A 
ATOM      5  S   UNL d   1       0.721  -5.154  -0.648  0.00  0.00    -0.064 SA
ATOM      6  C   UNL d   1      -0.188  -3.715  -0.860  0.00  0.00     0.083 A 
ATOM      7  N   UNL d   1       2.825  -4.955   0.994  0.00  0.00    -0.335 N 
ATOM      8  H   UNL d   1       3.186  -5.806   0.580  0.00  0.00     0.168 HD
ENDROOT
BRANCH   1   9
ATOM      9  C   UNL d   1      -0.036  -1.298  -0.074  0.00  0.00     0.052 A 
ATOM     10  C   UNL d   1      -1.361  -0.784  -0.000  0.00  0.00     0.080 A 
ATOM     11  N   UNL d   1      -1.332   0.561  -0.000  0.00  0.00    -0.259 N 
ATOM     12  O   UNL d   1      -0.001   0.925   0.000  0.00  0.00    -0.241 OA
ATOM     13  HN  UNL d   1      -2.136   1.189  -0.001  1.00  0.00     0.195 HD
ATOM     14  C   UNL d   1       0.777  -0.185  -0.022  0.00  0.00     0.087 A 
ATOM     15  C   UNL d   1       2.238   0.029   0.003  0.00  0.00     0.080 C 
BRANCH  10  16
ATOM     16  C   UNL d   1      -2.638  -1.500   0.082  0.00  0.00    -0.007 A 
ATOM     17  C   UNL d   1      -3.781  -0.988  -0.548  0.00  0.00     0.014 A 
ATOM     18  C   UNL d   1      -4.985  -1.695  -0.517  0.00  0.00     0.001 A 
ATOM     19  C   UNL d   1      -5.060  -2.925   0.136  0.00  0.00     0.000 A 
ATOM     20  C   UNL d   1      -3.942  -3.432   0.789  0.00  0.00     0.001 A 
ATOM     21  C   UNL d   1      -2.747  -2.708   0.787  0.00  0.00     0.014 A 
ENDBRANCH  10  16
ENDBRANCH   1   9
BRANCH   7  22
ATOM     22  C   UNL d   1       3.408  -4.610   2.233  0.00  0.00     0.056 A 
ATOM     23  C   UNL d   1       4.764  -4.891   2.495  0.00  0.00     0.060 A 
ATOM     24 CL   UNL d   1       5.746  -5.683   1.312  0.00  0.00    -0.082 Cl
ATOM     25  C   UNL d   1       5.354  -4.522   3.707  0.00  0.00     0.026 A 
ATOM     26  C   UNL d   1       4.603  -3.868   4.683  0.00  0.00     0.002 A 
ATOM     27  C   UNL d   1       3.266  -3.567   4.438  0.00  0.00     0.002 A 
ATOM     28  C   UNL d   1       2.682  -3.921   3.222  0.00  0.00     0.031 A 
ENDBRANCH   7  22
TORSDOF 3
