REMARK  3 active torsions:
REMARK  status: ('A' for Active; 'I' for Inactive)
REMARK    1  A    between atoms: C_2  and  S_1 
REMARK    2  A    between atoms: C_5  and  S_1 
REMARK    3  A    between atoms: N_11  and  C_8 
ROOT
ATOM      1  C   UNL d   1      -0.467  -0.327  -1.143  0.00  0.00     0.158 C 
ATOM      2  C   UNL d   1      -1.765   0.004  -0.695  0.00  0.00     0.113 C 
ATOM      3  N   UNL d   1      -2.835   0.275  -0.337  0.00  0.00    -0.191 NA
ATOM      4  C   UNL d   1      -0.208  -0.831  -2.362  0.00  0.00     0.116 C 
ENDROOT
BRANCH   1   5
ATOM      5  S   UNL d   1       0.879   0.010  -0.103  0.00  0.00     0.218 S 
ATOM      6  O   UNL d   1       1.213   1.419  -0.209  0.00  0.00    -0.216 OA
ATOM      7  O   UNL d   1       1.919  -0.986  -0.302  0.00  0.00    -0.216 OA
BRANCH   5   8
ATOM      8  C   UNL d   1       0.273  -0.252   1.557  0.00  0.00     0.065 A 
ATOM      9  C   UNL d   1       0.325  -1.534   2.116  0.00  0.00     0.025 A 
ATOM     10  C   UNL d   1      -0.081  -1.723   3.439  0.00  0.00     0.025 A 
ATOM     11  C   UNL d   1      -0.524  -0.636   4.194  0.00  0.00     0.034 A 
ATOM     12  C   UNL d   1      -0.563   0.644   3.638  0.00  0.00     0.025 A 
ATOM     13 CL   UNL d   1      -1.007  -0.871   5.828  0.00  0.00    -0.084 Cl
ATOM     14  C   UNL d   1      -0.157   0.842   2.317  0.00  0.00     0.025 A 
ENDBRANCH   5   8
ENDBRANCH   1   5
BRANCH   4  15
ATOM     15  N   UNL d   1      -1.072  -1.168  -3.380  0.00  0.00    -0.406 N 
ATOM     16  H   UNL d   1      -2.009  -0.767  -3.342  0.00  0.00     0.155 HD
ATOM     17  H   UNL d   1      -0.667  -1.142  -4.317  0.00  0.00     0.155 HD
ENDBRANCH   4  15
TORSDOF 3
