REMARK  3 active torsions:
REMARK  status: ('A' for Active; 'I' for Inactive)
REMARK    1  A    between atoms: N_4  and  N_1 
REMARK    2  A    between atoms: S_2  and  N_4 
REMARK    3  A    between atoms: C_11  and  S_2 
ROOT
ATOM      1  N   UNL d   1       3.340  -1.539  -0.175  0.00  0.00    -0.208 N 
ATOM      2  C   UNL d   1       4.549  -0.703   0.036  0.00  0.00     0.192 C 
ENDROOT
BRANCH   1   3
ATOM      3  S   UNL d   1       3.584  -3.225   0.068  0.00  0.00     0.278 S 
ATOM      4  O   UNL d   1       2.377  -3.970  -0.210  0.00  0.00    -0.199 OA
ATOM      5  O   UNL d   1       4.827  -3.599  -0.575  0.00  0.00    -0.199 OA
BRANCH   3   6
ATOM      6  C   UNL d   1       3.848  -3.339   1.829  0.00  0.00     0.081 A 
ATOM      7  C   UNL d   1       2.756  -3.588   2.670  0.00  0.00     0.027 A 
ATOM      8  C   UNL d   1       2.968  -3.768   4.038  0.00  0.00     0.025 A 
ATOM      9  C   UNL d   1       4.263  -3.707   4.555  0.00  0.00     0.034 A 
ATOM     10  C   UNL d   1       5.353  -3.475   3.714  0.00  0.00     0.025 A 
ATOM     11 CL   UNL d   1       4.520  -3.938   6.240  0.00  0.00    -0.084 Cl
ATOM     12  C   UNL d   1       5.149  -3.301   2.343  0.00  0.00     0.027 A 
ENDBRANCH   3   6
ENDBRANCH   1   3
BRANCH   1  13
ATOM     13  N   UNL d   1       1.962  -0.906   0.044  0.00  0.00    -0.203 N 
ATOM     14  C   UNL d   1       1.860   0.415   0.540  0.00  0.00     0.287 C 
ATOM     15  C   UNL d   1       0.492   0.823   0.711  0.00  0.00     0.101 A 
ATOM     16  O   UNL d   1       2.813   1.142   0.804  0.00  0.00    -0.265 OA
ATOM     17  S   UNL d   1       0.003   2.308   1.373  0.00  0.00    -0.094 SA
ATOM     18  C   UNL d   1      -0.570   0.046   0.352  0.00  0.00     0.056 A 
ATOM     19  C   UNL d   1      -1.657   1.891   1.196  0.00  0.00     0.053 A 
ATOM     20  C   UNL d   1      -1.821   0.639   0.632  0.00  0.00     0.038 A 
ATOM     21  N   UNL d   1      -0.417  -1.194  -0.267  0.00  0.00    -0.349 N 
ATOM     22  C   UNL d   1       0.820  -1.571  -0.396  0.00  0.00     0.211 C 
ATOM     23  HN  UNL d   1      -1.206  -1.755  -0.589  1.00  0.00     0.166 HD
ENDBRANCH   1  13
TORSDOF 3
