REMARK  5 active torsions:
REMARK  status: ('A' for Active; 'I' for Inactive)
REMARK       I    between atoms: N_2  and  C_1 
REMARK    1  A    between atoms: C_3  and  C_1 
REMARK    2  A    between atoms: C_4  and  N_2 
REMARK    3  A    between atoms: O_12  and  C_6 
REMARK    4  A    between atoms: O_13  and  C_7 
REMARK    5  A    between atoms: O_14  and  C_10 
ROOT
ATOM      1  C   UNL d   1       0.940  -0.186   0.163  0.00  0.00     0.256 C 
ATOM      2  N   UNL d   1       0.205   0.030   1.312  0.00  0.00    -0.321 N 
ATOM      3  O   UNL d   1       2.158  -0.124   0.049  0.00  0.00    -0.267 OA
ATOM      4  H   UNL d   1      -0.748  -0.311   1.346  0.00  0.00     0.169 HD
ENDROOT
BRANCH   1   5
ATOM      5  C   UNL d   1       0.165  -0.636  -1.011  0.00  0.00     0.035 A 
ATOM      6  C   UNL d   1       0.644  -1.739  -1.731  0.00  0.00     0.056 A 
ATOM      7  C   UNL d   1       0.005  -2.168  -2.900  0.00  0.00     0.102 A 
ATOM      8  C   UNL d   1      -1.120  -1.454  -3.355  0.00  0.00     0.101 A 
ATOM      9  C   UNL d   1      -1.593  -0.355  -2.613  0.00  0.00     0.040 A 
ATOM     10  C   UNL d   1      -0.961   0.056  -1.441  0.00  0.00     0.020 A 
BRANCH   7  11
ATOM     11  O   UNL d   1       0.431  -3.250  -3.622  0.00  0.00    -0.353 OA
ATOM     12  C   UNL d   1       1.560  -3.977  -3.151  0.00  0.00     0.210 C 
ENDBRANCH   7  11
BRANCH   8  13
ATOM     13  O   UNL d   1      -1.874  -1.670  -4.479  0.00  0.00    -0.353 OA
ATOM     14  C   UNL d   1      -1.471  -2.677  -5.395  0.00  0.00     0.210 C 
ENDBRANCH   8  13
ENDBRANCH   1   5
BRANCH   2  15
ATOM     15  C   UNL d   1       0.776   0.403   2.552  0.00  0.00     0.068 A 
ATOM     16  C   UNL d   1       0.178   0.002   3.756  0.00  0.00     0.095 A 
ATOM     17  C   UNL d   1       0.732   0.393   4.981  0.00  0.00     0.039 A 
ATOM     18  C   UNL d   1       1.881   1.182   5.014  0.00  0.00     0.003 A 
ATOM     19  C   UNL d   1       2.471   1.596   3.825  0.00  0.00     0.002 A 
ATOM     20  C   UNL d   1       1.924   1.206   2.600  0.00  0.00     0.032 A 
BRANCH  16  21
ATOM     21  O   UNL d   1      -0.975  -0.739   3.820  0.00  0.00    -0.354 OA
ATOM     22  C   UNL d   1      -0.846  -2.047   3.260  0.00  0.00     0.210 C 
ENDBRANCH  16  21
ENDBRANCH   2  15
TORSDOF 5
