REMARK  3 active torsions:
REMARK  status: ('A' for Active; 'I' for Inactive)
REMARK    1  A    between atoms: C_9  and  C_5 
REMARK    2  A    between atoms: S_10  and  C_6 
REMARK    3  A    between atoms: S_11  and  C_7 
ROOT
ATOM      1  N   UNL d   1      -1.606  -1.179   0.068  0.00  0.00    -0.335 N 
ATOM      2  HN  UNL d   1      -2.129  -2.053   0.110  1.00  0.00     0.168 HD
ATOM      3  N   UNL d   1      -1.602   1.181  -0.039  0.00  0.00    -0.335 N 
ATOM      4  HN  UNL d   1      -2.123   2.057  -0.079  1.00  0.00     0.168 HD
ATOM      5  C   UNL d   1      -2.234   0.002   0.017  0.00  0.00     0.117 A 
ATOM      6  C   UNL d   1      -0.256  -1.173   0.063  0.00  0.00     0.095 A 
ATOM      7  C   UNL d   1      -0.252   1.171  -0.041  0.00  0.00     0.095 A 
ATOM      8  C   UNL d   1       0.492  -0.002   0.009  0.00  0.00     0.101 A 
ATOM      9 CL   UNL d   1       2.223  -0.005   0.005  0.00  0.00    -0.078 Cl
ENDROOT
BRANCH   5  10
ATOM     10  C   UNL d   1      -3.708   0.006   0.020  0.00  0.00     0.008 A 
ATOM     11  C   UNL d   1      -4.439   1.208  -0.069  0.00  0.00     0.017 A 
ATOM     12  C   UNL d   1      -5.838   1.216  -0.067  0.00  0.00     0.025 A 
ATOM     13  C   UNL d   1      -6.536   0.016   0.026  0.00  0.00     0.034 A 
ATOM     14  C   UNL d   1      -5.846  -1.189   0.116  0.00  0.00     0.025 A 
ATOM     15 CL   UNL d   1      -8.255   0.022   0.028  0.00  0.00    -0.084 Cl
ATOM     16  C   UNL d   1      -4.447  -1.190   0.113  0.00  0.00     0.017 A 
ENDBRANCH   5  10
BRANCH   7  17
ATOM     17  S   UNL d   1       0.521   2.794  -0.110  0.00  0.00    -0.115 SA
ATOM     18  C   UNL d   1      -0.937   3.872  -0.180  0.00  0.00     0.097 C 
ENDBRANCH   7  17
BRANCH   6  19
ATOM     19  S   UNL d   1       0.514  -2.798   0.130  0.00  0.00    -0.115 SA
ATOM     20  C   UNL d   1      -0.945  -3.875   0.173  0.00  0.00     0.097 C 
ENDBRANCH   6  19
TORSDOF 3
