REMARK  6 active torsions:
REMARK  status: ('A' for Active; 'I' for Inactive)
REMARK    1  A    between atoms: C_6  and  C_1 
REMARK    2  A    between atoms: O_12  and  C_6 
REMARK    3  A    between atoms: O_11  and  C_10 
REMARK    4  A    between atoms: C_14  and  O_11 
REMARK    5  A    between atoms: C_16  and  O_12 
REMARK    6  A    between atoms: C_15  and  C_14 
ROOT
ATOM      1  C   UNL d   1      -2.476  -0.124  -0.126  0.00  0.00     0.109 A 
ATOM      2  N   UNL d   1      -1.667   0.992  -0.128  0.00  0.00    -0.351 N 
ATOM      3  C   UNL d   1      -1.640  -1.223  -0.148  0.00  0.00     0.049 A 
ATOM      4  C   UNL d   1      -0.305  -0.763  -0.124  0.00  0.00    -0.004 A 
ATOM      5  C   UNL d   1      -0.339   0.628  -0.109  0.00  0.00     0.043 A 
ATOM      6  C   UNL d   1       0.930  -1.424  -0.089  0.00  0.00     0.050 A 
ATOM      7  C   UNL d   1       0.828   1.401  -0.074  0.00  0.00     0.033 A 
ATOM      8  C   UNL d   1       2.107  -0.677   0.007  0.00  0.00     0.070 A 
ATOM      9  C   UNL d   1       2.052   0.718  -0.018  0.00  0.00     0.039 A 
ATOM     10  H   UNL d   1      -2.012   1.943  -0.098  0.00  0.00     0.166 HD
ENDROOT
BRANCH   8  11
ATOM     11  O   UNL d   1       3.356  -1.231   0.143  0.00  0.00    -0.347 OA
BRANCH  11  12
ATOM     12  C   UNL d   1       3.350  -2.578   0.630  0.00  0.00     0.214 C 
BRANCH  12  13
ATOM     13  C   UNL d   1       4.699  -2.979   1.168  0.00  0.00    -0.034 A 
ATOM     14  C   UNL d   1       4.767  -3.832   2.281  0.00  0.00     0.009 A 
ATOM     15  C   UNL d   1       6.001  -4.252   2.779  0.00  0.00     0.001 A 
ATOM     16  C   UNL d   1       7.176  -3.831   2.159  0.00  0.00     0.000 A 
ATOM     17  C   UNL d   1       7.119  -2.998   1.043  0.00  0.00     0.001 A 
ATOM     18  C   UNL d   1       5.886  -2.577   0.544  0.00  0.00     0.009 A 
ENDBRANCH  12  13
ENDBRANCH  11  12
ENDBRANCH   8  11
BRANCH   1  19
ATOM     19  C   UNL d   1      -3.910  -0.074  -0.046  0.00  0.00     0.310 C 
ATOM     20  O   UNL d   1      -4.571   0.953   0.040  0.00  0.00    -0.258 OA
BRANCH  19  21
ATOM     21  O   UNL d   1      -4.393  -1.343   0.025  0.00  0.00    -0.317 OA
BRANCH  21  22
ATOM     22  C   UNL d   1      -5.712  -1.485   0.559  0.00  0.00     0.175 C 
ATOM     23  C   UNL d   1      -5.603  -1.548   2.072  0.00  0.00     0.034 C 
ENDBRANCH  21  22
ENDBRANCH  19  21
ENDBRANCH   1  19
TORSDOF 6
