REMARK  8 active torsions:
REMARK  status: ('A' for Active; 'I' for Inactive)
REMARK    1  A    between atoms: C_3  and  C_1 
REMARK    2  A    between atoms: C_6  and  C_1 
REMARK    3  A    between atoms: C_2  and  C_9 
REMARK    4  A    between atoms: O_10  and  C_2 
REMARK    5  A    between atoms: C_9  and  C_6 
REMARK    6  A    between atoms: C_14  and  C_13 
REMARK    7  A    between atoms: C_15  and  C_14 
REMARK    8  A    between atoms: C_16  and  C_15 
ROOT
ATOM      1  C   UNL d   1       0.196   0.122  -1.221  0.00  0.00     0.010 A 
ATOM      2  C   UNL d   1       0.575  -0.672  -2.309  0.00  0.00     0.015 A 
ATOM      3  C   UNL d   1      -0.898   0.981  -1.345  0.00  0.00     0.015 A 
ATOM      4  C   UNL d   1      -0.123  -0.592  -3.518  0.00  0.00     0.008 A 
ATOM      5  C   UNL d   1      -1.594   1.058  -2.552  0.00  0.00     0.008 A 
ATOM      6  C   UNL d   1      -1.197   0.296  -3.658  0.00  0.00    -0.058 A 
ENDROOT
BRANCH   1   7
ATOM      7  C   UNL d   1       1.033   0.086   0.009  0.00  0.00     0.160 C 
ATOM      8  O   UNL d   1       2.232  -0.189  -0.082  0.00  0.00    -0.292 OA
BRANCH   7   9
ATOM      9  C   UNL d   1       0.417   0.415   1.358  0.00  0.00     0.094 C 
BRANCH   9  10
ATOM     10  C   UNL d   1       1.480   0.918   2.327  0.00  0.00     0.117 C 
BRANCH  10  11
ATOM     11  C   UNL d   1       2.025   2.256   1.889  0.00  0.00     0.139 C 
ATOM     12  O   UNL d   1       1.642   3.320   2.349  0.00  0.00    -0.650 OA
BRANCH  11  13
ATOM     13  O   UNL d   1       2.949   2.176   0.908  0.00  0.00    -0.776 OA
ATOM     14  H   UNL d   1       3.096   1.258   0.570  0.00  0.00     0.167 HD
ENDBRANCH  11  13
ENDBRANCH  10  11
ENDBRANCH   9  10
ENDBRANCH   7   9
ENDBRANCH   1   7
BRANCH   6  15
ATOM     15  C   UNL d   1      -1.896   0.453  -4.988  0.00  0.00     0.038 C 
BRANCH  15  16
ATOM     16  C   UNL d   1      -1.864   1.887  -5.540  0.00  0.00     0.004 C 
BRANCH  16  17
ATOM     17  C   UNL d   1      -0.446   2.388  -5.834  0.00  0.00    -0.004 C 
ATOM     18  C   UNL d   1      -0.462   3.812  -6.369  0.00  0.00     0.005 C 
ENDBRANCH  16  17
ENDBRANCH  15  16
ENDBRANCH   6  15
TORSDOF 8
