REMARK  4 active torsions:
REMARK  status: ('A' for Active; 'I' for Inactive)
REMARK    1  A    between atoms: C_2  and  S_1 
REMARK    2  A    between atoms: N_6  and  S_1 
REMARK    3  A    between atoms: C_11  and  N_6 
REMARK    4  A    between atoms: O_18  and  C_12 
ROOT
ATOM      1  S   UNL d   1       0.833  -0.015   0.002  0.00  0.00     0.280 S 
ATOM      2  O   UNL d   1       0.058  -0.735  -0.984  0.00  0.00    -0.199 OA
ATOM      3  O   UNL d   1       2.275   0.096  -0.124  0.00  0.00    -0.199 OA
ENDROOT
BRANCH   1   4
ATOM      4  C   UNL d   1       0.568  -0.871   1.502  0.00  0.00     0.166 A 
ATOM      5  N   UNL d   1      -0.683  -1.024   2.085  0.00  0.00    -0.340 N 
ATOM      6  C   UNL d   1      -0.469  -1.717   3.181  0.00  0.00     0.183 A 
ATOM      7  HN  UNL d   1      -1.576  -0.672   1.738  1.00  0.00     0.167 HD
ATOM      8  N   UNL d   1       0.858  -1.994   3.348  0.00  0.00    -0.354 N 
ATOM      9  C   UNL d   1       1.537  -1.463   2.291  0.00  0.00     0.135 A 
ATOM     10  C   UNL d   1       1.427  -2.718   4.456  0.00  0.00     0.156 C 
ENDBRANCH   1   4
BRANCH   1  11
ATOM     11  N   UNL d   1       0.179   1.539   0.104  0.00  0.00    -0.279 N 
ATOM     12  H   UNL d   1       0.016   1.920  -0.825  0.00  0.00     0.179 HD
BRANCH  11  13
ATOM     13  C   UNL d   1       0.713   2.441   1.065  0.00  0.00     0.042 A 
ATOM     14  C   UNL d   1       1.814   3.255   0.793  0.00  0.00     0.033 A 
ATOM     15  C   UNL d   1       2.244   4.193   1.746  0.00  0.00     0.039 A 
ATOM     16  C   UNL d   1       1.582   4.308   2.971  0.00  0.00     0.068 A 
ATOM     17  C   UNL d   1       0.496   3.470   3.237  0.00  0.00     0.039 A 
ATOM     18  C   UNL d   1       0.069   2.535   2.294  0.00  0.00     0.033 A 
BRANCH  16  19
ATOM     19  O   UNL d   1       1.883   5.181   3.979  0.00  0.00    -0.356 OA
ATOM     20  C   UNL d   1       2.984   6.057   3.774  0.00  0.00     0.210 C 
ENDBRANCH  16  19
ENDBRANCH  11  13
ENDBRANCH   1  11
TORSDOF 4
