REMARK  4 active torsions:
REMARK  status: ('A' for Active; 'I' for Inactive)
REMARK    1  A    between atoms: C_8  and  C_1 
REMARK    2  A    between atoms: C_14  and  N_6 
REMARK    3  A    between atoms: O_17  and  C_9 
REMARK    4  A    between atoms: C_18  and  C_14 
ROOT
ATOM      1  C   UNL d   1      -0.054  -1.292   0.083  0.00  0.00     0.144 A 
ATOM      2  N   UNL d   1       1.176  -0.781   0.274  0.00  0.00    -0.268 N 
ATOM      3  HN  UNL d   1       2.053  -1.256   0.488  1.00  0.00     0.190 HD
ATOM      4  N   UNL d   1      -0.989  -0.324  -0.197  0.00  0.00    -0.266 N 
ATOM      5  HN  UNL d   1      -1.983  -0.473  -0.372  1.00  0.00     0.186 HD
ATOM      6  N   UNL d   1       0.925   0.533   0.104  0.00  0.00    -0.212 N 
ATOM      7  N   UNL d   1      -0.352   0.840  -0.196  0.00  0.00    -0.002 NA
ENDROOT
BRANCH   1   8
ATOM      8  C   UNL d   1      -0.343  -2.718   0.098  0.00  0.00     0.013 A 
ATOM      9  C   UNL d   1       0.647  -3.631   0.481  0.00  0.00     0.037 A 
ATOM     10  C   UNL d   1       0.427  -5.021   0.468  0.00  0.00     0.046 A 
ATOM     11 BR   UNL d   1       1.948  -6.019   1.034  0.00  0.00    -0.048 Br
ATOM     12  C   UNL d   1      -0.814  -5.534   0.062  0.00  0.00     0.102 A 
ATOM     13  C   UNL d   1      -1.808  -4.597  -0.315  0.00  0.00     0.046 A 
ATOM     14  C   UNL d   1      -1.582  -3.213  -0.296  0.00  0.00     0.037 A 
ATOM     15 BR   UNL d   1      -3.538  -5.164  -0.896  0.00  0.00    -0.048 Br
BRANCH  12  16
ATOM     16  O   UNL d   1      -1.235  -6.830  -0.032  0.00  0.00    -0.353 OA
ATOM     17  C   UNL d   1      -0.391  -7.929   0.249  0.00  0.00     0.210 C 
ENDBRANCH  12  16
ENDBRANCH   1   8
BRANCH   6  18
ATOM     18  C   UNL d   1       2.002   1.492  -0.064  0.00  0.00     0.205 C 
BRANCH  18  19
ATOM     19  C   UNL d   1       2.403   2.142   1.234  0.00  0.00    -0.037 A 
ATOM     20  C   UNL d   1       3.369   1.552   2.061  0.00  0.00     0.009 A 
ATOM     21  C   UNL d   1       3.764   2.175   3.248  0.00  0.00     0.007 A 
ATOM     22  C   UNL d   1       3.195   3.394   3.633  0.00  0.00    -0.062 A 
ATOM     23  C   UNL d   1       2.217   3.975   2.819  0.00  0.00     0.007 A 
ATOM     24  C   UNL d   1       3.631   4.056   4.907  0.00  0.00     0.048 C 
ATOM     25  C   UNL d   1       1.822   3.353   1.632  0.00  0.00     0.009 A 
ENDBRANCH  18  19
ENDBRANCH   6  18
TORSDOF 4
