REMARK  5 active torsions:
REMARK  status: ('A' for Active; 'I' for Inactive)
REMARK    1  A    between atoms: C_6  and  C_1 
REMARK    2  A    between atoms: C_8  and  N_3 
REMARK    3  A    between atoms: O_10  and  C_4 
REMARK    4  A    between atoms: O_11  and  C_6 
REMARK    5  A    between atoms: C_14  and  O_11 
ROOT
ATOM      1  C   UNL d   1      -0.726   1.272  -0.003  0.00  0.00     0.073 A 
ATOM      2  C   UNL d   1       0.361  -0.701   0.137  0.00  0.00     0.278 A 
ATOM      3  N   UNL d   1      -0.985  -0.984   0.043  0.00  0.00    -0.337 N 
ATOM      4  C   UNL d   1       0.503   0.763   0.111  0.00  0.00     0.148 A 
ATOM      5  C   UNL d   1      -1.782   0.219  -0.087  0.00  0.00     0.174 A 
ATOM      6  O   UNL d   1       1.314  -1.458   0.217  0.00  0.00    -0.265 OA
ENDROOT
BRANCH   3   7
ATOM      7  C   UNL d   1      -1.466  -2.356  -0.021  0.00  0.00     0.088 C 
ATOM      8  C   UNL d   1      -2.933  -2.564   0.361  0.00  0.00     0.025 C 
ATOM      9  C   UNL d   1      -3.227  -4.063   0.470  0.00  0.00     0.002 C 
ATOM     10  C   UNL d   1      -2.854  -4.831  -0.800  0.00  0.00     0.000 C 
ATOM     11  C   UNL d   1      -1.451  -4.506  -1.309  0.00  0.00     0.002 C 
ATOM     12  C   UNL d   1      -1.201  -3.001  -1.390  0.00  0.00     0.025 C 
ENDBRANCH   3   7
BRANCH   1  13
ATOM     13  C   UNL d   1      -1.065   2.687  -0.140  0.00  0.00     0.293 C 
ATOM     14  O   UNL d   1      -2.121   3.075  -0.613  0.00  0.00    -0.259 OA
BRANCH  13  15
ATOM     15  O   UNL d   1      -0.039   3.460   0.283  0.00  0.00    -0.318 OA
BRANCH  15  16
ATOM     16  C   UNL d   1       0.015   4.799  -0.217  0.00  0.00     0.174 C 
ATOM     17  C   UNL d   1       0.739   4.778  -1.552  0.00  0.00     0.034 C 
ENDBRANCH  15  16
ENDBRANCH  13  15
ENDBRANCH   1  13
BRANCH   4  18
ATOM     18  O   UNL d   1       1.718   1.379   0.135  0.00  0.00    -0.355 OA
ATOM     19  H   UNL d   1       2.374   0.654   0.190  0.00  0.00     0.218 HD
ENDBRANCH   4  18
TORSDOF 5
