REMARK  2 active torsions:
REMARK  status: ('A' for Active; 'I' for Inactive)
REMARK    1  A    between atoms: N_14  and  C_3 
REMARK    2  A    between atoms: S_15  and  C_7 
ROOT
ATOM      1  N   UNL d   1      -0.211  -0.599  -0.046  0.00  0.00    -0.227 N 
ATOM      2  C   UNL d   1      -0.196   0.792   0.018  0.00  0.00     0.131 A 
ATOM      3  C   UNL d   1       0.996  -1.358  -0.076  0.00  0.00     0.126 A 
ATOM      4  C   UNL d   1       2.176  -0.694  -0.017  0.00  0.00     0.118 A 
ATOM      5  N   UNL d   1       0.966   1.499   0.057  0.00  0.00    -0.334 N 
ATOM      6  HN  UNL d   1       0.972   2.519   0.096  1.00  0.00     0.168 HD
ATOM      7  C   UNL d   1       2.070   0.811   0.040  0.00  0.00     0.095 A 
ATOM      8  N   UNL d   1      -1.491  -1.081  -0.040  0.00  0.00    -0.296 N 
ATOM      9  HN  UNL d   1      -1.787  -2.057  -0.054  1.00  0.00     0.187 HD
ATOM     10  C   UNL d   1      -1.511   1.195   0.022  0.00  0.00     0.076 A 
ATOM     11  C   UNL d   1      -2.270   0.007  -0.011  0.00  0.00     0.026 A 
ATOM     12  C   UNL d   1       3.427  -1.377  -0.021  0.00  0.00     0.105 C 
ATOM     13  N   UNL d   1       4.426  -1.972  -0.004  0.00  0.00    -0.191 NA
ATOM     14  C   UNL d   1      -3.752  -0.111  -0.010  0.00  0.00     0.070 C 
ENDROOT
BRANCH   3  15
ATOM     15  N   UNL d   1       0.837  -2.744  -0.167  0.00  0.00    -0.286 NA
ATOM     16  H   UNL d   1      -0.113  -3.041   0.081  0.00  0.00     0.125 HD
ATOM     17  H   UNL d   1       1.571  -3.318   0.242  0.00  0.00     0.125 HD
ENDBRANCH   3  15
BRANCH   7  18
ATOM     18  S   UNL d   1       3.588   1.705   0.083  0.00  0.00    -0.115 SA
ATOM     19  C   UNL d   1       3.007   3.421   0.088  0.00  0.00     0.097 C 
ENDBRANCH   7  18
TORSDOF 2
