REMARK  2 active torsions:
REMARK  status: ('A' for Active; 'I' for Inactive)
REMARK    1  A    between atoms: C_4  and  C_1 
REMARK    2  A    between atoms: C_10  and  C_3 
ROOT
ATOM      1  C   UNL d   1      -0.083   1.123   0.008  0.00  0.00     0.088 A 
ATOM      2  O   UNL d   1      -0.955   0.077  -0.035  0.00  0.00    -0.306 OA
ATOM      3  C   UNL d   1      -0.239  -1.080   0.030  0.00  0.00     0.121 A 
ATOM      4  C   UNL d   1       1.209   0.635   0.065  0.00  0.00     0.041 A 
ATOM      5  C   UNL d   1       1.109  -0.779   0.082  0.00  0.00     0.044 A 
ENDROOT
BRANCH   1   6
ATOM      6  C   UNL d   1      -0.674   2.454  -0.110  0.00  0.00     0.020 A 
ATOM      7  C   UNL d   1      -1.922   2.812   0.439  0.00  0.00     0.048 A 
ATOM      8  C   UNL d   1      -2.470   4.080   0.205  0.00  0.00     0.048 A 
ATOM      9 CL   UNL d   1      -2.848   1.760   1.460  0.00  0.00    -0.083 Cl
ATOM     10  C   UNL d   1      -1.772   5.007  -0.561  0.00  0.00     0.035 A 
ATOM     11  C   UNL d   1      -0.521   4.692  -1.078  0.00  0.00     0.025 A 
ATOM     12 CL   UNL d   1      -2.463   6.551  -0.873  0.00  0.00    -0.084 Cl
ATOM     13  C   UNL d   1       0.025   3.426  -0.850  0.00  0.00     0.017 A 
ENDBRANCH   1   6
BRANCH   3  14
ATOM     14  C   UNL d   1      -0.928  -2.353   0.025  0.00  0.00     0.179 C 
ATOM     15  O   UNL d   1      -0.330  -3.430   0.038  0.00  0.00    -0.291 OA
ATOM     16  C   UNL d   1      -2.440  -2.343  -0.003  0.00  0.00     0.099 C 
ENDBRANCH   3  14
TORSDOF 2
