REMARK  3 active torsions:
REMARK  status: ('A' for Active; 'I' for Inactive)
REMARK    1  A    between atoms: N_4  and  C_1 
REMARK    2  A    between atoms: C_9  and  C_2 
REMARK    3  A    between atoms: N_11  and  C_8 
ROOT
ATOM      1  C   UNL d   1       0.820   1.860   0.099  0.00  0.00     0.059 A 
ATOM      2  C   UNL d   1       1.960   1.123   0.111  0.00  0.00     0.053 A 
ATOM      3  C   UNL d   1       1.550  -0.314   0.055  0.00  0.00     0.196 A 
ATOM      4  C   UNL d   1      -0.343   0.952   0.109  0.00  0.00     0.006 A 
ATOM      5  C   UNL d   1       0.103  -0.356   0.049  0.00  0.00     0.027 A 
ATOM      6  O   UNL d   1       2.259  -1.304   0.012  0.00  0.00    -0.286 OA
ATOM      7  C   UNL d   1      -1.710   1.183   0.159  0.00  0.00     0.014 A 
ATOM      8  C   UNL d   1      -0.732  -1.459   0.001  0.00  0.00     0.016 A 
ATOM      9  C   UNL d   1      -2.591   0.093   0.090  0.00  0.00     0.001 A 
ATOM     10  C   UNL d   1      -2.104  -1.220   0.009  0.00  0.00     0.001 A 
ENDROOT
BRANCH   1  11
ATOM     11  N   UNL d   1       0.730   3.230   0.183  0.00  0.00    -0.351 N 
ATOM     12  C   UNL d   1      -0.138   3.813  -0.581  0.00  0.00     0.178 C 
ATOM     13  HN  UNL d   1       1.322   3.764   0.819  1.00  0.00     0.166 HD
BRANCH  12  14
ATOM     14  N   UNL d   1      -0.477   5.145  -0.583  0.00  0.00    -0.386 N 
ATOM     15  C   UNL d   1      -1.639   5.640  -1.303  0.00  0.00     0.149 C 
ATOM     16  C   UNL d   1       0.372   6.153   0.029  0.00  0.00     0.149 C 
ENDBRANCH  12  14
ENDBRANCH   1  11
BRANCH   2  17
ATOM     17  C   UNL d   1       3.376   1.534   0.148  0.00  0.00    -0.020 A 
ATOM     18  C   UNL d   1       4.326   0.739   0.815  0.00  0.00     0.012 A 
ATOM     19  C   UNL d   1       5.692   1.026   0.746  0.00  0.00     0.001 A 
ATOM     20  C   UNL d   1       6.134   2.122   0.015  0.00  0.00     0.000 A 
ATOM     21  C   UNL d   1       5.208   2.944  -0.624  0.00  0.00     0.001 A 
ATOM     22  C   UNL d   1       3.838   2.655  -0.555  0.00  0.00     0.012 A 
ENDBRANCH   2  17
TORSDOF 3
