REMARK  8 active torsions:
REMARK  status: ('A' for Active; 'I' for Inactive)
REMARK    1  A    between atoms: S_13  and  C_2 
REMARK    2  A    between atoms: C_7  and  C_4 
REMARK    3  A    between atoms: S_6  and  C_10 
REMARK    4  A    between atoms: C_9  and  S_6 
REMARK    5  A    between atoms: O_20  and  C_7 
REMARK    6  A    between atoms: C_10  and  C_19 
REMARK    7  A    between atoms: C_19  and  S_13 
REMARK    8  A    between atoms: C_27  and  O_20 
ROOT
ATOM      1  C   UNL d   1       0.535   0.683  -0.102  0.00  0.00     0.041 A 
ATOM      2  C   UNL d   1       1.901   0.893  -0.154  0.00  0.00     0.056 A 
ATOM      3  C   UNL d   1       0.209  -0.729  -0.064  0.00  0.00    -0.019 A 
ATOM      4  C   UNL d   1       1.341  -1.530  -0.029  0.00  0.00     0.088 A 
ATOM      5  S   UNL d   1       2.761  -0.583  -0.171  0.00  0.00    -0.076 SA
ATOM      6  C   UNL d   1      -0.514   1.708  -0.049  0.00  0.00     0.162 C 
ATOM      7  O   UNL d   1      -0.298   2.910  -0.199  0.00  0.00    -0.292 OA
ATOM      8  C   UNL d   1      -1.219  -1.207   0.013  0.00  0.00     0.042 C 
ATOM      9  C   UNL d   1      -1.917   1.212   0.272  0.00  0.00     0.084 C 
ATOM     10  C   UNL d   1      -2.203  -0.117  -0.424  0.00  0.00     0.012 C 
ENDROOT
BRANCH   2  11
ATOM     11  S   UNL d   1       2.795   2.412  -0.091  0.00  0.00    -0.121 SA
BRANCH  11  12
ATOM     12  C   UNL d   1       3.029   2.763  -1.864  0.00  0.00     0.095 C 
BRANCH  12  13
ATOM     13  C   UNL d   1       3.795   4.070  -2.010  0.00  0.00     0.156 C 
BRANCH  13  14
ATOM     14  S   UNL d   1       4.048   4.453  -3.728  0.00  0.00     0.176 S 
ATOM     15  O   UNL d   1       4.934   3.453  -4.292  0.00  0.00    -0.223 OA
ATOM     16  O   UNL d   1       2.759   4.726  -4.335  0.00  0.00    -0.223 OA
BRANCH  14  17
ATOM     17  C   UNL d   1       4.949   5.995  -3.700  0.00  0.00     0.059 A 
ATOM     18  C   UNL d   1       6.347   5.981  -3.751  0.00  0.00     0.025 A 
ATOM     19  C   UNL d   1       7.047   7.191  -3.797  0.00  0.00     0.025 A 
ATOM     20  C   UNL d   1       6.349   8.399  -3.803  0.00  0.00     0.034 A 
ATOM     21  C   UNL d   1       4.954   8.411  -3.761  0.00  0.00     0.025 A 
ATOM     22 CL   UNL d   1       7.213   9.885  -3.878  0.00  0.00    -0.084 Cl
ATOM     23  C   UNL d   1       4.248   7.205  -3.715  0.00  0.00     0.025 A 
ENDBRANCH  14  17
ENDBRANCH  13  14
ENDBRANCH  12  13
ENDBRANCH  11  12
ENDBRANCH   2  11
BRANCH   4  24
ATOM     24  C   UNL d   1       1.407  -2.975   0.171  0.00  0.00     0.300 C 
ATOM     25  O   UNL d   1       0.439  -3.699   0.363  0.00  0.00    -0.259 OA
BRANCH  24  26
ATOM     26  O   UNL d   1       2.703  -3.399   0.229  0.00  0.00    -0.317 OA
BRANCH  26  27
ATOM     27  C   UNL d   1       2.925  -4.651   0.892  0.00  0.00     0.174 C 
ATOM     28  C   UNL d   1       3.023  -4.386   2.385  0.00  0.00     0.034 C 
ENDBRANCH  26  27
ENDBRANCH  24  26
ENDBRANCH   4  24
TORSDOF 8
