REMARK  5 active torsions:
REMARK  status: ('A' for Active; 'I' for Inactive)
REMARK       I    between atoms: N_6  and  C_1 
REMARK    1  A    between atoms: C_11  and  C_1 
REMARK    2  A    between atoms: C_2  and  C_10 
REMARK       I    between atoms: N_12  and  C_2 
REMARK    3  A    between atoms: C_3  and  S_7 
REMARK    4  A    between atoms: C_10  and  N_6 
REMARK    5  A    between atoms: S_7  and  C_11 
ROOT
ATOM      1  C   UNL d   1       0.962  -0.049   0.123  0.00  0.00     0.227 C 
ATOM      2  N   UNL d   1       0.250   1.093  -0.156  0.00  0.00    -0.352 N 
ATOM      3  O   UNL d   1       0.410  -1.111   0.402  0.00  0.00    -0.273 OA
ATOM      4  H   UNL d   1       0.744   1.982  -0.248  0.00  0.00     0.162 HD
ENDROOT
BRANCH   1   5
ATOM      5  C   UNL d   1       2.471   0.077   0.036  0.00  0.00     0.183 C 
BRANCH   5   6
ATOM      6  S   UNL d   1       3.143   0.827   1.552  0.00  0.00    -0.103 SA
BRANCH   6   7
ATOM      7  C   UNL d   1       2.937   2.564   1.208  0.00  0.00     0.069 A 
ATOM      8  N   UNL d   1       2.567   2.936  -0.040  0.00  0.00    -0.361 N 
ATOM      9  C   UNL d   1       2.459   4.263  -0.281  0.00  0.00     0.089 A 
ATOM     10  HN  UNL d   1       2.379   2.245  -0.766  1.00  0.00     0.165 HD
ATOM     11  C   UNL d   1       2.687   5.242   0.670  0.00  0.00     0.017 A 
ATOM     12  C   UNL d   1       3.048   4.839   1.949  0.00  0.00     0.004 A 
ATOM     13  C   UNL d   1       3.179   3.480   2.225  0.00  0.00     0.037 A 
ENDBRANCH   6   7
ENDBRANCH   5   6
ENDBRANCH   1   5
BRANCH   2  14
ATOM     14  C   UNL d   1      -1.192   1.099  -0.048  0.00  0.00     0.225 C 
BRANCH  14  15
ATOM     15  C   UNL d   1      -1.798   2.484  -0.251  0.00  0.00     0.233 C 
ATOM     16  O   UNL d   1      -1.146   3.509  -0.425  0.00  0.00    -0.272 OA
ATOM     17  N   UNL d   1      -3.165   2.516  -0.214  0.00  0.00    -0.369 N 
ATOM     18  H   UNL d   1      -3.733   1.692  -0.072  0.00  0.00     0.159 HD
ATOM     19  H   UNL d   1      -3.625   3.409  -0.337  0.00  0.00     0.159 HD
ENDBRANCH  14  15
ENDBRANCH   2  14
TORSDOF 5
