REMARK  2 active torsions:
REMARK  status: ('A' for Active; 'I' for Inactive)
REMARK    1  A    between atoms: C_5  and  C_8 
REMARK    2  A    between atoms: C_8  and  C_6 
ROOT
ATOM      1  N   UNL d   1       4.678   3.704   0.868  0.00  0.00    -0.197 NA
ATOM      2  C   UNL d   1       4.322   2.693   1.314  0.00  0.00     0.059 C 
ATOM      3  C   UNL d   1       3.891   1.411   1.862  0.00  0.00     0.124 C 
ENDROOT
BRANCH   3   4
ATOM      4  C   UNL d   1       4.541   0.241   1.132  0.00  0.00     0.026 C 
BRANCH   4   5
ATOM      5  C   UNL d   1       6.021  -0.038   1.430  0.00  0.00     0.056 C 
ATOM      6  C   UNL d   1       6.574  -1.294   0.709  0.00  0.00     0.131 C 
ATOM      7  O   UNL d   1       7.559  -1.892   1.158  0.00  0.00    -0.298 OA
ATOM      8  C   UNL d   1       5.991  -1.753  -0.623  0.00  0.00     0.079 C 
ATOM      9  C   UNL d   1       4.675  -2.534  -0.546  0.00  0.00     0.007 C 
ATOM     10  C   UNL d   1       4.720  -3.769   0.363  0.00  0.00     0.000 C 
ATOM     11  C   UNL d   1       3.344  -4.150   0.941  0.00  0.00     0.000 C 
ATOM     12  C   UNL d   1       2.906  -3.320   2.162  0.00  0.00     0.000 C 
ATOM     13  C   UNL d   1       3.717  -3.631   3.428  0.00  0.00     0.000 C 
ATOM     14  C   UNL d   1       3.676  -2.544   4.515  0.00  0.00     0.000 C 
ATOM     15  C   UNL d   1       4.340  -1.205   4.162  0.00  0.00     0.000 C 
ATOM     16  C   UNL d   1       5.806  -1.307   3.726  0.00  0.00     0.001 C 
ATOM     17  C   UNL d   1       6.365  -0.101   2.946  0.00  0.00     0.012 C 
ENDBRANCH   4   5
ENDBRANCH   3   4
TORSDOF 2
