REMARK  4 active torsions:
REMARK  status: ('A' for Active; 'I' for Inactive)
REMARK       I    between atoms: C_3  and  N_1 
REMARK    1  A    between atoms: C_6  and  C_2 
REMARK       I    between atoms: N_7  and  C_3 
REMARK    2  A    between atoms: C_11  and  C_6 
REMARK    3  A    between atoms: C_12  and  C_6 
REMARK    4  A    between atoms: C_13  and  N_7 
ROOT
ATOM      1  N   UNL d   1       0.321  -0.576  -0.974  0.00  0.00    -0.209 N 
ATOM      2  C   UNL d   1      -0.488  -1.077   0.037  0.00  0.00     0.053 A 
ATOM      3  C   UNL d   1       0.883  -1.266  -2.054  0.00  0.00     0.346 C 
ATOM      4  N   UNL d   1       0.544   0.764  -0.839  0.00  0.00    -0.301 N 
ATOM      5  HN  UNL d   1       1.069   1.378  -1.462  1.00  0.00     0.186 HD
ATOM      6  N   UNL d   1       2.227  -1.563  -1.974  0.00  0.00    -0.307 N 
ATOM      7  C   UNL d   1      -0.674  -0.020   0.913  0.00  0.00     0.047 A 
ATOM      8  C   UNL d   1      -0.081   1.089   0.291  0.00  0.00     0.110 A 
ATOM      9  O   UNL d   1       0.164  -1.633  -2.978  0.00  0.00    -0.245 OA
ATOM     10  H   UNL d   1       2.534  -1.984  -2.843  0.00  0.00     0.170 HD
ENDROOT
BRANCH   2  11
ATOM     11  C   UNL d   1      -0.924  -2.523   0.070  0.00  0.00     0.103 C 
BRANCH  11  12
ATOM     12  C   UNL d   1      -0.359  -3.281   1.278  0.00  0.00    -0.044 A 
ATOM     13  C   UNL d   1      -1.022  -3.306   2.515  0.00  0.00     0.008 A 
ATOM     14  C   UNL d   1      -0.521  -4.060   3.581  0.00  0.00     0.001 A 
ATOM     15  C   UNL d   1       0.658  -4.786   3.433  0.00  0.00     0.000 A 
ATOM     16  C   UNL d   1       1.345  -4.749   2.223  0.00  0.00     0.001 A 
ATOM     17  C   UNL d   1       0.843  -4.001   1.155  0.00  0.00     0.008 A 
ENDBRANCH  11  12
BRANCH  11  18
ATOM     18  C   UNL d   1      -2.430  -2.731  -0.130  0.00  0.00    -0.044 A 
ATOM     19  C   UNL d   1      -2.875  -3.935  -0.707  0.00  0.00     0.008 A 
ATOM     20  C   UNL d   1      -4.240  -4.182  -0.884  0.00  0.00     0.001 A 
ATOM     21  C   UNL d   1      -5.179  -3.239  -0.483  0.00  0.00     0.000 A 
ATOM     22  C   UNL d   1      -4.761  -2.047   0.097  0.00  0.00     0.001 A 
ATOM     23  C   UNL d   1      -3.399  -1.798   0.274  0.00  0.00     0.008 A 
ENDBRANCH  11  18
ENDBRANCH   2  11
BRANCH   6  24
ATOM     24  C   UNL d   1       3.204  -1.481  -0.959  0.00  0.00     0.036 A 
ATOM     25  C   UNL d   1       3.002  -1.044   0.350  0.00  0.00     0.031 A 
ATOM     26  C   UNL d   1       4.047  -1.009   1.279  0.00  0.00     0.026 A 
ATOM     27  C   UNL d   1       5.317  -1.426   0.910  0.00  0.00     0.034 A 
ATOM     28  C   UNL d   1       5.542  -1.891  -0.381  0.00  0.00     0.026 A 
ATOM     29 CL   UNL d   1       6.601  -1.371   2.048  0.00  0.00    -0.084 Cl
ATOM     30  C   UNL d   1       4.491  -1.920  -1.306  0.00  0.00     0.031 A 
ENDBRANCH   6  24
TORSDOF 4
