REMARK  3 active torsions:
REMARK  status: ('A' for Active; 'I' for Inactive)
REMARK    1  A    between atoms: C_2  and  S_1 
REMARK    2  A    between atoms: C_7  and  S_1 
REMARK    3  A    between atoms: N_3  and  C_4 
ROOT
ATOM      1  C   UNL d   1       0.704  -1.305   0.862  0.00  0.00     0.159 C 
ATOM      2  C   UNL d   1      -0.173  -1.162   1.876  0.00  0.00     0.121 C 
ATOM      3  C   UNL d   1       1.362  -0.184   0.281  0.00  0.00     0.113 C 
ATOM      4  N   UNL d   1       1.892   0.758  -0.123  0.00  0.00    -0.191 NA
ENDROOT
BRANCH   1   5
ATOM      5  S   UNL d   1       1.094  -2.914   0.332  0.00  0.00     0.218 S 
ATOM      6  O   UNL d   1       0.127  -3.324  -0.674  0.00  0.00    -0.216 OA
ATOM      7  O   UNL d   1       1.331  -3.767   1.480  0.00  0.00    -0.216 OA
BRANCH   5   8
ATOM      8  C   UNL d   1       2.672  -2.817  -0.503  0.00  0.00     0.065 A 
ATOM      9  C   UNL d   1       3.800  -2.425   0.226  0.00  0.00     0.025 A 
ATOM     10  C   UNL d   1       5.053  -2.438  -0.387  0.00  0.00     0.020 A 
ATOM     11  C   UNL d   1       5.176  -2.864  -1.711  0.00  0.00     0.011 A 
ATOM     12  C   UNL d   1       4.054  -3.264  -2.435  0.00  0.00     0.020 A 
ATOM     13 BR   UNL d   1       6.887  -2.938  -2.514  0.00  0.00    -0.051 Br
ATOM     14  C   UNL d   1       2.793  -3.240  -1.833  0.00  0.00     0.025 A 
ENDBRANCH   5   8
ENDBRANCH   1   5
BRANCH   2  15
ATOM     15  N   UNL d   1      -0.705   0.016   2.403  0.00  0.00    -0.383 N 
ATOM     16  C   UNL d   1      -1.189   1.139   1.565  0.00  0.00     0.153 C 
ATOM     17  C   UNL d   1      -0.349   2.403   1.831  0.00  0.00     0.136 C 
ATOM     18  C   UNL d   1      -0.823   3.569   0.979  0.00  0.00     0.041 C 
ATOM     19  O   UNL d   1      -0.427   2.755   3.225  0.00  0.00    -0.378 OA
ATOM     20  C   UNL d   1       0.126   1.686   4.029  0.00  0.00     0.136 C 
ATOM     21  C   UNL d   1      -0.682   0.370   3.842  0.00  0.00     0.153 C 
ATOM     22  C   UNL d   1       0.125   2.167   5.470  0.00  0.00     0.041 C 
ENDBRANCH   2  15
TORSDOF 3
