REMARK  2 active torsions:
REMARK  status: ('A' for Active; 'I' for Inactive)
REMARK       I    between atoms: N_2  and  C_1 
REMARK       I    between atoms: N_8  and  C_1 
REMARK    1  A    between atoms: C_3  and  N_2 
REMARK    2  A    between atoms: C_11  and  N_8 
ROOT
ATOM      1  C   UNL d   1       1.016   0.083  -0.067  0.00  0.00     0.326 C 
ATOM      2  N   UNL d   1       2.359  -0.154  -0.296  0.00  0.00    -0.287 N 
ATOM      3  N   UNL d   1       0.246  -1.028  -0.386  0.00  0.00    -0.309 N 
ATOM      4  O   UNL d   1       0.555   1.139   0.348  0.00  0.00    -0.247 OA
ATOM      5  H   UNL d   1       2.625  -0.946  -0.857  0.00  0.00     0.172 HD
ATOM      6  H   UNL d   1       0.697  -1.925  -0.294  0.00  0.00     0.170 HD
ENDROOT
BRANCH   2   7
ATOM      7  C   UNL d   1       3.309   0.813  -0.054  0.00  0.00     0.175 A 
ATOM      8  C   UNL d   1       4.634   0.875  -0.411  0.00  0.00     0.077 A 
ATOM      9  C   UNL d   1       5.071   2.111   0.102  0.00  0.00     0.119 A 
ATOM     10  N   UNL d   1       4.103   2.756   0.753  0.00  0.00    -0.270 N 
ATOM     11  O   UNL d   1       2.990   1.934   0.653  0.00  0.00    -0.220 OA
ATOM     12  HN  UNL d   1       4.166   3.660   1.222  1.00  0.00     0.194 HD
ENDBRANCH   2   7
BRANCH   3  13
ATOM     13  C   UNL d   1      -1.163  -1.030  -0.498  0.00  0.00     0.036 A 
ATOM     14  C   UNL d   1      -1.909   0.138  -0.696  0.00  0.00     0.031 A 
ATOM     15  C   UNL d   1      -3.301   0.088  -0.810  0.00  0.00     0.026 A 
ATOM     16  C   UNL d   1      -3.956  -1.135  -0.735  0.00  0.00     0.034 A 
ATOM     17  C   UNL d   1      -3.228  -2.310  -0.555  0.00  0.00     0.026 A 
ATOM     18 CL   UNL d   1      -5.669  -1.198  -0.874  0.00  0.00    -0.084 Cl
ATOM     19  C   UNL d   1      -1.833  -2.259  -0.446  0.00  0.00     0.031 A 
ENDBRANCH   3  13
TORSDOF 2
