REMARK  1 active torsions:
REMARK  status: ('A' for Active; 'I' for Inactive)
REMARK       I    between atoms: C_7  and  N_3 
REMARK    1  A    between atoms: C_8  and  C_4 
REMARK       I    between atoms: N_13  and  C_7 
ROOT
ATOM      1  N   UNL d   1       0.704  -0.618  -0.488  0.00  0.00    -0.289 N 
ATOM      2  HN  UNL d   1       1.495  -1.198  -0.770  1.00  0.00     0.188 HD
ATOM      3  N   UNL d   1      -0.598  -1.000  -0.328  0.00  0.00    -0.216 N 
ATOM      4  C   UNL d   1       0.710   0.696  -0.193  0.00  0.00     0.073 A 
ATOM      5  C   UNL d   1      -0.609   1.189   0.037  0.00  0.00    -0.015 A 
ATOM      6  C   UNL d   1      -1.404   0.069  -0.020  0.00  0.00     0.130 A 
ATOM      7  C   UNL d   1      -1.001  -2.346  -0.504  0.00  0.00     0.340 C 
ATOM      8  O   UNL d   1      -2.167  -2.671  -0.331  0.00  0.00    -0.245 OA
ATOM      9  N   UNL d   1       0.045  -3.142  -0.904  0.00  0.00    -0.346 N 
ATOM     10  C   UNL d   1      -1.100   2.569   0.271  0.00  0.00     0.052 C 
ATOM     11  C   UNL d   1      -0.176  -4.502  -1.310  0.00  0.00     0.151 C 
ATOM     12  H   UNL d   1       0.928  -2.670  -1.095  0.00  0.00     0.163 HD
ENDROOT
BRANCH   4  13
ATOM     13  C   UNL d   1       2.015   1.454  -0.135  0.00  0.00     0.033 A 
ATOM     14  S   UNL d   1       2.224   3.017   0.529  0.00  0.00    -0.100 SA
ATOM     15  C   UNL d   1       3.902   3.014   0.213  0.00  0.00     0.050 A 
ATOM     16  C   UNL d   1       4.306   1.847  -0.399  0.00  0.00     0.008 A 
ATOM     17  C   UNL d   1       3.218   0.943  -0.585  0.00  0.00     0.021 A 
ENDBRANCH   4  13
TORSDOF 1
