REMARK  2 active torsions:
REMARK  status: ('A' for Active; 'I' for Inactive)
REMARK    1  A    between atoms: N_4  and  N_1 
REMARK    2  A    between atoms: C_11  and  C_10 
ROOT
ATOM      1  N   UNL d   1       1.945   0.060  -0.050  0.00  0.00    -0.182 N 
ATOM      2  C   UNL d   1       1.150   1.187  -0.025  0.00  0.00     0.280 A 
ATOM      3  C   UNL d   1       1.192  -1.100  -0.025  0.00  0.00     0.280 A 
ATOM      4  C   UNL d   1      -0.208  -0.673   0.004  0.00  0.00     0.050 A 
ATOM      5  C   UNL d   1      -0.230   0.708  -0.003  0.00  0.00     0.050 A 
ATOM      6  O   UNL d   1       1.411   2.376  -0.020  0.00  0.00    -0.265 OA
ATOM      7  O   UNL d   1       1.524  -2.271  -0.035  0.00  0.00    -0.265 OA
ATOM      8  C   UNL d   1      -1.413   1.425  -0.004  0.00  0.00     0.018 A 
ATOM      9  C   UNL d   1      -1.374  -1.416   0.020  0.00  0.00     0.018 A 
ATOM     10  C   UNL d   1      -2.604   0.695   0.006  0.00  0.00     0.001 A 
ATOM     11  C   UNL d   1      -2.585  -0.715   0.021  0.00  0.00     0.001 A 
ENDROOT
BRANCH   1  12
ATOM     12  N   UNL d   1       3.316  -0.015  -0.123  0.00  0.00    -0.299 N 
ATOM     13  C   UNL d   1       4.021   1.068  -0.175  0.00  0.00     0.119 C 
ATOM     14  HN  UNL d   1       3.777  -0.925  -0.136  1.00  0.00     0.186 HD
BRANCH  13  15
ATOM     15  C   UNL d   1       5.497   1.034  -0.286  0.00  0.00    -0.019 A 
ATOM     16  C   UNL d   1       6.191  -0.176  -0.337  0.00  0.00     0.013 A 
ATOM     17  C   UNL d   1       7.582  -0.174  -0.463  0.00  0.00     0.007 A 
ATOM     18  C   UNL d   1       8.290   1.034  -0.539  0.00  0.00    -0.062 A 
ATOM     19  C   UNL d   1       7.585   2.243  -0.482  0.00  0.00     0.007 A 
ATOM     20  C   UNL d   1       9.783   1.016  -0.687  0.00  0.00     0.048 C 
ATOM     21  C   UNL d   1       6.193   2.244  -0.356  0.00  0.00     0.013 A 
ENDBRANCH  13  15
ENDBRANCH   1  12
TORSDOF 2
