REMARK  6 active torsions:
REMARK  status: ('A' for Active; 'I' for Inactive)
REMARK    1  A    between atoms: N_11  and  C_3 
REMARK    2  A    between atoms: N_14  and  C_4 
REMARK    3  A    between atoms: C_7  and  C_10 
REMARK    4  A    between atoms: O_12  and  C_9 
REMARK    5  A    between atoms: C_10  and  N_11 
REMARK    6  A    between atoms: C_15  and  O_12 
ROOT
ATOM      1  C   UNL d   1       4.844   1.910  -0.129  0.00  0.00     0.016 A 
ATOM      2  C   UNL d   1       4.575   3.290  -0.021  0.00  0.00     0.085 A 
ATOM      3  C   UNL d   1       6.194   1.514  -0.194  0.00  0.00     0.044 A 
ATOM      4 CL   UNL d   1       6.679  -0.149  -0.208  0.00  0.00    -0.084 Cl
ATOM      5  C   UNL d   1       5.614   4.231  -0.123  0.00  0.00     0.038 A 
ATOM      6  C   UNL d   1       6.938   3.816  -0.213  0.00  0.00     0.004 A 
ATOM      7  C   UNL d   1       7.228   2.458  -0.223  0.00  0.00     0.024 A 
ENDROOT
BRANCH   1   8
ATOM      8  C   UNL d   1       3.719   0.902  -0.170  0.00  0.00     0.181 C 
BRANCH   8   9
ATOM      9  N   UNL d   1       2.731   1.051  -1.240  0.00  0.00    -0.220 N 
ATOM     10  H   UNL d   1       1.913   0.470  -1.095  0.00  0.00     0.178 HD
BRANCH   9  11
ATOM     11  C   UNL d   1       3.047   1.470  -2.485  0.00  0.00     0.708 A 
ATOM     12  N   UNL d   1       4.113   2.082  -2.939  0.00  0.00    -0.020 N 
ATOM     13  C   UNL d   1       3.797   2.378  -4.226  0.00  0.00     0.705 A 
ATOM     14  HN  UNL d   1       4.979   2.289  -2.441  1.00  0.00     0.203 HD
ATOM     15  N   UNL d   1       2.605   1.953  -4.632  0.00  0.00    -0.118 N 
ATOM     16  N   UNL d   1       2.154   1.357  -3.518  0.00  0.00    -0.117 N 
ATOM     17  HN  UNL d   1       2.156   2.054  -5.542  1.00  0.00     0.206 HD
ATOM     18  H   UNL d   1       1.236   0.936  -3.514  0.00  0.00     0.206 HD
BRANCH  13  19
ATOM     19  N   UNL d   1       4.643   3.121  -4.934  0.00  0.00    -0.233 N 
ATOM     20  H   UNL d   1       5.305   3.653  -4.383  0.00  0.00     0.174 HD
ATOM     21  H   UNL d   1       4.236   3.637  -5.701  0.00  0.00     0.174 HD
ENDBRANCH  13  19
ENDBRANCH   9  11
ENDBRANCH   8   9
ENDBRANCH   1   8
BRANCH   2  22
ATOM     22  O   UNL d   1       3.255   3.681   0.147  0.00  0.00    -0.310 OA
BRANCH  22  23
ATOM     23  C   UNL d   1       3.021   4.844   0.841  0.00  0.00     0.076 A 
ATOM     24  C   UNL d   1       2.220   5.808   0.232  0.00  0.00     0.037 A 
ATOM     25  C   UNL d   1       2.008   7.032   0.866  0.00  0.00     0.003 A 
ATOM     26  C   UNL d   1       2.589   7.282   2.111  0.00  0.00     0.000 A 
ATOM     27  C   UNL d   1       3.355   6.299   2.739  0.00  0.00     0.003 A 
ATOM     28  C   UNL d   1       3.557   5.069   2.112  0.00  0.00     0.037 A 
ENDBRANCH  22  23
ENDBRANCH   2  22
TORSDOF 6
