REMARK  3 active torsions:
REMARK  status: ('A' for Active; 'I' for Inactive)
REMARK    1  A    between atoms: C_6  and  C_1 
REMARK    2  A    between atoms: C_5  and  C_2 
REMARK    3  A    between atoms: C_9  and  C_6 
ROOT
ATOM      1  C   UNL d   1      -0.054  -1.220  -0.002  0.00  0.00     0.076 C 
ATOM      2  C   UNL d   1      -1.384  -0.679  -0.048  0.00  0.00     0.086 C 
ATOM      3  N   UNL d   1      -1.323   0.656  -0.195  0.00  0.00    -0.259 N 
ATOM      4  HN  UNL d   1      -2.111   1.286  -0.343  1.00  0.00     0.195 HD
ATOM      5  O   UNL d   1      -0.002   1.010  -0.110  0.00  0.00    -0.241 OA
ATOM      6  C   UNL d   1       0.759  -0.100   0.031  0.00  0.00     0.089 C 
ATOM      7  C   UNL d   1       2.207   0.142   0.198  0.00  0.00     0.080 C 
ENDROOT
BRANCH   1   8
ATOM      8  C   UNL d   1       0.385  -2.601   0.078  0.00  0.00     0.197 C 
ATOM      9  O   UNL d   1      -0.170  -3.420   0.798  0.00  0.00    -0.286 OA
BRANCH   8  10
ATOM     10  C   UNL d   1       1.574  -3.022  -0.733  0.00  0.00     0.015 A 
ATOM     11  C   UNL d   1       1.885  -2.416  -1.963  0.00  0.00     0.018 A 
ATOM     12  C   UNL d   1       3.057  -2.760  -2.640  0.00  0.00     0.043 A 
ATOM     13  C   UNL d   1       3.895  -3.732  -2.108  0.00  0.00     0.116 A 
ATOM     14  C   UNL d   1       3.573  -4.384  -0.922  0.00  0.00     0.043 A 
ATOM     15  F   UNL d   1       5.031  -4.042  -2.745  0.00  0.00    -0.206 F 
ATOM     16  C   UNL d   1       2.408  -4.032  -0.233  0.00  0.00     0.018 A 
ENDBRANCH   8  10
ENDBRANCH   1   8
BRANCH   2  17
ATOM     17  C   UNL d   1      -2.688  -1.349  -0.033  0.00  0.00     0.054 A 
ATOM     18  C   UNL d   1      -2.887  -2.512  -0.790  0.00  0.00     0.130 A 
ATOM     19  F   UNL d   1      -1.892  -3.022  -1.534  0.00  0.00    -0.205 F 
ATOM     20  C   UNL d   1      -4.122  -3.162  -0.836  0.00  0.00     0.043 A 
ATOM     21  C   UNL d   1      -5.210  -2.641  -0.145  0.00  0.00     0.005 A 
ATOM     22  C   UNL d   1      -5.048  -1.482   0.609  0.00  0.00     0.025 A 
ATOM     23  C   UNL d   1      -3.796  -0.848   0.681  0.00  0.00     0.049 A 
ATOM     24 CL   UNL d   1      -3.719   0.540   1.718  0.00  0.00    -0.083 Cl
ENDBRANCH   2  17
TORSDOF 3
