REMARK  3 active torsions:
REMARK  status: ('A' for Active; 'I' for Inactive)
REMARK    1  A    between atoms: N_15  and  C_10 
REMARK       I    between atoms: C_11  and  N_13 
REMARK       I    between atoms: N_14  and  C_11 
REMARK    2  A    between atoms: N_13  and  N_15 
REMARK    3  A    between atoms: C_17  and  N_14 
ROOT
ATOM      1  N   UNL d   1      -3.369  -1.285  -0.483  0.00  0.00    -0.186 NA
ATOM      2  H   UNL d   1      -3.917  -0.803  -1.207  0.00  0.00     0.154 HD
ENDROOT
BRANCH   1   3
ATOM      3  N   UNL d   1      -3.201  -2.644  -0.869  0.00  0.00    -0.267 N 
ATOM      4  C   UNL d   1      -4.053  -3.076  -1.877  0.00  0.00     0.335 C 
ATOM      5  N   UNL d   1      -4.002  -4.444  -2.059  0.00  0.00    -0.308 N 
ATOM      6  O   UNL d   1      -4.754  -2.276  -2.490  0.00  0.00    -0.246 OA
ATOM      7  H   UNL d   1      -3.441  -4.959  -1.400  0.00  0.00     0.170 HD
ATOM      8  H   UNL d   1      -2.943  -3.250  -0.103  0.00  0.00     0.186 HD
BRANCH   5   9
ATOM      9  C   UNL d   1      -4.833  -5.192  -2.921  0.00  0.00     0.036 A 
ATOM     10  C   UNL d   1      -5.581  -4.618  -3.953  0.00  0.00     0.031 A 
ATOM     11  C   UNL d   1      -6.496  -5.383  -4.681  0.00  0.00     0.026 A 
ATOM     12  C   UNL d   1      -6.659  -6.732  -4.386  0.00  0.00     0.034 A 
ATOM     13  C   UNL d   1      -5.868  -7.335  -3.410  0.00  0.00     0.026 A 
ATOM     14 CL   UNL d   1      -7.854  -7.650  -5.213  0.00  0.00    -0.084 Cl
ATOM     15  C   UNL d   1      -4.943  -6.569  -2.690  0.00  0.00     0.031 A 
ENDBRANCH   5   9
ENDBRANCH   1   3
BRANCH   1  16
ATOM     16  C   UNL d   1      -2.124  -0.606  -0.326  0.00  0.00     0.100 A 
ATOM     17  N   UNL d   1      -0.977  -1.300  -0.232  0.00  0.00    -0.330 N 
ATOM     18  C   UNL d   1       0.127  -0.531  -0.105  0.00  0.00     0.136 A 
ATOM     19  HN  UNL d   1      -0.942  -2.319  -0.255  1.00  0.00     0.168 HD
ATOM     20  C   UNL d   1       0.200   0.859  -0.037  0.00  0.00     0.039 A 
ATOM     21  N   UNL d   1       1.410  -0.986  -0.026  0.00  0.00    -0.280 N 
ATOM     22  C   UNL d   1       1.607   1.121   0.027  0.00  0.00     0.036 A 
ATOM     23  C   UNL d   1      -1.019   1.570  -0.059  0.00  0.00    -0.043 A 
ATOM     24  C   UNL d   1       2.353   2.405   0.044  0.00  0.00     0.070 C 
ATOM     25  N   UNL d   1       2.332  -0.007   0.046  0.00  0.00    -0.301 N 
ATOM     26  HN  UNL d   1       3.346  -0.101   0.104  1.00  0.00     0.187 HD
ATOM     27  C   UNL d   1      -1.199   3.057   0.055  0.00  0.00     0.049 C 
ATOM     28  C   UNL d   1      -2.184   0.787  -0.203  0.00  0.00     0.051 A 
ATOM     29  C   UNL d   1       1.846  -2.360  -0.027  0.00  0.00     0.179 C 
ENDBRANCH   1  16
TORSDOF 3
