REMARK  6 active torsions:
REMARK  status: ('A' for Active; 'I' for Inactive)
REMARK       I    between atoms: N_5  and  C_1 
REMARK       I    between atoms: N_6  and  C_1 
REMARK    1  A    between atoms: C_2  and  S_8 
REMARK    2  A    between atoms: C_14  and  N_5 
REMARK    3  A    between atoms: C_15  and  N_6 
REMARK    4  A    between atoms: S_9  and  C_7 
REMARK    5  A    between atoms: S_8  and  C_16 
REMARK    6  A    between atoms: C_17  and  S_9 
ROOT
ATOM      1  C   UNL d   1      -0.865   1.224  -0.400  0.00  0.00     0.325 C 
ATOM      2  N   UNL d   1       0.404   0.941  -0.880  0.00  0.00    -0.307 N 
ATOM      3  N   UNL d   1      -1.406   0.177   0.323  0.00  0.00    -0.309 N 
ATOM      4  O   UNL d   1      -1.446   2.281  -0.619  0.00  0.00    -0.247 OA
ATOM      5  H   UNL d   1       0.727  -0.012  -0.818  0.00  0.00     0.170 HD
ATOM      6  H   UNL d   1      -0.788  -0.579   0.580  0.00  0.00     0.170 HD
ENDROOT
BRANCH   2   7
ATOM      7  C   UNL d   1       1.178   1.835  -1.664  0.00  0.00     0.051 A 
ATOM      8  C   UNL d   1       0.891   3.190  -1.829  0.00  0.00     0.118 A 
ATOM      9  N   UNL d   1       1.610   4.049  -2.595  0.00  0.00    -0.358 N 
ATOM     10  C   UNL d   1       2.680   3.551  -3.241  0.00  0.00     0.074 A 
ATOM     11  HN  UNL d   1       1.349   5.031  -2.677  1.00  0.00     0.166 HD
ATOM     12  C   UNL d   1       3.063   2.219  -3.129  0.00  0.00     0.039 A 
ATOM     13  C   UNL d   1       2.306   1.354  -2.327  0.00  0.00     0.034 A 
BRANCH  10  14
ATOM     14  S   UNL d   1       3.663   4.718  -4.153  0.00  0.00    -0.073 SA
BRANCH  14  15
ATOM     15  C   UNL d   1       2.915   4.678  -5.770  0.00  0.00     0.007 A 
ATOM     16  C   UNL d   1       1.558   4.937  -5.987  0.00  0.00     0.019 A 
ATOM     17  C   UNL d   1       1.033   4.927  -7.286  0.00  0.00     0.008 A 
ATOM     18  C   UNL d   1       1.860   4.667  -8.386  0.00  0.00    -0.062 A 
ATOM     19  C   UNL d   1       3.220   4.431  -8.169  0.00  0.00     0.008 A 
ATOM     20  C   UNL d   1       1.288   4.633  -9.773  0.00  0.00     0.048 C 
ATOM     21  C   UNL d   1       3.742   4.442  -6.873  0.00  0.00     0.019 A 
ENDBRANCH  14  15
ENDBRANCH  10  14
ENDBRANCH   2   7
BRANCH   3  22
ATOM     22  C   UNL d   1      -2.726   0.119   0.839  0.00  0.00     0.036 A 
ATOM     23  C   UNL d   1      -3.692   1.106   0.614  0.00  0.00     0.031 A 
ATOM     24  C   UNL d   1      -4.979   0.998   1.150  0.00  0.00     0.021 A 
ATOM     25  C   UNL d   1      -5.328  -0.102   1.932  0.00  0.00     0.009 A 
ATOM     26  C   UNL d   1      -4.380  -1.109   2.134  0.00  0.00     0.021 A 
ATOM     27  C   UNL d   1      -3.088  -0.996   1.599  0.00  0.00     0.031 A 
BRANCH  25  28
ATOM     28  S   UNL d   1      -6.966  -0.280   2.597  0.00  0.00    -0.016 SA
BRANCH  28  29
ATOM     29  C   UNL d   1      -7.054   1.133   3.712  0.00  0.00     0.448 C 
ATOM     30  F   UNL d   1      -5.959   1.928   3.684  0.00  0.00    -0.160 F 
ATOM     31  F   UNL d   1      -8.121   1.913   3.413  0.00  0.00    -0.160 F 
ATOM     32  F   UNL d   1      -7.210   0.718   4.993  0.00  0.00    -0.160 F 
ENDBRANCH  28  29
ENDBRANCH  25  28
ENDBRANCH   3  22
TORSDOF 6
