REMARK  3 active torsions:
REMARK  status: ('A' for Active; 'I' for Inactive)
REMARK    1  A    between atoms: C_6  and  C_1 
REMARK    2  A    between atoms: C_7  and  C_6 
REMARK    3  A    between atoms: N_12  and  C_8 
ROOT
ATOM      1  C   UNL d   1       2.820  -2.543  -0.016  0.00  0.00     0.045 A 
ATOM      2  C   UNL d   1       3.402  -1.283  -0.013  0.00  0.00     0.090 A 
ATOM      3  S   UNL d   1       5.103  -1.288  -0.041  0.00  0.00    -0.065 SA
ATOM      4  C   UNL d   1       5.128  -2.970  -0.058  0.00  0.00     0.077 A 
ATOM      5  C   UNL d   1       3.877  -3.535  -0.043  0.00  0.00     0.049 A 
ATOM      6 CL   UNL d   1       2.648   0.270   0.016  0.00  0.00    -0.075 Cl
ATOM      7 CL   UNL d   1       6.629  -3.803  -0.092  0.00  0.00    -0.076 Cl
ENDROOT
BRANCH   1   8
ATOM      8  C   UNL d   1       1.364  -2.759   0.004  0.00  0.00     0.185 C 
ATOM      9  O   UNL d   1       0.549  -1.843   0.027  0.00  0.00    -0.287 OA
BRANCH   8  10
ATOM     10  C   UNL d   1       0.910  -4.181  -0.007  0.00  0.00     0.072 C 
ATOM     11  C   UNL d   1      -0.403  -4.460   0.009  0.00  0.00     0.088 C 
BRANCH  11  12
ATOM     12  N   UNL d   1      -1.059  -5.685   0.002  0.00  0.00    -0.398 N 
ATOM     13  C   UNL d   1      -0.403  -6.990  -0.029  0.00  0.00     0.148 C 
ATOM     14  C   UNL d   1      -2.524  -5.764   0.026  0.00  0.00     0.148 C 
ENDBRANCH  11  12
ENDBRANCH   8  10
ENDBRANCH   1   8
TORSDOF 3
