REMARK  7 active torsions:
REMARK  status: ('A' for Active; 'I' for Inactive)
REMARK    1  A    between atoms: C_10  and  C_1 
REMARK    2  A    between atoms: N_6  and  C_2 
REMARK    3  A    between atoms: C_11  and  C_5 
REMARK    4  A    between atoms: N_7  and  N_6 
REMARK    5  A    between atoms: O_18  and  C_10 
REMARK    6  A    between atoms: O_19  and  C_11 
REMARK    7  A    between atoms: C_20  and  O_19 
ROOT
ATOM      1  C   UNL d   1      -2.861   1.028  -0.051  0.00  0.00     0.109 A 
ATOM      2  C   UNL d   1      -2.193  -0.192  -0.053  0.00  0.00     0.092 A 
ATOM      3  C   UNL d   1      -0.768  -0.021  -0.013  0.00  0.00     0.080 A 
ATOM      4  S   UNL d   1      -1.763   2.345   0.010  0.00  0.00    -0.092 SA
ATOM      5  C   UNL d   1      -0.409   1.310   0.026  0.00  0.00     0.075 A 
ATOM      6  C   UNL d   1       0.229  -1.051  -0.015  0.00  0.00     0.102 C 
ATOM      7  N   UNL d   1       1.083  -1.839  -0.016  0.00  0.00    -0.191 NA
ENDROOT
BRANCH   2   8
ATOM      8  N   UNL d   1      -2.857  -1.389  -0.097  0.00  0.00    -0.297 N 
ATOM      9  H   UNL d   1      -3.890  -1.357  -0.106  0.00  0.00     0.187 HD
BRANCH   8  10
ATOM     10  N   UNL d   1      -2.201  -2.590  -0.097  0.00  0.00    -0.285 N 
ATOM     11  C   UNL d   1      -2.845  -3.725  -0.143  0.00  0.00     0.204 C 
ATOM     12  C   UNL d   1      -4.281  -3.725  -0.185  0.00  0.00     0.125 C 
ATOM     13  N   UNL d   1      -5.443  -3.685  -0.215  0.00  0.00    -0.190 NA
ATOM     14  HN  UNL d   1      -1.182  -2.598  -0.061  1.00  0.00     0.188 HD
BRANCH  11  15
ATOM     15  C   UNL d   1      -2.099  -5.038  -0.075  0.00  0.00     0.322 C 
ATOM     16  O   UNL d   1      -2.584  -6.011   0.475  0.00  0.00    -0.257 OA
BRANCH  15  17
ATOM     17  O   UNL d   1      -0.861  -4.922  -0.592  0.00  0.00    -0.316 OA
BRANCH  17  18
ATOM     18  C   UNL d   1       0.080  -5.902  -0.131  0.00  0.00     0.175 C 
ATOM     19  C   UNL d   1       0.694  -5.392   1.162  0.00  0.00     0.034 C 
ENDBRANCH  17  18
ENDBRANCH  15  17
ENDBRANCH  11  15
ENDBRANCH   8  10
ENDBRANCH   2   8
BRANCH   1  20
ATOM     20  C   UNL d   1      -4.300   1.231  -0.096  0.00  0.00     0.302 C 
ATOM     21  O   UNL d   1      -5.115   0.313  -0.135  0.00  0.00    -0.259 OA
BRANCH  20  22
ATOM     22  O   UNL d   1      -4.638   2.553  -0.096  0.00  0.00    -0.322 OA
ATOM     23  C   UNL d   1      -6.043   2.802  -0.148  0.00  0.00     0.213 C 
ENDBRANCH  20  22
ENDBRANCH   1  20
TORSDOF 7
