REMARK  4 active torsions:
REMARK  status: ('A' for Active; 'I' for Inactive)
REMARK    1  A    between atoms: C_8  and  C_1 
REMARK    2  A    between atoms: N_7  and  C_2 
REMARK       I    between atoms: C_3  and  N_7 
REMARK       I    between atoms: N_6  and  C_3 
REMARK    3  A    between atoms: S_10  and  N_6 
REMARK    4  A    between atoms: C_12  and  N_6 
ROOT
ATOM      1  C   UNL d   1      -1.747  -3.237   0.872  0.00  0.00     0.097 A 
ATOM      2  C   UNL d   1      -0.628  -3.139  -0.020  0.00  0.00     0.097 A 
ATOM      3  N   UNL d   1      -2.731  -3.964   0.321  0.00  0.00    -0.258 N 
ATOM      4  HN  UNL d   1      -3.652  -4.149   0.717  1.00  0.00     0.195 HD
ATOM      5  C   UNL d   1      -0.973  -3.957  -1.073  0.00  0.00     0.101 A 
ATOM      6  O   UNL d   1      -2.244  -4.408  -0.887  0.00  0.00    -0.240 OA
ATOM      7  C   UNL d   1      -0.335  -4.440  -2.312  0.00  0.00     0.081 C 
ENDROOT
BRANCH   2   8
ATOM      8  N   UNL d   1       0.533  -2.406   0.201  0.00  0.00    -0.303 N 
ATOM      9  C   UNL d   1       1.804  -2.791  -0.203  0.00  0.00     0.339 C 
ATOM     10  N   UNL d   1       2.799  -1.846   0.158  0.00  0.00    -0.212 N 
ATOM     11  O   UNL d   1       2.053  -3.895  -0.681  0.00  0.00    -0.245 OA
ATOM     12  H   UNL d   1       0.496  -1.710   0.927  0.00  0.00     0.171 HD
BRANCH  10  13
ATOM     13  S   UNL d   1       2.627  -0.313  -0.554  0.00  0.00     0.121 S 
ATOM     14  O   UNL d   1       1.335  -0.159  -1.298  0.00  0.00    -0.235 OA
ATOM     15  C   UNL d   1       2.475   0.659   0.965  0.00  0.00     0.153 C 
ENDBRANCH  10  13
BRANCH  10  16
ATOM     16  C   UNL d   1       4.111  -2.295   0.572  0.00  0.00     0.053 A 
ATOM     17  C   UNL d   1       4.285  -3.590   1.093  0.00  0.00     0.031 A 
ATOM     18  C   UNL d   1       5.548  -4.081   1.445  0.00  0.00     0.009 A 
ATOM     19  C   UNL d   1       6.683  -3.280   1.315  0.00  0.00    -0.062 A 
ATOM     20  C   UNL d   1       6.523  -1.968   0.871  0.00  0.00     0.009 A 
ATOM     21  C   UNL d   1       8.041  -3.846   1.606  0.00  0.00     0.048 C 
ATOM     22  C   UNL d   1       5.257  -1.481   0.511  0.00  0.00     0.031 A 
ENDBRANCH  10  16
ENDBRANCH   2   8
BRANCH   1  23
ATOM     23  C   UNL d   1      -1.842  -2.841   2.275  0.00  0.00     0.038 A 
ATOM     24  C   UNL d   1      -2.851  -1.978   2.734  0.00  0.00     0.048 A 
ATOM     25 CL   UNL d   1      -3.927  -1.147   1.663  0.00  0.00    -0.083 Cl
ATOM     26  C   UNL d   1      -3.015  -1.736   4.107  0.00  0.00     0.025 A 
ATOM     27  C   UNL d   1      -2.171  -2.338   5.037  0.00  0.00     0.003 A 
ATOM     28  C   UNL d   1      -1.148  -3.170   4.598  0.00  0.00     0.025 A 
ATOM     29  C   UNL d   1      -0.984  -3.428   3.232  0.00  0.00     0.048 A 
ATOM     30 CL   UNL d   1       0.293  -4.526   2.820  0.00  0.00    -0.083 Cl
ENDBRANCH   1  23
TORSDOF 4
