REMARK  3 active torsions:
REMARK  status: ('A' for Active; 'I' for Inactive)
REMARK    1  A    between atoms: N_2  and  S_1 
REMARK    2  A    between atoms: C_7  and  S_1 
REMARK    3  A    between atoms: N_8  and  C_4 
ROOT
ATOM      1  S   UNL d   1       0.940   0.057  -0.019  0.00  0.00     0.263 S 
ATOM      2  O   UNL d   1       0.499  -0.635   1.178  0.00  0.00    -0.200 OA
ATOM      3  O   UNL d   1       0.497   1.414  -0.278  0.00  0.00    -0.200 OA
ENDROOT
BRANCH   1   4
ATOM      4  N   UNL d   1       0.611  -0.855  -1.322  0.00  0.00    -0.277 N 
ATOM      5  C   UNL d   1      -0.633  -1.129  -1.515  0.00  0.00     0.188 C 
ATOM      6  HN  UNL d   1       1.344  -1.190  -1.947  1.00  0.00     0.179 HD
BRANCH   5   7
ATOM      7  N   UNL d   1      -1.153  -1.879  -2.545  0.00  0.00    -0.385 N 
ATOM      8  C   UNL d   1      -2.574  -2.167  -2.653  0.00  0.00     0.149 C 
ATOM      9  C   UNL d   1      -0.318  -2.398  -3.616  0.00  0.00     0.149 C 
ENDBRANCH   5   7
ENDBRANCH   1   4
BRANCH   1  10
ATOM     10  C   UNL d   1       2.721   0.080   0.048  0.00  0.00     0.079 A 
ATOM     11  C   UNL d   1       3.413   1.291  -0.041  0.00  0.00     0.025 A 
ATOM     12  C   UNL d   1       4.805   1.295   0.067  0.00  0.00     0.002 A 
ATOM     13  C   UNL d   1       5.495   0.096   0.262  0.00  0.00     0.000 A 
ATOM     14  C   UNL d   1       4.799  -1.111   0.343  0.00  0.00     0.002 A 
ATOM     15  C   UNL d   1       3.408  -1.124   0.236  0.00  0.00     0.025 A 
ENDBRANCH   1  10
TORSDOF 3
