REMARK  4 active torsions:
REMARK  status: ('A' for Active; 'I' for Inactive)
REMARK    1  A    between atoms: N_11  and  C_3 
REMARK    2  A    between atoms: C_9  and  N_4 
REMARK       I    between atoms: C_8  and  N_13 
REMARK    3  A    between atoms: C_10  and  C_8 
REMARK    4  A    between atoms: N_13  and  N_11 
ROOT
ATOM      1  C   UNL d   1      -0.848   1.398  -0.240  0.00  0.00     0.133 C 
ATOM      2  C   UNL d   1      -1.730   0.199  -0.100  0.00  0.00     0.291 C 
ATOM      3  C   UNL d   1       0.413   1.413   0.212  0.00  0.00     0.094 C 
ATOM      4  N   UNL d   1      -1.110  -0.940   0.434  0.00  0.00    -0.219 N 
ATOM      5  N   UNL d   1       0.105  -0.884   1.082  0.00  0.00    -0.300 N 
ATOM      6  HN  UNL d   1       0.455  -1.678   1.618  1.00  0.00     0.186 HD
ATOM      7  C   UNL d   1       0.784   0.208   0.988  0.00  0.00     0.141 C 
ATOM      8  O   UNL d   1      -2.899   0.262  -0.477  0.00  0.00    -0.264 OA
ATOM      9 CL   UNL d   1      -1.513   2.751  -1.101  0.00  0.00    -0.076 Cl
ENDROOT
BRANCH   3  10
ATOM     10  N   UNL d   1       1.427   2.343  -0.008  0.00  0.00    -0.291 N 
ATOM     11  C   UNL d   1       1.829   2.668  -1.387  0.00  0.00     0.178 C 
BRANCH  10  12
ATOM     12  N   UNL d   1       1.562   3.430   0.894  0.00  0.00    -0.263 N 
ATOM     13  C   UNL d   1       2.816   3.979   1.158  0.00  0.00     0.277 C 
ATOM     14  O   UNL d   1       3.853   3.520   0.680  0.00  0.00    -0.265 OA
ATOM     15  H   UNL d   1       0.713   3.894   1.202  0.00  0.00     0.190 HD
BRANCH  13  16
ATOM     16  C   UNL d   1       2.823   5.157   2.017  0.00  0.00     0.075 A 
ATOM     17  S   UNL d   1       1.417   5.726   2.823  0.00  0.00    -0.072 SA
ATOM     18  C   UNL d   1       2.284   6.970   3.576  0.00  0.00     0.075 A 
ATOM     19 CL   UNL d   1       1.484   8.030   4.662  0.00  0.00    -0.076 Cl
ATOM     20  C   UNL d   1       3.608   7.004   3.227  0.00  0.00     0.033 A 
ATOM     21  C   UNL d   1       3.920   5.951   2.316  0.00  0.00     0.027 A 
ENDBRANCH  13  16
ENDBRANCH  10  12
ENDBRANCH   3  10
BRANCH   4  22
ATOM     22  C   UNL d   1      -1.668  -2.262   0.347  0.00  0.00     0.063 A 
ATOM     23  C   UNL d   1      -2.655  -2.591  -0.596  0.00  0.00     0.055 A 
ATOM     24  C   UNL d   1      -3.131  -3.901  -0.709  0.00  0.00     0.037 A 
ATOM     25 CL   UNL d   1      -4.309  -4.277  -1.908  0.00  0.00    -0.084 Cl
ATOM     26  C   UNL d   1      -2.650  -4.909   0.116  0.00  0.00     0.048 A 
ATOM     27  C   UNL d   1      -1.674  -4.598   1.054  0.00  0.00     0.037 A 
ATOM     28  C   UNL d   1      -1.179  -3.296   1.165  0.00  0.00     0.055 A 
ATOM     29 CL   UNL d   1      -1.061  -5.835   2.083  0.00  0.00    -0.084 Cl
ENDBRANCH   4  22
TORSDOF 4
