REMARK  2 active torsions:
REMARK  status: ('A' for Active; 'I' for Inactive)
REMARK    1  A    between atoms: C_7  and  C_1 
REMARK    2  A    between atoms: C_8  and  N_2 
ROOT
ATOM      1  C   UNL d   1      -0.333   1.209   0.011  0.00  0.00     0.050 C 
ATOM      2  N   UNL d   1       1.014  -0.570  -0.077  0.00  0.00    -0.260 N 
ATOM      3  C   UNL d   1       1.004   0.818   0.011  0.00  0.00     0.046 C 
ATOM      4  N   UNL d   1      -0.236  -1.052  -0.296  0.00  0.00    -0.304 N 
ATOM      5  HN  UNL d   1      -0.503  -2.013  -0.510  1.00  0.00     0.186 HD
ATOM      6  C   UNL d   1      -1.036   0.003  -0.172  0.00  0.00     0.124 C 
ATOM      7  C   UNL d   1       2.213   1.691  -0.016  0.00  0.00     0.071 C 
ENDROOT
BRANCH   2   8
ATOM      8  C   UNL d   1       2.107  -1.479  -0.004  0.00  0.00     0.056 A 
ATOM      9  C   UNL d   1       3.251  -1.190   0.753  0.00  0.00     0.033 A 
ATOM     10  C   UNL d   1       4.338  -2.071   0.744  0.00  0.00     0.026 A 
ATOM     11  C   UNL d   1       4.278  -3.241  -0.009  0.00  0.00     0.034 A 
ATOM     12  C   UNL d   1       3.127  -3.563  -0.723  0.00  0.00     0.026 A 
ATOM     13 CL   UNL d   1       5.637  -4.295  -0.055  0.00  0.00    -0.084 Cl
ATOM     14  C   UNL d   1       2.033  -2.693  -0.707  0.00  0.00     0.033 A 
ENDBRANCH   2   8
BRANCH   1  15
ATOM     15  C   UNL d   1      -0.837   2.576   0.119  0.00  0.00     0.159 C 
ATOM     16  O   UNL d   1      -0.073   3.529   0.282  0.00  0.00    -0.293 OA
ATOM     17  C   UNL d   1      -2.318   2.843   0.025  0.00  0.00     0.097 C 
ENDBRANCH   1  15
TORSDOF 2
