REMARK  4 active torsions:
REMARK  status: ('A' for Active; 'I' for Inactive)
REMARK    1  A    between atoms: C_9  and  C_1 
REMARK    2  A    between atoms: N_6  and  C_2 
REMARK    3  A    between atoms: C_8  and  C_4 
REMARK       I    between atoms: C_7  and  N_6 
REMARK    4  A    between atoms: C_10  and  C_7 
REMARK       I    between atoms: N_21  and  C_9 
ROOT
ATOM      1  C   UNL d   1       0.031   1.193  -0.403  0.00  0.00     0.100 C 
ATOM      2  C   UNL d   1       1.313   0.839   0.001  0.00  0.00     0.059 C 
ATOM      3  S   UNL d   1      -1.044  -0.148  -0.295  0.00  0.00    -0.082 SA
ATOM      4  C   UNL d   1       0.221  -1.252  -0.026  0.00  0.00     0.018 C 
ATOM      5  C   UNL d   1       1.415  -0.591   0.165  0.00  0.00     0.051 C 
ENDROOT
BRANCH   2   6
ATOM      6  N   UNL d   1       2.443   1.637   0.184  0.00  0.00    -0.321 N 
ATOM      7  C   UNL d   1       2.497   3.004   0.388  0.00  0.00     0.263 C 
ATOM      8  O   UNL d   1       1.505   3.715   0.536  0.00  0.00    -0.267 OA
ATOM      9  H   UNL d   1       3.321   1.144   0.314  0.00  0.00     0.169 HD
BRANCH   7  10
ATOM     10  C   UNL d   1       3.848   3.570   0.401  0.00  0.00     0.072 A 
ATOM     11  S   UNL d   1       5.256   2.602   0.240  0.00  0.00    -0.097 SA
ATOM     12  C   UNL d   1       6.284   3.967   0.232  0.00  0.00     0.050 A 
ATOM     13  C   UNL d   1       5.582   5.141   0.384  0.00  0.00     0.009 A 
ATOM     14  C   UNL d   1       4.181   4.911   0.500  0.00  0.00     0.025 A 
ENDBRANCH   7  10
ENDBRANCH   2   6
BRANCH   1  15
ATOM     15  C   UNL d   1      -0.551   2.402  -0.959  0.00  0.00     0.258 C 
ATOM     16  O   UNL d   1      -1.695   2.803  -0.752  0.00  0.00    -0.267 OA
ATOM     17  N   UNL d   1       0.220   3.063  -1.879  0.00  0.00    -0.365 N 
ATOM     18  H   UNL d   1       1.212   2.898  -1.927  0.00  0.00     0.159 HD
ATOM     19  H   UNL d   1      -0.125   3.973  -2.150  0.00  0.00     0.159 HD
ENDBRANCH   1  15
BRANCH   4  20
ATOM     20  C   UNL d   1       0.044  -2.748  -0.019  0.00  0.00    -0.012 A 
ATOM     21  C   UNL d   1      -1.179  -3.362  -0.207  0.00  0.00     0.062 A 
ATOM     22  S   UNL d   1      -1.066  -5.070  -0.219  0.00  0.00    -0.113 SA
ATOM     23  C   UNL d   1       0.622  -5.010   0.035  0.00  0.00     0.050 A 
ATOM     24  C   UNL d   1       1.087  -3.715   0.135  0.00  0.00     0.020 A 
ENDBRANCH   4  20
TORSDOF 4
