REMARK  8 active torsions:
REMARK  status: ('A' for Active; 'I' for Inactive)
REMARK    1  A    between atoms: C_3  and  C_11 
REMARK    2  A    between atoms: N_21  and  C_6 
REMARK    3  A    between atoms: C_12  and  C_8 
REMARK    4  A    between atoms: S_16  and  C_10 
REMARK    5  A    between atoms: C_11  and  C_17 
REMARK    6  A    between atoms: O_23  and  C_12 
REMARK    7  A    between atoms: C_17  and  S_16 
REMARK    8  A    between atoms: C_24  and  O_23 
ROOT
ATOM      1  N   UNL d   1       0.419  -1.062  -0.124  0.00  0.00    -0.327 N 
ATOM      2  HN  UNL d   1       0.987  -1.908  -0.166  1.00  0.00     0.169 HD
ATOM      3  C   UNL d   1       0.984   0.149   0.021  0.00  0.00     0.097 A 
ATOM      4  C   UNL d   1       0.230   1.308   0.088  0.00  0.00     0.092 A 
ATOM      5  C   UNL d   1      -0.920  -1.118  -0.211  0.00  0.00     0.145 A 
ATOM      6  N   UNL d   1      -1.733  -0.051  -0.161  0.00  0.00    -0.346 N 
ATOM      7  HN  UNL d   1      -2.746  -0.142  -0.235  1.00  0.00     0.167 HD
ATOM      8  C   UNL d   1      -1.134   1.149  -0.006  0.00  0.00     0.111 A 
ENDROOT
BRANCH   5   9
ATOM      9  S   UNL d   1      -1.681  -2.704  -0.441  0.00  0.00    -0.086 SA
BRANCH   9  10
ATOM     10  C   UNL d   1      -0.194  -3.747  -0.412  0.00  0.00     0.166 C 
BRANCH  10  11
ATOM     11  C   UNL d   1      -0.562  -5.192  -0.690  0.00  0.00     0.176 C 
ATOM     12  O   UNL d   1      -0.823  -5.940   0.257  0.00  0.00    -0.291 OA
BRANCH  11  13
ATOM     13  C   UNL d   1      -0.574  -5.692  -2.065  0.00  0.00     0.054 A 
ATOM     14  S   UNL d   1      -0.299  -4.694  -3.431  0.00  0.00    -0.073 SA
ATOM     15  C   UNL d   1      -0.426  -6.004  -4.497  0.00  0.00     0.097 A 
ATOM     16 CL   UNL d   1      -0.205  -5.728  -6.180  0.00  0.00    -0.074 Cl
ATOM     17  C   UNL d   1      -0.697  -7.189  -3.864  0.00  0.00     0.064 A 
ATOM     18  C   UNL d   1      -0.794  -7.005  -2.454  0.00  0.00     0.048 A 
ATOM     19 CL   UNL d   1      -0.889  -8.720  -4.598  0.00  0.00    -0.082 Cl
ENDBRANCH  11  13
ENDBRANCH  10  11
ENDBRANCH   9  10
ENDBRANCH   5   9
BRANCH   3  20
ATOM     20  N   UNL d   1       2.361   0.130   0.223  0.00  0.00    -0.288 NA
ATOM     21  H   UNL d   1       2.738  -0.793   0.039  0.00  0.00     0.125 HD
ATOM     22  H   UNL d   1       2.846   0.882  -0.265  0.00  0.00     0.125 HD
ENDBRANCH   3  20
BRANCH   4  23
ATOM     23  C   UNL d   1       0.868   2.620   0.253  0.00  0.00     0.298 C 
ATOM     24  O   UNL d   1       1.990   2.883  -0.145  0.00  0.00    -0.259 OA
BRANCH  23  25
ATOM     25  O   UNL d   1       0.065   3.411   1.004  0.00  0.00    -0.318 OA
BRANCH  25  26
ATOM     26  C   UNL d   1       0.722   4.528   1.621  0.00  0.00     0.174 C 
ATOM     27  C   UNL d   1       1.278   4.067   2.958  0.00  0.00     0.034 C 
ENDBRANCH  25  26
ENDBRANCH  23  25
ENDBRANCH   4  23
TORSDOF 8
