REMARK  6 active torsions:
REMARK  status: ('A' for Active; 'I' for Inactive)
REMARK    1  A    between atoms: N_3  and  S_1 
REMARK    2  A    between atoms: C_5  and  S_1 
REMARK    3  A    between atoms: C_6  and  N_3 
REMARK    4  A    between atoms: C_18  and  C_17 
REMARK    5  A    between atoms: C_19  and  C_18 
REMARK    6  A    between atoms: C_20  and  C_19 
ROOT
ATOM      1  S   UNL d   1       1.022   0.119   0.239  0.00  0.00     0.241 S 
ATOM      2  O   UNL d   1       0.028   0.748   1.082  0.00  0.00    -0.206 OA
ATOM      3  O   UNL d   1       2.421   0.093   0.599  0.00  0.00    -0.206 OA
ENDROOT
BRANCH   1   4
ATOM      4  N   UNL d   1       0.889   0.882  -1.274  0.00  0.00    -0.210 NA
ATOM      5  H   UNL d   1       0.401   1.771  -1.139  0.00  0.00     0.140 HD
BRANCH   4   6
ATOM      6  C   UNL d   1       2.083   0.895  -2.142  0.00  0.00     0.086 C 
ATOM      7  C   UNL d   1       1.872   1.770  -3.374  0.00  0.00     0.160 C 
ATOM      8  S   UNL d   1       3.252   1.331  -4.411  0.00  0.00     0.146 S 
ATOM      9  O   UNL d   1       4.386   2.149  -4.027  0.00  0.00    -0.228 OA
ATOM     10  O   UNL d   1       2.804   1.225  -5.781  0.00  0.00    -0.228 OA
ATOM     11  C   UNL d   1       3.494  -0.308  -3.741  0.00  0.00     0.142 C 
ATOM     12  C   UNL d   1       2.390  -0.492  -2.709  0.00  0.00     0.036 C 
ENDBRANCH   4   6
ENDBRANCH   1   4
BRANCH   1  13
ATOM     13  C   UNL d   1       0.478  -1.540  -0.081  0.00  0.00     0.074 A 
ATOM     14  C   UNL d   1       1.393  -2.597  -0.027  0.00  0.00     0.025 A 
ATOM     15  C   UNL d   1       0.952  -3.906  -0.228  0.00  0.00     0.009 A 
ATOM     16  C   UNL d   1      -0.405  -4.171  -0.459  0.00  0.00    -0.058 A 
ATOM     17  C   UNL d   1      -1.314  -3.102  -0.489  0.00  0.00     0.009 A 
ATOM     18  C   UNL d   1      -0.875  -1.788  -0.308  0.00  0.00     0.025 A 
BRANCH  16  19
ATOM     19  C   UNL d   1      -0.874  -5.597  -0.638  0.00  0.00     0.038 C 
BRANCH  19  20
ATOM     20  C   UNL d   1      -1.581  -5.867  -1.971  0.00  0.00     0.004 C 
BRANCH  20  21
ATOM     21  C   UNL d   1      -0.683  -5.625  -3.187  0.00  0.00    -0.004 C 
ATOM     22  C   UNL d   1      -1.429  -5.901  -4.483  0.00  0.00     0.005 C 
ENDBRANCH  20  21
ENDBRANCH  19  20
ENDBRANCH  16  19
ENDBRANCH   1  13
TORSDOF 6
