REMARK  6 active torsions:
REMARK  status: ('A' for Active; 'I' for Inactive)
REMARK    1  A    between atoms: O_6  and  C_1 
REMARK    2  A    between atoms: C_2  and  O_5 
REMARK    3  A    between atoms: C_3  and  C_7 
REMARK    4  A    between atoms: O_5  and  C_3 
REMARK    5  A    between atoms: C_4  and  O_6 
REMARK    6  A    between atoms: C_8  and  C_4 
ROOT
ATOM      1  C   UNL d   1       3.480   0.036  -1.176  0.00  0.00     0.088 C 
ATOM      2  C   UNL d   1       3.558   1.303  -0.732  0.00  0.00     0.088 C 
ENDROOT
BRANCH   1   3
ATOM      3  C   UNL d   1       4.469  -1.055  -0.984  0.00  0.00     0.288 C 
ATOM      4  O   UNL d   1       4.418  -2.072  -1.671  0.00  0.00    -0.260 OA
BRANCH   3   5
ATOM      5  O   UNL d   1       5.369  -0.783   0.027  0.00  0.00    -0.275 OA
BRANCH   5   6
ATOM      6  C   UNL d   1       6.576  -1.530   0.040  0.00  0.00     0.086 A 
ATOM      7  C   UNL d   1       7.076  -2.030   1.251  0.00  0.00    -0.028 A 
ATOM      8  C   UNL d   1       8.387  -2.538   1.271  0.00  0.00     0.010 A 
ATOM      9  C   UNL d   1       6.300  -2.038   2.534  0.00  0.00     0.051 C 
ATOM     10  C   UNL d   1       9.164  -2.574   0.110  0.00  0.00     0.007 A 
ATOM     11  C   UNL d   1       8.639  -2.127  -1.105  0.00  0.00    -0.059 A 
ATOM     12  C   UNL d   1       7.343  -1.598  -1.131  0.00  0.00     0.044 A 
ATOM     13  C   UNL d   1       9.479  -2.159  -2.346  0.00  0.00     0.048 C 
ENDBRANCH   5   6
ENDBRANCH   3   5
ENDBRANCH   1   3
BRANCH   2  14
ATOM     14  C   UNL d   1       2.498   2.330  -0.993  0.00  0.00     0.288 C 
ATOM     15  O   UNL d   1       2.669   3.530  -0.844  0.00  0.00    -0.260 OA
BRANCH  14  16
ATOM     16  O   UNL d   1       1.322   1.695  -1.383  0.00  0.00    -0.275 OA
BRANCH  16  17
ATOM     17  C   UNL d   1       0.009   2.134  -1.746  0.00  0.00     0.086 A 
ATOM     18  C   UNL d   1      -0.799   1.127  -2.297  0.00  0.00    -0.028 A 
ATOM     19  C   UNL d   1      -2.080   1.455  -2.751  0.00  0.00     0.010 A 
ATOM     20  C   UNL d   1      -0.308  -0.284  -2.450  0.00  0.00     0.051 C 
ATOM     21  C   UNL d   1      -2.569   2.745  -2.580  0.00  0.00     0.007 A 
ATOM     22  C   UNL d   1      -1.797   3.730  -1.946  0.00  0.00    -0.059 A 
ATOM     23  C   UNL d   1      -0.476   3.432  -1.555  0.00  0.00     0.044 A 
ATOM     24  C   UNL d   1      -2.420   5.081  -1.734  0.00  0.00     0.048 C 
ENDBRANCH  16  17
ENDBRANCH  14  16
ENDBRANCH   2  14
TORSDOF 6
