REMARK  2 active torsions:
REMARK  status: ('A' for Active; 'I' for Inactive)
REMARK    1  A    between atoms: S_6  and  C_1 
REMARK    2  A    between atoms: C_9  and  S_6 
ROOT
ATOM      1  C   UNL d   1      -0.084  -0.696  -0.008  0.00  0.00     0.047 A 
ATOM      2  N   UNL d   1      -3.630  -0.827   0.469  0.00  0.00    -0.191 NA
ATOM      3  N   UNL d   1       3.433  -1.314  -0.153  0.00  0.00    -0.191 NA
ATOM      4  C   UNL d   1      -1.242   0.106   0.083  0.00  0.00     0.063 A 
ATOM      5  C   UNL d   1       1.169  -0.045  -0.094  0.00  0.00     0.063 A 
ATOM      6  C   UNL d   1      -2.556  -0.436   0.289  0.00  0.00     0.101 C 
ATOM      7  C   UNL d   1       2.412  -0.766  -0.123  0.00  0.00     0.101 C 
ATOM      8  C   UNL d   1      -1.145   1.510   0.037  0.00  0.00     0.024 A 
ATOM      9  C   UNL d   1       1.246   1.360  -0.121  0.00  0.00     0.024 A 
ATOM     10  C   UNL d   1       0.093   2.135  -0.064  0.00  0.00     0.003 A 
ENDROOT
BRANCH   1  11
ATOM     11  S   UNL d   1      -0.141  -2.490   0.163  0.00  0.00    -0.087 SA
BRANCH  11  12
ATOM     12  C   UNL d   1      -0.945  -3.056  -1.325  0.00  0.00     0.005 A 
ATOM     13  C   UNL d   1      -0.236  -3.255  -2.518  0.00  0.00     0.020 A 
ATOM     14  C   UNL d   1      -0.862  -3.840  -3.626  0.00  0.00     0.025 A 
ATOM     15  C   UNL d   1      -2.202  -4.228  -3.546  0.00  0.00     0.034 A 
ATOM     16  C   UNL d   1      -2.917  -4.033  -2.370  0.00  0.00     0.025 A 
ATOM     17 CL   UNL d   1      -2.961  -4.980  -4.895  0.00  0.00    -0.084 Cl
ATOM     18  C   UNL d   1      -2.285  -3.463  -1.261  0.00  0.00     0.020 A 
ENDBRANCH  11  12
ENDBRANCH   1  11
TORSDOF 2
