REMARK  5 active torsions:
REMARK  status: ('A' for Active; 'I' for Inactive)
REMARK    1  A    between atoms: N_8  and  C_1 
REMARK    2  A    between atoms: C_6  and  C_5 
REMARK    3  A    between atoms: C_7  and  C_6 
REMARK       I    between atoms: N_10  and  C_7 
REMARK    4  A    between atoms: C_15  and  N_8 
REMARK    5  A    between atoms: C_11  and  N_10 
ROOT
ATOM      1  C   UNL d   1       1.057   0.840   0.317  0.00  0.00     0.148 C 
ATOM      2  N   UNL d   1       1.341  -0.280   1.029  0.00  0.00    -0.306 N 
ATOM      3  C   UNL d   1       0.307  -1.108   1.319  0.00  0.00     0.238 C 
ATOM      4  S   UNL d   1      -0.680   1.068   0.260  0.00  0.00    -0.079 SA
ATOM      5  C   UNL d   1      -0.924  -0.727   0.516  0.00  0.00     0.156 C 
ATOM      6  O   UNL d   1       0.404  -2.046   2.098  0.00  0.00    -0.272 OA
ATOM      7  H   UNL d   1       2.267  -0.483   1.371  0.00  0.00     0.171 HD
ENDROOT
BRANCH   5   8
ATOM      8  C   UNL d   1      -2.198  -1.212   1.196  0.00  0.00     0.128 C 
BRANCH   8   9
ATOM      9  C   UNL d   1      -2.246  -2.723   1.005  0.00  0.00     0.223 C 
ATOM     10  N   UNL d   1      -3.058  -3.392   1.888  0.00  0.00    -0.326 N 
ATOM     11  H   UNL d   1      -3.881  -2.917   2.241  0.00  0.00     0.169 HD
ATOM     12  O   UNL d   1      -1.615  -3.278   0.102  0.00  0.00    -0.273 OA
BRANCH  10  13
ATOM     13  C   UNL d   1      -3.017  -4.801   2.070  0.00  0.00     0.056 A 
ATOM     14  C   UNL d   1      -4.171  -5.498   2.452  0.00  0.00     0.060 A 
ATOM     15 CL   UNL d   1      -5.682  -4.679   2.643  0.00  0.00    -0.082 Cl
ATOM     16  C   UNL d   1      -4.134  -6.883   2.642  0.00  0.00     0.026 A 
ATOM     17  C   UNL d   1      -2.935  -7.580   2.486  0.00  0.00     0.002 A 
ATOM     18  C   UNL d   1      -1.776  -6.893   2.135  0.00  0.00     0.002 A 
ATOM     19  C   UNL d   1      -1.817  -5.513   1.921  0.00  0.00     0.031 A 
ENDBRANCH  10  13
ENDBRANCH   8   9
ENDBRANCH   5   8
BRANCH   1  20
ATOM     20  N   UNL d   1       1.905   1.621  -0.260  0.00  0.00    -0.337 N 
ATOM     21  HN  UNL d   1       1.594   2.480  -0.714  1.00  0.00     0.168 HD
BRANCH  20  22
ATOM     22  C   UNL d   1       3.269   1.266  -0.251  0.00  0.00     0.034 A 
ATOM     23  C   UNL d   1       3.713   0.024  -0.737  0.00  0.00     0.029 A 
ATOM     24  C   UNL d   1       5.050  -0.356  -0.622  0.00  0.00     0.002 A 
ATOM     25  C   UNL d   1       5.974   0.531  -0.077  0.00  0.00     0.000 A 
ATOM     26  C   UNL d   1       5.561   1.797   0.336  0.00  0.00     0.002 A 
ATOM     27  C   UNL d   1       4.213   2.161   0.251  0.00  0.00     0.029 A 
ENDBRANCH  20  22
ENDBRANCH   1  20
TORSDOF 5
