REMARK  7 active torsions:
REMARK  status: ('A' for Active; 'I' for Inactive)
REMARK    1  A    between atoms: C_8  and  N_2 
REMARK    2  A    between atoms: N_6  and  O_14 
REMARK    3  A    between atoms: C_10  and  C_8 
REMARK    4  A    between atoms: C_13  and  C_9 
REMARK    5  A    between atoms: N_18  and  C_9 
REMARK    6  A    between atoms: C_11  and  C_10 
REMARK    7  A    between atoms: O_14  and  C_11 
ROOT
ATOM      1  C   UNL d   1       2.092  -2.455   0.086  0.00  0.00     0.282 C 
ATOM      2  O   UNL d   1       1.605  -1.339   0.280  0.00  0.00    -0.263 OA
ENDROOT
BRANCH   1   3
ATOM      3  C   UNL d   1       3.575  -2.650  -0.100  0.00  0.00     0.133 C 
BRANCH   3   4
ATOM      4  C   UNL d   1       4.106  -4.077  -0.018  0.00  0.00     0.144 C 
BRANCH   4   5
ATOM      5  N   UNL d   1       3.808  -4.977  -1.116  0.00  0.00    -0.290 N 
ATOM      6  C   UNL d   1       3.545  -4.666  -2.438  0.00  0.00     0.372 A 
ATOM      7  O   UNL d   1       3.496  -5.818  -3.236  0.00  0.00    -0.259 OA
ATOM      8  O   UNL d   1       3.369  -3.545  -2.897  0.00  0.00    -0.237 OA
ATOM      9  C   UNL d   1       3.812  -6.818  -2.335  0.00  0.00     0.107 A 
ATOM     10  C   UNL d   1       3.947  -8.156  -2.642  0.00  0.00     0.040 A 
ATOM     11  C   UNL d   1       4.017  -6.341  -1.057  0.00  0.00     0.073 A 
ATOM     12  C   UNL d   1       4.304  -9.022  -1.605  0.00  0.00     0.003 A 
ATOM     13  C   UNL d   1       4.521  -8.533  -0.303  0.00  0.00     0.002 A 
ATOM     14  C   UNL d   1       4.380  -7.170  -0.017  0.00  0.00     0.033 A 
ENDBRANCH   4   5
ENDBRANCH   3   4
ENDBRANCH   1   3
BRANCH   1  15
ATOM     15  O   UNL d   1       1.372  -3.612   0.036  0.00  0.00    -0.198 OA
BRANCH  15  16
ATOM     16  N   UNL d   1       0.468  -3.616   1.120  0.00  0.00    -0.246 N 
ATOM     17  C   UNL d   1      -0.682  -4.139   0.812  0.00  0.00     0.109 C 
ATOM     18  HN  UNL d   1       0.693  -3.250   2.045  1.00  0.00     0.196 HD
BRANCH  17  19
ATOM     19  C   UNL d   1      -1.656  -4.334   1.935  0.00  0.00     0.004 A 
ATOM     20  C   UNL d   1      -1.624  -3.485   3.051  0.00  0.00     0.016 A 
ATOM     21  C   UNL d   1      -2.439  -3.747   4.155  0.00  0.00     0.024 A 
ATOM     22  C   UNL d   1      -3.281  -4.857   4.145  0.00  0.00     0.034 A 
ATOM     23  C   UNL d   1      -3.341  -5.691   3.028  0.00  0.00     0.024 A 
ATOM     24 CL   UNL d   1      -4.234  -5.222   5.531  0.00  0.00    -0.084 Cl
ATOM     25  C   UNL d   1      -2.531  -5.427   1.919  0.00  0.00     0.016 A 
ENDBRANCH  17  19
BRANCH  17  26
ATOM     26  N   UNL d   1      -1.044  -4.529  -0.456  0.00  0.00    -0.286 NA
ATOM     27  H   UNL d   1      -0.449  -4.113  -1.167  0.00  0.00     0.125 HD
ATOM     28  H   UNL d   1      -2.028  -4.417  -0.682  0.00  0.00     0.125 HD
ENDBRANCH  17  26
ENDBRANCH  15  16
ENDBRANCH   1  15
TORSDOF 7
