REMARK  15 active torsions:
REMARK  status: ('A' for Active; 'I' for Inactive)
REMARK    1  A    between atoms: C_2  and  C_1 
REMARK    2  A    between atoms: C_1  and  O_6 
REMARK    3  A    between atoms: C_3  and  C_1 
REMARK    4  A    between atoms: C_5  and  C_2 
REMARK    5  A    between atoms: C_2  and  O_7 
REMARK    6  A    between atoms: C_3  and  O_8 
REMARK    7  A    between atoms: C_3  and  C_4 
REMARK    8  A    between atoms: C_4  and  O_9 
REMARK    9  A    between atoms: C_15  and  C_4 
REMARK       I    between atoms: N_23  and  C_5 
REMARK   10  A    between atoms: C_10  and  O_6 
REMARK   11  A    between atoms: C_11  and  O_7 
REMARK   12  A    between atoms: C_12  and  O_8 
REMARK   13  A    between atoms: C_13  and  O_9 
REMARK   14  A    between atoms: C_14  and  O_17 
REMARK   15  A    between atoms: O_17  and  C_15 
ROOT
ATOM      1  C   UNL d   1       0.691  -1.882   2.067  0.00  0.00     0.202 C 
ENDROOT
BRANCH   1   2
ATOM      2  C   UNL d   1       0.163  -3.225   2.633  0.00  0.00     0.255 C 
BRANCH   2   3
ATOM      3  C   UNL d   1       0.644  -4.479   1.874  0.00  0.00     0.247 C 
ATOM      4  O   UNL d   1      -0.141  -5.274   1.364  0.00  0.00    -0.271 OA
ATOM      5  N   UNL d   1       1.984  -4.684   1.781  0.00  0.00    -0.368 N 
ATOM      6  H   UNL d   1       2.662  -4.124   2.298  0.00  0.00     0.159 HD
ATOM      7  H   UNL d   1       2.323  -5.513   1.312  0.00  0.00     0.159 HD
ENDBRANCH   2   3
BRANCH   2   8
ATOM      8  O   UNL d   1       0.325  -3.330   4.069  0.00  0.00    -0.304 OA
BRANCH   8   9
ATOM      9  C   UNL d   1       1.571  -3.383   4.600  0.00  0.00     0.255 C 
ATOM     10  O   UNL d   1       2.618  -3.323   3.973  0.00  0.00    -0.266 OA
ATOM     11  C   UNL d   1       1.483  -3.529   6.088  0.00  0.00     0.126 C 
ENDBRANCH   8   9
ENDBRANCH   2   8
ENDBRANCH   1   2
BRANCH   1  12
ATOM     12  O   UNL d   1      -0.006  -0.827   2.790  0.00  0.00    -0.310 OA
BRANCH  12  13
ATOM     13  C   UNL d   1       0.747   0.076   3.469  0.00  0.00     0.255 C 
ATOM     14  O   UNL d   1       1.967   0.099   3.506  0.00  0.00    -0.266 OA
ATOM     15  C   UNL d   1      -0.139   1.054   4.176  0.00  0.00     0.126 C 
ENDBRANCH  12  13
ENDBRANCH   1  12
BRANCH   1  16
ATOM     16  C   UNL d   1       0.389  -1.726   0.552  0.00  0.00     0.196 C 
BRANCH  16  17
ATOM     17  O   UNL d   1      -1.064  -1.790   0.425  0.00  0.00    -0.311 OA
BRANCH  17  18
ATOM     18  C   UNL d   1      -1.591  -2.158  -0.769  0.00  0.00     0.255 C 
ATOM     19  O   UNL d   1      -0.947  -2.450  -1.761  0.00  0.00    -0.266 OA
ATOM     20  C   UNL d   1      -3.086  -2.177  -0.687  0.00  0.00     0.126 C 
ENDBRANCH  17  18
ENDBRANCH  16  17
BRANCH  16  21
ATOM     21  C   UNL d   1       0.977  -0.458  -0.144  0.00  0.00     0.188 C 
BRANCH  21  22
ATOM     22  O   UNL d   1       2.355  -0.107   0.175  0.00  0.00    -0.311 OA
BRANCH  22  23
ATOM     23  C   UNL d   1       3.355  -0.986   0.386  0.00  0.00     0.255 C 
ATOM     24  O   UNL d   1       3.268  -2.200   0.311  0.00  0.00    -0.266 OA
ATOM     25  C   UNL d   1       4.593  -0.218   0.751  0.00  0.00     0.126 C 
ENDBRANCH  22  23
ENDBRANCH  21  22
BRANCH  21  26
ATOM     26  C   UNL d   1       0.267   0.884   0.121  0.00  0.00     0.213 C 
BRANCH  26  27
ATOM     27  O   UNL d   1      -1.149   0.901  -0.034  0.00  0.00    -0.319 OA
BRANCH  27  28
ATOM     28  C   UNL d   1      -1.589   1.287  -1.260  0.00  0.00     0.254 C 
ATOM     29  O   UNL d   1      -0.892   1.429  -2.253  0.00  0.00    -0.266 OA
ATOM     30  C   UNL d   1      -3.068   1.522  -1.227  0.00  0.00     0.126 C 
ENDBRANCH  27  28
ENDBRANCH  26  27
ENDBRANCH  21  26
ENDBRANCH  16  21
ENDBRANCH   1  16
TORSDOF 15
