REMARK  9 active torsions:
REMARK  status: ('A' for Active; 'I' for Inactive)
REMARK    1  A    between atoms: C_3  and  C_1 
REMARK    2  A    between atoms: C_6  and  C_1 
REMARK    3  A    between atoms: C_2  and  C_9 
REMARK    4  A    between atoms: O_10  and  C_2 
REMARK    5  A    between atoms: C_9  and  C_6 
REMARK    6  A    between atoms: C_14  and  C_13 
REMARK    7  A    between atoms: C_15  and  C_14 
REMARK    8  A    between atoms: C_17  and  C_15 
REMARK    9  A    between atoms: C_16  and  C_17 
ROOT
ATOM      1  C   UNL d   1       0.202  -0.565   0.984  0.00  0.00     0.010 A 
ATOM      2  C   UNL d   1       0.590  -0.197   2.278  0.00  0.00     0.015 A 
ATOM      3  C   UNL d   1      -0.944  -1.349   0.815  0.00  0.00     0.015 A 
ATOM      4  C   UNL d   1      -1.683  -1.768   1.923  0.00  0.00     0.008 A 
ATOM      5  C   UNL d   1      -0.149  -0.625   3.388  0.00  0.00     0.008 A 
ATOM      6  C   UNL d   1      -1.279  -1.436   3.221  0.00  0.00    -0.058 A 
ENDROOT
BRANCH   1   7
ATOM      7  C   UNL d   1       1.047  -0.141  -0.173  0.00  0.00     0.160 C 
ATOM      8  O   UNL d   1       2.241   0.098   0.009  0.00  0.00    -0.292 OA
BRANCH   7   9
ATOM      9  C   UNL d   1       0.399   0.057  -1.529  0.00  0.00     0.094 C 
BRANCH   9  10
ATOM     10  C   UNL d   1       1.369  -0.218  -2.674  0.00  0.00     0.117 C 
BRANCH  10  11
ATOM     11  C   UNL d   1       0.674  -0.049  -4.003  0.00  0.00     0.139 C 
ATOM     12  O   UNL d   1      -0.499   0.255  -4.146  0.00  0.00    -0.650 OA
BRANCH  11  13
ATOM     13  O   UNL d   1       1.492  -0.285  -5.053  0.00  0.00    -0.776 OA
ATOM     14  H   UNL d   1       2.405  -0.516  -4.798  0.00  0.00     0.167 HD
ENDBRANCH  11  13
ENDBRANCH  10  11
ENDBRANCH   9  10
ENDBRANCH   7   9
ENDBRANCH   1   7
BRANCH   6  15
ATOM     15  C   UNL d   1      -2.043  -1.958   4.415  0.00  0.00     0.038 C 
BRANCH  15  16
ATOM     16  C   UNL d   1      -2.153  -3.490   4.466  0.00  0.00     0.005 C 
BRANCH  16  17
ATOM     17  C   UNL d   1      -0.796  -4.194   4.590  0.00  0.00    -0.000 C 
BRANCH  17  18
ATOM     18  C   UNL d   1      -0.970  -5.713   4.639  0.00  0.00    -0.005 C 
ATOM     19  C   UNL d   1       0.367  -6.428   4.750  0.00  0.00     0.005 C 
ENDBRANCH  17  18
ENDBRANCH  16  17
ENDBRANCH  15  16
ENDBRANCH   6  15
TORSDOF 9
