REMARK  6 active torsions:
REMARK  status: ('A' for Active; 'I' for Inactive)
REMARK    1  A    between atoms: C_3  and  N_1 
REMARK    2  A    between atoms: C_22  and  N_4 
REMARK    3  A    between atoms: C_13  and  C_7 
REMARK    4  A    between atoms: C_16  and  C_10 
REMARK    5  A    between atoms: C_28  and  C_22 
REMARK    6  A    between atoms: C_29  and  C_28 
ROOT
ATOM      1  N   UNL d   1      -0.111   0.955  -0.039  0.00  0.00    -0.209 N 
ATOM      2  C   UNL d   1       1.065   0.238   0.007  0.00  0.00     0.334 A 
ATOM      3  N   UNL d   1       0.732  -1.114  -0.026  0.00  0.00    -0.316 N 
ATOM      4  C   UNL d   1      -1.206   0.126  -0.067  0.00  0.00     0.261 A 
ATOM      5  C   UNL d   1      -0.700  -1.318   0.016  0.00  0.00     0.215 A 
ATOM      6  O   UNL d   1       2.211   0.653   0.018  0.00  0.00    -0.246 OA
ATOM      7  O   UNL d   1      -2.393   0.419  -0.058  0.00  0.00    -0.270 OA
ENDROOT
BRANCH   1   8
ATOM      8  C   UNL d   1      -0.143   2.320   0.095  0.00  0.00     0.178 A 
ATOM      9  S   UNL d   1      -1.514   3.200  -0.431  0.00  0.00    -0.036 SA
ATOM     10  C   UNL d   1      -0.778   4.625   0.191  0.00  0.00     0.077 A 
ATOM     11  N   UNL d   1       0.425   4.408   0.683  0.00  0.00    -0.295 N 
ATOM     12  N   UNL d   1       0.808   3.086   0.587  0.00  0.00    -0.278 N 
ATOM     13  HN  UNL d   1       1.009   5.137   1.092  1.00  0.00     0.187 HD
ATOM     14  HN  UNL d   1       1.727   2.741   0.865  1.00  0.00     0.189 HD
BRANCH  10  15
ATOM     15  C   UNL d   1      -1.486   5.971   0.177  0.00  0.00    -0.001 C 
ATOM     16  C   UNL d   1      -2.825   5.883   0.935  0.00  0.00     0.021 C 
ATOM     17  C   UNL d   1      -0.606   7.028   0.876  0.00  0.00     0.021 C 
ATOM     18  C   UNL d   1      -1.746   6.442  -1.265  0.00  0.00     0.021 C 
ENDBRANCH  10  15
ENDBRANCH   1   8
BRANCH   3  19
ATOM     19  C   UNL d   1       1.699  -2.201  -0.016  0.00  0.00     0.129 C 
BRANCH  19  20
ATOM     20  C   UNL d   1       1.512  -3.193  -1.164  0.00  0.00     0.020 C 
BRANCH  20  21
ATOM     21  C   UNL d   1       1.703  -2.559  -2.543  0.00  0.00    -0.003 C 
ATOM     22  C   UNL d   1       1.511  -3.593  -3.642  0.00  0.00     0.005 C 
ENDBRANCH  20  21
ENDBRANCH  19  20
ENDBRANCH   3  19
BRANCH   5  23
ATOM     23  C   UNL d   1      -1.181  -2.005   1.276  0.00  0.00    -0.026 A 
ATOM     24  C   UNL d   1      -0.822  -1.526   2.549  0.00  0.00     0.018 A 
ATOM     25  C   UNL d   1      -1.329  -2.105   3.723  0.00  0.00    -0.040 A 
ATOM     26  C   UNL d   1      -0.947  -1.519   5.054  0.00  0.00     0.050 C 
ATOM     27  C   UNL d   1      -2.198  -3.198   3.609  0.00  0.00     0.040 A 
ATOM     28  C   UNL d   1      -2.546  -3.698   2.352  0.00  0.00     0.025 A 
ATOM     29 CL   UNL d   1      -2.881  -3.958   5.001  0.00  0.00    -0.084 Cl
ATOM     30  C   UNL d   1      -2.044  -3.105   1.191  0.00  0.00     0.011 A 
ENDBRANCH   5  23
TORSDOF 6
