REMARK  2 active torsions:
REMARK  status: ('A' for Active; 'I' for Inactive)
REMARK    1  A    between atoms: C_3  and  C_1 
REMARK       I    between atoms: N_9  and  C_3 
REMARK    2  A    between atoms: C_13  and  N_9 
ROOT
ATOM      1  C   UNL d   1       3.385  -1.431  -0.059  0.00  0.00     0.263 C 
ATOM      2  N   UNL d   1       3.634  -2.795  -0.046  0.00  0.00    -0.322 N 
ATOM      3  O   UNL d   1       2.254  -0.946  -0.106  0.00  0.00    -0.267 OA
ATOM      4  H   UNL d   1       4.580  -3.069   0.186  0.00  0.00     0.169 HD
ENDROOT
BRANCH   2   5
ATOM      5  C   UNL d   1       2.651  -3.805  -0.111  0.00  0.00     0.036 A 
ATOM      6  C   UNL d   1       1.356  -3.574  -0.588  0.00  0.00     0.048 A 
ATOM      7  C   UNL d   1       0.425  -4.587  -0.461  0.00  0.00     0.050 A 
ATOM      8  C   UNL d   1      -0.989  -4.561  -0.810  0.00  0.00     0.294 A 
ATOM      9  C   UNL d   1       0.731  -5.812   0.088  0.00  0.00    -0.018 A 
ATOM     10  O   UNL d   1      -1.505  -5.764  -0.412  0.00  0.00    -0.313 OA
ATOM     11  O   UNL d   1      -1.597  -3.654  -1.335  0.00  0.00    -0.259 OA
ATOM     12  C   UNL d   1      -0.501  -6.620   0.176  0.00  0.00     0.218 A 
ATOM     13  C   UNL d   1       2.026  -6.096   0.484  0.00  0.00     0.012 A 
ATOM     14  C   UNL d   1       2.992  -5.085   0.370  0.00  0.00     0.030 A 
ENDBRANCH   2   5
BRANCH   1  15
ATOM     15  C   UNL d   1       4.551  -0.559   0.015  0.00  0.00     0.074 C 
ATOM     16  S   UNL d   1       6.158  -1.125   0.081  0.00  0.00    -0.084 SA
ATOM     17  C   UNL d   1       6.812   0.467  -0.049  0.00  0.00     0.016 A 
ATOM     18  C   UNL d   1       8.170   0.834  -0.119  0.00  0.00     0.019 A 
ATOM     19  C   UNL d   1       5.799   1.426  -0.102  0.00  0.00    -0.018 A 
ATOM     20  C   UNL d   1       8.496   2.182  -0.300  0.00  0.00     0.001 A 
ATOM     21  C   UNL d   1       7.502   3.146  -0.394  0.00  0.00     0.001 A 
ATOM     22  C   UNL d   1       6.159   2.783  -0.277  0.00  0.00     0.013 A 
ATOM     23  C   UNL d   1       4.511   0.821   0.021  0.00  0.00     0.037 C 
ENDBRANCH   1  15
TORSDOF 2
