REMARK  7 active torsions:
REMARK  status: ('A' for Active; 'I' for Inactive)
REMARK    1  A    between atoms: C_6  and  C_1 
REMARK    2  A    between atoms: C_15  and  C_5 
REMARK    3  A    between atoms: O_18  and  C_6 
REMARK    4  A    between atoms: C_8  and  C_11 
REMARK    5  A    between atoms: O_16  and  C_15 
REMARK    6  A    between atoms: C_17  and  O_16 
REMARK    7  A    between atoms: C_23  and  O_18 
ROOT
ATOM      1  C   UNL d   1       0.884  -2.644  -1.067  0.00  0.00     0.240 C 
ENDROOT
BRANCH   1   2
ATOM      2  C   UNL d   1       1.021  -1.176  -0.783  0.00  0.00     0.075 A 
ATOM      3  N   UNL d   1       1.780  -0.347  -1.470  0.00  0.00    -0.347 N 
ATOM      4  C   UNL d   1       1.623   0.961  -1.001  0.00  0.00     0.115 A 
ATOM      5  HN  UNL d   1       2.395  -0.620  -2.236  1.00  0.00     0.166 HD
ATOM      6  C   UNL d   1       0.743   1.079   0.060  0.00  0.00     0.087 A 
ATOM      7  S   UNL d   1       0.078  -0.444   0.460  0.00  0.00    -0.084 SA
BRANCH   4   8
ATOM      8  C   UNL d   1       2.273   2.109  -1.632  0.00  0.00     0.310 C 
ATOM      9  O   UNL d   1       2.069   3.270  -1.285  0.00  0.00    -0.258 OA
BRANCH   8  10
ATOM     10  O   UNL d   1       3.052   1.746  -2.692  0.00  0.00    -0.317 OA
BRANCH  10  11
ATOM     11  C   UNL d   1       3.404   2.800  -3.595  0.00  0.00     0.175 C 
ATOM     12  C   UNL d   1       2.300   2.927  -4.630  0.00  0.00     0.034 C 
ENDBRANCH  10  11
ENDBRANCH   8  10
ENDBRANCH   4   8
ENDBRANCH   1   2
BRANCH   1  13
ATOM     13  O   UNL d   1       1.268  -3.350   0.114  0.00  0.00    -0.345 OA
BRANCH  13  14
ATOM     14  C   UNL d   1       1.302  -4.713   0.002  0.00  0.00     0.069 A 
ATOM     15  C   UNL d   1       2.193  -5.354   0.860  0.00  0.00     0.037 A 
ATOM     16  C   UNL d   1       2.333  -6.744   0.828  0.00  0.00     0.012 A 
ATOM     17  C   UNL d   1       1.569  -7.521  -0.057  0.00  0.00    -0.035 A 
ATOM     18  C   UNL d   1       0.639  -6.864  -0.882  0.00  0.00     0.012 A 
ATOM     19  C   UNL d   1       0.508  -5.471  -0.855  0.00  0.00     0.037 A 
BRANCH  17  20
ATOM     20  C   UNL d   1       1.780  -9.020  -0.116  0.00  0.00     0.141 C 
ATOM     21  S   UNL d   1       2.327  -9.570  -1.766  0.00  0.00    -0.148 SA
ATOM     22  C   UNL d   1       1.508 -11.177  -1.710  0.00  0.00     0.085 C 
ATOM     23  C   UNL d   1       0.137 -10.967  -1.100  0.00  0.00     0.085 C 
ATOM     24  S   UNL d   1       0.309  -9.964   0.401  0.00  0.00    -0.148 SA
ENDBRANCH  17  20
ENDBRANCH  13  14
ENDBRANCH   1  13
TORSDOF 7
