REMARK  5 active torsions:
REMARK  status: ('A' for Active; 'I' for Inactive)
REMARK    1  A    between atoms: N_2  and  C_1 
REMARK    2  A    between atoms: N_4  and  N_2 
REMARK       I    between atoms: C_3  and  N_4 
REMARK    3  A    between atoms: C_9  and  C_3 
REMARK    4  A    between atoms: C_20  and  C_19 
REMARK    5  A    between atoms: C_21  and  C_20 
ROOT
ATOM      1  C   UNL d   1      -1.257  -4.311  -0.215  0.00  0.00     0.270 C 
ATOM      2  N   UNL d   1      -1.214  -3.020   0.280  0.00  0.00    -0.265 N 
ATOM      3  O   UNL d   1      -2.253  -4.777  -0.767  0.00  0.00    -0.266 OA
ATOM      4  H   UNL d   1      -0.424  -2.629   0.775  0.00  0.00     0.190 HD
ENDROOT
BRANCH   2   5
ATOM      5  N   UNL d   1      -2.347  -2.228   0.190  0.00  0.00    -0.294 N 
ATOM      6  H   UNL d   1      -3.133  -2.686  -0.293  0.00  0.00     0.187 HD
BRANCH   5   7
ATOM      7  C   UNL d   1      -2.215  -0.845  -0.119  0.00  0.00     0.094 A 
ATOM      8  C   UNL d   1      -1.015  -0.157  -0.401  0.00  0.00     0.079 A 
ATOM      9 CL   UNL d   1       0.527  -0.906  -0.632  0.00  0.00    -0.080 Cl
ATOM     10  C   UNL d   1      -1.046   1.233  -0.548  0.00  0.00     0.114 A 
ATOM     11  N   UNL d   1      -2.153   1.997  -0.423  0.00  0.00    -0.372 N 
ATOM     12  C   UNL d   1      -3.298   1.335  -0.160  0.00  0.00     0.114 A 
ATOM     13  HN  UNL d   1      -2.125   3.012  -0.521  1.00  0.00     0.164 HD
ATOM     14  C   UNL d   1      -3.380  -0.048  -0.017  0.00  0.00     0.079 A 
ATOM     15 CL   UNL d   1      -4.930  -0.740   0.320  0.00  0.00    -0.080 Cl
ENDBRANCH   5   7
ENDBRANCH   2   5
BRANCH   1  16
ATOM     16  C   UNL d   1       0.002  -5.111  -0.097  0.00  0.00     0.033 A 
ATOM     17  C   UNL d   1       1.037  -4.778   0.786  0.00  0.00     0.017 A 
ATOM     18  C   UNL d   1       2.229  -5.515   0.790  0.00  0.00     0.008 A 
ATOM     19  C   UNL d   1       2.402  -6.596  -0.082  0.00  0.00    -0.058 A 
ATOM     20  C   UNL d   1       1.343  -6.962  -0.927  0.00  0.00     0.008 A 
ATOM     21  C   UNL d   1       0.156  -6.223  -0.934  0.00  0.00     0.017 A 
BRANCH  19  22
ATOM     22  C   UNL d   1       3.710  -7.353  -0.108  0.00  0.00     0.038 C 
BRANCH  22  23
ATOM     23  C   UNL d   1       4.419  -7.343  -1.468  0.00  0.00     0.000 C 
ATOM     24  C   UNL d   1       4.808  -5.947  -1.937  0.00  0.00     0.005 C 
ENDBRANCH  22  23
ENDBRANCH  19  22
ENDBRANCH   1  16
TORSDOF 5
