REMARK  1 active torsions:
REMARK  status: ('A' for Active; 'I' for Inactive)
REMARK    1  A    between atoms: C_8  and  C_7 
ROOT
ATOM      1  C   UNL d   1       1.188   0.140  -0.029  0.00  0.00     0.103 A 
ATOM      2  N   UNL d   1      -0.796  -1.233  -0.001  0.00  0.00    -0.275 N 
ATOM      3  N   UNL d   1      -1.034   1.068   0.043  0.00  0.00    -0.275 N 
ATOM      4  C   UNL d   1       0.568  -1.211  -0.028  0.00  0.00     0.265 A 
ATOM      5  C   UNL d   1       0.305   1.336  -0.044  0.00  0.00     0.265 A 
ATOM      6  C   UNL d   1      -1.626  -0.156   0.019  0.00  0.00     0.329 A 
ATOM      7  C   UNL d   1       2.533   0.168  -0.007  0.00  0.00     0.060 C 
ATOM      8  O   UNL d   1       0.691   2.492  -0.163  0.00  0.00    -0.267 OA
ATOM      9  O   UNL d   1       1.213  -2.254  -0.055  0.00  0.00    -0.267 OA
ATOM     10  O   UNL d   1      -2.845  -0.283   0.000  0.00  0.00    -0.246 OA
ATOM     11  H   UNL d   1      -1.237  -2.142  -0.014  0.00  0.00     0.173 HD
ATOM     12  H   UNL d   1      -1.651   1.867   0.019  0.00  0.00     0.173 HD
ENDROOT
BRANCH   7  13
ATOM     13  C   UNL d   1       3.305   1.353   0.054  0.00  0.00     0.076 A 
ATOM     14  O   UNL d   1       3.743   1.890   1.241  0.00  0.00    -0.323 OA
ATOM     15  C   UNL d   1       4.479   2.993   0.962  0.00  0.00     0.142 A 
ATOM     16  C   UNL d   1       4.553   3.190  -0.394  0.00  0.00     0.027 A 
ATOM     17  C   UNL d   1       3.805   2.139  -0.977  0.00  0.00     0.039 A 
ENDBRANCH   7  13
TORSDOF 1
