REMARK  3 active torsions:
REMARK  status: ('A' for Active; 'I' for Inactive)
REMARK    1  A    between atoms: S_6  and  C_1 
REMARK    2  A    between atoms: C_11  and  N_2 
REMARK    3  A    between atoms: C_3  and  S_6 
ROOT
ATOM      1  C   UNL d   1       0.064  -1.895  -0.061  0.00  0.00     0.174 A 
ATOM      2  N   UNL d   1       1.197  -1.085  -0.060  0.00  0.00    -0.279 N 
ATOM      3  N   UNL d   1      -1.005  -1.187   0.221  0.00  0.00    -0.278 N 
ATOM      4  HN  UNL d   1      -1.954  -1.548   0.320  1.00  0.00     0.189 HD
ATOM      5  N   UNL d   1      -0.623   0.115   0.360  0.00  0.00    -0.287 N 
ATOM      6  HN  UNL d   1      -1.237   0.896   0.593  1.00  0.00     0.188 HD
ATOM      7  C   UNL d   1       0.674   0.191   0.141  0.00  0.00     0.101 A 
ATOM      8  C   UNL d   1       1.398   1.478  -0.017  0.00  0.00     0.091 C 
ENDROOT
BRANCH   1   9
ATOM      9  S   UNL d   1      -0.007  -3.615  -0.315  0.00  0.00    -0.027 SA
BRANCH   9  10
ATOM     10  C   UNL d   1       0.377  -4.084   1.323  0.00  0.00     0.120 A 
ATOM     11  N   UNL d   1       1.486  -3.699   1.912  0.00  0.00    -0.344 N 
ATOM     12  C   UNL d   1       1.495  -4.145   3.220  0.00  0.00     0.050 A 
ATOM     13  HN  UNL d   1       2.227  -3.154   1.471  1.00  0.00     0.167 HD
ATOM     14  C   UNL d   1       2.489  -3.864   4.179  0.00  0.00     0.032 A 
ATOM     15  C   UNL d   1       0.393  -4.916   3.598  0.00  0.00     0.035 A 
ATOM     16  C   UNL d   1       2.326  -4.310   5.495  0.00  0.00     0.026 A 
ATOM     17  C   UNL d   1       1.206  -5.057   5.848  0.00  0.00     0.035 A 
ATOM     18  C   UNL d   1       0.233  -5.398   4.907  0.00  0.00     0.045 A 
ATOM     19 CL   UNL d   1       1.002  -5.553   7.484  0.00  0.00    -0.084 Cl
ATOM     20  S   UNL d   1      -0.642  -5.112   2.236  0.00  0.00    -0.063 SA
ENDBRANCH   9  10
ENDBRANCH   1   9
BRANCH   2  21
ATOM     21  C   UNL d   1       2.571  -1.438  -0.199  0.00  0.00     0.045 A 
ATOM     22  C   UNL d   1       2.966  -2.502  -1.013  0.00  0.00     0.069 A 
ATOM     23  C   UNL d   1       4.293  -2.924  -1.027  0.00  0.00     0.104 A 
ATOM     24  O   UNL d   1       4.572  -4.043  -1.769  0.00  0.00    -0.346 OA
ATOM     25  C   UNL d   1       5.265  -2.239  -0.290  0.00  0.00     0.102 A 
ATOM     26  C   UNL d   1       5.770  -4.663  -1.284  0.00  0.00     0.202 C 
ATOM     27  C   UNL d   1       6.888  -3.636  -1.206  0.00  0.00     0.202 C 
ATOM     28  O   UNL d   1       6.582  -2.603  -0.258  0.00  0.00    -0.346 OA
ATOM     29  C   UNL d   1       4.891  -1.147   0.488  0.00  0.00     0.042 A 
ATOM     30  C   UNL d   1       3.548  -0.754   0.550  0.00  0.00     0.033 A 
ENDBRANCH   2  21
TORSDOF 3
