REMARK  5 active torsions:
REMARK  status: ('A' for Active; 'I' for Inactive)
REMARK    1  A    between atoms: N_2  and  S_1 
REMARK    2  A    between atoms: C_5  and  S_1 
REMARK    3  A    between atoms: S_4  and  N_2 
REMARK    4  A    between atoms: C_10  and  S_4 
REMARK    5  A    between atoms: C_14  and  C_7 
ROOT
ATOM      1  S   UNL d   1       1.014   0.006  -0.018  0.00  0.00     0.276 S 
ATOM      2  O   UNL d   1       0.214   1.167   0.326  0.00  0.00    -0.199 OA
ATOM      3  O   UNL d   1       2.460   0.067   0.054  0.00  0.00    -0.199 OA
ENDROOT
BRANCH   1   4
ATOM      4  N   UNL d   1       0.496  -0.570  -1.520  0.00  0.00    -0.236 N 
ATOM      5  HN  UNL d   1      -0.496  -0.757  -1.664  1.00  0.00     0.189 HD
BRANCH   4   6
ATOM      6  S   UNL d   1       1.555  -0.839  -2.763  0.00  0.00     0.061 S 
ATOM      7  O   UNL d   1       2.530  -1.861  -2.458  0.00  0.00    -0.244 OA
ATOM      8  C   UNL d   1       0.552  -1.343  -4.129  0.00  0.00     0.143 C 
BRANCH   6   9
ATOM      9  C   UNL d   1       2.293   0.692  -3.166  0.00  0.00     0.039 A 
ATOM     10  C   UNL d   1       3.678   0.833  -3.063  0.00  0.00     0.023 A 
ATOM     11  C   UNL d   1       4.275   2.042  -3.426  0.00  0.00     0.025 A 
ATOM     12  C   UNL d   1       3.486   3.095  -3.887  0.00  0.00     0.034 A 
ATOM     13  C   UNL d   1       2.101   2.955  -3.979  0.00  0.00     0.025 A 
ATOM     14 CL   UNL d   1       4.224   4.578  -4.352  0.00  0.00    -0.084 Cl
ATOM     15  C   UNL d   1       1.498   1.748  -3.615  0.00  0.00     0.023 A 
ENDBRANCH   6   9
ENDBRANCH   4   6
ENDBRANCH   1   4
BRANCH   1  16
ATOM     16  C   UNL d   1       0.572  -1.228   1.188  0.00  0.00     0.121 A 
ATOM     17  S   UNL d   1      -1.093  -1.589   1.339  0.00  0.00    -0.074 SA
ATOM     18  C   UNL d   1      -0.831  -2.641   2.674  0.00  0.00     0.033 A 
ATOM     19  C   UNL d   1       0.524  -2.794   2.912  0.00  0.00     0.023 A 
ATOM     20  C   UNL d   1       1.327  -1.967   2.076  0.00  0.00     0.034 A 
BRANCH  18  21
ATOM     21  C   UNL d   1      -1.952  -3.243   3.411  0.00  0.00     0.049 A 
ATOM     22  N   UNL d   1      -1.687  -4.456   3.955  0.00  0.00    -0.365 N 
ATOM     23  C   UNL d   1      -2.653  -5.019   4.718  0.00  0.00     0.088 A 
ATOM     24  HN  UNL d   1      -0.796  -4.925   3.797  1.00  0.00     0.165 HD
ATOM     25  C   UNL d   1      -3.875  -4.421   4.981  0.00  0.00     0.017 A 
ATOM     26  C   UNL d   1      -4.129  -3.178   4.419  0.00  0.00     0.004 A 
ATOM     27  C   UNL d   1      -3.159  -2.579   3.619  0.00  0.00     0.031 A 
ENDBRANCH  18  21
ENDBRANCH   1  16
TORSDOF 5
