REMARK  1 active torsions:
REMARK  status: ('A' for Active; 'I' for Inactive)
REMARK    1  A    between atoms: C_5  and  C_1 
ROOT
ATOM      1  C   UNL d   1      -2.294  -0.014   0.015  0.00  0.00     0.118 A 
ATOM      2  N   UNL d   1      -1.563   1.085  -0.069  0.00  0.00    -0.340 N 
ATOM      3  HN  UNL d   1      -1.904   2.044  -0.130  1.00  0.00     0.167 HD
ATOM      4  N   UNL d   1      -1.473  -1.120   0.002  0.00  0.00    -0.340 N 
ATOM      5  C   UNL d   1      -0.252   0.674  -0.059  0.00  0.00     0.060 A 
ATOM      6  C   UNL d   1      -0.169  -0.710  -0.019  0.00  0.00     0.060 A 
ATOM      7  C   UNL d   1       0.931   1.428  -0.073  0.00  0.00     0.032 A 
ATOM      8  C   UNL d   1       1.038  -1.412   0.002  0.00  0.00     0.032 A 
ATOM      9  C   UNL d   1       2.207  -0.644  -0.008  0.00  0.00     0.002 A 
ATOM     10  C   UNL d   1       2.159   0.752  -0.043  0.00  0.00     0.002 A 
ATOM     11  H   UNL d   1      -1.794  -2.076   0.053  0.00  0.00     0.167 HD
ENDROOT
BRANCH   1  12
ATOM     12  C   UNL d   1      -3.761  -0.077   0.070  0.00  0.00     0.030 A 
ATOM     13  C   UNL d   1      -4.490  -1.086   0.728  0.00  0.00     0.048 A 
ATOM     14 CL   UNL d   1      -3.740  -2.389   1.589  0.00  0.00    -0.083 Cl
ATOM     15  C   UNL d   1      -5.891  -1.065   0.733  0.00  0.00     0.025 A 
ATOM     16  C   UNL d   1      -6.587  -0.045   0.087  0.00  0.00     0.002 A 
ATOM     17  C   UNL d   1      -5.882   0.964  -0.562  0.00  0.00     0.001 A 
ATOM     18  C   UNL d   1      -4.484   0.950  -0.565  0.00  0.00     0.017 A 
ENDBRANCH   1  12
TORSDOF 1
