REMARK  6 active torsions:
REMARK  status: ('A' for Active; 'I' for Inactive)
REMARK    1  A    between atoms: C_8  and  C_1 
REMARK    2  A    between atoms: N_11  and  C_4 
REMARK    3  A    between atoms: N_12  and  C_5 
REMARK    4  A    between atoms: C_7  and  N_10 
REMARK    5  A    between atoms: S_13  and  C_7 
REMARK    6  A    between atoms: N_10  and  C_8 
ROOT
ATOM      1  N   UNL d   1       2.813  -2.373   3.041  0.00  0.00    -0.274 N 
ATOM      2  HN  UNL d   1       3.105  -2.937   3.838  1.00  0.00     0.180 HD
ATOM      3  C   UNL d   1       1.696  -1.649   3.119  0.00  0.00     0.183 C 
ATOM      4  C   UNL d   1       3.525  -2.368   1.973  0.00  0.00     0.149 C 
ATOM      5  N   UNL d   1       0.731  -1.040   3.297  0.00  0.00    -0.172 NA
ENDROOT
BRANCH   4   6
ATOM      6  N   UNL d   1       3.470  -1.734   0.772  0.00  0.00    -0.366 N 
ATOM      7  H   UNL d   1       4.275  -1.949   0.197  0.00  0.00     0.162 HD
BRANCH   6   8
ATOM      8  C   UNL d   1       2.917  -0.429   0.482  0.00  0.00     0.165 C 
BRANCH   8   9
ATOM      9  C   UNL d   1       1.462  -0.299   0.029  0.00  0.00     0.013 C 
ATOM     10  C   UNL d   1       0.558  -1.397  -0.143  0.00  0.00     0.039 C 
ATOM     11  C   UNL d   1      -0.815  -1.087  -0.221  0.00  0.00     0.030 C 
ATOM     12  C   UNL d   1      -1.295   0.218  -0.177  0.00  0.00     0.005 C 
ATOM     13  C   UNL d   1      -0.404   1.278  -0.134  0.00  0.00     0.030 C 
ATOM     14  C   UNL d   1       0.981   1.064  -0.056  0.00  0.00     0.039 C 
BRANCH  10  15
ATOM     15  N   UNL d   1       0.959  -2.733  -0.210  0.00  0.00    -0.389 N 
ATOM     16  C   UNL d   1       0.118  -3.822   0.284  0.00  0.00     0.149 C 
ATOM     17  C   UNL d   1       1.920  -3.115  -1.241  0.00  0.00     0.149 C 
ENDBRANCH  10  15
BRANCH  14  18
ATOM     18  N   UNL d   1       1.873   2.163   0.007  0.00  0.00    -0.389 N 
ATOM     19  C   UNL d   1       1.355   3.457   0.466  0.00  0.00     0.149 C 
ATOM     20  C   UNL d   1       2.807   2.288  -1.120  0.00  0.00     0.149 C 
ENDBRANCH  14  18
ENDBRANCH   8   9
ENDBRANCH   6   8
ENDBRANCH   4   6
BRANCH   4  21
ATOM     21  S   UNL d   1       4.966  -3.414   1.978  0.00  0.00    -0.098 SA
ATOM     22  C   UNL d   1       4.863  -4.153   3.622  0.00  0.00     0.099 C 
ENDBRANCH   4  21
TORSDOF 6
