REMARK  4 active torsions:
REMARK  status: ('A' for Active; 'I' for Inactive)
REMARK    1  A    between atoms: N_2  and  S_1 
REMARK    2  A    between atoms: C_8  and  S_1 
REMARK       I    between atoms: C_4  and  N_2 
REMARK    3  A    between atoms: C_5  and  C_4 
REMARK    4  A    between atoms: S_12  and  C_6 
ROOT
ATOM      1  N   UNL d   1       0.523   1.506   0.505  0.00  0.00    -0.279 N 
ATOM      2  HN  UNL d   1      -0.380   1.877   0.209  1.00  0.00     0.179 HD
ATOM      3  C   UNL d   1       1.326   2.385   1.257  0.00  0.00     0.265 C 
ATOM      4  O   UNL d   1       2.316   1.985   1.850  0.00  0.00    -0.267 OA
ENDROOT
BRANCH   1   5
ATOM      5  S   UNL d   1       0.825   0.069   0.074  0.00  0.00     0.055 S 
ATOM      6  O   UNL d   1       0.176  -0.530  -1.084  0.00  0.00    -0.245 OA
ATOM      7  C   UNL d   1       2.557  -0.220  -0.189  0.00  0.00     0.142 C 
BRANCH   5   8
ATOM      8  C   UNL d   1       0.420  -0.994   1.454  0.00  0.00     0.038 A 
ATOM      9  C   UNL d   1      -0.596  -1.943   1.306  0.00  0.00     0.022 A 
ATOM     10  C   UNL d   1      -0.855  -2.844   2.339  0.00  0.00     0.001 A 
ATOM     11  C   UNL d   1      -0.106  -2.793   3.515  0.00  0.00     0.000 A 
ATOM     12  C   UNL d   1       0.891  -1.833   3.669  0.00  0.00     0.001 A 
ATOM     13  C   UNL d   1       1.157  -0.928   2.640  0.00  0.00     0.022 A 
ENDBRANCH   5   8
ENDBRANCH   1   5
BRANCH   3  14
ATOM     14  C   UNL d   1       0.909   3.833   1.343  0.00  0.00     0.066 A 
ATOM     15  C   UNL d   1       1.732   4.888   1.750  0.00  0.00     0.085 A 
ATOM     16  N   UNL d   1       1.313   6.187   1.684  0.00  0.00    -0.360 N 
ATOM     17  C   UNL d   1       0.072   6.455   1.238  0.00  0.00     0.089 A 
ATOM     18  HN  UNL d   1       1.933   6.945   1.970  1.00  0.00     0.166 HD
ATOM     19  C   UNL d   1      -0.826   5.477   0.869  0.00  0.00     0.018 A 
ATOM     20  C   UNL d   1      -0.400   4.157   0.926  0.00  0.00     0.021 A 
BRANCH  15  21
ATOM     21  S   UNL d   1       3.396   4.697   2.390  0.00  0.00    -0.116 SA
ATOM     22  C   UNL d   1       3.845   6.418   2.764  0.00  0.00     0.097 C 
ENDBRANCH  15  21
ENDBRANCH   3  14
TORSDOF 4
