REMARK  8 active torsions:
REMARK  status: ('A' for Active; 'I' for Inactive)
REMARK    1  A    between atoms: C_2  and  N_1 
REMARK    2  A    between atoms: O_8  and  C_3 
REMARK    3  A    between atoms: C_14  and  O_8 
REMARK    4  A    between atoms: S_10  and  C_9 
REMARK    5  A    between atoms: C_12  and  S_10 
REMARK    6  A    between atoms: C_13  and  C_14 
REMARK    7  A    between atoms: O_21  and  C_13 
REMARK    8  A    between atoms: O_22  and  C_13 
ROOT
ATOM      1  C   UNL d   1       0.181  -1.152  -0.261  0.00  0.00     0.136 A 
ATOM      2  C   UNL d   1       0.672  -2.218   0.505  0.00  0.00     0.103 A 
ATOM      3  C   UNL d   1      -0.051  -3.420   0.476  0.00  0.00     0.058 A 
ATOM      4  C   UNL d   1      -0.952  -1.285  -1.075  0.00  0.00     0.040 A 
ATOM      5  C   UNL d   1      -1.181  -3.576  -0.340  0.00  0.00     0.008 A 
ATOM      6  C   UNL d   1      -1.621  -2.510  -1.126  0.00  0.00     0.021 A 
ENDROOT
BRANCH   5   7
ATOM      7  S   UNL d   1      -1.977  -5.164  -0.421  0.00  0.00    -0.091 SA
BRANCH   7   8
ATOM      8  C   UNL d   1      -3.377  -5.037   0.680  0.00  0.00     0.005 A 
ATOM      9  C   UNL d   1      -3.567  -4.004   1.605  0.00  0.00     0.020 A 
ATOM     10  C   UNL d   1      -4.701  -3.982   2.425  0.00  0.00     0.025 A 
ATOM     11  C   UNL d   1      -5.647  -4.999   2.332  0.00  0.00     0.034 A 
ATOM     12  C   UNL d   1      -5.465  -6.044   1.432  0.00  0.00     0.025 A 
ATOM     13 CL   UNL d   1      -7.045  -4.965   3.333  0.00  0.00    -0.084 Cl
ATOM     14  C   UNL d   1      -4.333  -6.062   0.612  0.00  0.00     0.020 A 
ENDBRANCH   7   8
ENDBRANCH   5   7
BRANCH   2  15
ATOM     15  O   UNL d   1       1.821  -2.038   1.240  0.00  0.00    -0.344 OA
BRANCH  15  16
ATOM     16  C   UNL d   1       2.422  -3.246   1.727  0.00  0.00     0.236 C 
BRANCH  16  17
ATOM     17  C   UNL d   1       3.867  -3.063   2.229  0.00  0.00     0.282 C 
BRANCH  17  18
ATOM     18  O   UNL d   1       3.896  -2.293   3.433  0.00  0.00    -0.364 OA
ATOM     19  C   UNL d   1       5.229  -1.949   3.797  0.00  0.00     0.204 C 
ENDBRANCH  17  18
BRANCH  17  20
ATOM     20  O   UNL d   1       4.487  -4.348   2.417  0.00  0.00    -0.364 OA
ATOM     21  C   UNL d   1       3.876  -5.143   3.429  0.00  0.00     0.204 C 
ENDBRANCH  17  20
ENDBRANCH  16  17
ENDBRANCH  15  16
ENDBRANCH   2  15
BRANCH   1  22
ATOM     22  N   UNL d   1       0.846   0.138  -0.243  0.00  0.00    -0.113 N 
ATOM     23  O   UNL d   1       2.032   0.176  -0.611  0.00  0.00    -0.532 OA
ATOM     24  O   UNL d   1       0.156   1.114   0.073  0.00  0.00    -0.532 OA
ENDBRANCH   1  22
TORSDOF 8
