REMARK  5 active torsions:
REMARK  status: ('A' for Active; 'I' for Inactive)
REMARK    1  A    between atoms: C_7  and  C_1 
REMARK    2  A    between atoms: C_8  and  C_2 
REMARK    3  A    between atoms: O_14  and  C_7 
REMARK    4  A    between atoms: C_9  and  C_8 
REMARK    5  A    between atoms: N_11  and  C_10 
ROOT
ATOM      1  C   UNL d   1       1.488  -2.994   2.536  0.00  0.00     0.146 A 
ATOM      2  C   UNL d   1       1.379  -2.661   1.139  0.00  0.00     0.080 A 
ATOM      3  N   UNL d   1       2.713  -2.676   2.999  0.00  0.00    -0.254 N 
ATOM      4  HN  UNL d   1       3.060  -2.820   3.947  1.00  0.00     0.195 HD
ATOM      5  O   UNL d   1       3.400  -2.125   1.958  0.00  0.00    -0.241 OA
ATOM      6  C   UNL d   1       2.622  -2.110   0.852  0.00  0.00     0.089 A 
ATOM      7  C   UNL d   1       3.290  -1.543  -0.338  0.00  0.00     0.080 C 
ENDROOT
BRANCH   2   8
ATOM      8  C   UNL d   1       0.295  -2.746   0.166  0.00  0.00     0.188 C 
ATOM      9  O   UNL d   1       0.203  -1.949  -0.764  0.00  0.00    -0.287 OA
BRANCH   8  10
ATOM     10  C   UNL d   1      -0.654  -3.885   0.297  0.00  0.00     0.072 C 
ATOM     11  C   UNL d   1      -1.813  -3.881  -0.383  0.00  0.00     0.089 C 
BRANCH  11  12
ATOM     12  N   UNL d   1      -2.855  -4.806  -0.396  0.00  0.00    -0.390 N 
ATOM     13  C   UNL d   1      -4.007  -4.664  -1.308  0.00  0.00     0.122 C 
ATOM     14  C   UNL d   1      -5.319  -4.746  -0.526  0.00  0.00     0.020 C 
ATOM     15  C   UNL d   1      -5.396  -6.003   0.338  0.00  0.00     0.003 C 
ATOM     16  C   UNL d   1      -4.141  -6.171   1.190  0.00  0.00     0.020 C 
ATOM     17  C   UNL d   1      -2.864  -6.068   0.356  0.00  0.00     0.122 C 
ENDBRANCH  11  12
ENDBRANCH   8  10
ENDBRANCH   2   8
BRANCH   1  18
ATOM     18  C   UNL d   1       0.515  -3.557   3.478  0.00  0.00     0.312 C 
ATOM     19  O   UNL d   1      -0.643  -3.839   3.181  0.00  0.00    -0.258 OA
BRANCH  18  20
ATOM     20  O   UNL d   1       1.043  -3.744   4.723  0.00  0.00    -0.321 OA
ATOM     21  C   UNL d   1       0.195  -4.331   5.710  0.00  0.00     0.213 C 
ENDBRANCH  18  20
ENDBRANCH   1  18
TORSDOF 5
