REMARK  4 active torsions:
REMARK  status: ('A' for Active; 'I' for Inactive)
REMARK    1  A    between atoms: C_8  and  C_1 
REMARK    2  A    between atoms: C_7  and  C_2 
REMARK    3  A    between atoms: C_9  and  C_5 
REMARK    4  A    between atoms: O_12  and  C_7 
ROOT
ATOM      1  C   UNL d   1      -1.425  -0.262   0.091  0.00  0.00     0.081 A 
ATOM      2  C   UNL d   1      -0.857   1.001  -0.004  0.00  0.00     0.189 A 
ATOM      3  N   UNL d   1       0.832  -0.464  -0.179  0.00  0.00    -0.259 N 
ATOM      4  HN  UNL d   1       1.771  -0.847  -0.281  1.00  0.00     0.195 HD
ATOM      5  C   UNL d   1      -0.304  -1.159  -0.025  0.00  0.00     0.082 A 
ATOM      6  O   UNL d   1       0.488   0.857  -0.172  0.00  0.00    -0.230 OA
ENDROOT
BRANCH   5   7
ATOM      7  C   UNL d   1      -0.247  -2.623  -0.038  0.00  0.00    -0.006 A 
ATOM      8  C   UNL d   1       0.832  -3.286   0.571  0.00  0.00     0.014 A 
ATOM      9  C   UNL d   1       0.937  -4.678   0.518  0.00  0.00     0.001 A 
ATOM     10  C   UNL d   1      -0.032  -5.423  -0.145  0.00  0.00     0.000 A 
ATOM     11  C   UNL d   1      -1.106  -4.779  -0.758  0.00  0.00     0.001 A 
ATOM     12  C   UNL d   1      -1.210  -3.387  -0.709  0.00  0.00     0.014 A 
ENDBRANCH   5   7
BRANCH   1  13
ATOM     13  C   UNL d   1      -2.814  -0.623   0.335  0.00  0.00     0.161 C 
ATOM     14  O   UNL d   1      -3.083  -1.560   1.089  0.00  0.00    -0.293 OA
ATOM     15  C   UNL d   1      -3.935   0.027  -0.436  0.00  0.00     0.097 C 
ENDBRANCH   1  13
BRANCH   2  16
ATOM     16  C   UNL d   1      -1.346   2.354   0.096  0.00  0.00     0.320 C 
ATOM     17  O   UNL d   1      -2.483   2.690   0.390  0.00  0.00    -0.257 OA
BRANCH  16  18
ATOM     18  O   UNL d   1      -0.337   3.229  -0.190  0.00  0.00    -0.321 OA
ATOM     19  C   UNL d   1      -0.687   4.614  -0.152  0.00  0.00     0.213 C 
ENDBRANCH  16  18
ENDBRANCH   2  16
TORSDOF 4
