REMARK  1 active torsions:
REMARK  status: ('A' for Active; 'I' for Inactive)
REMARK    1  A    between atoms: C_7  and  C_5 
ROOT
ATOM      1  C   UNL d   1      -1.774  -0.028  -0.131  0.00  0.00     0.057 A 
ATOM      2  S   UNL d   1      -0.936   1.506  -0.160  0.00  0.00    -0.086 SA
ATOM      3  C   UNL d   1      -0.813  -1.175  -0.208  0.00  0.00     0.200 A 
ATOM      4  C   UNL d   1       0.567  -0.682  -0.146  0.00  0.00     0.032 A 
ATOM      5  C   UNL d   1      -3.106  -0.106  -0.008  0.00  0.00     0.034 C 
ATOM      6  C   UNL d   1       0.641   0.706  -0.106  0.00  0.00     0.020 A 
ATOM      7  O   UNL d   1      -1.080  -2.358  -0.315  0.00  0.00    -0.286 OA
ATOM      8  C   UNL d   1       1.700  -1.484  -0.105  0.00  0.00     0.017 A 
ATOM      9  C   UNL d   1       1.878   1.330  -0.015  0.00  0.00     0.020 A 
ATOM     10  C   UNL d   1       2.944  -0.860  -0.010  0.00  0.00     0.001 A 
ATOM     11  C   UNL d   1       3.032   0.539   0.036  0.00  0.00     0.001 A 
ENDROOT
BRANCH   5  12
ATOM     12  C   UNL d   1      -3.870  -1.350   0.128  0.00  0.00    -0.029 A 
ATOM     13  C   UNL d   1      -4.362  -2.072  -0.974  0.00  0.00    -0.052 A 
ATOM     14  C   UNL d   1      -4.149  -1.649  -2.401  0.00  0.00     0.049 C 
ATOM     15  C   UNL d   1      -5.106  -3.243  -0.740  0.00  0.00     0.007 A 
ATOM     16  C   UNL d   1      -5.339  -3.699   0.558  0.00  0.00     0.001 A 
ATOM     17  C   UNL d   1      -4.836  -2.990   1.645  0.00  0.00     0.001 A 
ATOM     18  C   UNL d   1      -4.108  -1.821   1.430  0.00  0.00     0.012 A 
ENDBRANCH   5  12
TORSDOF 1
