REMARK  7 active torsions:
REMARK  status: ('A' for Active; 'I' for Inactive)
REMARK    1  A    between atoms: C_15  and  C_1 
REMARK    2  A    between atoms: C_18  and  C_3 
REMARK    3  A    between atoms: C_17  and  N_6 
REMARK    4  A    between atoms: S_16  and  C_7 
REMARK    5  A    between atoms: C_8  and  S_16 
REMARK    6  A    between atoms: O_26  and  C_18 
REMARK    7  A    between atoms: C_30  and  O_26 
ROOT
ATOM      1  C   UNL d   1       4.449  -2.324   0.791  0.00  0.00     0.176 C 
ATOM      2  N   UNL d   1       5.005  -2.828  -0.276  0.00  0.00    -0.285 N 
ATOM      3  HN  UNL d   1       6.018  -2.809  -0.388  1.00  0.00     0.188 HD
ATOM      4  N   UNL d   1       4.215  -3.382  -1.239  0.00  0.00    -0.264 N 
ATOM      5  C   UNL d   1       2.149  -2.848  -0.118  0.00  0.00     0.078 C 
ATOM      6  C   UNL d   1       2.968  -2.420   1.037  0.00  0.00     0.224 C 
ATOM      7  C   UNL d   1       2.835  -3.316  -1.165  0.00  0.00     0.139 C 
ATOM      8  O   UNL d   1       2.514  -2.204   2.153  0.00  0.00    -0.284 OA
ENDROOT
BRANCH   5   9
ATOM      9  S   UNL d   1       0.434  -2.804  -0.011  0.00  0.00    -0.047 SA
BRANCH   9  10
ATOM     10  C   UNL d   1       0.219  -1.137  -0.426  0.00  0.00     0.167 A 
ATOM     11  N   UNL d   1      -0.862  -0.385  -0.045  0.00  0.00    -0.312 N 
ATOM     12  C   UNL d   1      -0.717   0.827  -0.689  0.00  0.00     0.209 A 
ATOM     13  C   UNL d   1      -1.926  -0.799   0.836  0.00  0.00     0.160 C 
ATOM     14  N   UNL d   1       0.424   0.804  -1.361  0.00  0.00    -0.279 N 
ATOM     15  N   UNL d   1       1.004  -0.425  -1.198  0.00  0.00    -0.278 N 
ATOM     16  HN  UNL d   1       0.807   1.575  -1.908  1.00  0.00     0.188 HD
ATOM     17  HN  UNL d   1       1.888  -0.732  -1.605  1.00  0.00     0.189 HD
BRANCH  12  18
ATOM     18  C   UNL d   1      -1.682   1.959  -0.657  0.00  0.00     0.450 C 
ATOM     19  F   UNL d   1      -2.853   1.647  -0.039  0.00  0.00    -0.163 F 
ATOM     20  F   UNL d   1      -1.182   3.039  -0.004  0.00  0.00    -0.163 F 
ATOM     21  F   UNL d   1      -2.023   2.373  -1.905  0.00  0.00    -0.163 F 
ENDBRANCH  12  18
ENDBRANCH   9  10
ENDBRANCH   5   9
BRANCH   1  22
ATOM     22  C   UNL d   1       5.363  -1.597   1.753  0.00  0.00     0.315 C 
ATOM     23  O   UNL d   1       5.064  -0.532   2.257  0.00  0.00    -0.257 OA
BRANCH  22  24
ATOM     24  O   UNL d   1       6.547  -2.244   1.836  0.00  0.00    -0.317 OA
BRANCH  24  25
ATOM     25  C   UNL d   1       7.622  -1.487   2.404  0.00  0.00     0.175 C 
ATOM     26  C   UNL d   1       8.208  -0.555   1.356  0.00  0.00     0.034 C 
ENDBRANCH  24  25
ENDBRANCH  22  24
ENDBRANCH   1  22
BRANCH   4  27
ATOM     27  C   UNL d   1       4.917  -4.075  -2.283  0.00  0.00     0.077 A 
ATOM     28  C   UNL d   1       6.187  -3.686  -2.774  0.00  0.00     0.062 A 
ATOM     29 CL   UNL d   1       6.997  -2.222  -2.310  0.00  0.00    -0.082 Cl
ATOM     30  C   UNL d   1       6.848  -4.449  -3.750  0.00  0.00     0.026 A 
ATOM     31  C   UNL d   1       6.262  -5.600  -4.270  0.00  0.00     0.002 A 
ATOM     32  C   UNL d   1       5.009  -5.994  -3.820  0.00  0.00     0.002 A 
ATOM     33  C   UNL d   1       4.349  -5.245  -2.840  0.00  0.00     0.033 A 
ENDBRANCH   4  27
TORSDOF 7
