REMARK  7 active torsions:
REMARK  status: ('A' for Active; 'I' for Inactive)
REMARK    1  A    between atoms: C_3  and  S_1 
REMARK    2  A    between atoms: C_5  and  S_1 
REMARK    3  A    between atoms: C_2  and  C_6 
REMARK    4  A    between atoms: C_9  and  C_3 
REMARK    5  A    between atoms: C_4  and  C_10 
REMARK       I    between atoms: N_16  and  C_9 
REMARK    6  A    between atoms: N_13  and  N_16 
REMARK    7  A    between atoms: C_28  and  C_27 
ROOT
ATOM      1  C   UNL d   1       0.821   2.280  -1.262  0.00  0.00     0.250 C 
ATOM      2  N   UNL d   1       1.738   2.750  -0.334  0.00  0.00    -0.270 N 
ATOM      3  O   UNL d   1       0.352   2.980  -2.168  0.00  0.00    -0.271 OA
ATOM      4  H   UNL d   1       2.137   2.155   0.395  0.00  0.00     0.190 HD
ENDROOT
BRANCH   1   5
ATOM      5  C   UNL d   1       0.512   0.815  -1.252  0.00  0.00     0.251 C 
BRANCH   5   6
ATOM      6  S   UNL d   1       0.376   0.109   0.346  0.00  0.00     0.199 S 
ATOM      7  O   UNL d   1       1.565   0.470   1.105  0.00  0.00    -0.221 OA
ATOM      8  O   UNL d   1       0.021  -1.288   0.172  0.00  0.00    -0.221 OA
BRANCH   6   9
ATOM      9  C   UNL d   1      -1.005   0.889   1.138  0.00  0.00     0.128 A 
ATOM     10  N   UNL d   1      -1.463   1.997   0.513  0.00  0.00    -0.356 N 
ATOM     11  C   UNL d   1      -2.531   2.604   1.076  0.00  0.00     0.105 A 
ATOM     12  HN  UNL d   1      -1.026   2.355  -0.336  1.00  0.00     0.166 HD
ATOM     13  C   UNL d   1      -3.163   2.143   2.224  0.00  0.00     0.063 A 
ATOM     14  C   UNL d   1      -2.650   0.989   2.837  0.00  0.00     0.020 A 
ATOM     15  C   UNL d   1      -1.548   0.343   2.285  0.00  0.00     0.042 A 
BRANCH  13  16
ATOM     16  C   UNL d   1      -4.365   2.852   2.772  0.00  0.00     0.418 C 
ATOM     17  F   UNL d   1      -4.731   3.945   2.047  0.00  0.00    -0.166 F 
ATOM     18  F   UNL d   1      -5.461   2.048   2.816  0.00  0.00    -0.166 F 
ATOM     19  F   UNL d   1      -4.171   3.294   4.044  0.00  0.00    -0.166 F 
ENDBRANCH  13  16
ENDBRANCH   6   9
ENDBRANCH   5   6
ENDBRANCH   1   5
BRANCH   2  20
ATOM     20  N   UNL d   1       2.182   4.021  -0.482  0.00  0.00    -0.308 N 
ATOM     21  C   UNL d   1       3.018   4.492   0.381  0.00  0.00     0.118 C 
ATOM     22  HN  UNL d   1       1.861   4.595  -1.261  1.00  0.00     0.186 HD
BRANCH  21  23
ATOM     23  C   UNL d   1       3.591   5.840   0.157  0.00  0.00    -0.018 A 
ATOM     24  C   UNL d   1       3.217   6.557  -0.989  0.00  0.00     0.029 A 
ATOM     25  C   UNL d   1       3.817   7.785  -1.293  0.00  0.00     0.048 A 
ATOM     26  C   UNL d   1       4.783   8.295  -0.414  0.00  0.00     0.016 A 
ATOM     27  C   UNL d   1       5.139   7.593   0.742  0.00  0.00     0.002 A 
ATOM     28  C   UNL d   1       4.546   6.360   1.032  0.00  0.00     0.013 A 
BRANCH  25  29
ATOM     29  C   UNL d   1       3.461   8.523  -2.560  0.00  0.00     0.417 C 
ATOM     30  F   UNL d   1       2.475   7.929  -3.288  0.00  0.00    -0.166 F 
ATOM     31  F   UNL d   1       3.032   9.793  -2.319  0.00  0.00    -0.166 F 
ATOM     32  F   UNL d   1       4.525   8.643  -3.402  0.00  0.00    -0.166 F 
ENDBRANCH  25  29
ENDBRANCH  21  23
ENDBRANCH   2  20
TORSDOF 7
