REMARK  4 active torsions:
REMARK  status: ('A' for Active; 'I' for Inactive)
REMARK    1  A    between atoms: C_9  and  C_3 
REMARK    2  A    between atoms: C_5  and  C_8 
REMARK    3  A    between atoms: C_7  and  C_9 
REMARK       I    between atoms: N_10  and  C_7 
REMARK    4  A    between atoms: C_12  and  N_10 
ROOT
ATOM      1  C   UNL d   1      -3.038  -2.503   0.427  0.00  0.00     0.226 C 
ATOM      2  N   UNL d   1      -3.513  -1.294  -0.051  0.00  0.00    -0.327 N 
ATOM      3  O   UNL d   1      -1.944  -2.686   0.957  0.00  0.00    -0.273 OA
ATOM      4  H   UNL d   1      -4.352  -1.313  -0.618  0.00  0.00     0.169 HD
ENDROOT
BRANCH   2   5
ATOM      5  C   UNL d   1      -2.873  -0.042   0.065  0.00  0.00     0.035 A 
ATOM      6  C   UNL d   1      -1.835   0.213   0.965  0.00  0.00     0.045 A 
ATOM      7  C   UNL d   1      -1.238   1.483   1.040  0.00  0.00     0.050 A 
ATOM      8  C   UNL d   1      -1.679   2.494   0.173  0.00  0.00     0.016 A 
ATOM      9  C   UNL d   1      -2.721   2.251  -0.719  0.00  0.00     0.003 A 
ATOM     10  C   UNL d   1      -3.328   0.994  -0.759  0.00  0.00     0.029 A 
BRANCH   7  11
ATOM     11  C   UNL d   1      -0.137   1.769   2.031  0.00  0.00     0.417 C 
ATOM     12  F   UNL d   1       0.057   0.777   2.944  0.00  0.00    -0.166 F 
ATOM     13  F   UNL d   1       1.068   1.966   1.429  0.00  0.00    -0.166 F 
ATOM     14  F   UNL d   1      -0.377   2.897   2.759  0.00  0.00    -0.166 F 
ENDBRANCH   7  11
ENDBRANCH   2   5
BRANCH   1  15
ATOM     15  C   UNL d   1      -4.011  -3.659   0.242  0.00  0.00     0.143 C 
BRANCH  15  16
ATOM     16  C   UNL d   1      -4.667  -4.013   1.546  0.00  0.00    -0.023 A 
ATOM     17  C   UNL d   1      -5.981  -3.793   1.915  0.00  0.00     0.059 A 
ATOM     18  S   UNL d   1      -6.351  -4.327   3.487  0.00  0.00    -0.075 SA
ATOM     19 BR   UNL d   1      -7.282  -2.977   0.832  0.00  0.00    -0.042 Br
ATOM     20  C   UNL d   1      -4.762  -4.854   3.725  0.00  0.00     0.053 A 
ATOM     21 BR   UNL d   1      -4.163  -5.634   5.318  0.00  0.00    -0.043 Br
ATOM     22  C   UNL d   1      -3.958  -4.646   2.634  0.00  0.00     0.036 A 
ENDBRANCH  15  16
ENDBRANCH   1  15
TORSDOF 4
