REMARK  5 active torsions:
REMARK  status: ('A' for Active; 'I' for Inactive)
REMARK    1  A    between atoms: N_4  and  C_1 
REMARK    2  A    between atoms: C_2  and  C_6 
REMARK    3  A    between atoms: N_8  and  C_3 
REMARK    4  A    between atoms: C_6  and  N_8 
REMARK    5  A    between atoms: C_17  and  C_14 
ROOT
ATOM      1  C   UNL d   1      -0.669   1.353   0.105  0.00  0.00     0.146 C 
ATOM      2  C   UNL d   1       0.688   1.436   0.162  0.00  0.00     0.128 C 
ATOM      3  C   UNL d   1      -1.293   0.064  -0.092  0.00  0.00     0.120 C 
ATOM      4  C   UNL d   1       1.511   0.270  -0.010  0.00  0.00     0.114 C 
ATOM      5  N   UNL d   1       2.208  -0.644  -0.159  0.00  0.00    -0.190 NA
ATOM      6  N   UNL d   1      -1.823  -0.955  -0.271  0.00  0.00    -0.190 NA
ENDROOT
BRANCH   1   7
ATOM      7  N   UNL d   1      -1.442   2.489   0.317  0.00  0.00    -0.355 N 
ATOM      8  C   UNL d   1      -2.558   2.589  -0.339  0.00  0.00     0.100 C 
ATOM      9  HN  UNL d   1      -1.143   3.218   0.965  1.00  0.00     0.166 HD
BRANCH   8  10
ATOM     10  C   UNL d   1      -3.441   3.769  -0.232  0.00  0.00    -0.021 A 
ATOM     11  C   UNL d   1      -3.106   4.862   0.569  0.00  0.00     0.013 A 
ATOM     12  C   UNL d   1      -3.923   5.995   0.573  0.00  0.00     0.001 A 
ATOM     13  C   UNL d   1      -5.081   6.025  -0.206  0.00  0.00     0.000 A 
ATOM     14  C   UNL d   1      -5.430   4.920  -0.983  0.00  0.00     0.001 A 
ATOM     15  C   UNL d   1      -4.611   3.790  -0.998  0.00  0.00     0.013 A 
ENDBRANCH   8  10
ENDBRANCH   1   7
BRANCH   2  16
ATOM     16  N   UNL d   1       1.419   2.611   0.434  0.00  0.00    -0.277 NA
ATOM     17  H   UNL d   1       2.140   2.406   1.130  0.00  0.00     0.128 HD
BRANCH  16  18
ATOM     18  C   UNL d   1       2.057   3.365  -0.652  0.00  0.00     0.136 C 
BRANCH  18  19
ATOM     19  C   UNL d   1       2.354   4.760  -0.174  0.00  0.00     0.015 A 
ATOM     20  C   UNL d   1       1.413   5.798  -0.219  0.00  0.00     0.044 A 
ATOM     21 CL   UNL d   1      -0.109   5.615  -1.011  0.00  0.00    -0.084 Cl
ATOM     22  C   UNL d   1       1.696   7.050   0.342  0.00  0.00     0.024 A 
ATOM     23  C   UNL d   1       2.940   7.300   0.918  0.00  0.00     0.005 A 
ATOM     24  C   UNL d   1       3.903   6.297   0.927  0.00  0.00     0.043 A 
ATOM     25  C   UNL d   1       3.600   5.043   0.396  0.00  0.00     0.125 A 
ATOM     26  F   UNL d   1       4.543   4.090   0.439  0.00  0.00    -0.205 F 
ENDBRANCH  18  19
ENDBRANCH  16  18
ENDBRANCH   2  16
TORSDOF 5
