REMARK  6 active torsions:
REMARK  status: ('A' for Active; 'I' for Inactive)
REMARK    1  A    between atoms: C_4  and  N_1 
REMARK    2  A    between atoms: C_11  and  C_2 
REMARK    3  A    between atoms: C_10  and  C_3 
REMARK    4  A    between atoms: O_18  and  C_10 
REMARK    5  A    between atoms: O_20  and  C_11 
REMARK    6  A    between atoms: O_21  and  C_11 
ROOT
ATOM      1  N   UNL d   1       0.936  -0.558   0.202  0.00  0.00    -0.252 N 
ATOM      2  C   UNL d   1       0.896   0.816  -0.022  0.00  0.00     0.107 C 
ATOM      3  C   UNL d   1      -0.451   1.125  -0.228  0.00  0.00     0.086 C 
ATOM      4  N   UNL d   1      -0.311  -1.055   0.408  0.00  0.00    -0.303 N 
ATOM      5  HN  UNL d   1      -0.562  -1.990   0.729  1.00  0.00     0.186 HD
ATOM      6  C   UNL d   1      -1.134  -0.056   0.099  0.00  0.00     0.127 C 
ENDROOT
BRANCH   1   7
ATOM      7  C   UNL d   1       2.027  -1.470   0.166  0.00  0.00     0.100 A 
ATOM      8  C   UNL d   1       3.170  -1.302   0.964  0.00  0.00     0.066 A 
ATOM      9  C   UNL d   1       4.281  -2.142   0.802  0.00  0.00     0.050 A 
ATOM     10 CL   UNL d   1       3.225  -0.256   2.344  0.00  0.00    -0.082 Cl
ATOM     11  C   UNL d   1       4.218  -3.220  -0.072  0.00  0.00     0.037 A 
ATOM     12  C   UNL d   1       3.052  -3.477  -0.779  0.00  0.00     0.050 A 
ATOM     13 CL   UNL d   1       5.574  -4.263  -0.247  0.00  0.00    -0.084 Cl
ATOM     14  C   UNL d   1       1.962  -2.602  -0.676  0.00  0.00     0.066 A 
ATOM     15 CL   UNL d   1       0.618  -2.986  -1.704  0.00  0.00    -0.082 Cl
ENDBRANCH   1   7
BRANCH   2  16
ATOM     16  C   UNL d   1       2.071   1.725  -0.094  0.00  0.00     0.312 C 
BRANCH  16  17
ATOM     17  O   UNL d   1       2.410   1.811  -1.473  0.00  0.00    -0.360 OA
ATOM     18  C   UNL d   1       3.579   2.596  -1.672  0.00  0.00     0.205 C 
ENDBRANCH  16  17
BRANCH  16  19
ATOM     19  O   UNL d   1       1.702   2.999   0.438  0.00  0.00    -0.360 OA
ATOM     20  C   UNL d   1       1.482   3.019   1.841  0.00  0.00     0.205 C 
ENDBRANCH  16  19
ENDBRANCH   2  16
BRANCH   3  21
ATOM     21  C   UNL d   1      -1.012   2.401  -0.627  0.00  0.00     0.296 C 
ATOM     22  O   UNL d   1      -0.468   3.203  -1.370  0.00  0.00    -0.259 OA
BRANCH  21  23
ATOM     23  O   UNL d   1      -2.227   2.617  -0.039  0.00  0.00    -0.322 OA
ATOM     24  C   UNL d   1      -2.736   3.937  -0.231  0.00  0.00     0.213 C 
ENDBRANCH  21  23
ENDBRANCH   3  21
TORSDOF 6
