REMARK  3 active torsions:
REMARK  status: ('A' for Active; 'I' for Inactive)
REMARK    1  A    between atoms: S_8  and  C_1 
REMARK    2  A    between atoms: S_9  and  C_5 
REMARK    3  A    between atoms: C_11  and  S_8 
ROOT
ATOM      1  C   UNL d   1       0.065  -1.311   0.047  0.00  0.00     0.163 A 
ATOM      2  N   UNL d   1      -0.611  -0.180   0.426  0.00  0.00    -0.310 N 
ATOM      3  N   UNL d   1       1.199  -0.981  -0.527  0.00  0.00    -0.278 N 
ATOM      4  HN  UNL d   1       1.892  -1.627  -0.904  1.00  0.00     0.189 HD
ATOM      5  C   UNL d   1       0.196   0.858   0.036  0.00  0.00     0.160 A 
ATOM      6  N   UNL d   1       1.285   0.391  -0.528  0.00  0.00    -0.278 N 
ATOM      7  HN  UNL d   1       2.056   0.946  -0.900  1.00  0.00     0.189 HD
ATOM      8  C   UNL d   1      -1.877  -0.089   1.100  0.00  0.00     0.160 C 
ENDROOT
BRANCH   1   9
ATOM      9  S   UNL d   1      -0.515  -2.921   0.304  0.00  0.00    -0.088 SA
BRANCH   9  10
ATOM     10  C   UNL d   1       1.035  -3.889   0.196  0.00  0.00     0.047 C 
ATOM     11  C   UNL d   1       1.911  -3.639   1.422  0.00  0.00     0.021 C 
ATOM     12  C   UNL d   1       0.675  -5.371   0.101  0.00  0.00     0.021 C 
ENDBRANCH   9  10
ENDBRANCH   1   9
BRANCH   5  13
ATOM     13  S   UNL d   1      -0.154   2.538   0.256  0.00  0.00    -0.105 SA
ATOM     14  H   UNL d   1      -1.437   2.472   0.629  0.00  0.00     0.110 HD
ENDBRANCH   5  13
TORSDOF 3
