REMARK  6 active torsions:
REMARK  status: ('A' for Active; 'I' for Inactive)
REMARK    1  A    between atoms: N_3  and  C_1 
REMARK    2  A    between atoms: C_9  and  C_2 
REMARK       I    between atoms: C_7  and  N_3 
REMARK    3  A    between atoms: O_10  and  C_7 
REMARK    4  A    between atoms: O_13  and  C_9 
REMARK    5  A    between atoms: C_14  and  O_10 
REMARK    6  A    between atoms: C_16  and  O_13 
ROOT
ATOM      1  C   UNL d   1       0.544   1.504  -0.205  0.00  0.00     0.093 A 
ATOM      2  C   UNL d   1      -0.814   1.279  -0.056  0.00  0.00     0.092 A 
ATOM      3  S   UNL d   1       1.348   0.048  -0.559  0.00  0.00    -0.001 SA
ATOM      4  N   UNL d   1      -0.000  -0.899  -0.532  0.00  0.00    -0.328 N 
ATOM      5  HN  UNL d   1      -0.014  -1.911  -0.659  1.00  0.00     0.174 HD
ATOM      6  C   UNL d   1      -1.071  -0.130  -0.319  0.00  0.00     0.030 A 
ATOM      7  C   UNL d   1      -2.404  -0.801  -0.413  0.00  0.00     0.070 C 
ENDROOT
BRANCH   1   8
ATOM      8  N   UNL d   1       1.306   2.654  -0.279  0.00  0.00    -0.195 NA
ATOM      9  C   UNL d   1       2.047   3.052   0.819  0.00  0.00     0.348 C 
ATOM     10  O   UNL d   1       3.089   3.675   0.645  0.00  0.00    -0.245 OA
ATOM     11  H   UNL d   1       1.964   2.666  -1.051  0.00  0.00     0.139 HD
BRANCH   9  12
ATOM     12  O   UNL d   1       1.542   2.643   2.045  0.00  0.00    -0.266 OA
BRANCH  12  13
ATOM     13  C   UNL d   1       2.517   2.568   3.050  0.00  0.00     0.080 A 
ATOM     14  C   UNL d   1       2.322   3.279   4.232  0.00  0.00     0.037 A 
ATOM     15  C   UNL d   1       3.244   3.138   5.272  0.00  0.00     0.003 A 
ATOM     16  C   UNL d   1       4.340   2.285   5.128  0.00  0.00     0.000 A 
ATOM     17  C   UNL d   1       4.522   1.571   3.945  0.00  0.00     0.003 A 
ATOM     18  C   UNL d   1       3.605   1.703   2.905  0.00  0.00     0.037 A 
ENDBRANCH  12  13
ENDBRANCH   9  12
ENDBRANCH   1   8
BRANCH   2  19
ATOM     19  C   UNL d   1      -1.838   2.284   0.207  0.00  0.00     0.297 C 
ATOM     20  O   UNL d   1      -3.035   2.026   0.205  0.00  0.00    -0.259 OA
BRANCH  19  21
ATOM     21  O   UNL d   1      -1.335   3.530   0.437  0.00  0.00    -0.318 OA
BRANCH  21  22
ATOM     22  C   UNL d   1      -2.300   4.583   0.593  0.00  0.00     0.174 C 
ATOM     23  C   UNL d   1      -2.467   5.304  -0.731  0.00  0.00     0.034 C 
ENDBRANCH  21  22
ENDBRANCH  19  21
ENDBRANCH   2  19
TORSDOF 6
