REMARK  4 active torsions:
REMARK  status: ('A' for Active; 'I' for Inactive)
REMARK    1  A    between atoms: C_20  and  N_3 
REMARK    2  A    between atoms: C_11  and  C_4 
REMARK    3  A    between atoms: C_8  and  N_14 
REMARK    4  A    between atoms: C_17  and  C_10 
REMARK       I    between atoms: N_14  and  C_11 
ROOT
ATOM      1  N   UNL d   1      -0.265  -1.058  -0.265  0.00  0.00    -0.272 N 
ATOM      2  HN  UNL d   1      -0.550  -1.975  -0.611  1.00  0.00     0.189 HD
ATOM      3  N   UNL d   1       0.976  -0.633   0.138  0.00  0.00    -0.196 N 
ATOM      4  C   UNL d   1      -1.013   0.054  -0.086  0.00  0.00     0.141 A 
ATOM      5  N   UNL d   1       1.033   0.619   0.653  0.00  0.00    -0.281 N 
ATOM      6  HN  UNL d   1       1.829   1.095   1.077  1.00  0.00     0.189 HD
ATOM      7  C   UNL d   1      -0.204   1.076   0.469  0.00  0.00     0.057 A 
ATOM      8  C   UNL d   1      -0.536   2.475   0.823  0.00  0.00     0.072 C 
ENDROOT
BRANCH   4   9
ATOM      9  C   UNL d   1      -2.439   0.179  -0.417  0.00  0.00     0.277 C 
ATOM     10  N   UNL d   1      -3.070  -1.005  -0.724  0.00  0.00    -0.300 N 
ATOM     11  H   UNL d   1      -2.519  -1.855  -0.719  0.00  0.00     0.171 HD
ATOM     12  O   UNL d   1      -2.971   1.286  -0.379  0.00  0.00    -0.266 OA
BRANCH  10  13
ATOM     13  C   UNL d   1      -4.431  -1.160  -0.896  0.00  0.00     0.168 A 
ATOM     14  S   UNL d   1      -5.519   0.159  -0.871  0.00  0.00    -0.037 SA
ATOM     15  C   UNL d   1      -6.798  -0.968  -0.931  0.00  0.00     0.074 A 
ATOM     16  N   UNL d   1      -6.410  -2.216  -1.075  0.00  0.00    -0.296 N 
ATOM     17  N   UNL d   1      -5.021  -2.326  -1.061  0.00  0.00    -0.279 N 
ATOM     18  HN  UNL d   1      -7.046  -3.006  -1.183  1.00  0.00     0.187 HD
ATOM     19  HN  UNL d   1      -4.519  -3.208  -1.166  1.00  0.00     0.189 HD
BRANCH  15  20
ATOM     20  C   UNL d   1      -8.251  -0.522  -0.762  0.00  0.00     0.044 A 
ATOM     21  C   UNL d   1      -9.173  -1.438   0.020  0.00  0.00     0.012 A 
ATOM     22  C   UNL d   1      -9.377  -1.263  -1.446  0.00  0.00     0.012 A 
ENDBRANCH  15  20
ENDBRANCH  10  13
ENDBRANCH   4   9
BRANCH   3  23
ATOM     23  C   UNL d   1       2.168  -1.392  -0.010  0.00  0.00     0.074 A 
ATOM     24  C   UNL d   1       2.163  -2.645  -0.629  0.00  0.00     0.033 A 
ATOM     25  C   UNL d   1       3.371  -3.328  -0.811  0.00  0.00     0.002 A 
ATOM     26  C   UNL d   1       4.576  -2.771  -0.374  0.00  0.00     0.000 A 
ATOM     27  C   UNL d   1       4.583  -1.530   0.258  0.00  0.00     0.002 A 
ATOM     28  C   UNL d   1       3.384  -0.843   0.441  0.00  0.00     0.033 A 
ENDBRANCH   3  23
TORSDOF 4
