REMARK  8 active torsions:
REMARK  status: ('A' for Active; 'I' for Inactive)
REMARK    1  A    between atoms: C_2  and  S_1 
REMARK    2  A    between atoms: C_9  and  S_1 
REMARK    3  A    between atoms: S_3  and  N_6 
REMARK    4  A    between atoms: C_18  and  S_3 
REMARK    5  A    between atoms: C_4  and  C_10 
REMARK    6  A    between atoms: N_6  and  C_8 
REMARK    7  A    between atoms: C_13  and  O_21 
REMARK    8  A    between atoms: O_21  and  C_32 
ROOT
ATOM      1  C   UNL d   1       0.557  -0.507   1.494  0.00  0.00     0.161 C 
ATOM      2  C   UNL d   1      -0.301   0.165   2.273  0.00  0.00     0.132 C 
ATOM      3  C   UNL d   1       1.067  -0.043   0.263  0.00  0.00     0.113 C 
ATOM      4  N   UNL d   1       1.542   0.288  -0.744  0.00  0.00    -0.191 NA
ENDROOT
BRANCH   1   5
ATOM      5  S   UNL d   1       0.994  -2.105   1.964  0.00  0.00     0.233 S 
ATOM      6  O   UNL d   1       0.530  -3.026   0.937  0.00  0.00    -0.215 OA
ATOM      7  O   UNL d   1       0.623  -2.361   3.348  0.00  0.00    -0.215 OA
BRANCH   5   8
ATOM      8  C   UNL d   1       2.781  -2.111   1.899  0.00  0.00     0.134 A 
ATOM      9  N   UNL d   1       3.365  -1.204   2.724  0.00  0.00    -0.356 N 
ATOM     10  C   UNL d   1       4.719  -1.198   2.735  0.00  0.00     0.105 A 
ATOM     11  HN  UNL d   1       2.817  -0.567   3.301  1.00  0.00     0.166 HD
ATOM     12  C   UNL d   1       5.509  -2.030   1.948  0.00  0.00     0.063 A 
ATOM     13  C   UNL d   1       4.858  -2.939   1.101  0.00  0.00     0.020 A 
ATOM     14  C   UNL d   1       3.466  -2.991   1.075  0.00  0.00     0.043 A 
BRANCH  12  15
ATOM     15  C   UNL d   1       7.006  -1.945   2.004  0.00  0.00     0.418 C 
ATOM     16  F   UNL d   1       7.465  -1.006   2.876  0.00  0.00    -0.166 F 
ATOM     17  F   UNL d   1       7.580  -3.119   2.384  0.00  0.00    -0.166 F 
ATOM     18  F   UNL d   1       7.553  -1.634   0.798  0.00  0.00    -0.166 F 
ENDBRANCH  12  15
ENDBRANCH   5   8
ENDBRANCH   1   5
BRANCH   2  19
ATOM     19  N   UNL d   1      -0.848   1.424   1.839  0.00  0.00    -0.321 N 
ATOM     20  HN  UNL d   1      -0.718   1.721   0.871  1.00  0.00     0.175 HD
BRANCH  19  21
ATOM     21  S   UNL d   1      -1.630   2.333   2.816  0.00  0.00     0.052 S 
ATOM     22  O   UNL d   1      -1.161   2.653   4.152  0.00  0.00    -0.245 OA
ATOM     23  C   UNL d   1      -1.929   3.882   1.998  0.00  0.00     0.142 C 
BRANCH  21  24
ATOM     24  C   UNL d   1      -3.269   1.641   3.011  0.00  0.00     0.038 A 
ATOM     25  C   UNL d   1      -3.707   1.308   4.295  0.00  0.00     0.024 A 
ATOM     26  C   UNL d   1      -5.023   0.887   4.493  0.00  0.00     0.039 A 
ATOM     27  C   UNL d   1      -5.889   0.738   3.404  0.00  0.00     0.076 A 
ATOM     28  C   UNL d   1      -5.445   1.073   2.120  0.00  0.00     0.039 A 
ATOM     29  C   UNL d   1      -4.132   1.522   1.917  0.00  0.00     0.024 A 
BRANCH  27  30
ATOM     30  O   UNL d   1      -7.200   0.314   3.516  0.00  0.00    -0.309 OA
BRANCH  30  31
ATOM     31  C   UNL d   1      -7.523  -0.607   4.495  0.00  0.00     0.100 A 
ATOM     32  C   UNL d   1      -8.762  -0.500   5.142  0.00  0.00     0.117 A 
ATOM     33  C   UNL d   1      -9.722   0.504   4.785  0.00  0.00     0.105 C 
ATOM     34  C   UNL d   1      -9.068  -1.404   6.160  0.00  0.00     0.139 A 
ATOM     35  N   UNL d   1     -10.505   1.307   4.495  0.00  0.00    -0.191 NA
ATOM     36  F   UNL d   1     -10.241  -1.327   6.809  0.00  0.00    -0.204 F 
ATOM     37  C   UNL d   1      -8.175  -2.406   6.537  0.00  0.00     0.044 A 
ATOM     38  C   UNL d   1      -6.969  -2.543   5.857  0.00  0.00     0.006 A 
ATOM     39  C   UNL d   1      -6.660  -1.669   4.818  0.00  0.00     0.039 A 
ENDBRANCH  30  31
ENDBRANCH  27  30
ENDBRANCH  21  24
ENDBRANCH  19  21
ENDBRANCH   2  19
TORSDOF 8
