REMARK  4 active torsions:
REMARK  status: ('A' for Active; 'I' for Inactive)
REMARK       I    between atoms: C_5  and  N_12 
REMARK       I    between atoms: N_11  and  C_5 
REMARK    1  A    between atoms: C_14  and  C_6 
REMARK    2  A    between atoms: C_19  and  C_10 
REMARK    3  A    between atoms: C_17  and  N_11 
REMARK    4  A    between atoms: N_12  and  C_14 
ROOT
ATOM      1  C   UNL d   1      -0.921   1.919  -0.420  0.00  0.00    -0.012 C 
ATOM      2  C   UNL d   1       0.374   1.089  -0.380  0.00  0.00    -0.043 A 
ATOM      3  C   UNL d   1      -1.753   1.484  -1.677  0.00  0.00     0.008 C 
ATOM      4  C   UNL d   1       0.315  -0.280  -0.724  0.00  0.00    -0.051 A 
ATOM      5  C   UNL d   1      -1.202   2.092  -3.034  0.00  0.00    -0.023 C 
ATOM      6  C   UNL d   1       1.446  -1.106  -0.585  0.00  0.00     0.015 A 
ATOM      7  C   UNL d   1       1.613   1.598   0.034  0.00  0.00     0.009 A 
ATOM      8  C   UNL d   1      -2.080  -0.016  -1.623  0.00  0.00     0.011 C 
ATOM      9  C   UNL d   1       2.679  -0.598  -0.177  0.00  0.00    -0.054 A 
ATOM     10  C   UNL d   1      -0.938  -0.941  -1.233  0.00  0.00     0.039 C 
ATOM     11  C   UNL d   1       2.747   0.770   0.119  0.00  0.00     0.008 A 
ATOM     12  C   UNL d   1      -0.831   3.479  -0.397  0.00  0.00     0.014 C 
ATOM     13  C   UNL d   1      -1.657   1.548   0.906  0.00  0.00     0.021 C 
ATOM     14  C   UNL d   1      -1.442   3.621  -2.895  0.00  0.00     0.011 C 
ATOM     15  C   UNL d   1      -0.643   4.216  -1.728  0.00  0.00     0.002 C 
ATOM     16  C   UNL d   1       0.314   1.904  -3.334  0.00  0.00     0.017 C 
ENDROOT
BRANCH   5  17
ATOM     17  C   UNL d   1      -1.866   1.497  -4.308  0.00  0.00     0.133 C 
BRANCH  17  18
ATOM     18  N   UNL d   1      -3.227   1.875  -4.609  0.00  0.00    -0.342 N 
ATOM     19  C   UNL d   1      -3.885   1.617  -5.787  0.00  0.00     0.316 C 
ATOM     20  N   UNL d   1      -3.094   1.269  -6.843  0.00  0.00    -0.335 N 
ATOM     21  O   UNL d   1      -5.109   1.709  -5.816  0.00  0.00    -0.247 OA
ATOM     22  H   UNL d   1      -2.169   1.655  -6.788  0.00  0.00     0.165 HD
ATOM     23  H   UNL d   1      -3.875   2.008  -3.845  0.00  0.00     0.164 HD
BRANCH  20  24
ATOM     24  C   UNL d   1      -3.562   1.118  -8.235  0.00  0.00     0.023 C 
ATOM     25  C   UNL d   1      -4.060   2.474  -8.758  0.00  0.00     0.037 C 
ATOM     26  C   UNL d   1      -2.362   0.670  -9.097  0.00  0.00     0.037 C 
ATOM     27  C   UNL d   1      -4.658   0.051  -8.373  0.00  0.00     0.037 C 
ENDBRANCH  20  24
ENDBRANCH  17  18
ENDBRANCH   5  17
BRANCH   9  28
ATOM     28  C   UNL d   1       3.911  -1.480  -0.033  0.00  0.00     0.010 C 
ATOM     29  C   UNL d   1       4.113  -1.895   1.428  0.00  0.00     0.015 C 
ATOM     30  C   UNL d   1       3.905  -2.732  -0.922  0.00  0.00     0.015 C 
ENDBRANCH   9  28
TORSDOF 4
