REMARK  6 active torsions:
REMARK  status: ('A' for Active; 'I' for Inactive)
REMARK    1  A    between atoms: C_8  and  N_1 
REMARK    2  A    between atoms: C_13  and  C_2 
REMARK    3  A    between atoms: S_12  and  C_5 
REMARK    4  A    between atoms: C_28  and  S_12 
REMARK    5  A    between atoms: C_18  and  C_19 
REMARK    6  A    between atoms: C_29  and  C_28 
ROOT
ATOM      1  N   UNL d   1     -10.418   1.895  -1.325  0.00  0.00    -0.191 NA
ATOM      2  C   UNL d   1      -9.267   1.769  -1.273  0.00  0.00     0.099 C 
ATOM      3  C   UNL d   1      -7.840   1.612  -1.211  0.00  0.00     0.044 A 
ATOM      4  C   UNL d   1      -5.031   1.308  -1.098  0.00  0.00    -0.048 A 
ATOM      5  C   UNL d   1      -7.111   2.193  -0.173  0.00  0.00     0.023 A 
ATOM      6  C   UNL d   1      -7.169   0.875  -2.193  0.00  0.00     0.023 A 
ATOM      7  C   UNL d   1      -5.716   2.041  -0.115  0.00  0.00     0.009 A 
ATOM      8  C   UNL d   1      -5.777   0.723  -2.135  0.00  0.00     0.009 A 
ENDROOT
BRANCH   4   9
ATOM      9  C   UNL d   1      -3.521   1.158  -1.024  0.00  0.00     0.121 C 
BRANCH   9  10
ATOM     10  S   UNL d   1      -3.028  -0.332  -0.093  0.00  0.00    -0.087 SA
BRANCH  10  11
ATOM     11  C   UNL d   1      -1.285  -0.230  -0.135  0.00  0.00     0.168 A 
ATOM     12  N   UNL d   1      -0.384  -1.292  -0.013  0.00  0.00    -0.275 N 
ATOM     13  C   UNL d   1       0.877  -0.661  -0.018  0.00  0.00     0.139 A 
ATOM     14  N   UNL d   1       0.691   0.650  -0.006  0.00  0.00    -0.282 N 
ATOM     15  N   UNL d   1      -0.644   0.915  -0.107  0.00  0.00    -0.278 N 
ATOM     16  HN  UNL d   1       1.429   1.351   0.068  1.00  0.00     0.188 HD
ATOM     17  HN  UNL d   1      -1.069   1.841  -0.153  1.00  0.00     0.189 HD
BRANCH  12  18
ATOM     18  C   UNL d   1      -0.649  -2.699   0.079  0.00  0.00     0.046 A 
ATOM     19  C   UNL d   1       0.211  -3.535   0.816  0.00  0.00     0.069 A 
ATOM     20  C   UNL d   1       0.001  -4.899   0.768  0.00  0.00     0.107 A 
ATOM     21  O   UNL d   1       0.785  -5.844   1.353  0.00  0.00    -0.323 OA
ATOM     22  C   UNL d   1      -1.051  -5.447   0.079  0.00  0.00     0.105 A 
ATOM     23  C   UNL d   1       0.083  -7.049   0.980  0.00  0.00     0.352 A 
ATOM     24  O   UNL d   1      -1.072  -6.804   0.152  0.00  0.00    -0.323 OA
ATOM     25  C   UNL d   1      -1.946  -4.662  -0.608  0.00  0.00     0.042 A 
ATOM     26  C   UNL d   1      -1.733  -3.277  -0.619  0.00  0.00     0.033 A 
ENDBRANCH  12  18
BRANCH  13  27
ATOM     27  C   UNL d   1       2.218  -1.276  -0.100  0.00  0.00     0.010 A 
ATOM     28  C   UNL d   1       2.493  -2.404  -0.882  0.00  0.00     0.016 A 
ATOM     29  C   UNL d   1       3.762  -3.003  -0.876  0.00  0.00     0.009 A 
ATOM     30  C   UNL d   1       4.830  -2.463  -0.142  0.00  0.00    -0.051 A 
ATOM     31  C   UNL d   1       4.569  -1.285   0.577  0.00  0.00     0.009 A 
ATOM     32  C   UNL d   1       3.288  -0.707   0.601  0.00  0.00     0.016 A 
BRANCH  30  33
ATOM     33  C   UNL d   1       6.207  -3.157  -0.140  0.00  0.00    -0.024 C 
ATOM     34  C   UNL d   1       7.279  -2.395   0.672  0.00  0.00     0.019 C 
ATOM     35  C   UNL d   1       6.079  -4.567   0.478  0.00  0.00     0.019 C 
ATOM     36  C   UNL d   1       6.745  -3.298  -1.581  0.00  0.00     0.019 C 
ENDBRANCH  30  33
ENDBRANCH  13  27
ENDBRANCH  10  11
ENDBRANCH   9  10
ENDBRANCH   4   9
TORSDOF 6
