REMARK  4 active torsions:
REMARK  status: ('A' for Active; 'I' for Inactive)
REMARK    1  A    between atoms: C_2  and  C_1 
REMARK    2  A    between atoms: C_17  and  C_10 
REMARK    3  A    between atoms: N_13  and  N_16 
REMARK    4  A    between atoms: C_15  and  C_19 
ROOT
ATOM      1  C   UNL d   1      -1.543   2.250   0.001  0.00  0.00     0.077 A 
ATOM      2  N   UNL d   1      -2.485   2.481   0.978  0.00  0.00    -0.333 N 
ATOM      3  HN  UNL d   1      -2.700   1.836   1.739  1.00  0.00     0.168 HD
ATOM      4  C   UNL d   1      -3.071   3.644   0.798  0.00  0.00     0.163 A 
ATOM      5  S   UNL d   1      -2.535   4.501  -0.602  0.00  0.00    -0.062 SA
ATOM      6  C   UNL d   1      -1.402   3.253  -0.932  0.00  0.00     0.085 A 
ATOM      7  N   UNL d   1      -4.003   4.180   1.633  0.00  0.00    -0.280 N 
ATOM      8  H   UNL d   1      -4.353   5.103   1.392  0.00  0.00     0.189 HD
ENDROOT
BRANCH   1   9
ATOM      9  C   UNL d   1      -0.765   0.987  -0.009  0.00  0.00     0.128 A 
ATOM     10  C   UNL d   1      -0.944  -0.059   0.863  0.00  0.00     0.074 A 
ATOM     11  C   UNL d   1      -0.024  -1.055   0.448  0.00  0.00     0.068 A 
ATOM     12  N   UNL d   1       0.684  -0.616  -0.607  0.00  0.00    -0.260 N 
ATOM     13  O   UNL d   1       0.219   0.657  -0.887  0.00  0.00    -0.235 OA
ATOM     14  HN  UNL d   1       1.419  -1.121  -1.103  1.00  0.00     0.195 HD
BRANCH  11  15
ATOM     15  C   UNL d   1       0.165  -2.391   1.012  0.00  0.00    -0.007 A 
ATOM     16  C   UNL d   1       0.664  -3.434   0.218  0.00  0.00     0.014 A 
ATOM     17  C   UNL d   1       0.818  -4.720   0.743  0.00  0.00     0.001 A 
ATOM     18  C   UNL d   1       0.481  -4.976   2.070  0.00  0.00     0.000 A 
ATOM     19  C   UNL d   1      -0.009  -3.949   2.873  0.00  0.00     0.001 A 
ATOM     20  C   UNL d   1      -0.169  -2.663   2.348  0.00  0.00     0.014 A 
ENDBRANCH  11  15
ENDBRANCH   1   9
BRANCH   7  21
ATOM     21  N   UNL d   1      -4.046   3.775   2.931  0.00  0.00    -0.309 N 
ATOM     22  C   UNL d   1      -4.913   4.342   3.707  0.00  0.00     0.120 C 
ATOM     23  HN  UNL d   1      -3.418   3.052   3.281  1.00  0.00     0.186 HD
BRANCH  22  24
ATOM     24  C   UNL d   1      -4.941   3.999   5.147  0.00  0.00     0.002 A 
ATOM     25  C   UNL d   1      -5.894   4.527   6.024  0.00  0.00     0.045 A 
ATOM     26 CL   UNL d   1      -7.160   5.582   5.508  0.00  0.00    -0.083 Cl
ATOM     27  C   UNL d   1      -5.841   4.201   7.385  0.00  0.00     0.024 A 
ATOM     28  C   UNL d   1      -4.844   3.353   7.875  0.00  0.00     0.002 A 
ATOM     29  C   UNL d   1      -3.899   2.819   7.003  0.00  0.00     0.001 A 
ATOM     30  C   UNL d   1      -3.947   3.139   5.646  0.00  0.00     0.014 A 
ENDBRANCH  22  24
ENDBRANCH   7  21
TORSDOF 4
