REMARK  7 active torsions:
REMARK  status: ('A' for Active; 'I' for Inactive)
REMARK    1  A    between atoms: C_2  and  C_1 
REMARK    2  A    between atoms: C_15  and  N_3 
REMARK    3  A    between atoms: C_20  and  N_6 
REMARK    4  A    between atoms: S_14  and  C_7 
REMARK    5  A    between atoms: C_19  and  S_14 
REMARK    6  A    between atoms: C_16  and  C_19 
REMARK       I    between atoms: N_17  and  C_16 
REMARK    7  A    between atoms: C_21  and  N_17 
ROOT
ATOM      1  C   UNL d   1      -0.052  -1.366   0.236  0.00  0.00     0.158 C 
ATOM      2  N   UNL d   1       1.252  -0.929  -0.019  0.00  0.00    -0.274 N 
ATOM      3  N   UNL d   1      -0.848  -0.325   0.366  0.00  0.00    -0.281 N 
ATOM      4  HN  UNL d   1      -1.817  -0.343   0.683  1.00  0.00     0.188 HD
ATOM      5  C   UNL d   1       1.059   0.400  -0.374  0.00  0.00     0.168 C 
ATOM      6  N   UNL d   1      -0.143   0.783  -0.001  0.00  0.00    -0.278 N 
ATOM      7  HN  UNL d   1      -0.488   1.743   0.012  1.00  0.00     0.189 HD
ENDROOT
BRANCH   5   8
ATOM      8  S   UNL d   1       2.178   1.452  -1.177  0.00  0.00    -0.083 SA
BRANCH   8   9
ATOM      9  C   UNL d   1       1.367   3.071  -1.107  0.00  0.00     0.185 C 
BRANCH   9  10
ATOM     10  C   UNL d   1       0.293   3.269  -2.172  0.00  0.00     0.231 C 
ATOM     11  N   UNL d   1      -0.852   2.530  -1.940  0.00  0.00    -0.327 N 
ATOM     12  H   UNL d   1      -0.802   1.853  -1.181  0.00  0.00     0.169 HD
ATOM     13  O   UNL d   1       0.457   4.075  -3.083  0.00  0.00    -0.272 OA
BRANCH  11  14
ATOM     14  C   UNL d   1      -2.105   2.618  -2.565  0.00  0.00     0.034 A 
ATOM     15  C   UNL d   1      -2.427   3.541  -3.558  0.00  0.00     0.029 A 
ATOM     16  C   UNL d   1      -3.735   3.615  -4.047  0.00  0.00     0.002 A 
ATOM     17  C   UNL d   1      -4.723   2.762  -3.556  0.00  0.00     0.000 A 
ATOM     18  C   UNL d   1      -4.401   1.816  -2.588  0.00  0.00     0.002 A 
ATOM     19  C   UNL d   1      -3.098   1.743  -2.098  0.00  0.00     0.029 A 
ENDBRANCH  11  14
ENDBRANCH   9  10
ENDBRANCH   8   9
ENDBRANCH   5   8
BRANCH   2  20
ATOM     20  C   UNL d   1       2.457  -1.674   0.174  0.00  0.00     0.043 A 
ATOM     21  C   UNL d   1       3.619  -1.428  -0.563  0.00  0.00     0.030 A 
ATOM     22  C   UNL d   1       4.796  -2.128  -0.282  0.00  0.00     0.002 A 
ATOM     23  C   UNL d   1       4.827  -3.084   0.730  0.00  0.00     0.000 A 
ATOM     24  C   UNL d   1       3.674  -3.349   1.460  0.00  0.00     0.002 A 
ATOM     25  C   UNL d   1       2.496  -2.651   1.188  0.00  0.00     0.030 A 
ENDBRANCH   2  20
BRANCH   1  26
ATOM     26  C   UNL d   1      -0.532  -2.713   0.164  0.00  0.00     0.098 A 
ATOM     27  N   UNL d   1      -1.621  -3.224   0.830  0.00  0.00    -0.289 N 
ATOM     28  N   UNL d   1      -1.853  -4.526   0.546  0.00  0.00    -0.303 N 
ATOM     29  C   UNL d   1      -0.931  -4.837  -0.369  0.00  0.00     0.024 A 
ATOM     30  HN  UNL d   1      -2.571  -5.134   0.942  1.00  0.00     0.186 HD
ATOM     31  C   UNL d   1      -0.082  -3.746  -0.636  0.00  0.00     0.061 A 
ATOM     32  C   UNL d   1      -0.895  -6.188  -0.977  0.00  0.00     0.070 C 
BRANCH  27  33
ATOM     33  C   UNL d   1      -2.488  -2.575   1.797  0.00  0.00     0.145 C 
ATOM     34  C   UNL d   1      -3.770  -2.056   1.170  0.00  0.00     0.028 C 
ENDBRANCH  27  33
ENDBRANCH   1  26
TORSDOF 7
