REMARK  8 active torsions:
REMARK  status: ('A' for Active; 'I' for Inactive)
REMARK    1  A    between atoms: N_3  and  S_1 
REMARK    2  A    between atoms: C_11  and  S_1 
REMARK    3  A    between atoms: C_5  and  C_2 
REMARK    4  A    between atoms: C_7  and  N_3 
REMARK    5  A    between atoms: C_8  and  C_5 
REMARK    6  A    between atoms: C_6  and  O_13 
REMARK    7  A    between atoms: C_14  and  C_6 
REMARK    8  A    between atoms: O_13  and  C_25 
ROOT
ATOM      1  C   UNL d   1       1.492  -0.720  -1.897  0.00  0.00     0.111 C 
ATOM      2  C   UNL d   1       1.411  -0.623  -0.559  0.00  0.00     0.124 C 
ATOM      3  C   UNL d   1       2.300  -1.679  -2.557  0.00  0.00     0.105 C 
ATOM      4  N   UNL d   1       2.936  -2.456  -3.146  0.00  0.00    -0.191 NA
ENDROOT
BRANCH   1   5
ATOM      5  C   UNL d   1       0.737   0.317  -2.673  0.00  0.00     0.210 C 
ATOM      6  O   UNL d   1       0.418   1.355  -2.091  0.00  0.00    -0.285 OA
BRANCH   5   7
ATOM      7  C   UNL d   1       0.424   0.091  -4.083  0.00  0.00     0.056 A 
ATOM      8  S   UNL d   1       0.299   1.460  -5.116  0.00  0.00    -0.098 SA
ATOM      9  C   UNL d   1      -0.042   0.493  -6.480  0.00  0.00     0.050 A 
ATOM     10  C   UNL d   1      -0.092  -0.844  -6.162  0.00  0.00     0.009 A 
ATOM     11  C   UNL d   1       0.165  -1.077  -4.778  0.00  0.00     0.023 A 
ENDBRANCH   5   7
ENDBRANCH   1   5
BRANCH   2  12
ATOM     12  N   UNL d   1       2.169  -1.496   0.291  0.00  0.00    -0.322 N 
ATOM     13  HN  UNL d   1       2.775  -2.203  -0.126  1.00  0.00     0.175 HD
BRANCH  12  14
ATOM     14  S   UNL d   1       2.080  -1.381   1.834  0.00  0.00     0.052 S 
ATOM     15  O   UNL d   1       0.827  -1.359   2.565  0.00  0.00    -0.245 OA
ATOM     16  C   UNL d   1       2.991   0.066   2.329  0.00  0.00     0.142 C 
BRANCH  14  17
ATOM     17  C   UNL d   1       3.068  -2.719   2.497  0.00  0.00     0.038 A 
ATOM     18  C   UNL d   1       4.168  -3.187   1.767  0.00  0.00     0.024 A 
ATOM     19  C   UNL d   1       4.950  -4.238   2.263  0.00  0.00     0.039 A 
ATOM     20  C   UNL d   1       4.636  -4.801   3.497  0.00  0.00     0.079 A 
ATOM     21  C   UNL d   1       3.533  -4.338   4.228  0.00  0.00     0.039 A 
ATOM     22  C   UNL d   1       2.734  -3.304   3.721  0.00  0.00     0.024 A 
BRANCH  20  23
ATOM     23  O   UNL d   1       5.437  -5.786   4.138  0.00  0.00    -0.275 OA
BRANCH  23  24
ATOM     24  C   UNL d   1       6.291  -6.692   3.512  0.00  0.00     0.298 C 
ATOM     25  O   UNL d   1       6.419  -6.865   2.309  0.00  0.00    -0.259 OA
BRANCH  24  26
ATOM     26  C   UNL d   1       7.037  -7.492   4.540  0.00  0.00     0.040 A 
ATOM     27  C   UNL d   1       7.930  -8.493   4.114  0.00  0.00     0.019 A 
ATOM     28  C   UNL d   1       8.577  -9.318   5.045  0.00  0.00     0.025 A 
ATOM     29  C   UNL d   1       8.345  -9.140   6.407  0.00  0.00     0.034 A 
ATOM     30  C   UNL d   1       7.500  -8.124   6.846  0.00  0.00     0.025 A 
ATOM     31 CL   UNL d   1       9.085 -10.190   7.553  0.00  0.00    -0.084 Cl
ATOM     32  C   UNL d   1       6.850  -7.301   5.918  0.00  0.00     0.019 A 
ENDBRANCH  24  26
ENDBRANCH  23  24
ENDBRANCH  20  23
ENDBRANCH  14  17
ENDBRANCH  12  14
ENDBRANCH   2  12
TORSDOF 8
