REMARK  4 active torsions:
REMARK  status: ('A' for Active; 'I' for Inactive)
REMARK    1  A    between atoms: C_7  and  C_1 
REMARK    2  A    between atoms: S_15  and  C_10 
REMARK    3  A    between atoms: C_20  and  S_15 
REMARK    4  A    between atoms: C_22  and  C_20 
ROOT
ATOM      1  C   UNL d   1       2.128  -2.559   0.069  0.00  0.00     0.065 A 
ATOM      2  N   UNL d   1       2.811  -3.029   1.134  0.00  0.00    -0.335 N 
ATOM      3  HN  UNL d   1       2.912  -2.484   1.990  1.00  0.00     0.168 HD
ATOM      4  C   UNL d   1       3.350  -4.253   1.006  0.00  0.00     0.144 A 
ATOM      5  N   UNL d   1       3.234  -5.030  -0.083  0.00  0.00    -0.347 N 
ATOM      6  HN  UNL d   1       3.654  -5.958  -0.124  1.00  0.00     0.167 HD
ATOM      7  C   UNL d   1       1.968  -3.280  -1.096  0.00  0.00     0.049 A 
ATOM      8  C   UNL d   1       2.540  -4.527  -1.113  0.00  0.00     0.092 A 
ENDROOT
BRANCH   1   9
ATOM      9  C   UNL d   1       1.570  -1.215   0.214  0.00  0.00     0.089 A 
ATOM     10  N   UNL d   1       2.212  -0.147   0.835  0.00  0.00    -0.304 N 
ATOM     11  C   UNL d   1       1.353   0.948   0.742  0.00  0.00     0.112 A 
ATOM     12  C   UNL d   1       3.472  -0.054   1.438  0.00  0.00     0.099 A 
ATOM     13  C   UNL d   1       1.782   2.179   1.315  0.00  0.00     0.049 A 
ATOM     14  N   UNL d   1       0.245   0.647   0.107  0.00  0.00    -0.344 N 
ATOM     15  C   UNL d   1       2.986   2.260   1.908  0.00  0.00     0.005 A 
ATOM     16  C   UNL d   1       3.873   1.111   1.974  0.00  0.00     0.018 A 
ATOM     17  C   UNL d   1       0.356  -0.682  -0.219  0.00  0.00     0.036 A 
ATOM     18  HN  UNL d   1      -0.536   1.269  -0.100  1.00  0.00     0.167 HD
ATOM     19  C   UNL d   1      -0.774  -1.335  -0.926  0.00  0.00     0.070 C 
ENDBRANCH   1   9
BRANCH   4  20
ATOM     20  S   UNL d   1       4.429  -4.870   2.266  0.00  0.00    -0.089 SA
BRANCH  20  21
ATOM     21  C   UNL d   1       3.700  -4.114   3.751  0.00  0.00     0.121 C 
BRANCH  21  22
ATOM     22  C   UNL d   1       4.449  -4.580   4.980  0.00  0.00    -0.049 A 
ATOM     23  C   UNL d   1       5.578  -3.884   5.436  0.00  0.00     0.008 A 
ATOM     24  C   UNL d   1       6.331  -4.369   6.508  0.00  0.00     0.007 A 
ATOM     25  C   UNL d   1       5.973  -5.562   7.146  0.00  0.00    -0.062 A 
ATOM     26  C   UNL d   1       4.838  -6.250   6.707  0.00  0.00     0.007 A 
ATOM     27  C   UNL d   1       6.824  -6.103   8.257  0.00  0.00     0.048 C 
ATOM     28  C   UNL d   1       4.083  -5.766   5.635  0.00  0.00     0.008 A 
ENDBRANCH  21  22
ENDBRANCH  20  21
ENDBRANCH   4  20
TORSDOF 4
