REMARK  3 active torsions:
REMARK  status: ('A' for Active; 'I' for Inactive)
REMARK    1  A    between atoms: C_4  and  C_2 
REMARK    2  A    between atoms: C_8  and  C_3 
REMARK       I    between atoms: N_7  and  C_4 
REMARK    3  A    between atoms: C_12  and  N_7 
ROOT
ATOM      1  S   UNL d   1      -0.877   0.022  -0.321  0.00  0.00    -0.083 SA
ATOM      2  C   UNL d   1       0.293   1.257  -0.132  0.00  0.00     0.073 A 
ATOM      3  C   UNL d   1       0.271  -1.229  -0.044  0.00  0.00     0.032 A 
ATOM      4  C   UNL d   1       1.542   0.720   0.119  0.00  0.00     0.026 A 
ATOM      5  C   UNL d   1       1.531  -0.699   0.166  0.00  0.00     0.023 A 
ENDROOT
BRANCH   2   6
ATOM      6  C   UNL d   1      -0.005   2.685  -0.230  0.00  0.00     0.263 C 
ATOM      7  N   UNL d   1      -1.323   3.011  -0.513  0.00  0.00    -0.323 N 
ATOM      8  H   UNL d   1      -1.959   2.227  -0.594  0.00  0.00     0.169 HD
ATOM      9  O   UNL d   1       0.885   3.515  -0.056  0.00  0.00    -0.267 OA
BRANCH   7  10
ATOM     10  C   UNL d   1      -1.866   4.303  -0.696  0.00  0.00     0.035 A 
ATOM     11  C   UNL d   1      -1.109   5.480  -0.675  0.00  0.00     0.031 A 
ATOM     12  C   UNL d   1      -1.714   6.727  -0.873  0.00  0.00     0.026 A 
ATOM     13  C   UNL d   1      -3.084   6.806  -1.091  0.00  0.00     0.034 A 
ATOM     14  C   UNL d   1      -3.854   5.646  -1.114  0.00  0.00     0.026 A 
ATOM     15 CL   UNL d   1      -3.826   8.338  -1.336  0.00  0.00    -0.084 Cl
ATOM     16  C   UNL d   1      -3.246   4.399  -0.919  0.00  0.00     0.031 A 
ENDBRANCH   7  10
ENDBRANCH   2   6
BRANCH   3  17
ATOM     17  C   UNL d   1      -0.126  -2.642  -0.029  0.00  0.00     0.049 A 
ATOM     18  N   UNL d   1      -1.041  -3.021  -0.953  0.00  0.00    -0.365 N 
ATOM     19  C   UNL d   1      -1.371  -4.332  -0.990  0.00  0.00     0.088 A 
ATOM     20  HN  UNL d   1      -1.461  -2.347  -1.593  1.00  0.00     0.165 HD
ATOM     21  C   UNL d   1      -0.839  -5.290  -0.143  0.00  0.00     0.017 A 
ATOM     22  C   UNL d   1       0.092  -4.883   0.804  0.00  0.00     0.004 A 
ATOM     23  C   UNL d   1       0.459  -3.541   0.862  0.00  0.00     0.031 A 
ENDBRANCH   3  17
TORSDOF 3
