REMARK  2 active torsions:
REMARK  status: ('A' for Active; 'I' for Inactive)
REMARK    1  A    between atoms: S_3  and  C_1 
REMARK    2  A    between atoms: C_12  and  C_7 
ROOT
ATOM      1  C   UNL d   1       0.301   1.156   0.042  0.00  0.00     0.166 A 
ATOM      2  C   UNL d   1      -0.412  -0.024   0.021  0.00  0.00     0.113 A 
ATOM      3  N   UNL d   1       1.610   0.773   0.046  0.00  0.00    -0.288 N 
ATOM      4  N   UNL d   1       1.789  -0.558   0.074  0.00  0.00    -0.297 N 
ATOM      5  HN  UNL d   1       2.671  -1.066   0.132  1.00  0.00     0.187 HD
ATOM      6  C   UNL d   1       0.548  -1.073   0.007  0.00  0.00     0.082 A 
ATOM      7  C   UNL d   1      -1.831  -0.109   0.030  0.00  0.00     0.105 C 
ATOM      8  N   UNL d   1      -2.991  -0.151   0.070  0.00  0.00    -0.191 NA
ATOM      9  H   UNL d   1       2.425   1.384   0.038  0.00  0.00     0.188 HD
ENDROOT
BRANCH   1  10
ATOM     10  S   UNL d   1      -0.121   2.853   0.006  0.00  0.00     0.190 S 
ATOM     11  O   UNL d   1       1.152   3.525   0.158  0.00  0.00    -0.221 OA
ATOM     12  O   UNL d   1      -0.939   2.989  -1.177  0.00  0.00    -0.221 OA
ATOM     13  C   UNL d   1      -1.106   3.113   1.457  0.00  0.00     0.168 C 
ENDBRANCH   1  10
BRANCH   6  14
ATOM     14  C   UNL d   1       0.329  -2.523  -0.045  0.00  0.00    -0.006 A 
ATOM     15  C   UNL d   1      -0.762  -3.070  -0.737  0.00  0.00     0.014 A 
ATOM     16  C   UNL d   1      -0.981  -4.450  -0.750  0.00  0.00     0.001 A 
ATOM     17  C   UNL d   1      -0.102  -5.303  -0.089  0.00  0.00     0.000 A 
ATOM     18  C   UNL d   1       1.002  -4.779   0.578  0.00  0.00     0.001 A 
ATOM     19  C   UNL d   1       1.218  -3.397   0.599  0.00  0.00     0.014 A 
ENDBRANCH   6  14
TORSDOF 2
