REMARK  4 active torsions:
REMARK  status: ('A' for Active; 'I' for Inactive)
REMARK    1  A    between atoms: C_3  and  N_1 
REMARK    2  A    between atoms: C_4  and  C_2 
REMARK       I    between atoms: N_6  and  C_4 
REMARK       I    between atoms: C_5  and  N_7 
REMARK    3  A    between atoms: C_10  and  C_5 
REMARK    4  A    between atoms: N_7  and  N_6 
ROOT
ATOM      1  C   UNL d   1       1.798  -0.917  -2.671  0.00  0.00     0.272 C 
ATOM      2  N   UNL d   1       2.534  -0.912  -3.833  0.00  0.00    -0.263 N 
ATOM      3  O   UNL d   1       0.578  -0.779  -2.649  0.00  0.00    -0.266 OA
ATOM      4  H   UNL d   1       3.551  -0.904  -3.886  0.00  0.00     0.190 HD
ENDROOT
BRANCH   2   5
ATOM      5  N   UNL d   1       1.851  -0.720  -5.043  0.00  0.00    -0.263 N 
ATOM      6  C   UNL d   1       2.593  -0.419  -6.167  0.00  0.00     0.270 C 
ATOM      7  O   UNL d   1       3.818  -0.311  -6.126  0.00  0.00    -0.266 OA
ATOM      8  H   UNL d   1       0.838  -0.643  -4.976  0.00  0.00     0.190 HD
BRANCH   6   9
ATOM      9  C   UNL d   1       1.860  -0.249  -7.458  0.00  0.00     0.033 A 
ATOM     10  C   UNL d   1       0.544  -0.695  -7.653  0.00  0.00     0.019 A 
ATOM     11  C   UNL d   1      -0.055  -0.589  -8.915  0.00  0.00     0.025 A 
ATOM     12  C   UNL d   1       0.655  -0.041  -9.983  0.00  0.00     0.034 A 
ATOM     13  C   UNL d   1       1.956   0.418  -9.799  0.00  0.00     0.025 A 
ATOM     14 CL   UNL d   1      -0.071   0.045 -11.539  0.00  0.00    -0.084 Cl
ATOM     15  C   UNL d   1       2.556   0.314  -8.540  0.00  0.00     0.019 A 
ENDBRANCH   6   9
ENDBRANCH   2   5
BRANCH   1  16
ATOM     16  C   UNL d   1       2.534  -1.159  -1.406  0.00  0.00     0.066 A 
ATOM     17  C   UNL d   1       2.141  -0.553  -0.209  0.00  0.00     0.118 A 
ATOM     18  C   UNL d   1       2.724  -0.900   1.018  0.00  0.00     0.037 A 
ATOM     19  C   UNL d   1       3.728  -1.866   1.045  0.00  0.00     0.002 A 
ATOM     20  C   UNL d   1       4.150  -2.466  -0.143  0.00  0.00     0.001 A 
ATOM     21  C   UNL d   1       3.556  -2.121  -1.364  0.00  0.00     0.020 A 
BRANCH  17  22
ATOM     22  N   UNL d   1       1.171   0.525  -0.208  0.00  0.00    -0.115 N 
ATOM     23  O   UNL d   1       1.457   1.532  -0.871  0.00  0.00    -0.532 OA
ATOM     24  O   UNL d   1       0.189   0.399   0.535  0.00  0.00    -0.532 OA
ENDBRANCH  17  22
ENDBRANCH   1  16
TORSDOF 4
