REMARK  4 active torsions:
REMARK  status: ('A' for Active; 'I' for Inactive)
REMARK    1  A    between atoms: C_11  and  C_3 
REMARK    2  A    between atoms: S_18  and  C_14 
REMARK    3  A    between atoms: C_22  and  S_18 
REMARK    4  A    between atoms: C_25  and  C_22 
ROOT
ATOM      1  C   UNL d   1       3.473  -1.422   0.037  0.00  0.00     0.049 A 
ATOM      2  N   UNL d   1       4.279  -1.349   1.119  0.00  0.00    -0.336 N 
ATOM      3  HN  UNL d   1       3.979  -0.904   1.986  1.00  0.00     0.168 HD
ATOM      4  C   UNL d   1       5.497  -1.896   0.986  0.00  0.00     0.144 A 
ATOM      5  N   UNL d   1       5.939  -2.512  -0.123  0.00  0.00    -0.347 N 
ATOM      6  HN  UNL d   1       6.875  -2.915  -0.171  1.00  0.00     0.167 HD
ATOM      7  C   UNL d   1       3.834  -2.039  -1.143  0.00  0.00     0.047 A 
ATOM      8  C   UNL d   1       5.096  -2.574  -1.166  0.00  0.00     0.092 A 
ENDROOT
BRANCH   1   9
ATOM      9  C   UNL d   1       2.160  -0.789   0.167  0.00  0.00     0.030 A 
ATOM     10  C   UNL d   1       1.848   0.460  -0.249  0.00  0.00     0.046 A 
ATOM     11  N   UNL d   1       0.541   0.933  -0.032  0.00  0.00    -0.243 N 
ATOM     12  C   UNL d   1       2.801   1.409  -0.922  0.00  0.00     0.071 C 
ATOM     13  C   UNL d   1      -0.429   0.136   0.585  0.00  0.00     0.129 A 
ATOM     14  N   UNL d   1       0.033   2.157  -0.357  0.00  0.00    -0.297 N 
ATOM     15  N   UNL d   1      -0.174  -1.141   0.993  0.00  0.00    -0.350 N 
ATOM     16  C   UNL d   1      -1.567   0.902   0.665  0.00  0.00     0.076 A 
ATOM     17  C   UNL d   1       1.041  -1.556   0.800  0.00  0.00     0.105 A 
ATOM     18  HN  UNL d   1      -0.889  -1.730   1.421  1.00  0.00     0.166 HD
ATOM     19  C   UNL d   1      -1.229   2.137   0.080  0.00  0.00     0.026 A 
ATOM     20  C   UNL d   1      -2.103   3.326  -0.076  0.00  0.00     0.070 C 
ATOM     21  HN  UNL d   1       0.514   2.922  -0.830  1.00  0.00     0.187 HD
ENDBRANCH   1   9
BRANCH   4  22
ATOM     22  S   UNL d   1       6.687  -1.726   2.285  0.00  0.00    -0.089 SA
BRANCH  22  23
ATOM     23  C   UNL d   1       5.617  -1.765   3.759  0.00  0.00     0.121 C 
BRANCH  23  24
ATOM     24  C   UNL d   1       6.481  -1.729   5.003  0.00  0.00    -0.047 A 
ATOM     25  C   UNL d   1       6.866  -0.500   5.564  0.00  0.00     0.031 A 
ATOM     26  C   UNL d   1       7.763  -0.465   6.632  0.00  0.00     0.034 A 
ATOM     27 CL   UNL d   1       8.251   1.051   7.287  0.00  0.00    -0.084 Cl
ATOM     28  C   UNL d   1       8.285  -1.644   7.159  0.00  0.00     0.024 A 
ATOM     29  C   UNL d   1       7.894  -2.870   6.624  0.00  0.00     0.002 A 
ATOM     30  C   UNL d   1       6.997  -2.914   5.553  0.00  0.00     0.008 A 
ENDBRANCH  23  24
ENDBRANCH  22  23
ENDBRANCH   4  22
TORSDOF 4
