REMARK  5 active torsions:
REMARK  status: ('A' for Active; 'I' for Inactive)
REMARK    1  A    between atoms: C_2  and  S_1 
REMARK    2  A    between atoms: N_10  and  S_1 
REMARK    3  A    between atoms: C_12  and  N_10 
REMARK    4  A    between atoms: C_11  and  C_12 
REMARK       I    between atoms: N_19  and  C_11 
REMARK    5  A    between atoms: N_20  and  N_19 
ROOT
ATOM      1  S   UNL d   1       0.880   0.001  -0.007  0.00  0.00     0.261 S 
ATOM      2  O   UNL d   1       0.206   1.246  -0.297  0.00  0.00    -0.200 OA
ATOM      3  O   UNL d   1       2.317  -0.051   0.159  0.00  0.00    -0.200 OA
ENDROOT
BRANCH   1   4
ATOM      4  C   UNL d   1       0.443  -1.153  -1.251  0.00  0.00     0.108 A 
ATOM      5  C   UNL d   1      -0.904  -1.458  -1.552  0.00  0.00     0.090 A 
ATOM      6  N   UNL d   1      -2.013  -0.955  -0.984  0.00  0.00    -0.309 N 
ATOM      7  C   UNL d   1      -1.221  -2.472  -2.626  0.00  0.00     0.068 A 
ATOM      8  S   UNL d   1      -3.310  -1.654  -1.742  0.00  0.00     0.068 SA
ATOM      9  HN  UNL d   1      -2.050  -0.272  -0.228  1.00  0.00     0.176 HD
ATOM     10  N   UNL d   1      -2.535  -2.663  -2.809  0.00  0.00    -0.310 N 
ATOM     11  HN  UNL d   1      -2.973  -3.301  -3.473  1.00  0.00     0.176 HD
ATOM     12  C   UNL d   1      -0.188  -3.130  -3.338  0.00  0.00     0.032 A 
ATOM     13  C   UNL d   1       1.129  -2.779  -2.997  0.00  0.00     0.004 A 
ATOM     14  C   UNL d   1       1.436  -1.827  -1.996  0.00  0.00     0.028 A 
ENDBRANCH   1   4
BRANCH   1  15
ATOM     15  N   UNL d   1       0.201  -0.652   1.363  0.00  0.00    -0.306 N 
ATOM     16  H   UNL d   1      -0.554  -0.121   1.805  0.00  0.00     0.172 HD
BRANCH  15  17
ATOM     17  C   UNL d   1       0.983  -1.572   2.182  0.00  0.00     0.236 C 
BRANCH  17  18
ATOM     18  C   UNL d   1       0.237  -1.951   3.453  0.00  0.00     0.250 C 
ATOM     19  O   UNL d   1      -0.835  -1.451   3.791  0.00  0.00    -0.270 OA
ATOM     20  N   UNL d   1       0.915  -2.896   4.221  0.00  0.00    -0.293 N 
ATOM     21  H   UNL d   1       1.726  -3.383   3.844  0.00  0.00     0.183 HD
BRANCH  20  22
ATOM     22  N   UNL d   1       0.315  -3.401   5.394  0.00  0.00    -0.247 NA
ATOM     23  H   UNL d   1      -0.629  -2.992   5.455  0.00  0.00     0.143 HD
ATOM     24  H   UNL d   1       0.808  -3.011   6.202  0.00  0.00     0.143 HD
ENDBRANCH  20  22
ENDBRANCH  17  18
ENDBRANCH  15  17
ENDBRANCH   1  15
TORSDOF 5
