REMARK  4 active torsions:
REMARK  status: ('A' for Active; 'I' for Inactive)
REMARK    1  A    between atoms: S_9  and  C_1 
REMARK    2  A    between atoms: C_15  and  C_7 
REMARK    3  A    between atoms: S_16  and  C_8 
REMARK    4  A    between atoms: C_12  and  S_9 
ROOT
ATOM      1  C   UNL d   1       0.037   1.126  -0.075  0.00  0.00     0.101 A 
ATOM      2  N   UNL d   1       1.384   1.200   0.071  0.00  0.00    -0.335 N 
ATOM      3  HN  UNL d   1       1.859   2.097   0.168  1.00  0.00     0.168 HD
ATOM      4  N   UNL d   1       1.484  -1.159   0.006  0.00  0.00    -0.335 N 
ATOM      5  HN  UNL d   1       2.036  -2.014   0.075  1.00  0.00     0.168 HD
ATOM      6  C   UNL d   1      -0.631  -0.073  -0.264  0.00  0.00     0.112 A 
ATOM      7  C   UNL d   1       2.065   0.046   0.083  0.00  0.00     0.117 A 
ATOM      8  C   UNL d   1       0.149  -1.210  -0.166  0.00  0.00     0.094 A 
ATOM      9  C   UNL d   1      -2.015  -0.128  -0.617  0.00  0.00     0.105 C 
ATOM     10  N   UNL d   1      -3.120  -0.164  -0.963  0.00  0.00    -0.191 NA
ENDROOT
BRANCH   1  11
ATOM     11  S   UNL d   1      -0.770   2.723  -0.110  0.00  0.00    -0.053 SA
BRANCH  11  12
ATOM     12  C   UNL d   1      -1.755   2.710   1.383  0.00  0.00     0.075 A 
ATOM     13  N   UNL d   1      -1.872   1.555   2.079  0.00  0.00    -0.360 N 
ATOM     14  C   UNL d   1      -2.647   1.577   3.188  0.00  0.00     0.089 A 
ATOM     15  HN  UNL d   1      -1.395   0.704   1.781  1.00  0.00     0.166 HD
ATOM     16  C   UNL d   1      -3.309   2.702   3.651  0.00  0.00     0.017 A 
ATOM     17  C   UNL d   1      -3.177   3.879   2.927  0.00  0.00     0.004 A 
ATOM     18  C   UNL d   1      -2.393   3.885   1.774  0.00  0.00     0.037 A 
ENDBRANCH  11  12
ENDBRANCH   1  11
BRANCH   8  19
ATOM     19  S   UNL d   1      -0.538  -2.864  -0.299  0.00  0.00    -0.115 SA
ATOM     20  C   UNL d   1       0.930  -3.884   0.030  0.00  0.00     0.097 C 
ENDBRANCH   8  19
BRANCH   7  21
ATOM     21  C   UNL d   1       3.541   0.075   0.124  0.00  0.00     0.008 A 
ATOM     22  C   UNL d   1       4.262   1.280   0.184  0.00  0.00     0.015 A 
ATOM     23  C   UNL d   1       5.662   1.292   0.221  0.00  0.00     0.001 A 
ATOM     24  C   UNL d   1       6.374   0.094   0.193  0.00  0.00     0.000 A 
ATOM     25  C   UNL d   1       5.690  -1.113   0.118  0.00  0.00     0.001 A 
ATOM     26  C   UNL d   1       4.293  -1.119   0.082  0.00  0.00     0.015 A 
ENDBRANCH   7  21
TORSDOF 4
