REMARK  7 active torsions:
REMARK  status: ('A' for Active; 'I' for Inactive)
REMARK    1  A    between atoms: N_12  and  C_3 
REMARK    2  A    between atoms: C_6  and  C_4 
REMARK    3  A    between atoms: C_9  and  C_5 
REMARK    4  A    between atoms: O_23  and  C_9 
REMARK       I    between atoms: C_10  and  N_13 
REMARK    5  A    between atoms: C_14  and  C_10 
REMARK    6  A    between atoms: N_13  and  N_12 
REMARK    7  A    between atoms: C_27  and  O_23 
ROOT
ATOM      1  N   UNL d   1       1.235   0.350  -0.087  0.00  0.00    -0.327 N 
ATOM      2  HN  UNL d   1       2.157   0.784  -0.134  1.00  0.00     0.168 HD
ATOM      3  C   UNL d   1       1.113  -1.001  -0.143  0.00  0.00     0.117 A 
ATOM      4  C   UNL d   1       0.123   1.120   0.032  0.00  0.00     0.191 A 
ATOM      5  C   UNL d   1      -0.136  -1.608  -0.068  0.00  0.00     0.094 A 
ATOM      6  N   UNL d   1      -1.119   0.597   0.106  0.00  0.00    -0.347 N 
ATOM      7  HN  UNL d   1      -1.944   1.189   0.198  1.00  0.00     0.166 HD
ATOM      8  C   UNL d   1      -1.212  -0.746   0.053  0.00  0.00     0.110 A 
ENDROOT
BRANCH   3   9
ATOM      9  N   UNL d   1       2.339  -1.644  -0.378  0.00  0.00    -0.186 NA
ATOM     10  H   UNL d   1       3.108  -0.984  -0.213  0.00  0.00     0.154 HD
BRANCH   9  11
ATOM     11  N   UNL d   1       2.540  -2.888   0.237  0.00  0.00    -0.281 N 
ATOM     12  C   UNL d   1       3.835  -3.180   0.646  0.00  0.00     0.266 C 
ATOM     13  O   UNL d   1       4.736  -2.352   0.704  0.00  0.00    -0.266 OA
ATOM     14  H   UNL d   1       2.002  -3.645  -0.197  0.00  0.00     0.184 HD
BRANCH  12  15
ATOM     15  C   UNL d   1       4.078  -4.613   0.987  0.00  0.00     0.033 A 
ATOM     16  C   UNL d   1       5.364  -5.148   0.834  0.00  0.00     0.018 A 
ATOM     17  C   UNL d   1       5.599  -6.498   1.121  0.00  0.00     0.025 A 
ATOM     18  C   UNL d   1       4.554  -7.306   1.571  0.00  0.00     0.034 A 
ATOM     19  C   UNL d   1       3.278  -6.774   1.749  0.00  0.00     0.025 A 
ATOM     20 CL   UNL d   1       4.837  -8.968   1.909  0.00  0.00    -0.084 Cl
ATOM     21  C   UNL d   1       3.041  -5.428   1.462  0.00  0.00     0.018 A 
ENDBRANCH  12  15
ENDBRANCH   9  11
ENDBRANCH   3   9
BRANCH   5  22
ATOM     22  C   UNL d   1      -0.400  -3.063  -0.156  0.00  0.00     0.298 C 
ATOM     23  O   UNL d   1       0.329  -3.888  -0.677  0.00  0.00    -0.259 OA
BRANCH  22  24
ATOM     24  O   UNL d   1      -1.574  -3.343   0.473  0.00  0.00    -0.318 OA
BRANCH  24  25
ATOM     25  C   UNL d   1      -2.021  -4.708   0.426  0.00  0.00     0.174 C 
ATOM     26  C   UNL d   1      -1.359  -5.528   1.517  0.00  0.00     0.034 C 
ENDBRANCH  24  25
ENDBRANCH  22  24
ENDBRANCH   5  22
BRANCH   4  27
ATOM     27  C   UNL d   1       0.266   2.648   0.045  0.00  0.00     0.449 C 
ATOM     28  F   UNL d   1       1.557   3.088  -0.032  0.00  0.00    -0.163 F 
ATOM     29  F   UNL d   1      -0.384   3.248  -0.999  0.00  0.00    -0.163 F 
ATOM     30  F   UNL d   1      -0.248   3.222   1.175  0.00  0.00    -0.163 F 
ENDBRANCH   4  27
TORSDOF 7
