REMARK  7 active torsions:
REMARK  status: ('A' for Active; 'I' for Inactive)
REMARK    1  A    between atoms: N_2  and  C_1 
REMARK    2  A    between atoms: N_5  and  C_3 
REMARK    3  A    between atoms: C_18  and  N_5 
REMARK    4  A    between atoms: N_11  and  C_9 
REMARK    5  A    between atoms: C_21  and  N_11 
REMARK    6  A    between atoms: C_19  and  C_18 
REMARK    7  A    between atoms: C_20  and  C_21 
ROOT
ATOM      1  C   UNL d   1       1.649   1.170   0.093  0.00  0.00     0.130 A 
ATOM      2  C   UNL d   1       0.255   1.326  -0.027  0.00  0.00     0.085 A 
ATOM      3  C   UNL d   1      -0.514   0.108  -0.027  0.00  0.00     0.099 A 
ATOM      4  C   UNL d   1      -1.942   0.254  -0.034  0.00  0.00     0.104 C 
ATOM      5  N   UNL d   1      -3.092   0.431  -0.051  0.00  0.00    -0.191 NA
ATOM      6  C   UNL d   1       2.262  -0.088   0.160  0.00  0.00     0.041 A 
ATOM      7  C   UNL d   1       0.085  -1.186  -0.002  0.00  0.00     0.051 A 
ATOM      8  C   UNL d   1       1.484  -1.240   0.116  0.00  0.00     0.033 A 
ENDROOT
BRANCH   2   9
ATOM      9  N   UNL d   1      -0.412   2.539  -0.211  0.00  0.00    -0.382 N 
ATOM     10  H   UNL d   1      -1.416   2.576  -0.033  0.00  0.00     0.160 HD
BRANCH   9  11
ATOM     11  C   UNL d   1       0.098   3.736  -0.868  0.00  0.00     0.160 C 
BRANCH  11  12
ATOM     12  C   UNL d   1      -0.841   4.174  -1.960  0.00  0.00    -0.025 A 
ATOM     13  C   UNL d   1      -1.394   5.451  -1.963  0.00  0.00     0.096 A 
ATOM     14  N   UNL d   1      -2.192   5.932  -2.944  0.00  0.00    -0.375 N 
ATOM     15  C   UNL d   1      -2.453   5.104  -3.978  0.00  0.00     0.087 A 
ATOM     16  HN  UNL d   1      -2.578   6.875  -2.904  1.00  0.00     0.164 HD
ATOM     17  C   UNL d   1      -1.957   3.815  -4.073  0.00  0.00     0.018 A 
ATOM     18  C   UNL d   1      -1.139   3.346  -3.049  0.00  0.00     0.011 A 
ENDBRANCH  11  12
ENDBRANCH   9  11
ENDBRANCH   2   9
BRANCH   7  19
ATOM     19  N   UNL d   1      -0.570  -2.431   0.051  0.00  0.00    -0.384 N 
ATOM     20  H   UNL d   1       0.059  -3.200  -0.177  0.00  0.00     0.160 HD
BRANCH  19  21
ATOM     21  C   UNL d   1      -1.883  -2.654  -0.558  0.00  0.00     0.160 C 
BRANCH  21  22
ATOM     22  C   UNL d   1      -2.284  -4.107  -0.511  0.00  0.00    -0.025 A 
ATOM     23  C   UNL d   1      -3.030  -4.653  -1.553  0.00  0.00     0.096 A 
ATOM     24  N   UNL d   1      -3.535  -5.908  -1.555  0.00  0.00    -0.375 N 
ATOM     25  C   UNL d   1      -3.306  -6.655  -0.455  0.00  0.00     0.087 A 
ATOM     26  HN  UNL d   1      -4.062  -6.271  -2.349  1.00  0.00     0.164 HD
ATOM     27  C   UNL d   1      -2.584  -6.210   0.639  0.00  0.00     0.018 A 
ATOM     28  C   UNL d   1      -2.071  -4.916   0.610  0.00  0.00     0.011 A 
ENDBRANCH  21  22
ENDBRANCH  19  21
ENDBRANCH   7  19
BRANCH   1  29
ATOM     29  N   UNL d   1       2.544   2.303   0.279  0.00  0.00    -0.113 N 
ATOM     30  O   UNL d   1       2.278   3.110   1.180  0.00  0.00    -0.532 OA
ATOM     31  O   UNL d   1       3.532   2.364  -0.467  0.00  0.00    -0.532 OA
ENDBRANCH   1  29
TORSDOF 7
