REMARK  7 active torsions:
REMARK  status: ('A' for Active; 'I' for Inactive)
REMARK    1  A    between atoms: C_3  and  C_1 
REMARK    2  A    between atoms: N_8  and  C_2 
REMARK       I    between atoms: C_13  and  N_8 
REMARK    3  A    between atoms: C_19  and  C_13 
REMARK    4  A    between atoms: C_14  and  C_20 
REMARK    5  A    between atoms: O_18  and  C_14 
REMARK    6  A    between atoms: S_17  and  C_19 
REMARK    7  A    between atoms: C_20  and  S_17 
ROOT
ATOM      1  C   UNL d   1      -3.903  -2.315   0.899  0.00  0.00     0.090 A 
ATOM      2  C   UNL d   1      -3.386  -1.403  -0.016  0.00  0.00     0.038 A 
ATOM      3  S   UNL d   1      -5.498  -2.757   0.510  0.00  0.00    -0.083 SA
ATOM      4  C   UNL d   1      -4.321  -1.124  -1.092  0.00  0.00    -0.040 A 
ATOM      5  C   UNL d   1      -5.514  -1.791  -0.882  0.00  0.00     0.059 A 
ATOM      6  C   UNL d   1      -4.108  -0.306  -2.328  0.00  0.00     0.049 C 
ENDROOT
BRANCH   1   7
ATOM      7  N   UNL d   1      -3.289  -2.823   2.041  0.00  0.00    -0.320 N 
ATOM      8  C   UNL d   1      -3.868  -3.647   2.993  0.00  0.00     0.231 C 
ATOM      9  O   UNL d   1      -5.014  -4.098   3.010  0.00  0.00    -0.272 OA
ATOM     10  H   UNL d   1      -2.329  -2.509   2.179  0.00  0.00     0.169 HD
BRANCH   8  11
ATOM     11  C   UNL d   1      -2.968  -3.943   4.182  0.00  0.00     0.177 C 
BRANCH  11  12
ATOM     12  S   UNL d   1      -3.294  -2.770   5.543  0.00  0.00    -0.149 SA
BRANCH  12  13
ATOM     13  C   UNL d   1      -5.089  -2.993   5.812  0.00  0.00     0.184 C 
BRANCH  13  14
ATOM     14  C   UNL d   1      -5.454  -4.399   6.233  0.00  0.00     0.149 C 
ATOM     15  O   UNL d   1      -5.406  -4.801   7.388  0.00  0.00    -0.649 OA
BRANCH  14  16
ATOM     16  O   UNL d   1      -5.837  -5.206   5.215  0.00  0.00    -0.776 OA
ATOM     17  H   UNL d   1      -5.796  -4.790   4.317  0.00  0.00     0.167 HD
ENDBRANCH  14  16
ENDBRANCH  13  14
ENDBRANCH  12  13
ENDBRANCH  11  12
ENDBRANCH   8  11
ENDBRANCH   1   7
BRANCH   2  18
ATOM     18  C   UNL d   1      -1.993  -0.820   0.128  0.00  0.00     0.089 C 
ATOM     19  N   UNL d   1      -1.014  -1.491   0.704  0.00  0.00    -0.349 N 
ATOM     20  C   UNL d   1       0.188  -0.810   0.518  0.00  0.00     0.050 A 
ATOM     21  HN  UNL d   1      -1.120  -2.373   1.206  1.00  0.00     0.166 HD
ATOM     22  C   UNL d   1       1.479  -1.289   0.827  0.00  0.00     0.031 A 
ATOM     23  C   UNL d   1       0.074   0.463  -0.042  0.00  0.00     0.033 A 
ATOM     24  C   UNL d   1       2.601  -0.487   0.578  0.00  0.00     0.002 A 
ATOM     25  C   UNL d   1       2.454   0.791   0.046  0.00  0.00     0.002 A 
ATOM     26  C   UNL d   1       1.189   1.288  -0.270  0.00  0.00     0.021 A 
ATOM     27  S   UNL d   1      -1.577   0.768  -0.385  0.00  0.00    -0.069 SA
ENDBRANCH   2  18
TORSDOF 7
