REMARK  6 active torsions:
REMARK  status: ('A' for Active; 'I' for Inactive)
REMARK       I    between atoms: N_2  and  C_1 
REMARK    1  A    between atoms: C_6  and  C_1 
REMARK    2  A    between atoms: C_12  and  N_2 
REMARK    3  A    between atoms: N_3  and  O_8 
REMARK    4  A    between atoms: C_7  and  C_5 
REMARK    5  A    between atoms: O_8  and  C_6 
REMARK    6  A    between atoms: O_22  and  C_14 
ROOT
ATOM      1  C   UNL d   1      -0.369  -1.408  -3.367  0.00  0.00     0.304 C 
ENDROOT
BRANCH   1   2
ATOM      2  C   UNL d   1      -0.024  -2.043  -4.712  0.00  0.00     0.248 C 
ATOM      3  N   UNL d   1       1.137  -2.809  -4.669  0.00  0.00    -0.325 N 
ATOM      4  H   UNL d   1       1.539  -2.991  -3.757  0.00  0.00     0.169 HD
ATOM      5  O   UNL d   1      -0.730  -1.876  -5.705  0.00  0.00    -0.271 OA
BRANCH   3   6
ATOM      6  C   UNL d   1       1.721  -3.502  -5.752  0.00  0.00     0.035 A 
ATOM      7  C   UNL d   1       1.377  -3.277  -7.084  0.00  0.00     0.032 A 
ATOM      8  C   UNL d   1       1.958  -4.026  -8.113  0.00  0.00     0.039 A 
ATOM      9  C   UNL d   1       2.893  -5.015  -7.818  0.00  0.00     0.068 A 
ATOM     10  C   UNL d   1       3.283  -5.210  -6.494  0.00  0.00     0.039 A 
ATOM     11  C   UNL d   1       2.704  -4.458  -5.464  0.00  0.00     0.032 A 
BRANCH   9  12
ATOM     12  O   UNL d   1       3.510  -5.813  -8.741  0.00  0.00    -0.356 OA
ATOM     13  C   UNL d   1       2.766  -6.051  -9.933  0.00  0.00     0.210 C 
ENDBRANCH   9  12
ENDBRANCH   3   6
ENDBRANCH   1   2
BRANCH   1  14
ATOM     14  O   UNL d   1      -1.779  -1.273  -3.249  0.00  0.00    -0.271 OA
BRANCH  14  15
ATOM     15  N   UNL d   1      -2.084  -0.674  -2.021  0.00  0.00    -0.270 N 
ATOM     16  C   UNL d   1      -3.367  -0.500  -1.870  0.00  0.00     0.038 C 
ATOM     17  C   UNL d   1      -4.405  -0.914  -2.899  0.00  0.00     0.071 C 
ATOM     18  HN  UNL d   1      -1.385  -0.405  -1.327  1.00  0.00     0.194 HD
BRANCH  16  19
ATOM     19  C   UNL d   1      -3.858   0.149  -0.605  0.00  0.00    -0.012 A 
ATOM     20  C   UNL d   1      -2.926   0.570   0.356  0.00  0.00     0.015 A 
ATOM     21  C   UNL d   1      -3.350   1.188   1.537  0.00  0.00     0.024 A 
ATOM     22  C   UNL d   1      -4.709   1.387   1.764  0.00  0.00     0.034 A 
ATOM     23  C   UNL d   1      -5.647   0.972   0.822  0.00  0.00     0.024 A 
ATOM     24 CL   UNL d   1      -5.232   2.154   3.212  0.00  0.00    -0.084 Cl
ATOM     25  C   UNL d   1      -5.224   0.353  -0.360  0.00  0.00     0.015 A 
ENDBRANCH  16  19
ENDBRANCH  14  15
ENDBRANCH   1  14
TORSDOF 6
