REMARK  4 active torsions:
REMARK  status: ('A' for Active; 'I' for Inactive)
REMARK    1  A    between atoms: S_2  and  N_1 
REMARK    2  A    between atoms: C_12  and  S_2 
REMARK    3  A    between atoms: C_4  and  C_3 
REMARK    4  A    between atoms: C_16  and  C_7 
ROOT
ATOM      1  N   UNL d   1       1.090  -0.720   0.114  0.00  0.00    -0.176 N 
ATOM      2  C   UNL d   1      -0.200  -1.231   0.171  0.00  0.00     0.085 A 
ATOM      3  N   UNL d   1       1.113   0.650   0.130  0.00  0.00    -0.295 N 
ATOM      4  HN  UNL d   1       1.928   1.263   0.100  1.00  0.00     0.187 HD
ATOM      5  C   UNL d   1      -1.018  -0.114   0.252  0.00  0.00     0.052 A 
ATOM      6  C   UNL d   1      -0.168   0.999   0.193  0.00  0.00     0.111 A 
ENDROOT
BRANCH   2   7
ATOM      7  C   UNL d   1      -0.726  -2.636   0.097  0.00  0.00     0.054 A 
ATOM      8  C   UNL d   1      -1.933  -3.087  -0.560  0.00  0.00     0.080 A 
ATOM      9  N   UNL d   1      -2.108  -4.400  -0.351  0.00  0.00    -0.259 N 
ATOM     10  O   UNL d   1      -1.048  -4.823   0.402  0.00  0.00    -0.241 OA
ATOM     11  HN  UNL d   1      -2.882  -4.972  -0.689  1.00  0.00     0.195 HD
ATOM     12  C   UNL d   1      -0.223  -3.781   0.687  0.00  0.00     0.087 A 
ATOM     13  C   UNL d   1       0.888  -4.149   1.588  0.00  0.00     0.080 C 
BRANCH   8  14
ATOM     14  C   UNL d   1      -2.909  -2.359  -1.381  0.00  0.00    -0.006 A 
ATOM     15  C   UNL d   1      -4.272  -2.695  -1.315  0.00  0.00     0.015 A 
ATOM     16  C   UNL d   1      -5.223  -1.981  -2.052  0.00  0.00     0.024 A 
ATOM     17  C   UNL d   1      -4.819  -0.919  -2.855  0.00  0.00     0.034 A 
ATOM     18  C   UNL d   1      -3.470  -0.593  -2.962  0.00  0.00     0.024 A 
ATOM     19 CL   UNL d   1      -5.989  -0.004  -3.722  0.00  0.00    -0.084 Cl
ATOM     20  C   UNL d   1      -2.518  -1.330  -2.250  0.00  0.00     0.015 A 
ENDBRANCH   8  14
ENDBRANCH   2   7
BRANCH   1  21
ATOM     21  S   UNL d   1       2.522  -1.658  -0.060  0.00  0.00     0.282 S 
ATOM     22  O   UNL d   1       2.971  -1.933   1.293  0.00  0.00    -0.198 OA
ATOM     23  O   UNL d   1       2.204  -2.714  -1.008  0.00  0.00    -0.198 OA
BRANCH  21  24
ATOM     24  C   UNL d   1       3.689  -0.578  -0.838  0.00  0.00     0.081 A 
ATOM     25  C   UNL d   1       4.544   0.203  -0.055  0.00  0.00     0.027 A 
ATOM     26  C   UNL d   1       5.482   1.028  -0.677  0.00  0.00     0.025 A 
ATOM     27  C   UNL d   1       5.567   1.056  -2.071  0.00  0.00     0.034 A 
ATOM     28  C   UNL d   1       4.724   0.263  -2.850  0.00  0.00     0.025 A 
ATOM     29 CL   UNL d   1       6.724   2.075  -2.836  0.00  0.00    -0.084 Cl
ATOM     30  C   UNL d   1       3.784  -0.563  -2.234  0.00  0.00     0.027 A 
ENDBRANCH  21  24
ENDBRANCH   1  21
TORSDOF 4
