REMARK  9 active torsions:
REMARK  status: ('A' for Active; 'I' for Inactive)
REMARK    1  A    between atoms: N_3  and  C_1 
REMARK    2  A    between atoms: C_5  and  C_1 
REMARK    3  A    between atoms: C_6  and  C_1 
REMARK       I    between atoms: C_2  and  N_3 
REMARK    4  A    between atoms: C_4  and  C_2 
REMARK    5  A    between atoms: O_15  and  C_5 
REMARK    6  A    between atoms: O_14  and  C_6 
REMARK    7  A    between atoms: S_13  and  C_7 
REMARK    8  A    between atoms: C_20  and  O_14 
REMARK    9  A    between atoms: C_19  and  O_15 
ROOT
ATOM      1  C   UNL d   1       0.232  -0.268   2.309  0.00  0.00     0.255 C 
ATOM      2  N   UNL d   1       0.983   0.383   1.355  0.00  0.00    -0.335 N 
ATOM      3  O   UNL d   1      -0.358  -1.312   2.078  0.00  0.00    -0.268 OA
ATOM      4  H   UNL d   1       1.466   1.245   1.572  0.00  0.00     0.164 HD
ENDROOT
BRANCH   2   5
ATOM      5  C   UNL d   1       1.082  -0.074  -0.045  0.00  0.00     0.285 C 
BRANCH   5   6
ATOM      6  C   UNL d   1       0.369   0.945  -0.917  0.00  0.00     0.291 C 
ATOM      7  O   UNL d   1       0.245   2.132  -0.625  0.00  0.00    -0.262 OA
BRANCH   6   8
ATOM      8  O   UNL d   1      -0.122   0.362  -2.047  0.00  0.00    -0.320 OA
BRANCH   8   9
ATOM      9  C   UNL d   1      -0.999   1.169  -2.848  0.00  0.00     0.174 C 
ATOM     10  C   UNL d   1      -2.424   0.913  -2.395  0.00  0.00     0.034 C 
ENDBRANCH   8   9
ENDBRANCH   6   8
ENDBRANCH   5   6
BRANCH   5  11
ATOM     11  C   UNL d   1       2.524  -0.248  -0.512  0.00  0.00     0.291 C 
ATOM     12  O   UNL d   1       2.845  -0.595  -1.639  0.00  0.00    -0.262 OA
BRANCH  11  13
ATOM     13  O   UNL d   1       3.410   0.044   0.486  0.00  0.00    -0.320 OA
BRANCH  13  14
ATOM     14  C   UNL d   1       4.799  -0.139   0.173  0.00  0.00     0.174 C 
ATOM     15  C   UNL d   1       5.355   1.100  -0.504  0.00  0.00     0.034 C 
ENDBRANCH  13  14
ENDBRANCH  11  13
ENDBRANCH   5  11
ENDBRANCH   2   5
BRANCH   1  16
ATOM     16  C   UNL d   1       0.143   0.422   3.629  0.00  0.00     0.065 A 
ATOM     17  C   UNL d   1       0.155  -0.240   4.862  0.00  0.00     0.085 A 
ATOM     18  N   UNL d   1       0.092   0.447   6.040  0.00  0.00    -0.360 N 
ATOM     19  C   UNL d   1      -0.006   1.791   6.004  0.00  0.00     0.089 A 
ATOM     20  HN  UNL d   1       0.118  -0.048   6.931  1.00  0.00     0.166 HD
ATOM     21  C   UNL d   1      -0.059   2.518   4.834  0.00  0.00     0.018 A 
ATOM     22  C   UNL d   1       0.011   1.822   3.632  0.00  0.00     0.021 A 
BRANCH  17  23
ATOM     23  S   UNL d   1       0.314  -2.013   5.049  0.00  0.00    -0.116 SA
ATOM     24  C   UNL d   1       0.062  -2.193   6.840  0.00  0.00     0.097 C 
ENDBRANCH  17  23
ENDBRANCH   1  16
TORSDOF 9
