REMARK  3 active torsions:
REMARK  status: ('A' for Active; 'I' for Inactive)
REMARK    1  A    between atoms: C_8  and  C_1 
REMARK    2  A    between atoms: C_10  and  C_4 
REMARK       I    between atoms: N_11  and  C_8 
REMARK    3  A    between atoms: C_16  and  N_11 
ROOT
ATOM      1  C   UNL d   1      -0.292  -1.000  -0.294  0.00  0.00     0.096 A 
ATOM      2  S   UNL d   1       1.161  -0.156  -0.635  0.00  0.00    -0.064 SA
ATOM      3  C   UNL d   1       0.416   1.347  -0.237  0.00  0.00     0.085 A 
ATOM      4  N   UNL d   1      -0.861   1.246   0.074  0.00  0.00    -0.352 N 
ATOM      5  HN  UNL d   1      -1.458   2.033   0.327  1.00  0.00     0.166 HD
ATOM      6  C   UNL d   1      -1.288  -0.082   0.011  0.00  0.00     0.029 A 
ATOM      7  C   UNL d   1      -2.719  -0.374   0.300  0.00  0.00     0.070 C 
ENDROOT
BRANCH   1   8
ATOM      8  C   UNL d   1      -0.354  -2.455  -0.322  0.00  0.00     0.260 C 
ATOM      9  N   UNL d   1       0.817  -3.093  -0.701  0.00  0.00    -0.351 N 
ATOM     10  H   UNL d   1       1.598  -2.490  -0.937  0.00  0.00     0.163 HD
ATOM     11  O   UNL d   1      -1.350  -3.098  -0.003  0.00  0.00    -0.267 OA
BRANCH   9  12
ATOM     12  C   UNL d   1       1.068  -4.525  -0.634  0.00  0.00     0.099 C 
ATOM     13  C   UNL d   1       0.137  -5.388  -1.478  0.00  0.00     0.165 C 
ATOM     14  S   UNL d   1       0.519  -7.044  -0.944  0.00  0.00     0.146 S 
ATOM     15  O   UNL d   1       1.622  -7.532  -1.743  0.00  0.00    -0.228 OA
ATOM     16  O   UNL d   1      -0.713  -7.792  -0.790  0.00  0.00    -0.228 OA
ATOM     17  C   UNL d   1       1.152  -6.611   0.670  0.00  0.00     0.142 C 
ATOM     18  C   UNL d   1       1.015  -5.095   0.790  0.00  0.00     0.041 C 
ENDBRANCH   9  12
ENDBRANCH   1   8
BRANCH   3  19
ATOM     19  C   UNL d   1       1.215   2.591  -0.210  0.00  0.00    -0.002 A 
ATOM     20  C   UNL d   1       0.860   3.634   0.669  0.00  0.00     0.024 A 
ATOM     21  C   UNL d   1       1.643   4.782   0.707  0.00  0.00    -0.022 A 
ATOM     22  C   UNL d   1       1.554   5.980   1.574  0.00  0.00     0.068 C 
ATOM     23  C   UNL d   1       2.762   4.905  -0.102  0.00  0.00     0.075 A 
ATOM     24  C   UNL d   1       2.498   6.902   0.800  0.00  0.00     0.180 C 
ATOM     25  O   UNL d   1       3.437   6.087   0.060  0.00  0.00    -0.350 OA
ATOM     26  C   UNL d   1       3.145   3.912  -0.972  0.00  0.00     0.038 A 
ATOM     27  C   UNL d   1       2.358   2.758  -1.032  0.00  0.00     0.017 A 
ENDBRANCH   3  19
TORSDOF 3
