REMARK  6 active torsions:
REMARK  status: ('A' for Active; 'I' for Inactive)
REMARK    1  A    between atoms: C_6  and  C_1 
REMARK    2  A    between atoms: C_7  and  C_3 
REMARK    3  A    between atoms: C_5  and  S_10 
REMARK    4  A    between atoms: C_13  and  C_6 
REMARK    5  A    between atoms: O_16  and  C_7 
REMARK    6  A    between atoms: S_10  and  C_13 
ROOT
ATOM      1  S   UNL d   1      -3.730  -2.733  -1.060  0.00  0.00    -0.103 SA
ENDROOT
BRANCH   1   2
ATOM      2  C   UNL d   1      -2.487  -3.277   0.111  0.00  0.00     0.087 A 
ATOM      3  C   UNL d   1      -1.491  -4.194  -0.232  0.00  0.00     0.071 A 
ATOM      4  C   UNL d   1      -0.649  -4.673   0.784  0.00  0.00     0.022 A 
ATOM      5  C   UNL d   1      -0.788  -4.195   2.081  0.00  0.00     0.018 A 
ATOM      6  C   UNL d   1      -1.769  -3.252   2.321  0.00  0.00     0.089 A 
ATOM      7  N   UNL d   1      -2.621  -2.796   1.375  0.00  0.00    -0.360 N 
ATOM      8  HN  UNL d   1      -3.342  -2.112   1.603  1.00  0.00     0.166 HD
BRANCH   3   9
ATOM      9  C   UNL d   1      -1.259  -4.736  -1.589  0.00  0.00     0.179 C 
ATOM     10  O   UNL d   1      -0.893  -5.887  -1.769  0.00  0.00    -0.646 OA
BRANCH   9  11
ATOM     11  O   UNL d   1      -1.342  -3.834  -2.588  0.00  0.00    -0.773 OA
ATOM     12  H   UNL d   1      -1.686  -2.954  -2.332  0.00  0.00     0.167 HD
ENDBRANCH   9  11
ENDBRANCH   3   9
ENDBRANCH   1   2
BRANCH   1  13
ATOM     13  C   UNL d   1      -4.521  -1.361  -0.145  0.00  0.00     0.167 C 
BRANCH  13  14
ATOM     14  C   UNL d   1      -3.647  -0.115  -0.094  0.00  0.00     0.192 C 
ATOM     15  O   UNL d   1      -2.499  -0.084  -0.542  0.00  0.00    -0.289 OA
BRANCH  14  16
ATOM     16  C   UNL d   1      -4.274   1.069   0.469  0.00  0.00     0.123 A 
ATOM     17  O   UNL d   1      -5.549   1.000   0.966  0.00  0.00    -0.306 OA
ATOM     18  C   UNL d   1      -5.893   2.256   1.375  0.00  0.00     0.086 A 
ATOM     19  C   UNL d   1      -7.117   2.627   1.930  0.00  0.00     0.038 A 
ATOM     20  C   UNL d   1      -4.846   3.140   1.149  0.00  0.00     0.001 A 
ATOM     21  C   UNL d   1      -7.271   3.979   2.261  0.00  0.00     0.003 A 
ATOM     22  C   UNL d   1      -6.242   4.898   2.041  0.00  0.00     0.001 A 
ATOM     23  C   UNL d   1      -5.018   4.494   1.489  0.00  0.00     0.014 A 
ATOM     24  C   UNL d   1      -3.803   2.365   0.582  0.00  0.00     0.055 A 
ENDBRANCH  14  16
ENDBRANCH  13  14
ENDBRANCH   1  13
TORSDOF 6
