REMARK  6 active torsions:
REMARK  status: ('A' for Active; 'I' for Inactive)
REMARK    1  A    between atoms: C_5  and  C_1 
REMARK    2  A    between atoms: C_7  and  C_2 
REMARK    3  A    between atoms: C_8  and  CA_3 
REMARK    4  A    between atoms: C_4  and  N_6 
REMARK       I    between atoms: N_6  and  C_5 
REMARK    5  A    between atoms: O_20  and  C_7 
REMARK    6  A    between atoms: OXT_19  and  C_8 
ROOT
ATOM      1  C   UNL d   1      -1.529  -2.362   0.086  0.00  0.00     0.275 C 
ATOM      2  N   UNL d   1      -0.942  -3.605  -0.081  0.00  0.00    -0.320 N 
ATOM      3  O   UNL d   1      -1.019  -1.381   0.610  0.00  0.00    -0.266 OA
ATOM      4  H   UNL d   1      -1.342  -4.229  -0.778  0.00  0.00     0.169 HD
ENDROOT
BRANCH   1   5
ATOM      5  C   UNL d   1      -2.939  -2.295  -0.369  0.00  0.00     0.134 A 
ATOM      6  CA  UNL d   1      -3.489  -1.222  -1.051  0.00  0.00     0.139 A 
ATOM      7  N   UNL d   1      -4.851  -1.075  -1.218  0.00  0.00    -0.357 N 
ATOM      8  C   UNL d   1      -5.610  -2.065  -0.691  0.00  0.00     0.105 A 
ATOM      9  HN  UNL d   1      -5.258  -0.277  -1.705  1.00  0.00     0.165 HD
ATOM     10  C   UNL d   1      -5.061  -3.168  -0.058  0.00  0.00     0.105 A 
ATOM     11  N   UNL d   1      -3.724  -3.312   0.107  0.00  0.00    -0.358 N 
ATOM     12  HN  UNL d   1      -3.324  -4.133   0.561  1.00  0.00     0.165 HD
BRANCH   6  13
ATOM     13  C   UNL d   1      -2.682  -0.221  -1.799  0.00  0.00     0.196 C 
ATOM     14  O   UNL d   1      -1.495  -0.293  -2.044  0.00  0.00    -0.645 OA
BRANCH  13  15
ATOM     15  OXT UNL d   1      -3.499   0.746  -2.292  0.00  0.00    -0.772 OA
ATOM     16  HXT UNL d   1      -4.433   0.541  -2.066  0.00  0.00     0.167 HD
ENDBRANCH  13  15
ENDBRANCH   6  13
ENDBRANCH   1   5
BRANCH   2  17
ATOM     17  C   UNL d   1       0.292  -3.974   0.445  0.00  0.00     0.058 A 
ATOM     18  C   UNL d   1       1.209  -4.859  -0.227  0.00  0.00     0.073 A 
ATOM     19  C   UNL d   1       2.306  -5.136   0.571  0.00  0.00     0.069 A 
ATOM     20  S   UNL d   1       2.257  -4.321   2.072  0.00  0.00    -0.110 SA
ATOM     21  C   UNL d   1       0.778  -3.564   1.670  0.00  0.00     0.080 A 
BRANCH  18  22
ATOM     22  C   UNL d   1       1.050  -5.342  -1.597  0.00  0.00     0.295 C 
ATOM     23  O   UNL d   1       0.040  -5.131  -2.262  0.00  0.00    -0.259 OA
BRANCH  22  24
ATOM     24  O   UNL d   1       2.146  -6.011  -2.058  0.00  0.00    -0.322 OA
ATOM     25  C   UNL d   1       2.066  -6.381  -3.435  0.00  0.00     0.213 C 
ENDBRANCH  22  24
ENDBRANCH  18  22
ENDBRANCH   2  17
TORSDOF 6
