REMARK  2 active torsions:
REMARK  status: ('A' for Active; 'I' for Inactive)
REMARK    1  A    between atoms: N_17  and  C_5 
REMARK    2  A    between atoms: C_11  and  C_6 
ROOT
ATOM      1  N   UNL d   1      -0.198  -0.551   0.102  0.00  0.00    -0.227 N 
ATOM      2  C   UNL d   1      -0.134   0.835  -0.051  0.00  0.00     0.130 A 
ATOM      3  N   UNL d   1      -1.489  -0.992   0.156  0.00  0.00    -0.290 N 
ATOM      4  HN  UNL d   1      -1.815  -1.952   0.271  1.00  0.00     0.188 HD
ATOM      5  C   UNL d   1       0.981  -1.348   0.139  0.00  0.00     0.124 A 
ATOM      6  C   UNL d   1      -2.233   0.114   0.025  0.00  0.00     0.069 A 
ATOM      7  C   UNL d   1      -1.436   1.271  -0.101  0.00  0.00     0.082 A 
ATOM      8  C   UNL d   1       2.168  -0.716   0.022  0.00  0.00     0.100 A 
ATOM      9  N   UNL d   1       1.050   1.508  -0.139  0.00  0.00    -0.349 N 
ATOM     10  HN  UNL d   1       1.094   2.523  -0.227  1.00  0.00     0.167 HD
ATOM     11  C   UNL d   1       2.118   0.768  -0.103  0.00  0.00     0.116 A 
ATOM     12  C   UNL d   1       3.426  -1.366   0.015  0.00  0.00     0.104 C 
ATOM     13  N   UNL d   1       4.460  -1.890  -0.017  0.00  0.00    -0.191 NA
ENDROOT
BRANCH   5  14
ATOM     14  N   UNL d   1       0.803  -2.727   0.278  0.00  0.00    -0.286 NA
ATOM     15  H   UNL d   1      -0.161  -3.007   0.068  0.00  0.00     0.125 HD
ATOM     16  H   UNL d   1       1.500  -3.313  -0.175  0.00  0.00     0.125 HD
ENDBRANCH   5  14
BRANCH   6  17
ATOM     17  C   UNL d   1      -3.736   0.070   0.004  0.00  0.00     0.033 A 
ATOM     18  S   UNL d   1      -4.733   1.432  -0.283  0.00  0.00    -0.100 SA
ATOM     19  C   UNL d   1      -6.161   0.499  -0.162  0.00  0.00     0.050 A 
ATOM     20  C   UNL d   1      -5.890  -0.823   0.113  0.00  0.00     0.008 A 
ATOM     21  C   UNL d   1      -4.487  -1.072   0.205  0.00  0.00     0.021 A 
ENDBRANCH   6  17
TORSDOF 2
