REMARK  4 active torsions:
REMARK  status: ('A' for Active; 'I' for Inactive)
REMARK    1  A    between atoms: C_3  and  C_1 
REMARK    2  A    between atoms: C_4  and  CA_2 
REMARK       I    between atoms: N_5  and  C_3 
REMARK    3  A    between atoms: OXT_16  and  C_4 
REMARK    4  A    between atoms: C_13  and  N_5 
ROOT
ATOM      1  N   UNL d   1      -0.735  -8.526   0.583  0.00  0.00    -0.192 NA
ATOM      2  C   UNL d   1      -0.483  -7.401   0.456  0.00  0.00     0.089 C 
ATOM      3  C   UNL d   1      -0.154  -6.025   0.308  0.00  0.00     0.118 C 
ATOM      4  C   UNL d   1      -1.056  -5.030   0.189  0.00  0.00     0.018 C 
ATOM      5  C   UNL d   1      -2.547  -5.266   0.189  0.00  0.00     0.069 C 
ENDROOT
BRANCH   4   6
ATOM      6  N   UNL d   1      -0.569  -3.728   0.057  0.00  0.00    -0.325 N 
ATOM      7  C   UNL d   1      -1.297  -2.552  -0.062  0.00  0.00     0.275 C 
ATOM      8  O   UNL d   1      -2.530  -2.546  -0.078  0.00  0.00    -0.266 OA
ATOM      9  H   UNL d   1       0.448  -3.666   0.022  0.00  0.00     0.169 HD
BRANCH   7  10
ATOM     10  C   UNL d   1      -0.596  -1.205  -0.157  0.00  0.00     0.134 A 
ATOM     11  CA  UNL d   1       0.759  -0.895  -0.222  0.00  0.00     0.139 A 
ATOM     12  N   UNL d   1       1.231   0.410  -0.266  0.00  0.00    -0.357 N 
ATOM     13  C   UNL d   1       0.298   1.386  -0.259  0.00  0.00     0.105 A 
ATOM     14  HN  UNL d   1       2.228   0.621  -0.301  1.00  0.00     0.165 HD
ATOM     15  C   UNL d   1      -1.045   1.101  -0.209  0.00  0.00     0.105 A 
ATOM     16  N   UNL d   1      -1.502  -0.169  -0.154  0.00  0.00    -0.358 N 
ATOM     17  HN  UNL d   1      -2.504  -0.356  -0.112  1.00  0.00     0.165 HD
BRANCH  11  18
ATOM     18  C   UNL d   1       1.893  -1.862  -0.267  0.00  0.00     0.196 C 
ATOM     19  O   UNL d   1       1.814  -3.075  -0.291  0.00  0.00    -0.645 OA
BRANCH  18  20
ATOM     20  OXT UNL d   1       3.082  -1.208  -0.272  0.00  0.00    -0.772 OA
ATOM     21  HXT UNL d   1       2.921  -0.233  -0.263  0.00  0.00     0.167 HD
ENDBRANCH  18  20
ENDBRANCH  11  18
ENDBRANCH   7  10
ENDBRANCH   4   6
TORSDOF 4
