REMARK  1 active torsions:
REMARK  status: ('A' for Active; 'I' for Inactive)
REMARK    1  A    between atoms: C_4  and  C_1 
ROOT
ATOM      1  C   UNL d   1      -0.246  -1.263   0.072  0.00  0.00     0.058 A 
ATOM      2  S   UNL d   1       1.403  -0.809   0.181  0.00  0.00    -0.074 SA
ATOM      3  C   UNL d   1      -1.090  -0.156   0.037  0.00  0.00    -0.033 A 
ATOM      4  C   UNL d   1       1.040   0.845   0.105  0.00  0.00     0.092 A 
ATOM      5  C   UNL d   1      -0.323   1.086   0.046  0.00  0.00    -0.027 A 
ATOM      6  C   UNL d   1       2.064   1.846   0.098  0.00  0.00     0.107 C 
ATOM      7  N   UNL d   1       2.877   2.672   0.084  0.00  0.00    -0.191 NA
ATOM      8  C   UNL d   1      -2.590  -0.164  -0.027  0.00  0.00     0.050 C 
ATOM      9  C   UNL d   1      -0.912   2.467  -0.019  0.00  0.00     0.051 C 
ENDROOT
BRANCH   1  10
ATOM     10  C   UNL d   1      -0.629  -2.721   0.003  0.00  0.00     0.138 A 
ATOM     11  N   UNL d   1      -1.920  -3.179  -0.128  0.00  0.00    -0.335 N 
ATOM     12  C   UNL d   1      -1.782  -4.480  -0.223  0.00  0.00     0.199 A 
ATOM     13  HN  UNL d   1      -2.782  -2.634  -0.147  1.00  0.00     0.168 HD
ATOM     14  N   UNL d   1      -0.467  -4.799  -0.142  0.00  0.00    -0.295 N 
ATOM     15  N   UNL d   1       0.286  -3.705   0.017  0.00  0.00    -0.283 N 
ATOM     16  H   UNL d   1      -0.019  -5.707  -0.196  0.00  0.00     0.187 HD
ATOM     17  HN  UNL d   1       1.299  -3.635   0.121  1.00  0.00     0.188 HD
ENDBRANCH   1  10
TORSDOF 1
