REMARK  3 active torsions:
REMARK  status: ('A' for Active; 'I' for Inactive)
REMARK    1  A    between atoms: N_2  and  S_1 
REMARK    2  A    between atoms: C_5  and  S_1 
REMARK    3  A    between atoms: C_18  and  C_12 
ROOT
ATOM      1  N   UNL d   1       0.535   0.730   1.402  0.00  0.00    -0.175 N 
ATOM      2  C   UNL d   1      -0.040   0.037   2.464  0.00  0.00     0.106 A 
ATOM      3  C   UNL d   1      -0.323  -1.362   2.567  0.00  0.00     0.130 A 
ATOM      4  C   UNL d   1      -0.324  -2.140   3.707  0.00  0.00     0.074 A 
ATOM      5  N   UNL d   1      -0.940  -3.447   1.973  0.00  0.00    -0.260 N 
ATOM      6  HN  UNL d   1      -1.224  -4.246   1.406  1.00  0.00     0.195 HD
ATOM      7  O   UNL d   1      -0.712  -2.159   1.531  0.00  0.00    -0.235 OA
ATOM      8  N   UNL d   1       0.637   2.071   1.669  0.00  0.00    -0.295 N 
ATOM      9  HN  UNL d   1       0.992   2.803   1.054  1.00  0.00     0.187 HD
ATOM     10  C   UNL d   1      -0.714  -3.439   3.295  0.00  0.00     0.068 A 
ATOM     11  C   UNL d   1      -0.251   0.988   3.450  0.00  0.00     0.054 A 
ATOM     12  C   UNL d   1       0.171   2.206   2.906  0.00  0.00     0.111 A 
ENDROOT
BRANCH   1  13
ATOM     13  S   UNL d   1       1.154   0.004  -0.053  0.00  0.00     0.284 S 
ATOM     14  O   UNL d   1       1.670  -1.292   0.347  0.00  0.00    -0.198 OA
ATOM     15  O   UNL d   1       2.041   0.979  -0.663  0.00  0.00    -0.198 OA
BRANCH  13  16
ATOM     16  C   UNL d   1      -0.224  -0.221  -1.143  0.00  0.00     0.103 A 
ATOM     17  C   UNL d   1      -0.973   0.851  -1.636  0.00  0.00     0.057 A 
ATOM     18 CL   UNL d   1      -0.734   2.498  -1.194  0.00  0.00    -0.083 Cl
ATOM     19  C   UNL d   1      -1.984   0.613  -2.578  0.00  0.00     0.025 A 
ATOM     20  C   UNL d   1      -2.240  -0.678  -3.038  0.00  0.00     0.002 A 
ATOM     21  C   UNL d   1      -1.488  -1.744  -2.556  0.00  0.00     0.002 A 
ATOM     22  C   UNL d   1      -0.480  -1.519  -1.616  0.00  0.00     0.027 A 
ENDBRANCH  13  16
ENDBRANCH   1  13
BRANCH  10  23
ATOM     23  C   UNL d   1      -0.877  -4.629   4.129  0.00  0.00    -0.007 A 
ATOM     24  C   UNL d   1      -1.288  -4.515   5.466  0.00  0.00     0.014 A 
ATOM     25  C   UNL d   1      -1.446  -5.652   6.263  0.00  0.00     0.001 A 
ATOM     26  C   UNL d   1      -1.190  -6.915   5.735  0.00  0.00     0.000 A 
ATOM     27  C   UNL d   1      -0.776  -7.043   4.410  0.00  0.00     0.001 A 
ATOM     28  C   UNL d   1      -0.624  -5.907   3.610  0.00  0.00     0.014 A 
ENDBRANCH  10  23
TORSDOF 3
