REMARK  12 active torsions:
REMARK  status: ('A' for Active; 'I' for Inactive)
REMARK    1  A    between atoms: C_1  and  O_11 
REMARK    2  A    between atoms: C_2  and  O_12 
REMARK    3  A    between atoms: N_9  and  C_3 
REMARK    4  A    between atoms: N_4  and  C_7 
REMARK    5  A    between atoms: C_5  and  O_13 
REMARK    6  A    between atoms: C_8  and  C_20 
REMARK    7  A    between atoms: C_10  and  N_9 
REMARK    8  A    between atoms: C_16  and  O_11 
REMARK    9  A    between atoms: C_15  and  O_12 
REMARK   10  A    between atoms: C_17  and  O_13 
REMARK   11  A    between atoms: C_19  and  O_21 
REMARK   12  A    between atoms: O_21  and  C_20 
ROOT
ATOM      1  C   UNL d   1       0.834  -1.282  -0.207  0.00  0.00     0.212 C 
ATOM      2  C   UNL d   1       1.663   0.017  -0.105  0.00  0.00     0.198 C 
ATOM      3  C   UNL d   1      -0.625  -1.161   0.319  0.00  0.00     0.254 C 
ATOM      4  C   UNL d   1       0.855   1.293  -0.412  0.00  0.00     0.195 C 
ATOM      5  O   UNL d   1      -1.227   0.048  -0.133  0.00  0.00    -0.354 OA
ATOM      6  C   UNL d   1      -0.520   1.234   0.263  0.00  0.00     0.180 C 
ENDROOT
BRANCH   3   7
ATOM      7  N   UNL d   1      -0.834  -1.287   1.767  0.00  0.00    -0.359 N 
ATOM      8  H   UNL d   1       0.042  -1.186   2.294  0.00  0.00     0.162 HD
BRANCH   7   9
ATOM      9  C   UNL d   1      -1.671  -2.307   2.252  0.00  0.00     0.063 C 
ATOM     10  C   UNL d   1      -1.506  -2.917   3.512  0.00  0.00     0.129 C 
ATOM     11  C   UNL d   1      -2.229  -4.056   3.916  0.00  0.00     0.038 C 
ATOM     12  C   UNL d   1      -3.250  -4.533   3.105  0.00  0.00     0.003 C 
ATOM     13  C   UNL d   1      -3.570  -3.837   1.944  0.00  0.00     0.002 C 
ATOM     14  C   UNL d   1      -2.796  -2.741   1.532  0.00  0.00     0.032 C 
BRANCH  10  15
ATOM     15  N   UNL d   1      -0.675  -2.309   4.529  0.00  0.00    -0.113 N 
ATOM     16  O   UNL d   1      -1.080  -1.244   5.021  0.00  0.00    -0.532 OA
ATOM     17  O   UNL d   1       0.326  -2.940   4.893  0.00  0.00    -0.532 OA
ENDBRANCH  10  15
ENDBRANCH   7   9
ENDBRANCH   3   7
BRANCH   1  18
ATOM     18  O   UNL d   1       1.537  -2.474   0.228  0.00  0.00    -0.309 OA
BRANCH  18  19
ATOM     19  C   UNL d   1       1.938  -2.567   1.523  0.00  0.00     0.255 C 
ATOM     20  O   UNL d   1       1.748  -1.707   2.363  0.00  0.00    -0.266 OA
ATOM     21  C   UNL d   1       2.574  -3.896   1.784  0.00  0.00     0.126 C 
ENDBRANCH  18  19
ENDBRANCH   1  18
BRANCH   2  22
ATOM     22  O   UNL d   1       2.881  -0.032  -0.916  0.00  0.00    -0.311 OA
BRANCH  22  23
ATOM     23  C   UNL d   1       2.775  -0.128  -2.271  0.00  0.00     0.255 C 
ATOM     24  O   UNL d   1       1.729  -0.269  -2.888  0.00  0.00    -0.266 OA
ATOM     25  C   UNL d   1       4.116   0.014  -2.926  0.00  0.00     0.126 C 
ENDBRANCH  22  23
ENDBRANCH   2  22
BRANCH   6  26
ATOM     26  C   UNL d   1      -1.371   2.441  -0.170  0.00  0.00     0.213 C 
BRANCH  26  27
ATOM     27  O   UNL d   1      -2.639   2.439   0.512  0.00  0.00    -0.319 OA
BRANCH  27  28
ATOM     28  C   UNL d   1      -2.607   2.894   1.791  0.00  0.00     0.254 C 
ATOM     29  O   UNL d   1      -1.621   3.356   2.351  0.00  0.00    -0.266 OA
ATOM     30  C   UNL d   1      -3.956   2.767   2.431  0.00  0.00     0.126 C 
ENDBRANCH  27  28
ENDBRANCH  26  27
ENDBRANCH   6  26
BRANCH   4  31
ATOM     31  O   UNL d   1       1.596   2.425   0.114  0.00  0.00    -0.311 OA
BRANCH  31  32
ATOM     32  C   UNL d   1       2.128   3.302  -0.776  0.00  0.00     0.255 C 
ATOM     33  O   UNL d   1       1.995   3.243  -1.992  0.00  0.00    -0.266 OA
ATOM     34  C   UNL d   1       2.900   4.381  -0.078  0.00  0.00     0.126 C 
ENDBRANCH  31  32
ENDBRANCH   4  31
TORSDOF 12
