REMARK  8 active torsions:
REMARK  status: ('A' for Active; 'I' for Inactive)
REMARK    1  A    between atoms: C_5  and  C_1 
REMARK    2  A    between atoms: N_6  and  C_2 
REMARK    3  A    between atoms: C_3  and  C_7 
REMARK    4  A    between atoms: C_4  and  O_10 
REMARK    5  A    between atoms: C_8  and  C_4 
REMARK    6  A    between atoms: O_21  and  C_5 
REMARK    7  A    between atoms: C_18  and  N_6 
REMARK    8  A    between atoms: O_10  and  C_20 
ROOT
ATOM      1  C   UNL d   1       3.434  -0.862  -0.584  0.00  0.00     0.032 A 
ATOM      2  C   UNL d   1       6.019   0.210  -0.482  0.00  0.00     0.079 A 
ATOM      3  C   UNL d   1       3.781   0.086   0.390  0.00  0.00     0.032 A 
ATOM      4  C   UNL d   1       4.423  -1.318  -1.463  0.00  0.00     0.032 A 
ATOM      5  C   UNL d   1       5.069   0.623   0.443  0.00  0.00     0.039 A 
ATOM      6  C   UNL d   1       5.708  -0.771  -1.426  0.00  0.00     0.039 A 
ENDROOT
BRANCH   2   7
ATOM      7  O   UNL d   1       7.352   0.680  -0.512  0.00  0.00    -0.275 OA
BRANCH   7   8
ATOM      8  C   UNL d   1       7.812   1.815   0.145  0.00  0.00     0.298 C 
ATOM      9  O   UNL d   1       7.162   2.621   0.790  0.00  0.00    -0.259 OA
BRANCH   8  10
ATOM     10  C   UNL d   1       9.291   1.894   0.001  0.00  0.00     0.040 A 
ATOM     11  C   UNL d   1      10.000   1.121  -0.930  0.00  0.00     0.033 A 
ATOM     12  C   UNL d   1      11.402   1.187  -0.993  0.00  0.00     0.048 A 
ATOM     13  C   UNL d   1      12.083   2.055  -0.125  0.00  0.00     0.016 A 
ATOM     14  C   UNL d   1      11.381   2.841   0.789  0.00  0.00     0.002 A 
ATOM     15  C   UNL d   1       9.989   2.761   0.852  0.00  0.00     0.017 A 
BRANCH  12  16
ATOM     16  C   UNL d   1      12.178   0.322  -1.957  0.00  0.00     0.417 C 
ATOM     17  F   UNL d   1      11.385  -0.444  -2.757  0.00  0.00    -0.166 F 
ATOM     18  F   UNL d   1      12.966   1.049  -2.796  0.00  0.00    -0.166 F 
ATOM     19  F   UNL d   1      13.009  -0.545  -1.317  0.00  0.00    -0.166 F 
ENDBRANCH  12  16
ENDBRANCH   8  10
ENDBRANCH   7   8
ENDBRANCH   2   7
BRANCH   1  20
ATOM     20  N   UNL d   1       2.131  -1.417  -0.662  0.00  0.00    -0.358 N 
ATOM     21  H   UNL d   1       2.143  -2.359  -0.271  0.00  0.00     0.166 HD
BRANCH  20  22
ATOM     22  C   UNL d   1       1.004  -0.681  -0.315  0.00  0.00     0.032 C 
ATOM     23  C   UNL d   1       0.616   0.515  -0.802  0.00  0.00     0.050 C 
ATOM     24  C   UNL d   1      -0.569   1.165  -0.176  0.00  0.00     0.121 C 
ATOM     25  S   UNL d   1      -1.292  -0.086   0.922  0.00  0.00    -0.158 SA
ATOM     26  C   UNL d   1       0.095  -1.240   0.753  0.00  0.00     0.132 C 
BRANCH  23  27
ATOM     27  C   UNL d   1       1.260   1.285  -1.888  0.00  0.00     0.291 C 
ATOM     28  O   UNL d   1       1.217   2.508  -1.934  0.00  0.00    -0.260 OA
BRANCH  27  29
ATOM     29  O   UNL d   1       1.779   0.467  -2.827  0.00  0.00    -0.323 OA
ATOM     30  C   UNL d   1       2.486   1.078  -3.907  0.00  0.00     0.213 C 
ENDBRANCH  27  29
ENDBRANCH  23  27
ENDBRANCH  20  22
ENDBRANCH   1  20
TORSDOF 8
