REMARK  3 active torsions:
REMARK  status: ('A' for Active; 'I' for Inactive)
REMARK    1  A    between atoms: S_8  and  C_3 
REMARK    2  A    between atoms: C_9  and  C_4 
REMARK    3  A    between atoms: C_10  and  S_8 
ROOT
ATOM      1  N   UNL d   1       1.443  -0.589  -0.134  0.00  0.00    -0.329 N 
ATOM      2  HN  UNL d   1       2.385  -0.966  -0.238  1.00  0.00     0.168 HD
ATOM      3  C   UNL d   1       0.338  -1.297  -0.073  0.00  0.00     0.135 A 
ATOM      4  C   UNL d   1       1.114   0.772  -0.030  0.00  0.00     0.123 A 
ATOM      5  N   UNL d   1      -0.180   1.101   0.105  0.00  0.00    -0.310 N 
ATOM      6  HN  UNL d   1      -0.558   2.044   0.187  1.00  0.00     0.176 HD
ATOM      7  S   UNL d   1      -1.052  -0.317   0.113  0.00  0.00     0.013 SA
ENDROOT
BRANCH   3   8
ATOM      8  S   UNL d   1       0.294  -3.041  -0.031  0.00  0.00    -0.064 SA
BRANCH   8   9
ATOM      9  C   UNL d   1       0.894  -3.428  -1.665  0.00  0.00     0.007 A 
ATOM     10  C   UNL d   1       2.198  -3.116  -2.064  0.00  0.00     0.019 A 
ATOM     11  C   UNL d   1       2.678  -3.532  -3.309  0.00  0.00     0.001 A 
ATOM     12  C   UNL d   1       1.862  -4.273  -4.162  0.00  0.00     0.000 A 
ATOM     13  C   UNL d   1       0.561  -4.590  -3.775  0.00  0.00     0.001 A 
ATOM     14  C   UNL d   1       0.080  -4.170  -2.532  0.00  0.00     0.019 A 
ENDBRANCH   8   9
ENDBRANCH   3   8
BRANCH   4  15
ATOM     15  C   UNL d   1       2.168   1.794  -0.069  0.00  0.00     0.009 A 
ATOM     16  C   UNL d   1       3.512   1.428  -0.233  0.00  0.00     0.015 A 
ATOM     17  C   UNL d   1       4.516   2.401  -0.291  0.00  0.00     0.001 A 
ATOM     18  C   UNL d   1       4.189   3.751  -0.182  0.00  0.00     0.000 A 
ATOM     19  C   UNL d   1       2.860   4.131  -0.008  0.00  0.00     0.001 A 
ATOM     20  C   UNL d   1       1.857   3.160   0.049  0.00  0.00     0.015 A 
ENDBRANCH   4  15
TORSDOF 3
