REMARK  3 active torsions:
REMARK  status: ('A' for Active; 'I' for Inactive)
REMARK       I    between atoms: C_6  and  N_1 
REMARK    1  A    between atoms: C_8  and  C_4 
REMARK    2  A    between atoms: C_10  and  C_6 
REMARK    3  A    between atoms: C_9  and  C_8 
ROOT
ATOM      1  N   UNL d   1      -0.285  -1.088  -0.003  0.00  0.00    -0.224 N 
ATOM      2  N   UNL d   1       1.026  -0.747  -0.023  0.00  0.00    -0.295 N 
ATOM      3  HN  UNL d   1       1.827  -1.377  -0.070  1.00  0.00     0.187 HD
ATOM      4  C   UNL d   1      -0.256   1.149  -0.017  0.00  0.00    -0.006 A 
ATOM      5  C   UNL d   1      -1.096   0.039   0.052  0.00  0.00     0.042 A 
ATOM      6  C   UNL d   1      -0.632  -2.462  -0.007  0.00  0.00     0.276 C 
ATOM      7  C   UNL d   1       1.050   0.585   0.029  0.00  0.00     0.031 A 
ATOM      8  O   UNL d   1      -1.777  -2.778   0.317  0.00  0.00    -0.265 OA
ATOM      9  C   UNL d   1      -2.578  -0.058   0.120  0.00  0.00     0.071 C 
ATOM     10  C   UNL d   1       2.372   1.255   0.128  0.00  0.00     0.070 C 
ENDROOT
BRANCH   6  11
ATOM     11  C   UNL d   1       0.299  -3.555  -0.412  0.00  0.00     0.034 A 
ATOM     12  C   UNL d   1       0.188  -4.810   0.200  0.00  0.00     0.019 A 
ATOM     13  C   UNL d   1       0.985  -5.875  -0.235  0.00  0.00     0.025 A 
ATOM     14  C   UNL d   1       1.880  -5.687  -1.287  0.00  0.00     0.034 A 
ATOM     15  C   UNL d   1       1.995  -4.441  -1.903  0.00  0.00     0.025 A 
ATOM     16 CL   UNL d   1       2.834  -7.005  -1.848  0.00  0.00    -0.084 Cl
ATOM     17  C   UNL d   1       1.202  -3.376  -1.469  0.00  0.00     0.019 A 
ENDBRANCH   6  11
BRANCH   4  18
ATOM     18  C   UNL d   1      -0.639   2.604  -0.030  0.00  0.00     0.086 C 
BRANCH  18  19
ATOM     19  C   UNL d   1      -0.763   3.029  -1.477  0.00  0.00     0.006 A 
ATOM     20  C   UNL d   1      -1.972   2.816  -2.159  0.00  0.00     0.124 A 
ATOM     21  F   UNL d   1      -3.032   2.319  -1.509  0.00  0.00    -0.205 F 
ATOM     22  C   UNL d   1      -2.143   3.145  -3.504  0.00  0.00     0.043 A 
ATOM     23  C   UNL d   1      -1.094   3.713  -4.213  0.00  0.00     0.005 A 
ATOM     24  C   UNL d   1       0.103   3.983  -3.556  0.00  0.00     0.024 A 
ATOM     25  C   UNL d   1       0.261   3.664  -2.197  0.00  0.00     0.043 A 
ATOM     26 CL   UNL d   1       1.735   4.179  -1.459  0.00  0.00    -0.084 Cl
ENDBRANCH  18  19
ENDBRANCH   4  18
TORSDOF 3
