REMARK  5 active torsions:
REMARK  status: ('A' for Active; 'I' for Inactive)
REMARK    1  A    between atoms: N_3  and  C_1 
REMARK    2  A    between atoms: N_5  and  C_1 
REMARK       I    between atoms: C_2  and  N_4 
REMARK    3  A    between atoms: O_6  and  C_2 
REMARK    4  A    between atoms: C_14  and  N_5 
REMARK    5  A    between atoms: C_13  and  O_6 
ROOT
ATOM      1  C   UNL d   1      -2.506   2.556  -3.293  0.00  0.00     0.363 C 
ATOM      2  N   UNL d   1       0.387   0.985  -0.752  0.00  0.00    -0.356 N 
ATOM      3  N   UNL d   1      -2.012   1.571  -2.455  0.00  0.00    -0.326 N 
ATOM      4  O   UNL d   1      -2.457   2.491  -4.514  0.00  0.00    -0.238 OA
ATOM      5  C   UNL d   1      -0.660   1.951  -0.366  0.00  0.00     0.145 C 
ATOM      6  C   UNL d   1      -2.032   1.658  -0.992  0.00  0.00     0.148 C 
ATOM      7  C   UNL d   1       0.027   0.278  -3.168  0.00  0.00     0.040 C 
ATOM      8  C   UNL d   1      -1.488   0.338  -3.023  0.00  0.00     0.129 C 
ATOM      9  C   UNL d   1       0.847   1.041  -2.140  0.00  0.00     0.127 C 
ENDROOT
BRANCH   2  10
ATOM     10  C   UNL d   1       0.912   0.091   0.163  0.00  0.00     0.174 C 
ATOM     11  S   UNL d   1       1.081  -1.550  -0.117  0.00  0.00    -0.041 SA
BRANCH  10  12
ATOM     12  N   UNL d   1       1.236   0.572   1.407  0.00  0.00    -0.332 N 
ATOM     13  H   UNL d   1       1.302  -0.133   2.131  0.00  0.00     0.168 HD
BRANCH  12  14
ATOM     14  C   UNL d   1       1.850   1.813   1.705  0.00  0.00     0.049 A 
ATOM     15  C   UNL d   1       2.420   2.654   0.750  0.00  0.00     0.117 A 
ATOM     16  N   UNL d   1       3.017   3.839   1.027  0.00  0.00    -0.373 N 
ATOM     17  C   UNL d   1       3.065   4.199   2.324  0.00  0.00     0.088 A 
ATOM     18  HN  UNL d   1       3.408   4.427   0.292  1.00  0.00     0.164 HD
ATOM     19  C   UNL d   1       2.558   3.423   3.354  0.00  0.00     0.019 A 
ATOM     20  C   UNL d   1       1.953   2.208   3.037  0.00  0.00     0.032 A 
ENDBRANCH  12  14
ENDBRANCH  10  12
ENDBRANCH   2  10
BRANCH   1  21
ATOM     21  O   UNL d   1      -3.098   3.570  -2.605  0.00  0.00    -0.294 OA
BRANCH  21  22
ATOM     22  C   UNL d   1      -3.918   4.556  -3.285  0.00  0.00     0.061 C 
ATOM     23  C   UNL d   1      -5.080   3.889  -4.033  0.00  0.00     0.046 C 
ATOM     24  C   UNL d   1      -4.503   5.418  -2.155  0.00  0.00     0.046 C 
ATOM     25  C   UNL d   1      -3.086   5.452  -4.206  0.00  0.00     0.046 C 
ENDBRANCH  21  22
ENDBRANCH   1  21
TORSDOF 5
