REMARK  3 active torsions:
REMARK  status: ('A' for Active; 'I' for Inactive)
REMARK    1  A    between atoms: N_9  and  C_1 
REMARK    2  A    between atoms: S_12  and  C_5 
REMARK    3  A    between atoms: C_13  and  N_9 
ROOT
ATOM      1  C   UNL d   1      -0.780   1.100  -0.132  0.00  0.00     0.131 A 
ATOM      2  C   UNL d   1      -1.469  -0.104  -0.192  0.00  0.00     0.122 A 
ATOM      3  N   UNL d   1       0.564   1.130  -0.034  0.00  0.00    -0.331 N 
ATOM      4  HN  UNL d   1       1.063   2.019  -0.003  1.00  0.00     0.168 HD
ATOM      5  C   UNL d   1      -0.700  -1.256  -0.119  0.00  0.00     0.095 A 
ATOM      6  N   UNL d   1       0.645  -1.228  -0.007  0.00  0.00    -0.339 N 
ATOM      7  HN  UNL d   1       1.191  -2.088   0.052  1.00  0.00     0.167 HD
ATOM      8  C   UNL d   1       1.230  -0.027   0.023  0.00  0.00     0.079 A 
ATOM      9  C   UNL d   1      -2.886  -0.133  -0.342  0.00  0.00     0.106 C 
ATOM     10  N   UNL d   1      -4.044  -0.120  -0.443  0.00  0.00    -0.191 NA
ATOM     11  C   UNL d   1       2.722   0.042   0.101  0.00  0.00     0.089 C 
ENDROOT
BRANCH   1  12
ATOM     12  N   UNL d   1      -1.470   2.338  -0.200  0.00  0.00    -0.341 N 
ATOM     13  H   UNL d   1      -2.209   2.393   0.494  0.00  0.00     0.167 HD
BRANCH  12  14
ATOM     14  C   UNL d   1      -0.857   3.592  -0.427  0.00  0.00     0.033 A 
ATOM     15  C   UNL d   1       0.088   3.760  -1.450  0.00  0.00     0.029 A 
ATOM     16  C   UNL d   1       0.725   4.986  -1.646  0.00  0.00     0.002 A 
ATOM     17  C   UNL d   1       0.425   6.063  -0.819  0.00  0.00     0.000 A 
ATOM     18  C   UNL d   1      -0.521   5.917   0.195  0.00  0.00     0.002 A 
ATOM     19  C   UNL d   1      -1.165   4.690   0.384  0.00  0.00     0.029 A 
ENDBRANCH  12  14
ENDBRANCH   1  12
BRANCH   5  20
ATOM     20  S   UNL d   1      -1.439  -2.892  -0.187  0.00  0.00    -0.115 SA
ATOM     21  C   UNL d   1       0.017  -3.939   0.092  0.00  0.00     0.097 C 
ENDBRANCH   5  20
TORSDOF 3
