REMARK  8 active torsions:
REMARK  status: ('A' for Active; 'I' for Inactive)
REMARK       I    between atoms: N_2  and  C_1 
REMARK    1  A    between atoms: C_3  and  C_1 
REMARK    2  A    between atoms: C_6  and  N_2 
REMARK       I    between atoms: N_9  and  C_3 
REMARK    3  A    between atoms: O_4  and  C_8 
REMARK    4  A    between atoms: C_5  and  O_4 
REMARK    5  A    between atoms: C_16  and  N_9 
REMARK    6  A    between atoms: C_15  and  C_16 
REMARK    7  A    between atoms: O_20  and  C_15 
REMARK    8  A    between atoms: O_21  and  C_15 
ROOT
ATOM      1  C   UNL d   1       1.006  -1.984   1.379  0.00  0.00     0.069 A 
ATOM      2  C   UNL d   1       2.086  -1.718   2.240  0.00  0.00     0.102 A 
ATOM      3  C   UNL d   1       0.291  -3.187   1.542  0.00  0.00     0.032 A 
ATOM      4  C   UNL d   1       2.365  -2.634   3.281  0.00  0.00     0.039 A 
ATOM      5  C   UNL d   1       0.659  -4.131   2.503  0.00  0.00     0.002 A 
ATOM      6  C   UNL d   1       1.688  -3.847   3.385  0.00  0.00     0.003 A 
ENDROOT
BRANCH   1   7
ATOM      7  N   UNL d   1       0.514  -1.125   0.374  0.00  0.00    -0.317 N 
ATOM      8  C   UNL d   1       1.229  -0.356  -0.517  0.00  0.00     0.314 C 
ATOM      9  O   UNL d   1       2.437  -0.282  -0.658  0.00  0.00    -0.262 OA
ATOM     10  H   UNL d   1      -0.466  -1.247   0.103  0.00  0.00     0.169 HD
BRANCH   8  11
ATOM     11  C   UNL d   1       0.289   0.344  -1.547  0.00  0.00     0.309 C 
ATOM     12  N   UNL d   1       0.947   0.913  -2.613  0.00  0.00    -0.348 N 
ATOM     13  H   UNL d   1       1.958   0.811  -2.628  0.00  0.00     0.163 HD
ATOM     14  O   UNL d   1      -0.926   0.306  -1.405  0.00  0.00    -0.262 OA
BRANCH  12  15
ATOM     15  C   UNL d   1       0.274   1.495  -3.768  0.00  0.00     0.183 C 
BRANCH  15  16
ATOM     16  C   UNL d   1      -0.500   2.821  -3.531  0.00  0.00     0.275 C 
BRANCH  16  17
ATOM     17  O   UNL d   1       0.378   3.733  -2.855  0.00  0.00    -0.364 OA
ATOM     18  C   UNL d   1      -0.205   5.018  -2.678  0.00  0.00     0.204 C 
ENDBRANCH  16  17
BRANCH  16  19
ATOM     19  O   UNL d   1      -0.919   3.404  -4.775  0.00  0.00    -0.364 OA
ATOM     20  C   UNL d   1      -1.846   2.619  -5.509  0.00  0.00     0.204 C 
ENDBRANCH  16  19
ENDBRANCH  15  16
ENDBRANCH  12  15
ENDBRANCH   8  11
ENDBRANCH   1   7
BRANCH   2  21
ATOM     21  O   UNL d   1       2.806  -0.539   2.100  0.00  0.00    -0.307 OA
BRANCH  21  22
ATOM     22  C   UNL d   1       4.045  -0.479   2.712  0.00  0.00     0.098 A 
ATOM     23  C   UNL d   1       5.099  -1.358   2.414  0.00  0.00     0.069 A 
ATOM     24  C   UNL d   1       6.234  -1.385   3.229  0.00  0.00     0.050 A 
ATOM     25 CL   UNL d   1       5.040  -2.468   1.091  0.00  0.00    -0.081 Cl
ATOM     26  C   UNL d   1       6.348  -0.482   4.284  0.00  0.00     0.035 A 
ATOM     27  C   UNL d   1       5.357   0.472   4.513  0.00  0.00     0.026 A 
ATOM     28 CL   UNL d   1       7.718  -0.559   5.323  0.00  0.00    -0.084 Cl
ATOM     29  C   UNL d   1       4.202   0.475   3.726  0.00  0.00     0.041 A 
ENDBRANCH  21  22
ENDBRANCH   2  21
TORSDOF 8
