REMARK  2 active torsions:
REMARK  status: ('A' for Active; 'I' for Inactive)
REMARK    1  A    between atoms: C_8  and  C_3 
REMARK    2  A    between atoms: C_15  and  C_4 
ROOT
ATOM      1  N   UNL d   1       1.472   1.206   0.011  0.00  0.00    -0.339 N 
ATOM      2  HN  UNL d   1       1.964   2.100   0.024  1.00  0.00     0.167 HD
ATOM      3  C   UNL d   1       0.114   1.152   0.026  0.00  0.00     0.073 A 
ATOM      4  C   UNL d   1       2.146   0.042  -0.023  0.00  0.00     0.116 A 
ATOM      5  C   UNL d   1      -0.571  -0.048   0.005  0.00  0.00     0.088 A 
ATOM      6  N   UNL d   1       1.555  -1.166  -0.053  0.00  0.00    -0.350 N 
ATOM      7  HN  UNL d   1       2.100  -2.027  -0.086  1.00  0.00     0.166 HD
ATOM      8  C   UNL d   1      -1.986  -0.179   0.033  0.00  0.00     0.103 C 
ATOM      9  N   UNL d   1      -3.139  -0.308   0.033  0.00  0.00    -0.191 NA
ATOM     10  C   UNL d   1       0.209  -1.182  -0.036  0.00  0.00     0.114 A 
ENDROOT
BRANCH   3  11
ATOM     11  C   UNL d   1      -0.546   2.475   0.035  0.00  0.00     0.033 A 
ATOM     12  S   UNL d   1       0.174   3.792   0.886  0.00  0.00    -0.100 SA
ATOM     13  C   UNL d   1      -1.081   4.866   0.452  0.00  0.00     0.050 A 
ATOM     14  C   UNL d   1      -2.043   4.251  -0.312  0.00  0.00     0.008 A 
ATOM     15  C   UNL d   1      -1.731   2.882  -0.559  0.00  0.00     0.021 A 
ENDBRANCH   3  11
BRANCH   4  16
ATOM     16  C   UNL d   1       3.619   0.080  -0.021  0.00  0.00     0.011 A 
ATOM     17  C   UNL d   1       4.330   1.288   0.021  0.00  0.00     0.032 A 
ATOM     18  C   UNL d   1       5.716   1.260   0.030  0.00  0.00     0.088 A 
ATOM     19  N   UNL d   1       6.446   0.127  -0.002  0.00  0.00    -0.375 N 
ATOM     20  C   UNL d   1       5.758  -1.031  -0.045  0.00  0.00     0.088 A 
ATOM     21  HN  UNL d   1       7.466   0.145   0.006  1.00  0.00     0.164 HD
ATOM     22  C   UNL d   1       4.375  -1.103  -0.055  0.00  0.00     0.032 A 
ENDBRANCH   4  16
TORSDOF 2
