REMARK  1 active torsions:
REMARK  status: ('A' for Active; 'I' for Inactive)
REMARK    1  A    between atoms: C_7  and  C_1 
ROOT
ATOM      1  C   UNL d   1       2.327  -0.643  -0.272  0.00  0.00     0.019 C 
ATOM      2  S   UNL d   1       1.074  -1.787   0.013  0.00  0.00    -0.089 SA
ATOM      3  C   UNL d   1       2.188   0.686  -0.280  0.00  0.00     0.075 C 
ATOM      4  C   UNL d   1       0.910   1.395  -0.077  0.00  0.00     0.184 C 
ATOM      5  C   UNL d   1      -0.356   0.631  -0.047  0.00  0.00     0.031 A 
ATOM      6  C   UNL d   1      -0.377  -0.766  -0.032  0.00  0.00     0.019 A 
ATOM      7  O   UNL d   1       0.915   2.618   0.028  0.00  0.00    -0.287 OA
ATOM      8  C   UNL d   1      -1.563   1.352  -0.057  0.00  0.00     0.017 A 
ATOM      9  C   UNL d   1      -1.617  -1.425  -0.037  0.00  0.00     0.020 A 
ATOM     10  C   UNL d   1      -2.787   0.684  -0.068  0.00  0.00     0.001 A 
ATOM     11  C   UNL d   1      -2.813  -0.707  -0.061  0.00  0.00     0.001 A 
ENDROOT
BRANCH   1  12
ATOM     12  C   UNL d   1       3.655  -1.233  -0.499  0.00  0.00    -0.019 A 
ATOM     13  C   UNL d   1       4.528  -1.452   0.575  0.00  0.00     0.013 A 
ATOM     14  C   UNL d   1       5.777  -2.037   0.358  0.00  0.00     0.001 A 
ATOM     15  C   UNL d   1       6.164  -2.401  -0.931  0.00  0.00     0.000 A 
ATOM     16  C   UNL d   1       5.307  -2.174  -2.007  0.00  0.00     0.001 A 
ATOM     17  C   UNL d   1       4.058  -1.589  -1.794  0.00  0.00     0.013 A 
ENDBRANCH   1  12
TORSDOF 1
