REMARK  3 active torsions:
REMARK  status: ('A' for Active; 'I' for Inactive)
REMARK    1  A    between atoms: N_6  and  C_1 
REMARK       I    between atoms: C_7  and  N_6 
REMARK       I    between atoms: N_9  and  C_7 
REMARK    2  A    between atoms: C_10  and  N_9 
REMARK    3  A    between atoms: O_22  and  C_13 
ROOT
ATOM      1  N   UNL d   1      -1.077   2.926  -0.208  0.00  0.00    -0.293 N 
ATOM      2  C   UNL d   1      -2.148   3.732  -0.389  0.00  0.00     0.326 C 
ATOM      3  N   UNL d   1      -3.119   3.323  -1.258  0.00  0.00    -0.306 N 
ATOM      4  O   UNL d   1      -2.146   4.793   0.241  0.00  0.00    -0.247 OA
ATOM      5  H   UNL d   1      -0.361   3.355   0.363  0.00  0.00     0.172 HD
ATOM      6  H   UNL d   1      -3.139   2.318  -1.407  0.00  0.00     0.171 HD
ENDROOT
BRANCH   1   7
ATOM      7  C   UNL d   1      -0.863   1.610  -0.526  0.00  0.00     0.139 C 
ATOM      8  N   UNL d   1      -1.800   0.755  -0.952  0.00  0.00    -0.282 N 
ATOM      9  N   UNL d   1      -1.177  -0.446  -0.892  0.00  0.00    -0.294 N 
ATOM     10  HN  UNL d   1      -2.755   0.959  -1.249  1.00  0.00     0.189 HD
ATOM     11  C   UNL d   1      -1.926  -1.660  -1.119  0.00  0.00     0.178 C 
ATOM     12  C   UNL d   1       0.149  -0.379  -0.539  0.00  0.00     0.067 A 
ATOM     13  C   UNL d   1       0.403   0.976  -0.350  0.00  0.00     0.071 A 
ATOM     14  C   UNL d   1       1.127  -1.366  -0.334  0.00  0.00     0.032 A 
ATOM     15  C   UNL d   1       1.711   1.383  -0.005  0.00  0.00     0.084 A 
ATOM     16  C   UNL d   1       2.699   0.412   0.204  0.00  0.00     0.038 A 
ATOM     17  C   UNL d   1       2.406  -0.942   0.045  0.00  0.00     0.005 A 
BRANCH  15  18
ATOM     18  O   UNL d   1       2.057   2.695   0.255  0.00  0.00    -0.355 OA
ATOM     19  C   UNL d   1       2.055   3.501  -0.927  0.00  0.00     0.210 C 
ENDBRANCH  15  18
ENDBRANCH   1   7
BRANCH   3  20
ATOM     20  C   UNL d   1      -4.240   4.106  -1.625  0.00  0.00     0.075 A 
ATOM     21  C   UNL d   1      -4.251   5.516  -1.624  0.00  0.00     0.146 A 
ATOM     22  C   UNL d   1      -5.417   6.236  -1.873  0.00  0.00     0.086 A 
ATOM     23  F   UNL d   1      -3.125   6.226  -1.468  0.00  0.00    -0.204 F 
ATOM     24  C   UNL d   1      -6.580   5.549  -2.168  0.00  0.00     0.119 A 
ATOM     25  C   UNL d   1      -6.584   4.160  -2.259  0.00  0.00     0.044 A 
ATOM     26  F   UNL d   1      -7.711   6.229  -2.390  0.00  0.00    -0.206 F 
ATOM     27  C   UNL d   1      -5.412   3.438  -2.000  0.00  0.00     0.036 A 
ENDBRANCH   3  20
TORSDOF 3
