REMARK  7 active torsions:
REMARK  status: ('A' for Active; 'I' for Inactive)
REMARK    1  A    between atoms: N_3  and  C_1 
REMARK    2  A    between atoms: N_4  and  C_1 
REMARK       I    between atoms: C_2  and  N_6 
REMARK    3  A    between atoms: C_8  and  C_2 
REMARK    4  A    between atoms: N_6  and  N_3 
REMARK    5  A    between atoms: C_10  and  N_4 
REMARK    6  A    between atoms: C_9  and  C_8 
REMARK    7  A    between atoms: O_16  and  C_11 
ROOT
ATOM      1  C   UNL d   1       0.254   0.233   3.693  0.00  0.00     0.240 C 
ATOM      2  N   UNL d   1       1.045   0.036   2.573  0.00  0.00    -0.268 N 
ATOM      3  O   UNL d   1      -0.976   0.244   3.627  0.00  0.00    -0.272 OA
ATOM      4  H   UNL d   1       2.033   0.279   2.553  0.00  0.00     0.190 HD
ENDROOT
BRANCH   2   5
ATOM      5  N   UNL d   1       0.377   0.017   1.335  0.00  0.00    -0.274 N 
ATOM      6  H   UNL d   1      -0.624  -0.175   1.396  0.00  0.00     0.189 HD
BRANCH   5   7
ATOM      7  C   UNL d   1       0.892   0.644   0.233  0.00  0.00     0.191 C 
ATOM      8  S   UNL d   1       2.533   0.805  -0.061  0.00  0.00    -0.039 SA
BRANCH   7   9
ATOM      9  N   UNL d   1       0.006   1.087  -0.713  0.00  0.00    -0.332 N 
ATOM     10  H   UNL d   1       0.430   1.256  -1.619  0.00  0.00     0.168 HD
BRANCH   9  11
ATOM     11  C   UNL d   1      -1.325   1.545  -0.570  0.00  0.00     0.034 A 
ATOM     12  C   UNL d   1      -1.926   1.824   0.660  0.00  0.00     0.029 A 
ATOM     13  C   UNL d   1      -3.237   2.300   0.727  0.00  0.00     0.002 A 
ATOM     14  C   UNL d   1      -3.951   2.542  -0.441  0.00  0.00     0.000 A 
ATOM     15  C   UNL d   1      -3.351   2.311  -1.676  0.00  0.00     0.002 A 
ATOM     16  C   UNL d   1      -2.043   1.816  -1.740  0.00  0.00     0.029 A 
ENDBRANCH   9  11
ENDBRANCH   7   9
ENDBRANCH   5   7
ENDBRANCH   2   5
BRANCH   1  17
ATOM     17  C   UNL d   1       1.030   0.464   4.980  0.00  0.00     0.143 C 
BRANCH  17  18
ATOM     18  C   UNL d   1       0.340  -0.121   6.189  0.00  0.00    -0.049 A 
ATOM     19  C   UNL d   1       0.521  -1.469   6.524  0.00  0.00     0.010 A 
ATOM     20  C   UNL d   1      -0.157  -2.030   7.612  0.00  0.00     0.037 A 
ATOM     21  C   UNL d   1      -1.029  -1.253   8.372  0.00  0.00     0.068 A 
ATOM     22  C   UNL d   1      -1.200   0.095   8.054  0.00  0.00     0.037 A 
ATOM     23  C   UNL d   1      -0.531   0.656   6.963  0.00  0.00     0.010 A 
BRANCH  21  24
ATOM     24  O   UNL d   1      -1.738  -1.691   9.458  0.00  0.00    -0.356 OA
ATOM     25  C   UNL d   1      -2.048  -3.080   9.469  0.00  0.00     0.210 C 
ENDBRANCH  21  24
ENDBRANCH  17  18
ENDBRANCH   1  17
TORSDOF 7
