REMARK  5 active torsions:
REMARK  status: ('A' for Active; 'I' for Inactive)
REMARK    1  A    between atoms: C_6  and  C_1 
REMARK    2  A    between atoms: O_9  and  C_7 
REMARK    3  A    between atoms: C_8  and  C_14 
REMARK    4  A    between atoms: O_16  and  C_8 
REMARK    5  A    between atoms: C_14  and  O_9 
ROOT
ATOM      1  C   UNL d   1       0.185  -1.230   0.010  0.00  0.00     0.138 A 
ATOM      2  N   UNL d   1      -0.594  -0.101  -0.013  0.00  0.00    -0.290 N 
ATOM      3  C   UNL d   1       1.496  -0.777  -0.002  0.00  0.00     0.093 A 
ATOM      4  N   UNL d   1       0.136   1.038  -0.011  0.00  0.00    -0.278 N 
ATOM      5  HN  UNL d   1      -0.203   2.000   0.012  1.00  0.00     0.189 HD
ATOM      6  C   UNL d   1       1.394   0.619  -0.045  0.00  0.00     0.159 A 
ATOM      7  C   UNL d   1      -2.029   0.059  -0.060  0.00  0.00     0.178 C 
ENDROOT
BRANCH   6   8
ATOM      8  O   UNL d   1       2.326   1.592  -0.079  0.00  0.00    -0.324 OA
BRANCH   8   9
ATOM      9  C   UNL d   1       3.541   1.197  -0.701  0.00  0.00     0.287 C 
BRANCH   9  10
ATOM     10  C   UNL d   1       4.530   0.629   0.301  0.00  0.00     0.165 C 
ATOM     11  O   UNL d   1       5.397  -0.183   0.020  0.00  0.00    -0.648 OA
BRANCH  10  12
ATOM     12  O   UNL d   1       4.378   1.139   1.548  0.00  0.00    -0.775 OA
ATOM     13  H   UNL d   1       3.616   1.756   1.592  0.00  0.00     0.167 HD
ENDBRANCH  10  12
ENDBRANCH   9  10
ENDBRANCH   8   9
ENDBRANCH   6   8
BRANCH   1  14
ATOM     14  C   UNL d   1      -0.303  -2.625   0.035  0.00  0.00     0.434 C 
ATOM     15  F   UNL d   1      -1.649  -2.752   0.043  0.00  0.00    -0.165 F 
ATOM     16  F   UNL d   1       0.143  -3.312  -1.048  0.00  0.00    -0.165 F 
ATOM     17  F   UNL d   1       0.154  -3.283   1.129  0.00  0.00    -0.165 F 
ENDBRANCH   1  14
TORSDOF 5
