REMARK  5 active torsions:
REMARK  status: ('A' for Active; 'I' for Inactive)
REMARK    1  A    between atoms: C_7  and  C_1 
REMARK    2  A    between atoms: S_16  and  C_10 
REMARK    3  A    between atoms: C_15  and  C_18 
REMARK    4  A    between atoms: C_17  and  C_15 
REMARK    5  A    between atoms: C_18  and  S_16 
ROOT
ATOM      1  C   UNL d   1       2.078  -2.547   0.000  0.00  0.00     0.065 A 
ATOM      2  N   UNL d   1       2.599  -3.099   1.115  0.00  0.00    -0.335 N 
ATOM      3  HN  UNL d   1       2.635  -2.589   1.997  1.00  0.00     0.168 HD
ATOM      4  C   UNL d   1       3.071  -4.354   1.006  0.00  0.00     0.145 A 
ATOM      5  N   UNL d   1       3.070  -5.073  -0.129  0.00  0.00    -0.347 N 
ATOM      6  HN  UNL d   1       3.455  -6.016  -0.166  1.00  0.00     0.167 HD
ATOM      7  C   UNL d   1       2.010  -3.224  -1.199  0.00  0.00     0.049 A 
ATOM      8  C   UNL d   1       2.537  -4.488  -1.208  0.00  0.00     0.092 A 
ENDROOT
BRANCH   1   9
ATOM      9  C   UNL d   1       1.562  -1.184   0.133  0.00  0.00     0.089 A 
ATOM     10  N   UNL d   1       2.161  -0.160   0.868  0.00  0.00    -0.304 N 
ATOM     11  C   UNL d   1       1.354   0.966   0.725  0.00  0.00     0.112 A 
ATOM     12  C   UNL d   1       3.334  -0.137   1.622  0.00  0.00     0.099 A 
ATOM     13  C   UNL d   1       1.743   2.152   1.406  0.00  0.00     0.049 A 
ATOM     14  N   UNL d   1       0.324   0.735  -0.059  0.00  0.00    -0.344 N 
ATOM     15  C   UNL d   1       2.868   2.165   2.147  0.00  0.00     0.005 A 
ATOM     16  C   UNL d   1       3.709   0.985   2.257  0.00  0.00     0.018 A 
ATOM     17  C   UNL d   1       0.430  -0.585  -0.422  0.00  0.00     0.036 A 
ATOM     18  HN  UNL d   1      -0.400   1.396  -0.339  1.00  0.00     0.167 HD
ATOM     19  C   UNL d   1      -0.625  -1.175  -1.284  0.00  0.00     0.070 C 
ENDBRANCH   1   9
BRANCH   4  20
ATOM     20  S   UNL d   1       3.654  -5.147   2.489  0.00  0.00    -0.086 SA
BRANCH  20  21
ATOM     21  C   UNL d   1       4.264  -6.709   1.778  0.00  0.00     0.166 C 
BRANCH  21  22
ATOM     22  C   UNL d   1       4.711  -7.652   2.873  0.00  0.00     0.169 C 
ATOM     23  O   UNL d   1       5.882  -7.674   3.255  0.00  0.00    -0.291 OA
BRANCH  22  24
ATOM     24  C   UNL d   1       3.725  -8.579   3.527  0.00  0.00     0.011 A 
ATOM     25  C   UNL d   1       2.377  -8.646   3.153  0.00  0.00     0.017 A 
ATOM     26  C   UNL d   1       1.482  -9.447   3.875  0.00  0.00     0.025 A 
ATOM     27  C   UNL d   1       1.932 -10.191   4.963  0.00  0.00     0.034 A 
ATOM     28  C   UNL d   1       3.280 -10.181   5.310  0.00  0.00     0.025 A 
ATOM     29 CL   UNL d   1       0.811 -11.101   5.898  0.00  0.00    -0.084 Cl
ATOM     30  C   UNL d   1       4.173  -9.380   4.591  0.00  0.00     0.017 A 
ENDBRANCH  22  24
ENDBRANCH  21  22
ENDBRANCH  20  21
ENDBRANCH   4  20
TORSDOF 5
