REMARK  3 active torsions:
REMARK  status: ('A' for Active; 'I' for Inactive)
REMARK    1  A    between atoms: N_8  and  C_1 
REMARK    2  A    between atoms: N_14  and  C_3 
REMARK    3  A    between atoms: C_11  and  N_8 
ROOT
ATOM      1  C   UNL d   1      -0.819   1.091  -0.171  0.00  0.00     0.132 A 
ATOM      2  C   UNL d   1      -1.524  -0.107  -0.260  0.00  0.00     0.132 A 
ATOM      3  C   UNL d   1      -0.810  -1.298  -0.149  0.00  0.00     0.128 A 
ATOM      4  N   UNL d   1       0.518   1.115  -0.039  0.00  0.00    -0.331 N 
ATOM      5  HN  UNL d   1       1.033   1.994   0.006  1.00  0.00     0.168 HD
ATOM      6  N   UNL d   1       0.532  -1.259  -0.004  0.00  0.00    -0.331 N 
ATOM      7  HN  UNL d   1       1.069  -2.122   0.077  1.00  0.00     0.168 HD
ATOM      8  C   UNL d   1       1.147  -0.066   0.030  0.00  0.00     0.080 A 
ATOM      9  C   UNL d   1      -2.913  -0.074  -0.579  0.00  0.00     0.107 C 
ATOM     10  N   UNL d   1      -4.053  -0.028  -0.809  0.00  0.00    -0.191 NA
ATOM     11  C   UNL d   1       2.641  -0.042   0.103  0.00  0.00     0.089 C 
ENDROOT
BRANCH   1  12
ATOM     12  N   UNL d   1      -1.509   2.322  -0.236  0.00  0.00    -0.340 N 
ATOM     13  H   UNL d   1      -2.196   2.419   0.510  0.00  0.00     0.167 HD
BRANCH  12  14
ATOM     14  C   UNL d   1      -1.014   3.571  -0.673  0.00  0.00     0.055 A 
ATOM     15  C   UNL d   1      -1.460   4.774  -0.093  0.00  0.00     0.062 A 
ATOM     16  C   UNL d   1      -1.062   6.013  -0.598  0.00  0.00     0.050 A 
ATOM     17 CL   UNL d   1      -2.516   4.747   1.278  0.00  0.00    -0.082 Cl
ATOM     18  C   UNL d   1      -0.215   6.059  -1.701  0.00  0.00     0.035 A 
ATOM     19  C   UNL d   1       0.262   4.884  -2.277  0.00  0.00     0.026 A 
ATOM     20 CL   UNL d   1       0.231   7.578  -2.374  0.00  0.00    -0.084 Cl
ATOM     21  C   UNL d   1      -0.130   3.648  -1.759  0.00  0.00     0.033 A 
ENDBRANCH  12  14
ENDBRANCH   1  12
BRANCH   3  22
ATOM     22  N   UNL d   1      -1.404  -2.555  -0.254  0.00  0.00    -0.375 N 
ATOM     23  C   UNL d   1      -0.537  -3.702  -0.507  0.00  0.00     0.150 C 
ATOM     24  C   UNL d   1      -2.629  -2.851   0.489  0.00  0.00     0.150 C 
ENDBRANCH   3  22
TORSDOF 3
