REMARK  5 active torsions:
REMARK  status: ('A' for Active; 'I' for Inactive)
REMARK    1  A    between atoms: N_15  and  C_1 
REMARK    2  A    between atoms: C_7  and  C_6 
REMARK    3  A    between atoms: C_11  and  C_7 
REMARK    4  A    between atoms: N_13  and  N_15 
REMARK    5  A    between atoms: C_20  and  C_19 
ROOT
ATOM      1  C   UNL d   1       1.091   2.888  -0.159  0.00  0.00     0.126 A 
ATOM      2  N   UNL d   1       1.080   1.530  -0.125  0.00  0.00    -0.342 N 
ATOM      3  HN  UNL d   1       1.947   0.995  -0.157  1.00  0.00     0.167 HD
ATOM      4  N   UNL d   1      -1.322   2.994  -0.040  0.00  0.00    -0.352 N 
ATOM      5  HN  UNL d   1      -2.194   3.524  -0.020  1.00  0.00     0.166 HD
ATOM      6  C   UNL d   1      -0.115   3.618  -0.100  0.00  0.00     0.073 A 
ATOM      7  C   UNL d   1      -0.115   0.916  -0.049  0.00  0.00     0.060 A 
ATOM      8  C   UNL d   1      -1.320   1.651  -0.009  0.00  0.00     0.059 A 
ATOM      9  C   UNL d   1      -2.529   0.972   0.075  0.00  0.00     0.032 A 
ATOM     10  C   UNL d   1      -0.173  -0.472   0.005  0.00  0.00     0.032 A 
ATOM     11  C   UNL d   1      -1.392  -1.147   0.095  0.00  0.00     0.002 A 
ATOM     12  C   UNL d   1      -2.575  -0.422   0.128  0.00  0.00     0.002 A 
ENDROOT
BRANCH   1  13
ATOM     13  N   UNL d   1       2.383   3.449  -0.164  0.00  0.00    -0.189 NA
ATOM     14  H   UNL d   1       3.030   2.688  -0.377  0.00  0.00     0.154 HD
BRANCH  13  15
ATOM     15  N   UNL d   1       2.610   4.641  -0.761  0.00  0.00    -0.326 N 
ATOM     16  C   UNL d   1       3.538   5.399  -0.249  0.00  0.00     0.113 C 
ATOM     17  HN  UNL d   1       2.077   4.934  -1.580  1.00  0.00     0.180 HD
BRANCH  16  18
ATOM     18  C   UNL d   1       4.380   5.198   0.955  0.00  0.00    -0.020 A 
ATOM     19  C   UNL d   1       5.608   5.868   0.990  0.00  0.00     0.014 A 
ATOM     20  C   UNL d   1       6.461   5.715   2.086  0.00  0.00     0.024 A 
ATOM     21  C   UNL d   1       6.082   4.899   3.152  0.00  0.00     0.034 A 
ATOM     22  C   UNL d   1       4.849   4.253   3.140  0.00  0.00     0.024 A 
ATOM     23 CL   UNL d   1       7.140   4.697   4.492  0.00  0.00    -0.084 Cl
ATOM     24  C   UNL d   1       3.992   4.413   2.048  0.00  0.00     0.014 A 
ENDBRANCH  16  18
ENDBRANCH  13  15
ENDBRANCH   1  13
BRANCH   6  25
ATOM     25  C   UNL d   1      -0.177   5.088  -0.062  0.00  0.00     0.034 C 
BRANCH  25  26
ATOM     26  C   UNL d   1      -1.203   5.800  -0.561  0.00  0.00     0.021 C 
ATOM     27  C   UNL d   1      -1.174   7.224  -0.640  0.00  0.00     0.004 A 
ATOM     28  S   UNL d   1      -2.554   8.053  -1.268  0.00  0.00    -0.102 SA
ATOM     29  C   UNL d   1      -0.177   8.138  -0.327  0.00  0.00     0.019 A 
ATOM     30  C   UNL d   1      -1.797   9.577  -1.154  0.00  0.00     0.050 A 
ATOM     31  C   UNL d   1      -0.530   9.486  -0.630  0.00  0.00     0.008 A 
ENDBRANCH  25  26
ENDBRANCH   6  25
TORSDOF 5
