REMARK  1 active torsions:
REMARK  status: ('A' for Active; 'I' for Inactive)
REMARK    1  A    between atoms: N_3  and  C_2 
ROOT
ATOM      1  C   UNL d   1       2.288   0.661  -0.663  0.00  0.00     0.091 A 
ATOM      2  C   UNL d   1       1.236   1.414  -0.077  0.00  0.00     0.052 A 
ATOM      3  C   UNL d   1       3.523   1.281  -1.065  0.00  0.00     0.103 C 
ATOM      4  N   UNL d   1       4.518   1.770  -1.407  0.00  0.00    -0.191 NA
ATOM      5  N   UNL d   1       4.003  -2.156  -2.006  0.00  0.00    -0.191 NA
ATOM      6  C   UNL d   1       3.202  -1.512  -1.468  0.00  0.00     0.101 C 
ATOM      7  C   UNL d   1       2.179  -0.742  -0.815  0.00  0.00     0.067 A 
ATOM      8  C   UNL d   1       0.128   0.675   0.393  0.00  0.00     0.031 A 
ATOM      9  C   UNL d   1       0.036  -0.714   0.277  0.00  0.00     0.004 A 
ATOM     10  C   UNL d   1       1.054  -1.422  -0.341  0.00  0.00     0.024 A 
ENDROOT
BRANCH   2  11
ATOM     11  N   UNL d   1       1.208   2.796   0.030  0.00  0.00    -0.376 N 
ATOM     12  C   UNL d   1       0.621   3.494   1.193  0.00  0.00     0.149 C 
ATOM     13  C   UNL d   1      -0.344   4.584   0.704  0.00  0.00     0.187 C 
ATOM     14  O   UNL d   1       0.328   5.519  -0.154  0.00  0.00    -0.388 OA
ATOM     15  C   UNL d   1       0.854   4.846  -1.309  0.00  0.00     0.187 C 
ATOM     16  C   UNL d   1       1.836   3.720  -0.936  0.00  0.00     0.149 C 
ENDBRANCH   2  11
TORSDOF 1
