REMARK  0 active torsions:
REMARK  status: ('A' for Active; 'I' for Inactive)
ROOT
ATOM      1  C   UNL d   1       0.283  -0.730   0.000  0.00  0.00     0.086 A 
ATOM      2  C   UNL d   1       0.267   0.728   0.001  0.00  0.00     0.085 A 
ATOM      3  C   UNL d   1      -0.893  -1.501   0.000  0.00  0.00     0.057 A 
ATOM      4  O   UNL d   1       2.321   0.024   0.001  0.00  0.00    -0.156 OA
ATOM      5  N   UNL d   1       1.559  -1.133  -0.000  0.00  0.00    -0.239 N 
ATOM      6  HN  UNL d   1       1.901  -2.095  -0.001  1.00  0.00     0.197 HD
ATOM      7  N   UNL d   1       1.532   1.162   0.002  0.00  0.00    -0.240 N 
ATOM      8  HN  UNL d   1       1.850   2.131   0.002  1.00  0.00     0.197 HD
ATOM      9  C   UNL d   1      -0.931   1.466   0.001  0.00  0.00     0.035 A 
ATOM     10  C   UNL d   1      -2.075  -0.741   0.001  0.00  0.00     0.036 A 
ATOM     11  C   UNL d   1      -2.100   0.680  -0.000  0.00  0.00     0.026 A 
ATOM     12 CL   UNL d   1      -3.585  -1.582   0.004  0.00  0.00    -0.084 Cl
ENDROOT
TORSDOF 0
