REMARK  3 active torsions:
REMARK  status: ('A' for Active; 'I' for Inactive)
REMARK    1  A    between atoms: O_11  and  C_5 
REMARK    2  A    between atoms: O_12  and  C_6 
REMARK    3  A    between atoms: O_13  and  C_10 
ROOT
ATOM      1  C   UNL d   1      -0.320  -0.932   0.007  0.00  0.00     0.046 A 
ATOM      2  C   UNL d   1       0.067   0.400   0.002  0.00  0.00     0.056 A 
ATOM      3  C   UNL d   1       1.513   0.490  -0.048  0.00  0.00     0.296 A 
ATOM      4  O   UNL d   1       1.987  -0.781  -0.107  0.00  0.00    -0.281 OA
ATOM      5  C   UNL d   1       0.923  -1.743  -0.013  0.00  0.00     0.307 A 
ATOM      6  C   UNL d   1      -1.671  -1.235   0.002  0.00  0.00     0.083 A 
ATOM      7  C   UNL d   1      -2.583  -0.158   0.007  0.00  0.00     0.074 A 
ATOM      8  C   UNL d   1      -0.811   1.473  -0.001  0.00  0.00     0.055 A 
ATOM      9  O   UNL d   1       2.173   1.511  -0.078  0.00  0.00    -0.259 OA
ATOM     10  C   UNL d   1      -2.167   1.186   0.003  0.00  0.00     0.071 A 
ENDROOT
BRANCH   5  11
ATOM     11  O   UNL d   1       1.036  -2.502   1.181  0.00  0.00    -0.361 OA
ATOM     12  C   UNL d   1       2.254  -3.231   1.235  0.00  0.00     0.205 C 
ENDBRANCH   5  11
BRANCH   6  13
ATOM     13  O   UNL d   1      -2.291  -2.448  -0.029  0.00  0.00    -0.355 OA
ATOM     14  C   UNL d   1      -1.515  -3.633  -0.067  0.00  0.00     0.210 C 
ENDBRANCH   6  13
BRANCH  10  15
ATOM     15  O   UNL d   1      -3.176   2.110  -0.010  0.00  0.00    -0.356 OA
ATOM     16  C   UNL d   1      -2.785   3.480  -0.019  0.00  0.00     0.210 C 
ENDBRANCH  10  15
TORSDOF 3
