REMARK  6 active torsions:
REMARK  status: ('A' for Active; 'I' for Inactive)
REMARK    1  A    between atoms: N_7  and  C_1 
REMARK    2  A    between atoms: C_8  and  C_2 
REMARK       I    between atoms: N_10  and  C_8 
REMARK       I    between atoms: C_9  and  N_13 
REMARK    3  A    between atoms: C_20  and  C_9 
REMARK    4  A    between atoms: N_13  and  N_10 
REMARK    5  A    between atoms: C_16  and  O_18 
REMARK    6  A    between atoms: O_18  and  C_20 
ROOT
ATOM      1  C   UNL d   1       1.733  -2.268  -0.163  0.00  0.00     0.290 C 
ATOM      2  N   UNL d   1       2.981  -2.287   0.420  0.00  0.00    -0.262 N 
ATOM      3  O   UNL d   1       1.117  -1.207  -0.265  0.00  0.00    -0.264 OA
ATOM      4  H   UNL d   1       3.593  -3.104   0.383  0.00  0.00     0.190 HD
ENDROOT
BRANCH   2   5
ATOM      5  N   UNL d   1       3.624  -1.083   0.764  0.00  0.00    -0.265 N 
ATOM      6  C   UNL d   1       4.826  -1.184   1.432  0.00  0.00     0.260 C 
ATOM      7  O   UNL d   1       5.269  -2.271   1.815  0.00  0.00    -0.269 OA
ATOM      8  H   UNL d   1       3.171  -0.206   0.512  0.00  0.00     0.190 HD
BRANCH   6   9
ATOM      9  C   UNL d   1       5.634   0.102   1.562  0.00  0.00     0.280 C 
BRANCH   9  10
ATOM     10  O   UNL d   1       5.072   1.035   2.474  0.00  0.00    -0.340 OA
BRANCH  10  11
ATOM     11  C   UNL d   1       5.844   2.133   2.783  0.00  0.00     0.091 A 
ATOM     12  C   UNL d   1       5.180   3.283   3.250  0.00  0.00     0.069 A 
ATOM     13  C   UNL d   1       5.891   4.432   3.608  0.00  0.00     0.050 A 
ATOM     14 CL   UNL d   1       3.456   3.326   3.384  0.00  0.00    -0.081 Cl
ATOM     15  C   UNL d   1       7.278   4.439   3.512  0.00  0.00     0.035 A 
ATOM     16  C   UNL d   1       7.957   3.308   3.069  0.00  0.00     0.026 A 
ATOM     17 CL   UNL d   1       8.166   5.846   3.948  0.00  0.00    -0.084 Cl
ATOM     18  C   UNL d   1       7.243   2.158   2.709  0.00  0.00     0.040 A 
ENDBRANCH  10  11
ENDBRANCH   9  10
ENDBRANCH   6   9
ENDBRANCH   2   5
BRANCH   1  19
ATOM     19  C   UNL d   1       1.181  -3.544  -0.590  0.00  0.00     0.155 A 
ATOM     20  C   UNL d   1       1.746  -4.733  -1.069  0.00  0.00     0.160 A 
ATOM     21  C   UNL d   1       0.658  -5.627  -1.272  0.00  0.00     0.057 A 
ATOM     22  N   UNL d   1      -0.505  -5.046  -0.975  0.00  0.00    -0.300 N 
ATOM     23  C   UNL d   1       0.656  -7.035  -1.753  0.00  0.00     0.072 C 
ATOM     24  N   UNL d   1      -0.179  -3.792  -0.615  0.00  0.00    -0.289 N 
ATOM     25  HN  UNL d   1      -1.436  -5.461  -1.012  1.00  0.00     0.187 HD
ATOM     26  C   UNL d   1      -1.262  -2.909  -0.233  0.00  0.00     0.178 C 
BRANCH  20  27
ATOM     27  N   UNL d   1       3.127  -5.026  -1.346  0.00  0.00    -0.111 N 
ATOM     28  O   UNL d   1       3.953  -4.133  -1.133  0.00  0.00    -0.532 OA
ATOM     29  O   UNL d   1       3.396  -6.153  -1.777  0.00  0.00    -0.532 OA
ENDBRANCH  20  27
ENDBRANCH   1  19
TORSDOF 6
