REMARK  2 active torsions:
REMARK  status: ('A' for Active; 'I' for Inactive)
REMARK    1  A    between atoms: C_4  and  C_1 
REMARK    2  A    between atoms: O_16  and  C_8 
ROOT
ATOM      1  C   UNL d   1       2.014  -2.407  -0.009  0.00  0.00     0.015 A 
ATOM      2  C   UNL d   1       2.801  -4.454  -1.072  0.00  0.00     0.096 A 
ATOM      3  N   UNL d   1       3.819  -3.694   0.969  0.00  0.00    -0.339 N 
ATOM      4  HN  UNL d   1       4.509  -3.824   1.708  1.00  0.00     0.168 HD
ATOM      5  C   UNL d   1       3.723  -4.581  -0.047  0.00  0.00     0.163 A 
ATOM      6  C   UNL d   1       1.943  -3.348  -1.049  0.00  0.00     0.042 A 
ATOM      7  C   UNL d   1       2.977  -2.625   0.987  0.00  0.00     0.020 A 
ATOM      8  C   UNL d   1       2.707  -5.410  -2.131  0.00  0.00     0.104 C 
ATOM      9  N   UNL d   1       2.577  -6.156  -3.011  0.00  0.00    -0.191 NA
ATOM     10  C   UNL d   1       3.159  -1.717   2.170  0.00  0.00     0.069 C 
ENDROOT
BRANCH   5  11
ATOM     11  O   UNL d   1       4.579  -5.663  -0.054  0.00  0.00    -0.340 OA
ATOM     12  C   UNL d   1       5.498  -5.652   1.038  0.00  0.00     0.211 C 
ENDBRANCH   5  11
BRANCH   1  13
ATOM     13  C   UNL d   1       1.119  -1.255   0.004  0.00  0.00     0.051 A 
ATOM     14  N   UNL d   1       1.532  -0.026   0.489  0.00  0.00    -0.353 N 
ATOM     15  C   UNL d   1       0.556   0.852   0.409  0.00  0.00     0.047 A 
ATOM     16  HN  UNL d   1       2.462   0.170   0.858  1.00  0.00     0.166 HD
ATOM     17  C   UNL d   1       0.660   2.264   0.865  0.00  0.00     0.076 C 
ATOM     18  S   UNL d   1      -0.907   0.266  -0.269  0.00  0.00    -0.087 SA
ATOM     19  C   UNL d   1      -0.186  -1.280  -0.453  0.00  0.00     0.081 A 
ENDBRANCH   1  13
TORSDOF 2
