REMARK  3 active torsions:
REMARK  status: ('A' for Active; 'I' for Inactive)
REMARK    1  A    between atoms: C_2  and  C_1 
REMARK    2  A    between atoms: C_3  and  C_2 
REMARK    3  A    between atoms: N_11  and  C_5 
ROOT
ATOM      1  C   UNL d   1      -1.113  -1.047   0.950  0.00  0.00     0.016 A 
ATOM      2  C   UNL d   1      -3.218  -1.437   2.078  0.00  0.00     0.073 A 
ATOM      3  C   UNL d   1      -1.833  -1.271   2.132  0.00  0.00     0.042 A 
ATOM      4  C   UNL d   1      -3.878  -1.394   0.851  0.00  0.00     0.138 A 
ATOM      5  C   UNL d   1      -1.782  -1.037  -0.284  0.00  0.00     0.018 A 
ATOM      6  C   UNL d   1      -3.167  -1.204  -0.330  0.00  0.00     0.045 A 
ATOM      7 CL   UNL d   1      -4.101  -1.685   3.536  0.00  0.00    -0.081 Cl
ATOM      8  F   UNL d   1      -5.210  -1.538   0.781  0.00  0.00    -0.204 F 
ENDROOT
BRANCH   1   9
ATOM      9  C   UNL d   1       0.359  -0.843   1.044  0.00  0.00     0.183 C 
ATOM     10  O   UNL d   1       0.999  -1.372   1.943  0.00  0.00    -0.288 OA
BRANCH   9  11
ATOM     11  C   UNL d   1       0.977   0.063   0.037  0.00  0.00     0.072 C 
ATOM     12  C   UNL d   1       2.303   0.098  -0.141  0.00  0.00     0.088 C 
BRANCH  12  13
ATOM     13  N   UNL d   1       3.048   0.867  -1.026  0.00  0.00    -0.398 N 
ATOM     14  C   UNL d   1       2.492   1.858  -1.945  0.00  0.00     0.148 C 
ATOM     15  C   UNL d   1       4.503   0.725  -1.122  0.00  0.00     0.148 C 
ENDBRANCH  12  13
ENDBRANCH   9  11
ENDBRANCH   1   9
TORSDOF 3
