REMARK  0 active torsions:
REMARK  status: ('A' for Active; 'I' for Inactive)
ROOT
ATOM      1  C   UNL d   1       0.230   1.976  -0.055  0.00  0.00    -0.019 C 
ATOM      2  C   UNL d   1       0.998   0.775   0.667  0.00  0.00    -0.019 C 
ATOM      3  C   UNL d   1       2.466   1.936  -0.907  0.00  0.00     0.128 C 
ATOM      4  C   UNL d   1       1.126   2.663   2.093  0.00  0.00     0.128 C 
ATOM      5  C   UNL d   1       2.462   0.815   0.081  0.00  0.00     0.089 C 
ATOM      6  C   UNL d   1       1.098   1.174   2.159  0.00  0.00     0.089 C 
ATOM      7  C   UNL d   1       1.089   2.326  -1.302  0.00  0.00     0.089 C 
ATOM      8  C   UNL d   1       0.306   3.174   0.951  0.00  0.00     0.089 C 
ATOM      9  O   UNL d   1       3.481   2.397  -1.413  0.00  0.00    -0.298 OA
ATOM     10  O   UNL d   1       1.662   3.381   2.927  0.00  0.00    -0.298 OA
ATOM     11  C   UNL d   1      -1.229   1.890  -0.584  0.00  0.00     0.011 C 
ATOM     12  C   UNL d   1       0.530  -0.699   0.507  0.00  0.00     0.011 C 
ATOM     13  C   UNL d   1      -2.242   1.009   0.131  0.00  0.00     0.001 C 
ATOM     14  C   UNL d   1      -0.676  -1.216   1.303  0.00  0.00     0.001 C 
ATOM     15  C   UNL d   1      -2.292  -0.388  -0.495  0.00  0.00     0.000 C 
ATOM     16  C   UNL d   1      -1.911  -1.506   0.459  0.00  0.00     0.000 C 
ENDROOT
TORSDOF 0
