REMARK  6 active torsions:
REMARK  status: ('A' for Active; 'I' for Inactive)
REMARK    1  A    between atoms: C_2  and  C_1 
REMARK    2  A    between atoms: S_14  and  C_7 
REMARK    3  A    between atoms: S_17  and  C_10 
REMARK    4  A    between atoms: C_19  and  S_14 
REMARK    5  A    between atoms: C_15  and  C_19 
REMARK       I    between atoms: N_16  and  C_15 
REMARK    6  A    between atoms: C_21  and  N_16 
ROOT
ATOM      1  C   UNL d   1       0.125   1.137  -0.073  0.00  0.00     0.152 A 
ATOM      2  N   UNL d   1       1.043   0.155   0.226  0.00  0.00    -0.314 N 
ATOM      3  N   UNL d   1      -1.077   0.590  -0.120  0.00  0.00    -0.281 N 
ATOM      4  HN  UNL d   1      -1.946   1.076  -0.342  1.00  0.00     0.188 HD
ATOM      5  C   UNL d   1       0.303  -0.979   0.435  0.00  0.00     0.163 A 
ATOM      6  N   UNL d   1      -0.958  -0.738   0.181  0.00  0.00    -0.278 N 
ATOM      7  HN  UNL d   1      -1.717  -1.419   0.204  1.00  0.00     0.189 HD
ATOM      8  C   UNL d   1       2.473   0.271   0.336  0.00  0.00     0.160 C 
ENDROOT
BRANCH   5   9
ATOM      9  S   UNL d   1       0.909  -2.418   1.175  0.00  0.00    -0.083 SA
BRANCH   9  10
ATOM     10  C   UNL d   1      -0.532  -3.523   1.165  0.00  0.00     0.185 C 
BRANCH  10  11
ATOM     11  C   UNL d   1      -1.633  -3.237   2.184  0.00  0.00     0.231 C 
ATOM     12  N   UNL d   1      -1.853  -1.918   2.512  0.00  0.00    -0.327 N 
ATOM     13  H   UNL d   1      -1.516  -1.237   1.838  0.00  0.00     0.169 HD
ATOM     14  O   UNL d   1      -2.329  -4.170   2.593  0.00  0.00    -0.272 OA
BRANCH  12  15
ATOM     15  C   UNL d   1      -2.765  -1.425   3.458  0.00  0.00     0.034 A 
ATOM     16  C   UNL d   1      -3.222  -2.172   4.545  0.00  0.00     0.031 A 
ATOM     17  C   UNL d   1      -4.120  -1.609   5.455  0.00  0.00     0.026 A 
ATOM     18  C   UNL d   1      -4.570  -0.302   5.269  0.00  0.00     0.034 A 
ATOM     19  C   UNL d   1      -4.120   0.450   4.187  0.00  0.00     0.026 A 
ATOM     20 CL   UNL d   1      -5.685   0.387   6.382  0.00  0.00    -0.084 Cl
ATOM     21  C   UNL d   1      -3.204  -0.106   3.294  0.00  0.00     0.031 A 
ENDBRANCH  12  15
ENDBRANCH  10  11
ENDBRANCH   9  10
ENDBRANCH   5   9
BRANCH   1  22
ATOM     22  C   UNL d   1       0.355   2.529  -0.283  0.00  0.00     0.097 A 
ATOM     23  N   UNL d   1      -0.499   3.562   0.074  0.00  0.00    -0.328 N 
ATOM     24  C   UNL d   1       0.085   4.735  -0.339  0.00  0.00     0.146 A 
ATOM     25  C   UNL d   1      -1.762   3.459   0.775  0.00  0.00     0.159 C 
ATOM     26  N   UNL d   1       1.248   4.528  -0.906  0.00  0.00    -0.344 N 
ATOM     27  C   UNL d   1       1.417   3.175  -0.898  0.00  0.00     0.123 A 
ATOM     28  HN  UNL d   1       1.890   5.230  -1.274  1.00  0.00     0.167 HD
BRANCH  24  29
ATOM     29  S   UNL d   1      -0.656   6.288  -0.130  0.00  0.00    -0.098 SA
ATOM     30  C   UNL d   1       0.585   7.347  -0.909  0.00  0.00     0.099 C 
ENDBRANCH  24  29
ENDBRANCH   1  22
TORSDOF 6
