REMARK  0 active torsions:
REMARK  status: ('A' for Active; 'I' for Inactive)
ROOT
ATOM      1  C   UNL d   1       0.006  -0.707   0.008  0.00  0.00    -0.007 A 
ATOM      2  C   UNL d   1      -0.011   0.717   0.004  0.00  0.00    -0.007 A 
ATOM      3  C   UNL d   1       1.262  -1.370   0.008  0.00  0.00     0.022 A 
ATOM      4  C   UNL d   1       1.228   1.411   0.016  0.00  0.00     0.022 A 
ATOM      5  C   UNL d   1       2.464  -0.659   0.005  0.00  0.00     0.021 A 
ATOM      6  C   UNL d   1       2.447   0.729   0.012  0.00  0.00     0.021 A 
ATOM      7 BR   UNL d   1       1.423  -3.272   0.003  0.00  0.00    -0.050 Br
ATOM      8 BR   UNL d   1       1.342   3.316   0.040  0.00  0.00    -0.050 Br
ATOM      9  C   UNL d   1      -1.235  -1.392   0.004  0.00  0.00     0.013 A 
ATOM     10  C   UNL d   1      -1.269   1.371  -0.018  0.00  0.00     0.013 A 
ATOM     11  C   UNL d   1      -2.455  -0.717  -0.022  0.00  0.00     0.001 A 
ATOM     12  C   UNL d   1      -2.472   0.666  -0.038  0.00  0.00     0.001 A 
ENDROOT
TORSDOF 0
