REMARK  3 active torsions:
REMARK  status: ('A' for Active; 'I' for Inactive)
REMARK    1  A    between atoms: C_4  and  N_1 
REMARK    2  A    between atoms: C_7  and  C_2 
REMARK    3  A    between atoms: C_3  and  C_10 
ROOT
ATOM      1  C   UNL d   1       1.556  -4.486   2.111  0.00  0.00     0.055 C 
ATOM      2  C   UNL d   1       0.433  -4.562   1.364  0.00  0.00     0.035 C 
ATOM      3  C   UNL d   1       2.340  -3.287   2.122  0.00  0.00     0.100 C 
ATOM      4  N   UNL d   1       2.976  -2.315   2.155  0.00  0.00    -0.191 NA
ENDROOT
BRANCH   1   5
ATOM      5  C   UNL d   1       2.015  -5.648   2.928  0.00  0.00    -0.014 A 
ATOM      6  C   UNL d   1       1.859  -6.971   2.478  0.00  0.00     0.036 A 
ATOM      7  C   UNL d   1       2.379  -8.042   3.210  0.00  0.00     0.034 A 
ATOM      8 CL   UNL d   1       2.184  -9.649   2.623  0.00  0.00    -0.084 Cl
ATOM      9  C   UNL d   1       3.069  -7.823   4.397  0.00  0.00     0.024 A 
ATOM     10  C   UNL d   1       3.228  -6.522   4.865  0.00  0.00     0.003 A 
ATOM     11  C   UNL d   1       2.704  -5.446   4.140  0.00  0.00     0.013 A 
ENDBRANCH   1   5
BRANCH   2  12
ATOM     12  C   UNL d   1      -0.046  -3.514   0.451  0.00  0.00    -0.032 A 
ATOM     13  C   UNL d   1      -1.059  -2.633   0.841  0.00  0.00     0.047 A 
ATOM     14  C   UNL d   1      -1.517  -1.662  -0.064  0.00  0.00     0.103 A 
ATOM     15  C   UNL d   1      -0.971  -1.563  -1.351  0.00  0.00     0.036 A 
ATOM     16  C   UNL d   1       0.045  -2.439  -1.731  0.00  0.00     0.003 A 
ATOM     17  C   UNL d   1       0.504  -3.409  -0.835  0.00  0.00     0.011 A 
BRANCH  14  18
ATOM     18  N   UNL d   1      -2.594  -0.745   0.334  0.00  0.00    -0.116 N 
ATOM     19  O   UNL d   1      -3.052  -0.860   1.480  0.00  0.00    -0.532 OA
ATOM     20  O   UNL d   1      -2.987   0.082  -0.500  0.00  0.00    -0.532 OA
ENDBRANCH  14  18
ENDBRANCH   2  12
TORSDOF 3
