REMARK  7 active torsions:
REMARK  status: ('A' for Active; 'I' for Inactive)
REMARK    1  A    between atoms: S_16  and  C_2 
REMARK    2  A    between atoms: S_3  and  N_11 
REMARK    3  A    between atoms: C_10  and  S_3 
REMARK    4  A    between atoms: C_8  and  C_4 
REMARK    5  A    between atoms: C_9  and  C_7 
REMARK       I    between atoms: N_12  and  C_8 
REMARK    6  A    between atoms: N_11  and  N_12 
REMARK    7  A    between atoms: O_23  and  C_15 
ROOT
ATOM      1  C   UNL d   1       2.666   2.004  -0.189  0.00  0.00     0.278 C 
ATOM      2  N   UNL d   1       2.259   3.328  -0.368  0.00  0.00    -0.256 N 
ATOM      3  O   UNL d   1       3.855   1.736   0.025  0.00  0.00    -0.265 OA
ATOM      4  H   UNL d   1       1.309   3.551  -0.667  0.00  0.00     0.191 HD
ENDROOT
BRANCH   2   5
ATOM      5  N   UNL d   1       3.183   4.415  -0.139  0.00  0.00    -0.220 N 
ATOM      6  H   UNL d   1       4.161   4.200   0.101  0.00  0.00     0.200 HD
BRANCH   5   7
ATOM      7  S   UNL d   1       2.867   5.998  -0.606  0.00  0.00     0.277 S 
ATOM      8  O   UNL d   1       4.081   6.773  -0.472  0.00  0.00    -0.199 OA
ATOM      9  O   UNL d   1       2.154   5.923  -1.864  0.00  0.00    -0.199 OA
BRANCH   7  10
ATOM     10  C   UNL d   1       1.725   6.641   0.615  0.00  0.00     0.096 A 
ATOM     11  C   UNL d   1       2.025   6.724   1.986  0.00  0.00     0.071 A 
ATOM     12  C   UNL d   1       1.087   7.370   2.829  0.00  0.00     0.018 A 
ATOM     13  C   UNL d   1      -0.098   7.915   2.333  0.00  0.00     0.001 A 
ATOM     14  C   UNL d   1      -0.381   7.824   0.978  0.00  0.00     0.002 A 
ATOM     15  C   UNL d   1       0.524   7.192   0.123  0.00  0.00     0.026 A 
BRANCH  11  16
ATOM     16  C   UNL d   1       3.268   6.197   2.658  0.00  0.00     0.419 C 
ATOM     17  F   UNL d   1       4.165   5.553   1.874  0.00  0.00    -0.166 F 
ATOM     18  F   UNL d   1       3.966   7.186   3.285  0.00  0.00    -0.166 F 
ATOM     19  F   UNL d   1       2.950   5.303   3.640  0.00  0.00    -0.166 F 
ENDBRANCH  11  16
ENDBRANCH   7  10
ENDBRANCH   5   7
ENDBRANCH   2   5
BRANCH   1  20
ATOM     20  C   UNL d   1       1.600   1.000  -0.226  0.00  0.00     0.082 A 
ATOM     21  C   UNL d   1       1.670  -0.379  -0.067  0.00  0.00    -0.025 A 
ATOM     22  C   UNL d   1       0.351  -0.993   0.048  0.00  0.00     0.002 A 
ATOM     23  C   UNL d   1       2.933  -1.201   0.069  0.00  0.00     0.041 C 
ATOM     24  C   UNL d   1      -0.657  -0.066  -0.166  0.00  0.00     0.051 A 
ATOM     25  C   UNL d   1       0.190  -2.466   0.350  0.00  0.00     0.153 C 
ATOM     26  S   UNL d   1      -0.028   1.499  -0.435  0.00  0.00    -0.076 SA
ATOM     27  C   UNL d   1       1.506  -3.165   0.720  0.00  0.00     0.037 C 
ATOM     28  C   UNL d   1       2.665  -2.695  -0.154  0.00  0.00     0.007 C 
BRANCH  24  29
ATOM     29  S   UNL d   1      -2.411  -0.229  -0.113  0.00  0.00    -0.126 SA
ATOM     30  C   UNL d   1      -2.748  -1.798  -0.926  0.00  0.00     0.096 C 
ENDBRANCH  24  29
BRANCH  25  31
ATOM     31  O   UNL d   1      -0.719  -2.696   1.425  0.00  0.00    -0.391 OA
ATOM     32  H   UNL d   1      -0.543  -2.015   2.096  0.00  0.00     0.210 HD
ENDBRANCH  25  31
ENDBRANCH   1  20
TORSDOF 7
