REMARK  2 active torsions:
REMARK  status: ('A' for Active; 'I' for Inactive)
REMARK    1  A    between atoms: C_11  and  C_6 
REMARK    2  A    between atoms: C_12  and  C_10 
ROOT
ATOM      1  C   UNL d   1       0.234   0.539  -0.037  0.00  0.00     0.172 A 
ATOM      2  N   UNL d   1       0.437  -0.801  -0.031  0.00  0.00    -0.242 N 
ATOM      3  N   UNL d   1       1.332   1.240  -0.036  0.00  0.00    -0.337 N 
ATOM      4  HN  UNL d   1       1.433   2.255  -0.042  1.00  0.00     0.168 HD
ATOM      5  S   UNL d   1      -1.446   0.870  -0.060  0.00  0.00    -0.037 SA
ATOM      6  C   UNL d   1       2.334   0.274  -0.028  0.00  0.00     0.036 A 
ATOM      7  N   UNL d   1      -0.612  -1.656  -0.042  0.00  0.00    -0.290 N 
ATOM      8  HN  UNL d   1      -0.579  -2.676  -0.045  1.00  0.00     0.188 HD
ATOM      9  C   UNL d   1       1.779  -1.004  -0.015  0.00  0.00     0.144 A 
ATOM     10  C   UNL d   1      -1.675  -0.897  -0.048  0.00  0.00     0.070 A 
ENDROOT
BRANCH   6  11
ATOM     11  C   UNL d   1       3.801   0.660  -0.055  0.00  0.00    -0.007 C 
ATOM     12  C   UNL d   1       3.973   2.192  -0.075  0.00  0.00     0.021 C 
ATOM     13  C   UNL d   1       4.525   0.108   1.188  0.00  0.00     0.021 C 
ATOM     14  C   UNL d   1       4.473   0.084  -1.317  0.00  0.00     0.021 C 
ENDBRANCH   6  11
BRANCH  10  15
ATOM     15  C   UNL d   1      -3.074  -1.438  -0.043  0.00  0.00     0.062 C 
ATOM     16  C   UNL d   1      -3.590  -1.681  -1.450  0.00  0.00     0.012 C 
ENDBRANCH  10  15
TORSDOF 2
