REMARK  8 active torsions:
REMARK  status: ('A' for Active; 'I' for Inactive)
REMARK    1  A    between atoms: C_3  and  N_1 
REMARK    2  A    between atoms: S_11  and  C_2 
REMARK    3  A    between atoms: O_22  and  C_4 
REMARK    4  A    between atoms: C_10  and  C_5 
REMARK    5  A    between atoms: C_16  and  S_11 
REMARK       I    between atoms: C_12  and  N_14 
REMARK    6  A    between atoms: C_13  and  C_16 
REMARK    7  A    between atoms: C_15  and  C_13 
REMARK    8  A    between atoms: N_14  and  C_25 
ROOT
ATOM      1  N   UNL d   1       4.090   0.444   0.563  0.00  0.00    -0.254 N 
ATOM      2  C   UNL d   1       3.536  -0.817   0.424  0.00  0.00     0.169 A 
ATOM      3  C   UNL d   1       4.597   0.422   1.859  0.00  0.00     0.245 A 
ATOM      4  N   UNL d   1       3.601  -1.478   1.558  0.00  0.00    -0.276 N 
ATOM      5  HN  UNL d   1       3.214  -2.405   1.737  1.00  0.00     0.189 HD
ATOM      6  N   UNL d   1       4.282  -0.702   2.457  0.00  0.00    -0.263 N 
ATOM      7  HN  UNL d   1       4.505  -0.953   3.421  1.00  0.00     0.190 HD
ENDROOT
BRANCH   2   8
ATOM      8  S   UNL d   1       3.010  -1.504  -1.080  0.00  0.00    -0.084 SA
BRANCH   8   9
ATOM      9  C   UNL d   1       2.695  -3.216  -0.570  0.00  0.00     0.166 C 
BRANCH   9  10
ATOM     10  C   UNL d   1       3.995  -3.979  -0.380  0.00  0.00     0.169 C 
ATOM     11  O   UNL d   1       5.028  -3.727  -1.006  0.00  0.00    -0.291 OA
BRANCH  10  12
ATOM     12  C   UNL d   1       3.979  -5.192   0.480  0.00  0.00     0.011 A 
ATOM     13  C   UNL d   1       4.833  -6.249   0.146  0.00  0.00     0.017 A 
ATOM     14  C   UNL d   1       4.797  -7.441   0.874  0.00  0.00     0.030 A 
ATOM     15  C   UNL d   1       3.907  -7.594   1.943  0.00  0.00     0.034 A 
ATOM     16  C   UNL d   1       3.096  -6.517   2.304  0.00  0.00     0.030 A 
ATOM     17  C   UNL d   1       3.134  -5.319   1.582  0.00  0.00     0.017 A 
BRANCH  15  18
ATOM     18  N   UNL d   1       3.881  -8.847   2.587  0.00  0.00    -0.328 N 
ATOM     19  C   UNL d   1       3.011  -9.258   3.581  0.00  0.00     0.218 C 
ATOM     20  O   UNL d   1       2.119  -8.594   4.098  0.00  0.00    -0.274 OA
ATOM     21  C   UNL d   1       3.233 -10.687   4.009  0.00  0.00     0.117 C 
ATOM     22  H   UNL d   1       4.540  -9.533   2.241  0.00  0.00     0.169 HD
ENDBRANCH  15  18
ENDBRANCH  10  12
ENDBRANCH   9  10
ENDBRANCH   8   9
ENDBRANCH   2   8
BRANCH   1  23
ATOM     23  C   UNL d   1       4.255   1.475  -0.409  0.00  0.00     0.060 A 
ATOM     24  C   UNL d   1       3.214   1.928  -1.253  0.00  0.00     0.075 A 
ATOM     25  C   UNL d   1       3.533   2.878  -2.250  0.00  0.00     0.018 A 
ATOM     26  C   UNL d   1       4.814   3.414  -2.367  0.00  0.00     0.001 A 
ATOM     27  C   UNL d   1       5.814   3.005  -1.496  0.00  0.00     0.002 A 
ATOM     28  C   UNL d   1       5.544   2.034  -0.531  0.00  0.00     0.031 A 
BRANCH  24  29
ATOM     29  C   UNL d   1       1.744   1.574  -1.135  0.00  0.00     0.419 C 
ATOM     30  F   UNL d   1       1.402   0.969   0.032  0.00  0.00    -0.166 F 
ATOM     31  F   UNL d   1       0.952   2.686  -1.197  0.00  0.00    -0.166 F 
ATOM     32  F   UNL d   1       1.306   0.772  -2.143  0.00  0.00    -0.166 F 
ENDBRANCH  24  29
ENDBRANCH   1  23
BRANCH   3  33
ATOM     33  O   UNL d   1       5.250   1.397   2.481  0.00  0.00    -0.331 OA
ATOM     34  H   UNL d   1       5.167   2.217   1.971  0.00  0.00     0.221 HD
ENDBRANCH   3  33
TORSDOF 8
