REMARK  2 active torsions:
REMARK  status: ('A' for Active; 'I' for Inactive)
REMARK    1  A    between atoms: C_12  and  C_8 
REMARK    2  A    between atoms: C_13  and  C_9 
ROOT
ATOM      1  C   UNL d   1       1.195   0.868  -0.006  0.00  0.00    -0.042 A 
ATOM      2  C   UNL d   1      -1.158   0.901  -0.009  0.00  0.00    -0.042 A 
ATOM      3  C   UNL d   1       0.722  -0.459  -0.010  0.00  0.00    -0.019 A 
ATOM      4  C   UNL d   1      -0.723  -0.441  -0.012  0.00  0.00    -0.019 A 
ATOM      5  C   UNL d   1       0.033   1.840  -0.015  0.00  0.00     0.078 A 
ATOM      6  C   UNL d   1       2.551   1.152   0.007  0.00  0.00     0.023 A 
ATOM      7  C   UNL d   1      -2.505   1.233   0.002  0.00  0.00     0.023 A 
ATOM      8  C   UNL d   1       3.466   0.083   0.018  0.00  0.00     0.010 A 
ATOM      9  C   UNL d   1      -3.447   0.196   0.005  0.00  0.00     0.010 A 
ATOM     10  C   UNL d   1      -1.641  -1.474  -0.012  0.00  0.00     0.014 A 
ATOM     11  C   UNL d   1       1.610  -1.518  -0.003  0.00  0.00     0.014 A 
ATOM     12  C   UNL d   1       2.984  -1.243   0.011  0.00  0.00     0.016 A 
ATOM     13  C   UNL d   1      -3.003  -1.149  -0.004  0.00  0.00     0.016 A 
ENDROOT
BRANCH   8  14
ATOM     14  C   UNL d   1       4.924   0.424   0.043  0.00  0.00     0.155 C 
ATOM     15  O   UNL d   1       5.261   1.610   0.050  0.00  0.00    -0.293 OA
ATOM     16  C   UNL d   1       5.981  -0.651   0.064  0.00  0.00     0.096 C 
ENDBRANCH   8  14
BRANCH   9  17
ATOM     17  C   UNL d   1      -4.925   0.433   0.019  0.00  0.00     0.155 C 
ATOM     18  O   UNL d   1      -5.688  -0.534   0.018  0.00  0.00    -0.293 OA
ATOM     19  C   UNL d   1      -5.492   1.830   0.033  0.00  0.00     0.096 C 
ENDBRANCH   9  17
TORSDOF 2
