REMARK  3 active torsions:
REMARK  status: ('A' for Active; 'I' for Inactive)
REMARK       I    between atoms: N_4  and  C_1 
REMARK       I    between atoms: N_7  and  C_1 
REMARK    1  A    between atoms: N_2  and  N_6 
REMARK    2  A    between atoms: C_9  and  C_8 
REMARK    3  A    between atoms: O_15  and  C_10 
ROOT
ATOM      1  N   UNL d   1      -1.066   0.788  -1.177  0.00  0.00    -0.309 N 
ATOM      2  HN  UNL d   1      -1.526   1.203  -0.367  1.00  0.00     0.186 HD
ATOM      3  C   UNL d   1      -1.730   0.363  -2.204  0.00  0.00     0.118 C 
ENDROOT
BRANCH   1   4
ATOM      4  N   UNL d   1       0.288   0.645  -1.251  0.00  0.00    -0.277 N 
ATOM      5  C   UNL d   1       1.116   1.138  -0.285  0.00  0.00     0.163 C 
ATOM      6  N   UNL d   1       0.715   1.706   0.799  0.00  0.00    -0.375 N 
ATOM      7  N   UNL d   1       2.434   0.984  -0.526  0.00  0.00    -0.273 NA
ATOM      8  H   UNL d   1      -0.314   1.686   0.710  0.00  0.00     0.158 HD
ATOM      9  HN  UNL d   1       1.278   2.085   1.561  1.00  0.00     0.158 HD
ATOM     10  H   UNL d   1       2.942   1.290   0.302  0.00  0.00     0.127 HD
ATOM     11  H   UNL d   1       2.688   0.031  -0.745  0.00  0.00     0.127 HD
ATOM     12  H   UNL d   1       0.731   0.543  -2.159  0.00  0.00     0.189 HD
ENDBRANCH   1   4
BRANCH   3  13
ATOM     13  C   UNL d   1      -3.201   0.471  -2.257  0.00  0.00    -0.019 A 
ATOM     14  C   UNL d   1      -3.904   1.082  -1.214  0.00  0.00     0.015 A 
ATOM     15  C   UNL d   1      -5.298   1.170  -1.264  0.00  0.00     0.037 A 
ATOM     16  C   UNL d   1      -5.992   0.641  -2.353  0.00  0.00     0.068 A 
ATOM     17  C   UNL d   1      -5.282   0.055  -3.405  0.00  0.00     0.037 A 
ATOM     18  C   UNL d   1      -3.888  -0.041  -3.359  0.00  0.00     0.015 A 
BRANCH  16  19
ATOM     19  O   UNL d   1      -7.350   0.670  -2.510  0.00  0.00    -0.356 OA
ATOM     20  C   UNL d   1      -8.107   0.736  -1.305  0.00  0.00     0.210 C 
ENDBRANCH  16  19
ENDBRANCH   3  13
TORSDOF 3
