REMARK  1 active torsions:
REMARK  status: ('A' for Active; 'I' for Inactive)
REMARK    1  A    between atoms: S_11  and  C_3 
ROOT
ATOM      1  C   UNL d   1       0.000  -0.832   0.040  0.00  0.00     0.042 A 
ATOM      2  C   UNL d   1       0.337   0.584  -0.045  0.00  0.00    -0.017 A 
ATOM      3  C   UNL d   1       1.129  -1.635   0.085  0.00  0.00     0.056 A 
ATOM      4  S   UNL d   1       2.566  -0.690  -0.033  0.00  0.00    -0.074 SA
ATOM      5  C   UNL d   1       1.700   0.757  -0.104  0.00  0.00     0.060 A 
ATOM      6  C   UNL d   1      -1.400  -1.248   0.106  0.00  0.00     0.162 C 
ATOM      7  C   UNL d   1      -0.716   1.671  -0.065  0.00  0.00     0.050 C 
ATOM      8  C   UNL d   1      -2.122   1.158   0.354  0.00  0.00    -0.037 C 
ATOM      9  C   UNL d   1      -2.411  -0.197  -0.324  0.00  0.00     0.093 C 
ATOM     10  O   UNL d   1      -1.779  -2.353   0.478  0.00  0.00    -0.292 OA
ATOM     11 BR   UNL d   1       2.558   2.423  -0.233  0.00  0.00    -0.042 Br
ATOM     12  C   UNL d   1      -3.188   2.171  -0.098  0.00  0.00     0.015 C 
ATOM     13  C   UNL d   1      -2.218   1.016   1.889  0.00  0.00     0.015 C 
ENDROOT
BRANCH   3  14
ATOM     14  S   UNL d   1       1.323  -3.377   0.294  0.00  0.00    -0.126 SA
ATOM     15  C   UNL d   1       0.142  -4.106  -0.855  0.00  0.00     0.096 C 
ENDBRANCH   3  14
TORSDOF 1
