REMARK  5 active torsions:
REMARK  status: ('A' for Active; 'I' for Inactive)
REMARK       I    between atoms: N_3  and  C_1 
REMARK       I    between atoms: N_7  and  C_1 
REMARK    1  A    between atoms: C_2  and  C_6 
REMARK    2  A    between atoms: C_5  and  N_3 
REMARK    3  A    between atoms: C_4  and  O_11 
REMARK    4  A    between atoms: C_19  and  N_7 
REMARK    5  A    between atoms: O_11  and  C_20 
ROOT
ATOM      1  C   UNL d   1       1.040  -0.130   0.053  0.00  0.00     0.326 C 
ATOM      2  N   UNL d   1       0.346   0.652  -0.848  0.00  0.00    -0.294 N 
ATOM      3  N   UNL d   1       0.288  -0.668   1.058  0.00  0.00    -0.309 N 
ATOM      4  O   UNL d   1       2.240  -0.312  -0.143  0.00  0.00    -0.247 OA
ATOM      5  H   UNL d   1       0.918   0.955  -1.619  0.00  0.00     0.172 HD
ATOM      6  H   UNL d   1      -0.680  -0.359   1.042  0.00  0.00     0.170 HD
ENDROOT
BRANCH   2   7
ATOM      7  C   UNL d   1      -1.006   1.013  -0.821  0.00  0.00     0.109 A 
ATOM      8  N   UNL d   1      -1.756   0.707   0.262  0.00  0.00    -0.352 N 
ATOM      9  C   UNL d   1      -3.057   1.066   0.264  0.00  0.00     0.090 A 
ATOM     10  HN  UNL d   1      -1.347   0.217   1.058  1.00  0.00     0.166 HD
ATOM     11  C   UNL d   1      -3.670   1.699  -0.795  0.00  0.00     0.033 A 
ATOM     12  C   UNL d   1      -2.902   1.999  -1.923  0.00  0.00     0.052 A 
ATOM     13  C   UNL d   1      -1.539   1.665  -1.924  0.00  0.00     0.064 A 
BRANCH  12  14
ATOM     14  C   UNL d   1      -3.554   2.650  -3.114  0.00  0.00     0.417 C 
ATOM     15  F   UNL d   1      -2.697   2.877  -4.145  0.00  0.00    -0.166 F 
ATOM     16  F   UNL d   1      -4.564   1.893  -3.623  0.00  0.00    -0.166 F 
ATOM     17  F   UNL d   1      -4.106   3.855  -2.808  0.00  0.00    -0.166 F 
ENDBRANCH  12  14
ENDBRANCH   2   7
BRANCH   3  18
ATOM     18  C   UNL d   1       0.639  -1.557   2.078  0.00  0.00     0.036 A 
ATOM     19  C   UNL d   1       1.928  -2.036   2.300  0.00  0.00     0.032 A 
ATOM     20  C   UNL d   1       2.184  -2.913   3.368  0.00  0.00     0.039 A 
ATOM     21  C   UNL d   1       1.155  -3.294   4.227  0.00  0.00     0.078 A 
ATOM     22  C   UNL d   1      -0.143  -2.852   3.972  0.00  0.00     0.039 A 
ATOM     23  C   UNL d   1      -0.398  -1.983   2.913  0.00  0.00     0.032 A 
BRANCH  21  24
ATOM     24  O   UNL d   1       1.262  -4.092   5.325  0.00  0.00    -0.255 OA
BRANCH  24  25
ATOM     25  C   UNL d   1       2.517  -4.209   5.972  0.00  0.00     0.530 C 
ATOM     26  F   UNL d   1       3.321  -3.141   5.789  0.00  0.00    -0.144 F 
ATOM     27  F   UNL d   1       2.297  -4.331   7.301  0.00  0.00    -0.144 F 
ATOM     28  F   UNL d   1       3.150  -5.323   5.547  0.00  0.00    -0.144 F 
ENDBRANCH  24  25
ENDBRANCH  21  24
ENDBRANCH   3  18
TORSDOF 5
