REMARK  5 active torsions:
REMARK  status: ('A' for Active; 'I' for Inactive)
REMARK    1  A    between atoms: S_7  and  C_1 
REMARK    2  A    between atoms: C_9  and  C_4 
REMARK    3  A    between atoms: C_10  and  S_7 
REMARK    4  A    between atoms: C_8  and  C_10 
REMARK    5  A    between atoms: C_13  and  C_8 
ROOT
ATOM      1  C   UNL d   1      -1.355  -0.298   0.093  0.00  0.00     0.041 C 
ATOM      2  S   UNL d   1      -0.963   1.240   0.780  0.00  0.00    -0.113 SA
ATOM      3  C   UNL d   1      -0.446  -1.178  -0.339  0.00  0.00     0.075 C 
ATOM      4  C   UNL d   1       0.757   1.533   0.235  0.00  0.00     0.093 C 
ATOM      5  C   UNL d   1       1.011  -0.963  -0.288  0.00  0.00     0.152 C 
ATOM      6  C   UNL d   1       1.578   0.254   0.391  0.00  0.00     0.103 C 
ATOM      7  O   UNL d   1       1.751  -1.855  -0.705  0.00  0.00    -0.293 OA
ENDROOT
BRANCH   1   8
ATOM      8  S   UNL d   1      -3.037  -0.791   0.088  0.00  0.00    -0.115 SA
BRANCH   8   9
ATOM      9  C   UNL d   1      -3.694   0.249  -1.253  0.00  0.00     0.163 C 
BRANCH   9  10
ATOM     10  C   UNL d   1      -2.989  -0.030  -2.564  0.00  0.00     0.169 C 
ATOM     11  O   UNL d   1      -2.718  -1.168  -2.950  0.00  0.00    -0.291 OA
BRANCH  10  12
ATOM     12  C   UNL d   1      -2.609   1.124  -3.446  0.00  0.00     0.010 A 
ATOM     13  C   UNL d   1      -3.147   2.411  -3.292  0.00  0.00     0.015 A 
ATOM     14  C   UNL d   1      -2.726   3.447  -4.127  0.00  0.00     0.001 A 
ATOM     15  C   UNL d   1      -1.781   3.211  -5.122  0.00  0.00     0.000 A 
ATOM     16  C   UNL d   1      -1.256   1.933  -5.294  0.00  0.00     0.001 A 
ATOM     17  C   UNL d   1      -1.671   0.892  -4.460  0.00  0.00     0.015 A 
ENDBRANCH  10  12
ENDBRANCH   9  10
ENDBRANCH   8   9
ENDBRANCH   1   8
BRANCH   4  18
ATOM     18  C   UNL d   1       0.914   2.370  -1.044  0.00  0.00    -0.043 A 
ATOM     19  C   UNL d   1      -0.013   3.385  -1.359  0.00  0.00     0.010 A 
ATOM     20  C   UNL d   1       0.211   4.291  -2.407  0.00  0.00     0.024 A 
ATOM     21  C   UNL d   1       1.372   4.207  -3.158  0.00  0.00     0.034 A 
ATOM     22  C   UNL d   1       2.314   3.228  -2.870  0.00  0.00     0.024 A 
ATOM     23 CL   UNL d   1       1.657   5.333  -4.429  0.00  0.00    -0.084 Cl
ATOM     24  C   UNL d   1       2.088   2.322  -1.823  0.00  0.00     0.010 A 
ENDBRANCH   4  18
TORSDOF 5
