REMARK  4 active torsions:
REMARK  status: ('A' for Active; 'I' for Inactive)
REMARK    1  A    between atoms: O_7  and  C_1 
REMARK    2  A    between atoms: C_3  and  C_2 
REMARK    3  A    between atoms: O_15  and  C_3 
REMARK    4  A    between atoms: C_8  and  O_7 
ROOT
ATOM      1  C   UNL d   1      -0.594   1.258  -0.500  0.00  0.00     0.165 A 
ATOM      2  C   UNL d   1      -1.186   0.078  -0.936  0.00  0.00     0.089 A 
ATOM      3  N   UNL d   1       0.754   1.435  -0.434  0.00  0.00    -0.346 N 
ATOM      4  HN  UNL d   1       1.153   2.294  -0.055  1.00  0.00     0.167 HD
ATOM      5  C   UNL d   1      -0.325  -0.937  -1.384  0.00  0.00     0.024 A 
ATOM      6  C   UNL d   1       1.546   0.443  -0.884  0.00  0.00     0.090 A 
ATOM      7  C   UNL d   1       1.056  -0.751  -1.373  0.00  0.00     0.018 A 
ENDROOT
BRANCH   1   8
ATOM      8  O   UNL d   1      -1.405   2.323  -0.112  0.00  0.00    -0.293 OA
BRANCH   8   9
ATOM      9  C   UNL d   1      -0.857   3.588  -0.171  0.00  0.00     0.079 A 
ATOM     10  C   UNL d   1      -0.113   4.032  -1.266  0.00  0.00     0.045 A 
ATOM     11  C   UNL d   1       0.512   5.286  -1.247  0.00  0.00    -0.037 A 
ATOM     12  C   UNL d   1       1.428   5.646  -2.385  0.00  0.00     0.050 C 
ATOM     13  C   UNL d   1       0.304   6.138  -0.144  0.00  0.00     0.046 A 
ATOM     14  C   UNL d   1      -0.516   5.734   0.929  0.00  0.00    -0.037 A 
ATOM     15 CL   UNL d   1       1.085   7.687  -0.123  0.00  0.00    -0.083 Cl
ATOM     16  C   UNL d   1      -1.090   4.447   0.901  0.00  0.00     0.045 A 
ATOM     17  C   UNL d   1      -0.797   6.589   2.136  0.00  0.00     0.050 C 
ENDBRANCH   8   9
ENDBRANCH   1   8
BRANCH   2  18
ATOM     18  C   UNL d   1      -2.648  -0.195  -0.983  0.00  0.00     0.180 C 
ATOM     19  O   UNL d   1      -3.078  -1.271  -1.373  0.00  0.00    -0.646 OA
BRANCH  18  20
ATOM     20  O   UNL d   1      -3.472   0.788  -0.579  0.00  0.00    -0.773 OA
ATOM     21  H   UNL d   1      -3.048   1.620  -0.288  0.00  0.00     0.167 HD
ENDBRANCH  18  20
ENDBRANCH   2  18
TORSDOF 4
