REMARK  9 active torsions:
REMARK  status: ('A' for Active; 'I' for Inactive)
REMARK    1  A    between atoms: C_3  and  C_1 
REMARK    2  A    between atoms: C_2  and  C_7 
REMARK    3  A    between atoms: O_10  and  C_3 
REMARK    4  A    between atoms: N_4  and  O_10 
REMARK    5  A    between atoms: C_20  and  C_8 
REMARK    6  A    between atoms: C_21  and  C_8 
REMARK    7  A    between atoms: C_25  and  C_13 
REMARK    8  A    between atoms: C_15  and  S_18 
REMARK    9  A    between atoms: S_18  and  C_25 
ROOT
ATOM      1  C   UNL d   1      -0.297   1.133  -0.118  0.00  0.00     0.152 A 
ATOM      2  O   UNL d   1       0.952   0.712   0.267  0.00  0.00    -0.308 OA
ATOM      3  C   UNL d   1      -1.066   0.027  -0.444  0.00  0.00     0.046 A 
ATOM      4  C   UNL d   1       0.964  -0.655   0.204  0.00  0.00     0.063 A 
ATOM      5  C   UNL d   1      -0.258  -1.115  -0.242  0.00  0.00     0.036 A 
ENDROOT
BRANCH   1   6
ATOM      6  C   UNL d   1      -0.610   2.545  -0.149  0.00  0.00     0.339 C 
ATOM      7  O   UNL d   1       0.179   3.468  -0.336  0.00  0.00    -0.255 OA
BRANCH   6   8
ATOM      8  O   UNL d   1      -1.949   2.700   0.124  0.00  0.00    -0.193 OA
BRANCH   8   9
ATOM      9  N   UNL d   1      -2.582   3.439  -0.892  0.00  0.00    -0.256 N 
ATOM     10  C   UNL d   1      -3.840   3.693  -0.646  0.00  0.00     0.075 C 
ATOM     11  HN  UNL d   1      -2.104   3.747  -1.739  1.00  0.00     0.195 HD
BRANCH  10  12
ATOM     12  C   UNL d   1      -4.591   3.334   0.611  0.00  0.00    -0.007 A 
ATOM     13  C   UNL d   1      -5.503   4.253   1.157  0.00  0.00     0.014 A 
ATOM     14  C   UNL d   1      -6.259   3.921   2.285  0.00  0.00     0.001 A 
ATOM     15  C   UNL d   1      -6.079   2.688   2.904  0.00  0.00     0.000 A 
ATOM     16  C   UNL d   1      -5.159   1.778   2.387  0.00  0.00     0.001 A 
ATOM     17  C   UNL d   1      -4.434   2.090   1.233  0.00  0.00     0.014 A 
ENDBRANCH  10  12
BRANCH  10  18
ATOM     18  C   UNL d   1      -4.601   4.421  -1.723  0.00  0.00    -0.007 A 
ATOM     19  C   UNL d   1      -5.955   4.144  -1.967  0.00  0.00     0.014 A 
ATOM     20  C   UNL d   1      -6.657   4.857  -2.942  0.00  0.00     0.001 A 
ATOM     21  C   UNL d   1      -6.005   5.830  -3.696  0.00  0.00     0.000 A 
ATOM     22  C   UNL d   1      -4.649   6.085  -3.486  0.00  0.00     0.001 A 
ATOM     23  C   UNL d   1      -3.947   5.381  -2.504  0.00  0.00     0.014 A 
ENDBRANCH  10  18
ENDBRANCH   8   9
ENDBRANCH   6   8
ENDBRANCH   1   6
BRANCH   4  24
ATOM     24  C   UNL d   1       2.213  -1.353   0.629  0.00  0.00     0.145 C 
BRANCH  24  25
ATOM     25  S   UNL d   1       2.954  -2.243  -0.781  0.00  0.00    -0.106 SA
BRANCH  25  26
ATOM     26  C   UNL d   1       4.292  -3.103   0.024  0.00  0.00     0.069 A 
ATOM     27  N   UNL d   1       4.451  -2.973   1.360  0.00  0.00    -0.360 N 
ATOM     28  C   UNL d   1       5.482  -3.642   1.936  0.00  0.00     0.105 A 
ATOM     29  HN  UNL d   1       3.820  -2.395   1.915  1.00  0.00     0.166 HD
ATOM     30  C   UNL d   1       6.372  -4.447   1.244  0.00  0.00     0.063 A 
ATOM     31  C   UNL d   1       6.183  -4.573  -0.134  0.00  0.00     0.020 A 
ATOM     32  C   UNL d   1       5.132  -3.895  -0.750  0.00  0.00     0.038 A 
BRANCH  30  33
ATOM     33  C   UNL d   1       7.493  -5.150   1.949  0.00  0.00     0.418 C 
ATOM     34  F   UNL d   1       7.529  -4.912   3.289  0.00  0.00    -0.166 F 
ATOM     35  F   UNL d   1       7.426  -6.503   1.813  0.00  0.00    -0.166 F 
ATOM     36  F   UNL d   1       8.715  -4.788   1.473  0.00  0.00    -0.166 F 
ENDBRANCH  30  33
ENDBRANCH  25  26
ENDBRANCH  24  25
ENDBRANCH   4  24
TORSDOF 9
