REMARK  5 active torsions:
REMARK  status: ('A' for Active; 'I' for Inactive)
REMARK    1  A    between atoms: S_8  and  C_1 
REMARK    2  A    between atoms: C_14  and  N_2 
REMARK    3  A    between atoms: O_20  and  C_5 
REMARK    4  A    between atoms: C_11  and  S_8 
REMARK    5  A    between atoms: C_9  and  C_10 
ROOT
ATOM      1  C   UNL d   1      -0.281  -1.542   0.052  0.00  0.00     0.171 C 
ATOM      2  N   UNL d   1       0.794  -0.708  -0.121  0.00  0.00    -0.286 N 
ATOM      3  N   UNL d   1      -1.399  -0.847  -0.017  0.00  0.00    -0.276 N 
ATOM      4  HN  UNL d   1      -2.343  -1.229   0.025  1.00  0.00     0.189 HD
ATOM      5  C   UNL d   1       0.230   0.557  -0.140  0.00  0.00     0.240 C 
ATOM      6  N   UNL d   1      -1.074   0.475  -0.154  0.00  0.00    -0.263 N 
ATOM      7  HN  UNL d   1      -1.728   1.252  -0.249  1.00  0.00     0.190 HD
ENDROOT
BRANCH   1   8
ATOM      8  S   UNL d   1      -0.259  -3.133   0.719  0.00  0.00    -0.035 SA
BRANCH   8   9
ATOM      9  C   UNL d   1      -0.370  -4.182  -0.726  0.00  0.00     0.077 A 
ATOM     10  N   UNL d   1       0.045  -3.711  -1.921  0.00  0.00    -0.359 N 
ATOM     11  C   UNL d   1       0.360  -4.614  -2.882  0.00  0.00     0.105 A 
ATOM     12  HN  UNL d   1       0.121  -2.709  -2.095  1.00  0.00     0.166 HD
ATOM     13  C   UNL d   1       0.290  -5.986  -2.707  0.00  0.00     0.063 A 
ATOM     14  C   UNL d   1      -0.258  -6.449  -1.510  0.00  0.00     0.020 A 
ATOM     15  C   UNL d   1      -0.593  -5.539  -0.508  0.00  0.00     0.038 A 
BRANCH  13  16
ATOM     16  C   UNL d   1       0.844  -6.922  -3.737  0.00  0.00     0.418 C 
ATOM     17  F   UNL d   1       1.614  -6.301  -4.674  0.00  0.00    -0.166 F 
ATOM     18  F   UNL d   1       1.645  -7.877  -3.184  0.00  0.00    -0.166 F 
ATOM     19  F   UNL d   1      -0.119  -7.592  -4.422  0.00  0.00    -0.166 F 
ENDBRANCH  13  16
ENDBRANCH   8   9
ENDBRANCH   1   8
BRANCH   2  20
ATOM     20  C   UNL d   1       2.222  -0.929  -0.343  0.00  0.00     0.095 C 
ATOM     21  C   UNL d   1       2.668  -2.043  -1.306  0.00  0.00     0.026 C 
ATOM     22  C   UNL d   1       3.084  -3.362  -0.659  0.00  0.00     0.002 C 
ATOM     23  C   UNL d   1       3.986  -3.173   0.550  0.00  0.00     0.000 C 
ATOM     24  C   UNL d   1       3.376  -2.208   1.559  0.00  0.00     0.002 C 
ATOM     25  C   UNL d   1       3.084  -0.851   0.929  0.00  0.00     0.026 C 
ENDBRANCH   2  20
BRANCH   5  26
ATOM     26  O   UNL d   1       0.879   1.714  -0.139  0.00  0.00    -0.331 OA
ATOM     27  H   UNL d   1       1.756   1.586   0.256  0.00  0.00     0.221 HD
ENDBRANCH   5  26
TORSDOF 5
