REMARK  5 active torsions:
REMARK  status: ('A' for Active; 'I' for Inactive)
REMARK    1  A    between atoms: O_12  and  N_2 
REMARK    2  A    between atoms: C_6  and  O_12 
REMARK    3  A    between atoms: C_14  and  C_6 
REMARK    4  A    between atoms: C_13  and  C_15 
REMARK    5  A    between atoms: C_17  and  C_14 
ROOT
ATOM      1  N   UNL d   1       4.629  -0.710  -0.114  0.00  0.00    -0.268 N 
ATOM      2  HN  UNL d   1       4.636   0.296   0.057  1.00  0.00     0.194 HD
ATOM      3  C   UNL d   1       3.560  -1.391  -0.367  0.00  0.00     0.126 C 
ENDROOT
BRANCH   1   4
ATOM      4  O   UNL d   1       5.779  -1.517  -0.101  0.00  0.00    -0.200 OA
BRANCH   4   5
ATOM      5  C   UNL d   1       6.864  -0.711   0.173  0.00  0.00     0.285 C 
ATOM      6  O   UNL d   1       6.846   0.497   0.389  0.00  0.00    -0.263 OA
BRANCH   5   7
ATOM      7  C   UNL d   1       8.137  -1.522   0.180  0.00  0.00     0.151 C 
BRANCH   7   8
ATOM      8  C   UNL d   1       8.561  -1.992   1.548  0.00  0.00    -0.049 A 
ATOM      9  C   UNL d   1       8.839  -3.347   1.774  0.00  0.00     0.007 A 
ATOM     10  C   UNL d   1       9.293  -3.780   3.021  0.00  0.00     0.001 A 
ATOM     11  C   UNL d   1       9.477  -2.865   4.055  0.00  0.00     0.000 A 
ATOM     12  C   UNL d   1       9.201  -1.516   3.846  0.00  0.00     0.001 A 
ATOM     13  C   UNL d   1       8.749  -1.080   2.599  0.00  0.00     0.007 A 
ENDBRANCH   7   8
ENDBRANCH   5   7
ENDBRANCH   4   5
ENDBRANCH   1   4
BRANCH   3  14
ATOM     14  C   UNL d   1       2.252  -0.701  -0.397  0.00  0.00    -0.016 A 
ATOM     15  C   UNL d   1       1.081  -1.419  -0.664  0.00  0.00     0.052 A 
ATOM     16  C   UNL d   1      -0.106  -0.710  -0.651  0.00  0.00     0.105 A 
ATOM     17  C   UNL d   1      -0.149   0.643  -0.395  0.00  0.00     0.105 A 
ATOM     18  O   UNL d   1      -1.345  -1.227  -0.876  0.00  0.00    -0.323 OA
ATOM     19  O   UNL d   1      -1.414   1.141  -0.425  0.00  0.00    -0.323 OA
ATOM     20  C   UNL d   1       0.988   1.373  -0.137  0.00  0.00     0.040 A 
ATOM     21  C   UNL d   1      -2.169  -0.053  -0.709  0.00  0.00     0.352 A 
ATOM     22  C   UNL d   1       2.203   0.688  -0.138  0.00  0.00     0.016 A 
ENDBRANCH   3  14
TORSDOF 5
