REMARK  5 active torsions:
REMARK  status: ('A' for Active; 'I' for Inactive)
REMARK    1  A    between atoms: C_4  and  C_1 
REMARK    2  A    between atoms: C_2  and  C_5 
REMARK    3  A    between atoms: C_3  and  O_7 
REMARK       I    between atoms: N_9  and  C_4 
REMARK       I    between atoms: C_5  and  N_8 
REMARK    4  A    between atoms: O_7  and  C_6 
REMARK    5  A    between atoms: N_8  and  N_9 
ROOT
ATOM      1  C   UNL d   1      -3.725   3.233   0.504  0.00  0.00     0.272 C 
ATOM      2  N   UNL d   1      -2.604   2.669   1.086  0.00  0.00    -0.263 N 
ATOM      3  O   UNL d   1      -4.727   2.571   0.242  0.00  0.00    -0.266 OA
ATOM      4  H   UNL d   1      -1.755   3.174   1.328  0.00  0.00     0.190 HD
ENDROOT
BRANCH   2   5
ATOM      5  N   UNL d   1      -2.633   1.329   1.477  0.00  0.00    -0.263 N 
ATOM      6  C   UNL d   1      -1.687   0.903   2.392  0.00  0.00     0.276 C 
ATOM      7  O   UNL d   1      -0.844   1.683   2.836  0.00  0.00    -0.266 OA
ATOM      8  H   UNL d   1      -3.376   0.747   1.087  0.00  0.00     0.190 HD
BRANCH   6   9
ATOM      9  C   UNL d   1      -1.718  -0.523   2.805  0.00  0.00     0.110 A 
ATOM     10  C   UNL d   1      -2.524  -1.469   2.168  0.00  0.00     0.135 A 
ATOM     11  F   UNL d   1      -3.332  -1.120   1.155  0.00  0.00    -0.205 F 
ATOM     12  C   UNL d   1      -2.512  -2.813   2.550  0.00  0.00     0.043 A 
ATOM     13  C   UNL d   1      -1.688  -3.236   3.589  0.00  0.00     0.006 A 
ATOM     14  C   UNL d   1      -0.881  -2.306   4.241  0.00  0.00     0.043 A 
ATOM     15  C   UNL d   1      -0.900  -0.964   3.848  0.00  0.00     0.135 A 
ATOM     16  F   UNL d   1      -0.105  -0.119   4.521  0.00  0.00    -0.205 F 
ENDBRANCH   6   9
ENDBRANCH   2   5
BRANCH   1  17
ATOM     17  C   UNL d   1      -3.634   4.700   0.200  0.00  0.00     0.067 A 
ATOM     18  C   UNL d   1      -4.363   5.273  -0.862  0.00  0.00     0.094 A 
ATOM     19  C   UNL d   1      -4.175   6.631  -1.167  0.00  0.00     0.038 A 
ATOM     20  C   UNL d   1      -3.342   7.429  -0.380  0.00  0.00     0.003 A 
ATOM     21  C   UNL d   1      -2.680   6.881   0.712  0.00  0.00     0.001 A 
ATOM     22  C   UNL d   1      -2.821   5.523   0.999  0.00  0.00     0.020 A 
BRANCH  18  23
ATOM     23  O   UNL d   1      -5.192   4.463  -1.585  0.00  0.00    -0.254 OA
BRANCH  23  24
ATOM     24  C   UNL d   1      -6.335   5.050  -2.191  0.00  0.00     0.530 C 
ATOM     25  F   UNL d   1      -6.812   6.107  -1.498  0.00  0.00    -0.144 F 
ATOM     26  F   UNL d   1      -6.031   5.450  -3.445  0.00  0.00    -0.144 F 
ATOM     27  F   UNL d   1      -7.321   4.129  -2.268  0.00  0.00    -0.144 F 
ENDBRANCH  23  24
ENDBRANCH  18  23
ENDBRANCH   1  17
TORSDOF 5
