REMARK  5 active torsions:
REMARK  status: ('A' for Active; 'I' for Inactive)
REMARK    1  A    between atoms: C_6  and  C_1 
REMARK    2  A    between atoms: C_16  and  N_2 
REMARK    3  A    between atoms: C_18  and  C_3 
REMARK       I    between atoms: N_8  and  C_6 
REMARK    4  A    between atoms: C_7  and  N_8 
REMARK    5  A    between atoms: C_21  and  C_18 
ROOT
ATOM      1  C   UNL d   1      -0.142   1.164  -0.062  0.00  0.00     0.074 C 
ATOM      2  N   UNL d   1       0.887  -0.822   0.068  0.00  0.00    -0.260 N 
ATOM      3  C   UNL d   1       1.131   0.566  -0.029  0.00  0.00     0.051 C 
ATOM      4  N   UNL d   1      -0.432  -1.083   0.223  0.00  0.00    -0.304 N 
ATOM      5  HN  UNL d   1      -0.866  -1.980   0.442  1.00  0.00     0.186 HD
ATOM      6  C   UNL d   1      -1.037   0.076   0.026  0.00  0.00     0.126 C 
ENDROOT
BRANCH   1   7
ATOM      7  C   UNL d   1      -0.653   2.541  -0.133  0.00  0.00     0.273 C 
ATOM      8  N   UNL d   1       0.244   3.535   0.134  0.00  0.00    -0.154 N 
ATOM      9  H   UNL d   1       1.182   3.342   0.413  0.00  0.00     0.187 HD
ATOM     10  O   UNL d   1      -1.843   2.714  -0.382  0.00  0.00    -0.267 OA
BRANCH   8  11
ATOM     11  C   UNL d   1      -0.033   4.869   0.091  0.00  0.00     0.700 A 
ATOM     12  N   UNL d   1       0.987   5.735   0.403  0.00  0.00    -0.185 N 
ATOM     13  C   UNL d   1       0.438   6.917   0.263  0.00  0.00     0.215 A 
ATOM     14  HN  UNL d   1       1.944   5.512   0.677  1.00  0.00     0.185 HD
ATOM     15  N   UNL d   1      -0.858   6.766  -0.119  0.00  0.00    -0.281 N 
ATOM     16  N   UNL d   1      -1.170   5.473  -0.239  0.00  0.00    -0.131 N 
ATOM     17  H   UNL d   1      -1.563   7.473  -0.310  0.00  0.00     0.188 HD
ATOM     18  HN  UNL d   1      -2.059   5.055  -0.514  1.00  0.00     0.205 HD
ENDBRANCH   8  11
ENDBRANCH   1   7
BRANCH   3  19
ATOM     19  C   UNL d   1       2.512   1.159   0.075  0.00  0.00     0.060 C 
BRANCH  19  20
ATOM     20  C   UNL d   1       3.198   1.579  -1.231  0.00  0.00     0.002 C 
ATOM     21  C   UNL d   1       2.450   2.557  -2.118  0.00  0.00     0.005 C 
ENDBRANCH  19  20
ENDBRANCH   3  19
BRANCH   2  22
ATOM     22  C   UNL d   1       1.748  -1.959  -0.016  0.00  0.00     0.056 A 
ATOM     23  C   UNL d   1       1.359  -3.145   0.634  0.00  0.00     0.031 A 
ATOM     24  C   UNL d   1       2.069  -4.332   0.443  0.00  0.00     0.002 A 
ATOM     25  C   UNL d   1       3.166  -4.353  -0.412  0.00  0.00     0.000 A 
ATOM     26  C   UNL d   1       3.570  -3.181  -1.047  0.00  0.00     0.002 A 
ATOM     27  C   UNL d   1       2.870  -1.987  -0.842  0.00  0.00     0.031 A 
ENDBRANCH   2  22
TORSDOF 5
