REMARK  5 active torsions:
REMARK  status: ('A' for Active; 'I' for Inactive)
REMARK    1  A    between atoms: C_2  and  C_1 
REMARK    2  A    between atoms: C_8  and  C_2 
REMARK    3  A    between atoms: C_3  and  C_5 
REMARK    4  A    between atoms: C_5  and  C_4 
REMARK    5  A    between atoms: N_10  and  C_6 
ROOT
ATOM      1  C   UNL d   1       1.414  -0.202   0.107  0.00  0.00     0.029 A 
ATOM      2  C   UNL d   1       0.444  -1.201   0.295  0.00  0.00     0.028 A 
ATOM      3  C   UNL d   1       0.998   1.117  -0.166  0.00  0.00     0.016 A 
ATOM      4  C   UNL d   1      -0.918  -0.842   0.267  0.00  0.00     0.016 A 
ATOM      5  C   UNL d   1      -0.353   1.460  -0.168  0.00  0.00     0.001 A 
ATOM      6  C   UNL d   1      -1.311   0.480   0.059  0.00  0.00     0.001 A 
ENDROOT
BRANCH   1   7
ATOM      7  C   UNL d   1       2.874  -0.478   0.102  0.00  0.00     0.193 C 
ATOM      8  O   UNL d   1       3.293  -1.495  -0.440  0.00  0.00    -0.287 OA
BRANCH   7   9
ATOM      9  C   UNL d   1       3.842   0.485   0.709  0.00  0.00     0.015 A 
ATOM     10  C   UNL d   1       5.152   0.513   0.218  0.00  0.00     0.015 A 
ATOM     11  C   UNL d   1       6.071   1.440   0.715  0.00  0.00     0.001 A 
ATOM     12  C   UNL d   1       5.687   2.342   1.706  0.00  0.00     0.000 A 
ATOM     13  C   UNL d   1       4.392   2.303   2.221  0.00  0.00     0.001 A 
ATOM     14  C   UNL d   1       3.476   1.366   1.738  0.00  0.00     0.015 A 
ENDBRANCH   7   9
ENDBRANCH   1   7
BRANCH   2  15
ATOM     15  C   UNL d   1       0.709  -2.651   0.489  0.00  0.00     0.184 C 
ATOM     16  O   UNL d   1       0.028  -3.463  -0.132  0.00  0.00    -0.288 OA
BRANCH  15  17
ATOM     17  C   UNL d   1       1.682  -3.062   1.536  0.00  0.00     0.072 C 
ATOM     18  C   UNL d   1       1.926  -4.364   1.744  0.00  0.00     0.088 C 
BRANCH  18  19
ATOM     19  N   UNL d   1       2.783  -4.975   2.651  0.00  0.00    -0.398 N 
ATOM     20  C   UNL d   1       2.861  -6.434   2.765  0.00  0.00     0.148 C 
ATOM     21  C   UNL d   1       3.760  -4.263   3.470  0.00  0.00     0.148 C 
ENDBRANCH  18  19
ENDBRANCH  15  17
ENDBRANCH   2  15
TORSDOF 5
