REMARK  4 active torsions:
REMARK  status: ('A' for Active; 'I' for Inactive)
REMARK    1  A    between atoms: S_9  and  C_3 
REMARK    2  A    between atoms: C_14  and  C_8 
REMARK    3  A    between atoms: C_15  and  S_9 
REMARK    4  A    between atoms: C_16  and  C_15 
ROOT
ATOM      1  C   UNL d   1       0.032  -0.689  -0.078  0.00  0.00     0.042 A 
ATOM      2  C   UNL d   1       0.428   0.710  -0.166  0.00  0.00    -0.014 A 
ATOM      3  C   UNL d   1       1.125  -1.540  -0.089  0.00  0.00     0.057 A 
ATOM      4  C   UNL d   1       1.801   0.858  -0.245  0.00  0.00     0.093 A 
ATOM      5  S   UNL d   1       2.592  -0.652  -0.246  0.00  0.00    -0.071 SA
ATOM      6  C   UNL d   1      -1.385  -1.036   0.078  0.00  0.00     0.162 C 
ATOM      7  C   UNL d   1      -0.595   1.829  -0.112  0.00  0.00     0.051 C 
ATOM      8  C   UNL d   1      -1.963   1.351   0.447  0.00  0.00     0.030 C 
ATOM      9  C   UNL d   1       2.506   2.106  -0.294  0.00  0.00     0.107 C 
ATOM     10  C   UNL d   1      -2.359   0.064  -0.299  0.00  0.00     0.093 C 
ATOM     11  N   UNL d   1       3.039   3.140  -0.319  0.00  0.00    -0.191 NA
ATOM     12  O   UNL d   1      -1.794  -2.117   0.488  0.00  0.00    -0.292 OA
ENDROOT
BRANCH   3  13
ATOM     13  S   UNL d   1       1.234  -3.290   0.114  0.00  0.00    -0.117 SA
BRANCH  13  14
ATOM     14  C   UNL d   1       0.036  -3.955  -1.072  0.00  0.00     0.118 C 
BRANCH  14  15
ATOM     15  C   UNL d   1       0.027  -5.465  -1.096  0.00  0.00    -0.049 A 
ATOM     16  C   UNL d   1      -0.650  -6.188  -0.100  0.00  0.00     0.008 A 
ATOM     17  C   UNL d   1      -0.714  -7.581  -0.153  0.00  0.00     0.001 A 
ATOM     18  C   UNL d   1      -0.098  -8.265  -1.199  0.00  0.00     0.000 A 
ATOM     19  C   UNL d   1       0.592  -7.559  -2.183  0.00  0.00     0.001 A 
ATOM     20  C   UNL d   1       0.660  -6.166  -2.131  0.00  0.00     0.008 A 
ENDBRANCH  14  15
ENDBRANCH  13  14
ENDBRANCH   3  13
BRANCH   8  21
ATOM     21  C   UNL d   1      -2.047   1.144   1.962  0.00  0.00    -0.053 A 
ATOM     22  C   UNL d   1      -0.944   1.271   2.820  0.00  0.00     0.007 A 
ATOM     23  C   UNL d   1      -1.057   1.000   4.186  0.00  0.00     0.001 A 
ATOM     24  C   UNL d   1      -2.277   0.604   4.723  0.00  0.00     0.000 A 
ATOM     25  C   UNL d   1      -3.388   0.484   3.895  0.00  0.00     0.001 A 
ATOM     26  C   UNL d   1      -3.276   0.758   2.530  0.00  0.00     0.007 A 
ENDBRANCH   8  21
TORSDOF 4
