REMARK  4 active torsions:
REMARK  status: ('A' for Active; 'I' for Inactive)
REMARK    1  A    between atoms: C_4  and  C_1 
REMARK       I    between atoms: N_8  and  C_4 
REMARK    2  A    between atoms: C_10  and  C_5 
REMARK    3  A    between atoms: C_6  and  C_10 
REMARK    4  A    between atoms: C_11  and  N_8 
ROOT
ATOM      1  C   UNL d   1       1.185   0.852  -0.138  0.00  0.00     0.108 A 
ATOM      2  N   UNL d   1       1.391  -0.505   0.129  0.00  0.00    -0.349 N 
ATOM      3  HN  UNL d   1       2.259  -0.908   0.481  1.00  0.00     0.166 HD
ATOM      4  C   UNL d   1       0.293  -1.188  -0.144  0.00  0.00     0.055 A 
ATOM      5  C   UNL d   1      -0.058   1.150  -0.665  0.00  0.00     0.086 A 
ATOM      6  S   UNL d   1      -0.998  -0.263  -0.816  0.00  0.00    -0.086 SA
ENDROOT
BRANCH   1   7
ATOM      7  C   UNL d   1       2.186   1.887   0.148  0.00  0.00     0.273 C 
ATOM      8  N   UNL d   1       3.420   1.389   0.510  0.00  0.00    -0.320 N 
ATOM      9  H   UNL d   1       3.574   0.398   0.326  0.00  0.00     0.169 HD
ATOM     10  O   UNL d   1       1.905   3.080   0.035  0.00  0.00    -0.266 OA
BRANCH   8  11
ATOM     11  C   UNL d   1       4.512   2.152   0.983  0.00  0.00     0.057 A 
ATOM     12  C   UNL d   1       5.818   1.640   0.909  0.00  0.00     0.060 A 
ATOM     13 CL   UNL d   1       6.136   0.102   0.187  0.00  0.00    -0.082 Cl
ATOM     14  C   UNL d   1       6.905   2.384   1.383  0.00  0.00     0.026 A 
ATOM     15  C   UNL d   1       6.699   3.635   1.965  0.00  0.00     0.002 A 
ATOM     16  C   UNL d   1       5.408   4.143   2.067  0.00  0.00     0.002 A 
ATOM     17  C   UNL d   1       4.325   3.409   1.573  0.00  0.00     0.031 A 
ENDBRANCH   8  11
ENDBRANCH   1   7
BRANCH   4  18
ATOM     18  C   UNL d   1       0.123  -2.673   0.036  0.00  0.00     0.107 C 
BRANCH  18  19
ATOM     19  C   UNL d   1      -0.164  -3.093   1.466  0.00  0.00    -0.009 A 
ATOM     20  C   UNL d   1      -1.482  -3.182   1.960  0.00  0.00     0.042 A 
ATOM     21 CL   UNL d   1      -2.865  -2.831   0.982  0.00  0.00    -0.084 Cl
ATOM     22  C   UNL d   1      -1.741  -3.586   3.277  0.00  0.00     0.024 A 
ATOM     23  C   UNL d   1      -0.694  -3.912   4.130  0.00  0.00     0.003 A 
ATOM     24  C   UNL d   1       0.616  -3.824   3.670  0.00  0.00     0.024 A 
ATOM     25  C   UNL d   1       0.880  -3.413   2.357  0.00  0.00     0.042 A 
ATOM     26 CL   UNL d   1       2.546  -3.344   1.891  0.00  0.00    -0.084 Cl
ENDBRANCH  18  19
ENDBRANCH   4  18
TORSDOF 4
