REMARK  2 active torsions:
REMARK  status: ('A' for Active; 'I' for Inactive)
REMARK    1  A    between atoms: C_9  and  C_4 
REMARK    2  A    between atoms: N_10  and  C_5 
ROOT
ATOM      1  C   UNL d   1       0.253   0.286  -0.550  0.00  0.00     0.118 A 
ATOM      2  N   UNL d   1      -1.576   1.092   0.536  0.00  0.00    -0.297 N 
ATOM      3  HN  UNL d   1      -2.248   1.701   1.003  1.00  0.00     0.187 HD
ATOM      4  C   UNL d   1      -0.401   1.438  -0.022  0.00  0.00     0.083 A 
ATOM      5  C   UNL d   1      -0.593  -0.775  -0.309  0.00  0.00     0.137 A 
ATOM      6  N   UNL d   1      -1.667  -0.233   0.338  0.00  0.00    -0.284 N 
ATOM      7  C   UNL d   1       1.525   0.197  -1.181  0.00  0.00     0.105 C 
ATOM      8  N   UNL d   1       2.557   0.126  -1.710  0.00  0.00    -0.191 NA
ATOM      9  H   UNL d   1      -2.491  -0.715   0.678  0.00  0.00     0.188 HD
ENDROOT
BRANCH   4  10
ATOM     10  C   UNL d   1       0.054   2.835   0.004  0.00  0.00    -0.006 A 
ATOM     11  C   UNL d   1      -0.302   3.669   1.077  0.00  0.00     0.015 A 
ATOM     12  C   UNL d   1       0.153   4.990   1.141  0.00  0.00     0.024 A 
ATOM     13  C   UNL d   1       0.967   5.491   0.129  0.00  0.00     0.034 A 
ATOM     14  C   UNL d   1       1.312   4.688  -0.954  0.00  0.00     0.024 A 
ATOM     15 CL   UNL d   1       1.549   7.107   0.215  0.00  0.00    -0.084 Cl
ATOM     16  C   UNL d   1       0.850   3.369  -1.021  0.00  0.00     0.015 A 
ENDBRANCH   4  10
BRANCH   5  17
ATOM     17  N   UNL d   1      -0.513  -2.093  -0.581  0.00  0.00    -0.383 N 
ATOM     18  H   UNL d   1       0.297  -2.501  -1.047  0.00  0.00     0.157 HD
ATOM     19  H   UNL d   1      -1.212  -2.780  -0.308  0.00  0.00     0.157 HD
ENDBRANCH   5  17
TORSDOF 2
