REMARK  2 active torsions:
REMARK  status: ('A' for Active; 'I' for Inactive)
REMARK    1  A    between atoms: C_2  and  C_1 
REMARK    2  A    between atoms: O_11  and  C_3 
ROOT
ATOM      1  C   UNL d   1       0.560  -1.496  -0.400  0.00  0.00     0.053 A 
ATOM      2  C   UNL d   1       0.782  -3.873  -0.305  0.00  0.00     0.140 A 
ATOM      3  N   UNL d   1      -0.271  -4.073  -1.113  0.00  0.00    -0.347 N 
ATOM      4  HN  UNL d   1      -0.572  -5.012  -1.372  1.00  0.00     0.167 HD
ATOM      5  C   UNL d   1       1.236  -2.624   0.080  0.00  0.00     0.072 A 
ATOM      6  C   UNL d   1      -0.912  -2.977  -1.567  0.00  0.00     0.091 A 
ATOM      7  C   UNL d   1      -0.540  -1.683  -1.244  0.00  0.00     0.033 A 
ENDROOT
BRANCH   1   8
ATOM      8  C   UNL d   1       1.001  -0.108  -0.023  0.00  0.00     0.417 C 
ATOM      9  F   UNL d   1       2.072  -0.091   0.818  0.00  0.00    -0.166 F 
ATOM     10  F   UNL d   1       0.021   0.597   0.606  0.00  0.00    -0.166 F 
ATOM     11  F   UNL d   1       1.364   0.634  -1.105  0.00  0.00    -0.166 F 
ENDBRANCH   1   8
BRANCH   2  12
ATOM     12  O   UNL d   1       1.396  -5.010   0.125  0.00  0.00    -0.346 OA
ATOM     13  H   UNL d   1       2.139  -4.762   0.692  0.00  0.00     0.219 HD
ENDBRANCH   2  12
TORSDOF 2
