REMARK  3 active torsions:
REMARK  status: ('A' for Active; 'I' for Inactive)
REMARK    1  A    between atoms: C_3  and  C_1 
REMARK    2  A    between atoms: C_2  and  N_7 
REMARK       I    between atoms: N_7  and  C_3 
REMARK    3  A    between atoms: N_14  and  C_8 
ROOT
ATOM      1  C   UNL d   1       0.941  -0.035  -0.012  0.00  0.00     0.127 C 
ATOM      2  C   UNL d   1       0.154  -0.772   0.799  0.00  0.00     0.113 C 
ATOM      3  C   UNL d   1       0.416   0.949  -0.882  0.00  0.00     0.106 C 
ATOM      4  N   UNL d   1       0.074   1.777  -1.624  0.00  0.00    -0.191 NA
ENDROOT
BRANCH   1   5
ATOM      5  C   UNL d   1       2.428  -0.256   0.063  0.00  0.00     0.269 C 
ATOM      6  N   UNL d   1       3.186   0.533  -0.785  0.00  0.00    -0.307 N 
ATOM      7  H   UNL d   1       2.760   1.252  -1.355  0.00  0.00     0.170 HD
ATOM      8  O   UNL d   1       2.879  -1.095   0.840  0.00  0.00    -0.266 OA
BRANCH   6   9
ATOM      9  C   UNL d   1       4.548   0.362  -0.981  0.00  0.00     0.130 A 
ATOM     10  N   UNL d   1       5.308  -0.574  -0.407  0.00  0.00    -0.245 N 
ATOM     11  O   UNL d   1       6.574  -0.429  -0.930  0.00  0.00    -0.241 OA
ATOM     12  HN  UNL d   1       5.009  -1.262   0.284  1.00  0.00     0.196 HD
ATOM     13  C   UNL d   1       6.581   0.598  -1.817  0.00  0.00     0.076 A 
ATOM     14  C   UNL d   1       5.324   1.150  -1.869  0.00  0.00     0.084 A 
ATOM     15  C   UNL d   1       7.861   0.857  -2.497  0.00  0.00     0.079 C 
ENDBRANCH   6   9
ENDBRANCH   1   5
BRANCH   2  16
ATOM     16  N   UNL d   1      -1.231  -0.827   0.952  0.00  0.00    -0.397 N 
ATOM     17  C   UNL d   1      -2.174  -0.795  -0.170  0.00  0.00     0.148 C 
ATOM     18  C   UNL d   1      -1.825  -1.308   2.204  0.00  0.00     0.148 C 
ENDBRANCH   2  16
TORSDOF 3
