REMARK  5 active torsions:
REMARK  status: ('A' for Active; 'I' for Inactive)
REMARK    1  A    between atoms: C_4  and  C_1 
REMARK    2  A    between atoms: C_11  and  C_2 
REMARK    3  A    between atoms: S_3  and  N_10 
REMARK    4  A    between atoms: C_19  and  S_3 
REMARK    5  A    between atoms: N_10  and  N_14 
REMARK       I    between atoms: N_14  and  C_11 
ROOT
ATOM      1  C   UNL d   1       0.338  -2.950   0.028  0.00  0.00     0.271 C 
ATOM      2  N   UNL d   1      -0.520  -3.808  -0.633  0.00  0.00    -0.273 N 
ATOM      3  O   UNL d   1       1.396  -3.390   0.484  0.00  0.00    -0.266 OA
ATOM      4  H   UNL d   1      -1.385  -3.509  -1.093  0.00  0.00     0.185 HD
ENDROOT
BRANCH   1   5
ATOM      5  C   UNL d   1       0.011  -1.527   0.084  0.00  0.00     0.095 A 
ATOM      6  C   UNL d   1      -1.161  -0.830  -0.189  0.00  0.00     0.145 A 
ATOM      7  O   UNL d   1      -0.922   0.508  -0.053  0.00  0.00    -0.234 OA
ATOM      8  N   UNL d   1       0.352   0.727   0.388  0.00  0.00    -0.264 N 
ATOM      9  C   UNL d   1       0.906  -0.482   0.511  0.00  0.00     0.047 A 
ATOM     10  HN  UNL d   1       0.790   1.627   0.584  1.00  0.00     0.194 HD
ATOM     11  C   UNL d   1       2.282  -0.542   1.068  0.00  0.00     0.071 C 
BRANCH   6  12
ATOM     12  C   UNL d   1      -2.542  -1.291  -0.500  0.00  0.00     0.094 A 
ATOM     13  N   UNL d   1      -2.901  -2.570  -0.633  0.00  0.00    -0.258 N 
ATOM     14  O   UNL d   1      -4.278  -2.565  -0.768  0.00  0.00    -0.242 OA
ATOM     15  HN  UNL d   1      -2.286  -3.384  -0.634  1.00  0.00     0.195 HD
ATOM     16  C   UNL d   1      -4.731  -1.284  -0.721  0.00  0.00     0.074 A 
ATOM     17  C   UNL d   1      -3.662  -0.433  -0.608  0.00  0.00     0.068 A 
ATOM     18  C   UNL d   1      -6.192  -1.098  -0.744  0.00  0.00     0.079 C 
ENDBRANCH   6  12
ENDBRANCH   1   5
BRANCH   2  19
ATOM     19  N   UNL d   1      -0.035  -5.182  -0.965  0.00  0.00    -0.123 NA
ATOM     20  H   UNL d   1       0.956  -5.308  -0.716  0.00  0.00     0.166 HD
BRANCH  19  21
ATOM     21  S   UNL d   1      -0.415  -5.684  -2.545  0.00  0.00     0.258 S 
ATOM     22  O   UNL d   1      -1.822  -5.418  -2.767  0.00  0.00    -0.204 OA
ATOM     23  O   UNL d   1       0.592  -5.118  -3.414  0.00  0.00    -0.204 OA
BRANCH  21  24
ATOM     24  C   UNL d   1      -0.179  -7.446  -2.508  0.00  0.00     0.076 A 
ATOM     25  C   UNL d   1      -1.259  -8.286  -2.214  0.00  0.00     0.025 A 
ATOM     26  C   UNL d   1      -1.119  -9.668  -2.359  0.00  0.00     0.002 A 
ATOM     27  C   UNL d   1       0.092 -10.205  -2.799  0.00  0.00     0.000 A 
ATOM     28  C   UNL d   1       1.170  -9.367  -3.085  0.00  0.00     0.002 A 
ATOM     29  C   UNL d   1       1.037  -7.985  -2.943  0.00  0.00     0.025 A 
ENDBRANCH  21  24
ENDBRANCH  19  21
ENDBRANCH   2  19
TORSDOF 5
