REMARK  7 active torsions:
REMARK  status: ('A' for Active; 'I' for Inactive)
REMARK    1  A    between atoms: C_12  and  C_3 
REMARK    2  A    between atoms: C_14  and  C_4 
REMARK    3  A    between atoms: S_17  and  C_9 
REMARK    4  A    between atoms: C_13  and  C_11 
REMARK       I    between atoms: N_15  and  C_14 
REMARK    5  A    between atoms: C_26  and  N_15 
REMARK    6  A    between atoms: C_16  and  C_26 
REMARK    7  A    between atoms: O_27  and  C_16 
ROOT
ATOM      1  N   UNL d   1       0.255   0.730   0.114  0.00  0.00    -0.233 N 
ATOM      2  C   UNL d   1       0.210  -0.669   0.142  0.00  0.00     0.146 A 
ATOM      3  C   UNL d   1      -0.923   1.471   0.084  0.00  0.00     0.144 A 
ATOM      4  C   UNL d   1       1.524  -1.125   0.059  0.00  0.00     0.112 A 
ATOM      5  N   UNL d   1       1.524   1.162   0.082  0.00  0.00    -0.284 N 
ATOM      6  HN  UNL d   1       1.845   2.129   0.130  1.00  0.00     0.188 HD
ATOM      7  N   UNL d   1      -0.978  -1.358   0.179  0.00  0.00    -0.336 N 
ATOM      8  HN  UNL d   1      -0.994  -2.376   0.240  1.00  0.00     0.167 HD
ATOM      9  C   UNL d   1       2.281   0.068  -0.026  0.00  0.00     0.104 A 
ATOM     10  C   UNL d   1      -2.111   0.833   0.078  0.00  0.00     0.071 A 
ATOM     11  C   UNL d   1      -2.090  -0.666   0.135  0.00  0.00     0.120 A 
ENDROOT
BRANCH   4  12
ATOM     12  C   UNL d   1       1.925  -2.525   0.013  0.00  0.00     0.258 C 
ATOM     13  N   UNL d   1       0.893  -3.431   0.010  0.00  0.00    -0.347 N 
ATOM     14  H   UNL d   1      -0.068  -3.089   0.052  0.00  0.00     0.163 HD
ATOM     15  O   UNL d   1       3.092  -2.902  -0.015  0.00  0.00    -0.267 OA
BRANCH  13  16
ATOM     16  C   UNL d   1       1.108  -4.859   0.007  0.00  0.00     0.232 C 
BRANCH  16  17
ATOM     17  C   UNL d   1      -0.223  -5.599  -0.059  0.00  0.00     0.158 C 
ATOM     18  O   UNL d   1      -1.316  -5.044  -0.093  0.00  0.00    -0.649 OA
BRANCH  17  19
ATOM     19  O   UNL d   1      -0.090  -6.945  -0.063  0.00  0.00    -0.775 OA
ATOM     20  H   UNL d   1       0.835  -7.256  -0.030  0.00  0.00     0.167 HD
ENDBRANCH  17  19
ENDBRANCH  16  17
ENDBRANCH  13  16
ENDBRANCH   4  12
BRANCH   9  21
ATOM     21  S   UNL d   1       3.962   0.360  -0.414  0.00  0.00    -0.114 SA
ATOM     22  C   UNL d   1       4.911  -0.789   0.583  0.00  0.00     0.097 C 
ENDBRANCH   9  21
BRANCH   3  23
ATOM     23  C   UNL d   1      -0.852   2.955   0.029  0.00  0.00     0.434 C 
ATOM     24  F   UNL d   1       0.372   3.504  -0.116  0.00  0.00    -0.165 F 
ATOM     25  F   UNL d   1      -1.606   3.423  -1.005  0.00  0.00    -0.165 F 
ATOM     26  F   UNL d   1      -1.394   3.496   1.154  0.00  0.00    -0.165 F 
ENDBRANCH   3  23
BRANCH  11  27
ATOM     27  C   UNL d   1      -3.450  -1.380   0.132  0.00  0.00     0.432 C 
ATOM     28  F   UNL d   1      -4.494  -0.502   0.118  0.00  0.00    -0.165 F 
ATOM     29  F   UNL d   1      -3.611  -2.173  -0.960  0.00  0.00    -0.165 F 
ATOM     30  F   UNL d   1      -3.626  -2.160   1.229  0.00  0.00    -0.165 F 
ENDBRANCH  11  27
TORSDOF 7
