REMARK  10 active torsions:
REMARK  status: ('A' for Active; 'I' for Inactive)
REMARK    1  A    between atoms: N_8  and  S_1 
REMARK    2  A    between atoms: C_10  and  S_1 
REMARK    3  A    between atoms: C_7  and  C_2 
REMARK    4  A    between atoms: C_4  and  C_16 
REMARK    5  A    between atoms: C_9  and  C_5 
REMARK    6  A    between atoms: C_11  and  N_8 
REMARK    7  A    between atoms: C_32  and  N_8 
REMARK    8  A    between atoms: O_31  and  C_9 
REMARK    9  A    between atoms: C_13  and  C_11 
REMARK   10  A    between atoms: C_30  and  C_32 
ROOT
ATOM      1  N   UNL d   1       2.700  -5.302  -1.173  0.00  0.00    -0.197 NA
ATOM      2  C   UNL d   1       2.238  -4.247  -1.303  0.00  0.00     0.060 C 
ATOM      3  C   UNL d   1       1.646  -2.907  -1.453  0.00  0.00     0.139 C 
ENDROOT
BRANCH   3   4
ATOM      4  C   UNL d   1       2.701  -1.817  -1.243  0.00  0.00     0.122 C 
BRANCH   4   5
ATOM      5  N   UNL d   1       2.199  -0.377  -1.428  0.00  0.00    -0.200 NA
BRANCH   5   6
ATOM      6  S   UNL d   1       1.013   0.032  -0.232  0.00  0.00     0.244 S 
ATOM      7  O   UNL d   1       1.663  -0.083   1.059  0.00  0.00    -0.206 OA
ATOM      8  O   UNL d   1      -0.169  -0.756  -0.528  0.00  0.00    -0.206 OA
BRANCH   6   9
ATOM      9  C   UNL d   1       0.542   1.742  -0.417  0.00  0.00     0.074 A 
ATOM     10  C   UNL d   1      -0.788   2.066  -0.699  0.00  0.00     0.025 A 
ATOM     11  C   UNL d   1      -1.216   3.399  -0.617  0.00  0.00     0.014 A 
ATOM     12  C   UNL d   1      -0.325   4.426  -0.260  0.00  0.00    -0.025 A 
ATOM     13  C   UNL d   1       1.001   4.085   0.025  0.00  0.00     0.014 A 
ATOM     14  C   UNL d   1       1.426   2.753  -0.026  0.00  0.00     0.025 A 
BRANCH  12  15
ATOM     15  C   UNL d   1      -0.833   5.784  -0.034  0.00  0.00    -0.002 A 
ATOM     16  C   UNL d   1      -0.210   6.957  -0.453  0.00  0.00     0.100 A 
ATOM     17  S   UNL d   1      -1.105   8.345   0.043  0.00  0.00    -0.079 SA
ATOM     18  C   UNL d   1      -2.337   7.418   0.768  0.00  0.00     0.081 A 
ATOM     19  C   UNL d   1      -2.057   6.072   0.668  0.00  0.00     0.038 A 
BRANCH  16  20
ATOM     20  C   UNL d   1       1.045   7.177  -1.244  0.00  0.00     0.424 C 
ATOM     21  F   UNL d   1       1.261   8.480  -1.567  0.00  0.00    -0.166 F 
ATOM     22  F   UNL d   1       2.154   6.776  -0.567  0.00  0.00    -0.166 F 
ATOM     23  F   UNL d   1       1.030   6.491  -2.416  0.00  0.00    -0.166 F 
ENDBRANCH  16  20
BRANCH  18  24
ATOM     24  C   UNL d   1      -3.477   8.082   1.373  0.00  0.00     0.299 C 
ATOM     25  O   UNL d   1      -3.654   9.291   1.460  0.00  0.00    -0.259 OA
BRANCH  24  26
ATOM     26  O   UNL d   1      -4.360   7.146   1.833  0.00  0.00    -0.322 OA
ATOM     27  C   UNL d   1      -5.543   7.698   2.412  0.00  0.00     0.213 C 
ENDBRANCH  24  26
ENDBRANCH  18  24
ENDBRANCH  12  15
ENDBRANCH   6   9
ENDBRANCH   5   6
BRANCH   5  28
ATOM     28  C   UNL d   1       3.371   0.568  -1.419  0.00  0.00     0.172 C 
BRANCH  28  29
ATOM     29  C   UNL d   1       4.382   0.232  -2.458  0.00  0.00     0.066 A 
ATOM     30  O   UNL d   1       5.624  -0.110  -2.006  0.00  0.00    -0.326 OA
ATOM     31  C   UNL d   1       6.381  -0.388  -3.097  0.00  0.00     0.142 A 
ATOM     32  C   UNL d   1       5.644  -0.230  -4.247  0.00  0.00     0.027 A 
ATOM     33  C   UNL d   1       4.353   0.183  -3.837  0.00  0.00     0.036 A 
ENDBRANCH  28  29
ENDBRANCH   5  28
ENDBRANCH   4   5
ENDBRANCH   3   4
TORSDOF 10
