REMARK  3 active torsions:
REMARK  status: ('A' for Active; 'I' for Inactive)
REMARK    1  A    between atoms: C_8  and  C_2 
REMARK    2  A    between atoms: N_4  and  C_8 
REMARK    3  A    between atoms: O_16  and  N_9 
ROOT
ATOM      1  C   UNL d   1      -1.240   1.466   0.103  0.00  0.00     0.048 C 
ATOM      2  C   UNL d   1      -2.486   0.655  -0.314  0.00  0.00     0.057 C 
ATOM      3  C   UNL d   1       0.067   0.716   0.053  0.00  0.00    -0.005 A 
ATOM      4  N   UNL d   1      -1.168   2.716   0.467  0.00  0.00    -0.272 N 
ATOM      5  HN  UNL d   1      -0.284   3.162   0.711  1.00  0.00     0.194 HD
ATOM      6  C   UNL d   1       0.084  -0.684  -0.025  0.00  0.00    -0.046 A 
ATOM      7  C   UNL d   1      -2.397  -0.708   0.398  0.00  0.00     0.017 C 
ATOM      8  C   UNL d   1      -1.181  -1.491  -0.086  0.00  0.00     0.040 C 
ATOM      9  C   UNL d   1       1.277   1.426   0.097  0.00  0.00     0.014 A 
ATOM     10  C   UNL d   1       1.320  -1.351  -0.081  0.00  0.00     0.008 A 
ATOM     11  C   UNL d   1       2.497   0.751   0.051  0.00  0.00     0.001 A 
ATOM     12  C   UNL d   1       2.518  -0.637  -0.040  0.00  0.00     0.001 A 
ENDROOT
BRANCH   2  13
ATOM     13  C   UNL d   1      -3.852   1.314  -0.071  0.00  0.00     0.140 C 
BRANCH  13  14
ATOM     14  N   UNL d   1      -4.998   0.520  -0.483  0.00  0.00    -0.351 N 
ATOM     15  C   UNL d   1      -5.982   0.050   0.339  0.00  0.00     0.182 A 
ATOM     16  N   UNL d   1      -6.901  -0.603  -0.338  0.00  0.00    -0.361 N 
ATOM     17  C   UNL d   1      -6.508  -0.524  -1.649  0.00  0.00     0.106 A 
ATOM     18  HN  UNL d   1      -7.728  -1.069   0.033  1.00  0.00     0.166 HD
ATOM     19  C   UNL d   1      -5.331   0.179  -1.764  0.00  0.00     0.108 A 
ENDBRANCH  13  14
ENDBRANCH   2  13
BRANCH   4  20
ATOM     20  O   UNL d   1      -2.373   3.398   0.500  0.00  0.00    -0.290 OA
ATOM     21  H   UNL d   1      -2.102   4.289   0.796  0.00  0.00     0.244 HD
ENDBRANCH   4  20
TORSDOF 3
