REMARK  6 active torsions:
REMARK  status: ('A' for Active; 'I' for Inactive)
REMARK    1  A    between atoms: C_2  and  C_1 
REMARK       I    between atoms: C_3  and  N_14 
REMARK    2  A    between atoms: C_8  and  C_3 
REMARK    3  A    between atoms: S_17  and  C_6 
REMARK    4  A    between atoms: N_14  and  C_23 
REMARK    5  A    between atoms: C_24  and  S_17 
REMARK    6  A    between atoms: C_23  and  C_24 
ROOT
ATOM      1  C   UNL d   1       0.099  -4.850   4.669  0.00  0.00     0.100 C 
ENDROOT
BRANCH   1   2
ATOM      2  C   UNL d   1      -0.240  -5.685   5.904  0.00  0.00     0.133 C 
BRANCH   2   3
ATOM      3  N   UNL d   1      -0.084  -7.116   5.690  0.00  0.00    -0.356 N 
ATOM      4  C   UNL d   1       1.114  -7.754   5.931  0.00  0.00     0.251 C 
ATOM      5  O   UNL d   1       2.148  -7.165   6.221  0.00  0.00    -0.268 OA
ATOM      6  H   UNL d   1      -0.851  -7.625   5.272  0.00  0.00     0.162 HD
BRANCH   4   7
ATOM      7  C   UNL d   1       1.109  -9.241   5.831  0.00  0.00     0.032 A 
ATOM      8  C   UNL d   1       2.301  -9.893   5.490  0.00  0.00     0.018 A 
ATOM      9  C   UNL d   1       2.357 -11.289   5.454  0.00  0.00     0.025 A 
ATOM     10  C   UNL d   1       1.222 -12.034   5.771  0.00  0.00     0.034 A 
ATOM     11  C   UNL d   1       0.031 -11.395   6.115  0.00  0.00     0.025 A 
ATOM     12 CL   UNL d   1       1.296 -13.753   5.759  0.00  0.00    -0.084 Cl
ATOM     13  C   UNL d   1      -0.028  -9.998   6.148  0.00  0.00     0.018 A 
ENDBRANCH   4   7
ENDBRANCH   2   3
ENDBRANCH   1   2
BRANCH   1  14
ATOM     14  S   UNL d   1      -0.186  -3.081   5.040  0.00  0.00    -0.111 SA
BRANCH  14  15
ATOM     15  C   UNL d   1       0.161  -2.343   3.456  0.00  0.00     0.069 A 
ATOM     16  C   UNL d   1       0.063  -0.962   3.322  0.00  0.00     0.038 A 
ATOM     17  C   UNL d   1       0.309  -0.388   2.077  0.00  0.00     0.020 A 
ATOM     18  C   UNL d   1       0.649  -1.202   0.994  0.00  0.00     0.063 A 
ATOM     19  C   UNL d   1       0.734  -2.566   1.226  0.00  0.00     0.105 A 
ATOM     20  N   UNL d   1       0.493  -3.148   2.425  0.00  0.00    -0.360 N 
ATOM     21  HN  UNL d   1       0.561  -4.159   2.544  1.00  0.00     0.166 HD
BRANCH  18  22
ATOM     22  C   UNL d   1       0.906  -0.639  -0.370  0.00  0.00     0.418 C 
ATOM     23  F   UNL d   1       1.205  -1.584  -1.304  0.00  0.00    -0.166 F 
ATOM     24  F   UNL d   1       1.946   0.241  -0.385  0.00  0.00    -0.166 F 
ATOM     25  F   UNL d   1      -0.166   0.042  -0.860  0.00  0.00    -0.166 F 
ENDBRANCH  18  22
ENDBRANCH  14  15
ENDBRANCH   1  14
TORSDOF 6
