REMARK  5 active torsions:
REMARK  status: ('A' for Active; 'I' for Inactive)
REMARK    1  A    between atoms: N_3  and  C_1 
REMARK       I    between atoms: C_2  and  N_3 
REMARK    2  A    between atoms: C_8  and  C_2 
REMARK    3  A    between atoms: C_9  and  C_8 
REMARK    4  A    between atoms: O_13  and  C_9 
REMARK    5  A    between atoms: C_14  and  O_13 
ROOT
ATOM      1  C   UNL d   1       3.374  -0.777  -0.204  0.00  0.00     0.232 C 
ATOM      2  N   UNL d   1       2.122  -1.207   0.360  0.00  0.00    -0.312 N 
ATOM      3  O   UNL d   1       4.099  -1.581  -0.778  0.00  0.00    -0.273 OA
ATOM      4  H   UNL d   1       1.546  -0.504   0.833  0.00  0.00     0.170 HD
ENDROOT
BRANCH   2   5
ATOM      5  C   UNL d   1       1.629  -2.505   0.280  0.00  0.00     0.123 A 
ATOM      6  C   UNL d   1       2.162  -3.611  -0.342  0.00  0.00     0.068 A 
ATOM      7  C   UNL d   1       1.231  -4.644  -0.114  0.00  0.00     0.111 A 
ATOM      8  N   UNL d   1       0.187  -4.233   0.606  0.00  0.00    -0.310 N 
ATOM      9  N   UNL d   1       0.450  -2.937   0.835  0.00  0.00    -0.286 N 
ATOM     10  HN  UNL d   1      -0.621  -4.776   0.911  1.00  0.00     0.186 HD
ATOM     11  H   UNL d   1      -0.220  -2.408   1.381  0.00  0.00     0.188 HD
ENDBRANCH   2   5
BRANCH   1  12
ATOM     12  C   UNL d   1       3.788   0.654  -0.047  0.00  0.00     0.214 C 
BRANCH  12  13
ATOM     13  C   UNL d   1       2.768   1.575   0.530  0.00  0.00     0.267 C 
ATOM     14  O   UNL d   1       1.677   1.213   0.954  0.00  0.00    -0.265 OA
BRANCH  13  15
ATOM     15  O   UNL d   1       3.240   2.848   0.514  0.00  0.00    -0.322 OA
BRANCH  15  16
ATOM     16  C   UNL d   1       2.351   3.888   0.955  0.00  0.00     0.174 C 
ATOM     17  C   UNL d   1       2.432   4.063   2.458  0.00  0.00     0.034 C 
ENDBRANCH  15  16
ENDBRANCH  13  15
ENDBRANCH  12  13
ENDBRANCH   1  12
TORSDOF 5
