REMARK  5 active torsions:
REMARK  status: ('A' for Active; 'I' for Inactive)
REMARK    1  A    between atoms: C_2  and  S_1 
REMARK    2  A    between atoms: C_8  and  S_1 
REMARK    3  A    between atoms: C_5  and  C_17 
REMARK    4  A    between atoms: C_16  and  C_6 
REMARK    5  A    between atoms: C_18  and  C_9 
ROOT
ATOM      1  C   UNL d   1      -1.019  -2.996   0.092  0.00  0.00     0.144 C 
ATOM      2  C   UNL d   1      -0.172  -2.242   0.821  0.00  0.00     0.046 C 
ATOM      3  C   UNL d   1      -2.415  -2.997   0.288  0.00  0.00     0.112 C 
ATOM      4  N   UNL d   1      -3.566  -2.956   0.439  0.00  0.00    -0.191 NA
ENDROOT
BRANCH   1   5
ATOM      5  S   UNL d   1      -0.336  -4.085  -1.074  0.00  0.00     0.216 S 
ATOM      6  O   UNL d   1       0.009  -5.331  -0.411  0.00  0.00    -0.216 OA
ATOM      7  O   UNL d   1       0.678  -3.382  -1.841  0.00  0.00    -0.216 OA
BRANCH   5   8
ATOM      8  C   UNL d   1      -1.643  -4.475  -2.227  0.00  0.00     0.066 A 
ATOM      9  C   UNL d   1      -2.429  -5.614  -2.021  0.00  0.00     0.047 A 
ATOM     10  C   UNL d   1      -3.416  -5.935  -2.952  0.00  0.00     0.035 A 
ATOM     11 CL   UNL d   1      -4.382  -7.340  -2.722  0.00  0.00    -0.084 Cl
ATOM     12  C   UNL d   1      -3.616  -5.138  -4.080  0.00  0.00     0.024 A 
ATOM     13  C   UNL d   1      -2.802  -4.025  -4.298  0.00  0.00     0.003 A 
ATOM     14  C   UNL d   1      -1.804  -3.697  -3.379  0.00  0.00     0.024 A 
ENDBRANCH   5   8
ENDBRANCH   1   5
BRANCH   2  15
ATOM     15  C   UNL d   1      -0.602  -1.393   1.939  0.00  0.00    -0.034 A 
ATOM     16  C   UNL d   1      -0.464  -1.882   3.243  0.00  0.00     0.012 A 
ATOM     17  C   UNL d   1      -0.844  -1.098   4.338  0.00  0.00     0.015 A 
ATOM     18  C   UNL d   1      -1.356   0.194   4.155  0.00  0.00    -0.002 A 
ATOM     19  C   UNL d   1      -1.553   0.646   2.838  0.00  0.00     0.015 A 
ATOM     20  C   UNL d   1      -1.171  -0.135   1.740  0.00  0.00     0.012 A 
BRANCH  18  21
ATOM     21  C   UNL d   1      -1.656   1.097   5.280  0.00  0.00     0.084 A 
ATOM     22  N   UNL d   1      -2.577   2.040   5.258  0.00  0.00    -0.352 N 
ATOM     23  C   UNL d   1      -2.553   2.796   6.425  0.00  0.00     0.024 A 
ATOM     24  HN  UNL d   1      -3.224   2.196   4.485  1.00  0.00     0.166 HD
ATOM     25  C   UNL d   1      -1.568   2.414   7.319  0.00  0.00     0.077 A 
ATOM     26  S   UNL d   1      -0.696   1.075   6.712  0.00  0.00    -0.081 SA
BRANCH  23  27
ATOM     27  C   UNL d   1      -3.555   3.927   6.605  0.00  0.00    -0.008 C 
ATOM     28  C   UNL d   1      -4.515   4.014   5.400  0.00  0.00     0.021 C 
ATOM     29  C   UNL d   1      -4.397   3.693   7.875  0.00  0.00     0.021 C 
ATOM     30  C   UNL d   1      -2.825   5.279   6.733  0.00  0.00     0.021 C 
ENDBRANCH  23  27
ENDBRANCH  18  21
ENDBRANCH   2  15
TORSDOF 5
