REMARK  3 active torsions:
REMARK  status: ('A' for Active; 'I' for Inactive)
REMARK    1  A    between atoms: C_2  and  C_1 
REMARK       I    between atoms: N_3  and  C_1 
REMARK    2  A    between atoms: C_4  and  N_3 
REMARK    3  A    between atoms: O_14  and  C_5 
ROOT
ATOM      1  C   UNL d   1       0.945   0.010  -0.108  0.00  0.00     0.259 C 
ATOM      2  N   UNL d   1       0.184  -1.021   0.418  0.00  0.00    -0.323 N 
ATOM      3  O   UNL d   1       2.148  -0.027  -0.357  0.00  0.00    -0.267 OA
ATOM      4  H   UNL d   1      -0.816  -0.880   0.474  0.00  0.00     0.169 HD
ENDROOT
BRANCH   1   5
ATOM      5  C   UNL d   1       0.218   1.255  -0.483  0.00  0.00     0.065 A 
ATOM      6  C   UNL d   1       0.717   2.047  -1.532  0.00  0.00     0.081 A 
ATOM      7  C   UNL d   1       0.036   3.188  -1.948  0.00  0.00     0.037 A 
ATOM      8  C   UNL d   1      -1.138   3.569  -1.302  0.00  0.00     0.003 A 
ATOM      9  C   UNL d   1      -1.622   2.816  -0.232  0.00  0.00     0.001 A 
ATOM     10  C   UNL d   1      -0.946   1.663   0.183  0.00  0.00     0.020 A 
BRANCH   6  11
ATOM     11  O   UNL d   1       1.876   1.758  -2.204  0.00  0.00    -0.360 OA
ATOM     12  H   UNL d   1       2.348   1.057  -1.700  0.00  0.00     0.217 HD
ENDBRANCH   6  11
ENDBRANCH   1   5
BRANCH   2  13
ATOM     13  C   UNL d   1       0.637  -2.324   0.737  0.00  0.00     0.038 A 
ATOM     14  C   UNL d   1       1.971  -2.729   0.636  0.00  0.00     0.053 A 
ATOM     15  C   UNL d   1       2.330  -4.052   0.903  0.00  0.00     0.037 A 
ATOM     16 CL   UNL d   1       3.974  -4.537   0.737  0.00  0.00    -0.084 Cl
ATOM     17  C   UNL d   1       1.375  -4.984   1.290  0.00  0.00     0.048 A 
ATOM     18  C   UNL d   1       0.052  -4.578   1.420  0.00  0.00     0.037 A 
ATOM     19  C   UNL d   1      -0.322  -3.258   1.149  0.00  0.00     0.053 A 
ATOM     20 CL   UNL d   1      -1.143  -5.718   1.906  0.00  0.00    -0.084 Cl
ENDBRANCH   2  13
TORSDOF 3
