REMARK  4 active torsions:
REMARK  status: ('A' for Active; 'I' for Inactive)
REMARK       I    between atoms: N_4  and  C_1 
REMARK    1  A    between atoms: C_5  and  C_1 
REMARK    2  A    between atoms: N_2  and  C_5 
REMARK    3  A    between atoms: C_10  and  N_4 
REMARK    4  A    between atoms: C_11  and  N_4 
ROOT
ATOM      1  C   UNL d   1       0.714  -0.200   0.717  0.00  0.00     0.242 C 
ATOM      2  N   UNL d   1       0.275   1.143   0.896  0.00  0.00    -0.312 N 
ATOM      3  O   UNL d   1      -0.057  -1.167   0.840  0.00  0.00    -0.271 OA
ENDROOT
BRANCH   1   4
ATOM      4  C   UNL d   1       2.175  -0.454   0.275  0.00  0.00     0.226 C 
BRANCH   4   5
ATOM      5  N   UNL d   1       2.520  -1.900   0.265  0.00  0.00    -0.372 N 
ATOM      6  C   UNL d   1       2.986  -2.556  -0.868  0.00  0.00     0.036 A 
ATOM      7  C   UNL d   1       3.616  -3.817  -0.773  0.00  0.00    -0.031 A 
ATOM      8  C   UNL d   1       2.810  -2.046  -2.162  0.00  0.00     0.030 A 
ATOM      9  C   UNL d   1       4.077  -4.495  -1.918  0.00  0.00     0.016 A 
ATOM     10  C   UNL d   1       3.832  -4.462   0.571  0.00  0.00     0.042 C 
ATOM     11  C   UNL d   1       3.896  -3.954  -3.193  0.00  0.00    -0.061 A 
ATOM     12  C   UNL d   1       3.262  -2.721  -3.304  0.00  0.00     0.009 A 
ATOM     13  C   UNL d   1       4.353  -4.705  -4.404  0.00  0.00     0.048 C 
ATOM     14  C   UNL d   1       2.735  -4.039   1.529  0.00  0.00     0.024 C 
ATOM     15  C   UNL d   1       2.678  -2.521   1.589  0.00  0.00     0.124 C 
ENDBRANCH   4   5
ENDBRANCH   1   4
BRANCH   2  16
ATOM     16  C   UNL d   1      -1.129   1.306   1.183  0.00  0.00     0.037 A 
ATOM     17  C   UNL d   1      -1.731   0.540   2.196  0.00  0.00     0.030 A 
ATOM     18  C   UNL d   1      -3.106   0.599   2.433  0.00  0.00     0.002 A 
ATOM     19  C   UNL d   1      -3.904   1.455   1.683  0.00  0.00     0.000 A 
ATOM     20  C   UNL d   1      -3.329   2.230   0.680  0.00  0.00     0.002 A 
ATOM     21  C   UNL d   1      -1.957   2.130   0.410  0.00  0.00     0.030 A 
ENDBRANCH   2  16
BRANCH   2  22
ATOM     22  C   UNL d   1       1.202   2.324   0.893  0.00  0.00     0.093 C 
ATOM     23  C   UNL d   1       2.140   2.336   2.127  0.00  0.00     0.026 C 
ATOM     24  C   UNL d   1       1.420   2.729   3.412  0.00  0.00     0.002 C 
ATOM     25  C   UNL d   1       0.757   4.096   3.312  0.00  0.00     0.000 C 
ATOM     26  C   UNL d   1      -0.086   4.256   2.054  0.00  0.00     0.002 C 
ATOM     27  C   UNL d   1       0.629   3.763   0.791  0.00  0.00     0.026 C 
ENDBRANCH   2  22
TORSDOF 4
