REMARK  7 active torsions:
REMARK  status: ('A' for Active; 'I' for Inactive)
REMARK    1  A    between atoms: S_8  and  C_1 
REMARK    2  A    between atoms: S_2  and  N_5 
REMARK    3  A    between atoms: C_13  and  S_2 
REMARK    4  A    between atoms: C_10  and  C_4 
REMARK    5  A    between atoms: N_5  and  S_8 
REMARK    6  A    between atoms: O_19  and  C_10 
REMARK    7  A    between atoms: C_23  and  O_19 
ROOT
ATOM      1  C   UNL d   1      -1.334   1.486  -0.161  0.00  0.00     0.062 A 
ATOM      2  S   UNL d   1      -2.726   0.521  -0.376  0.00  0.00    -0.075 SA
ATOM      3  C   UNL d   1      -1.868  -0.939  -0.153  0.00  0.00     0.088 A 
ATOM      4  C   UNL d   1      -0.193   0.711  -0.048  0.00  0.00    -0.004 A 
ATOM      5  C   UNL d   1      -0.503  -0.701  -0.053  0.00  0.00    -0.022 A 
ATOM      6  C   UNL d   1       1.176   1.123   0.031  0.00  0.00     0.010 C 
ATOM      7  C   UNL d   1       2.188   0.239   0.044  0.00  0.00    -0.025 C 
ATOM      8  C   UNL d   1       0.555  -1.768   0.061  0.00  0.00     0.045 C 
ATOM      9  C   UNL d   1       2.002  -1.252  -0.009  0.00  0.00     0.032 C 
ENDROOT
BRANCH   1  10
ATOM     10  S   UNL d   1      -1.622   3.211  -0.091  0.00  0.00    -0.079 SA
ATOM     11  C   UNL d   1      -0.773   3.692  -1.615  0.00  0.00     0.108 C 
BRANCH  10  12
ATOM     12  N   UNL d   1      -0.420   3.578   0.897  0.00  0.00    -0.259 N 
ATOM     13  HN  UNL d   1       0.552   3.663   0.598  1.00  0.00     0.186 HD
BRANCH  12  14
ATOM     14  S   UNL d   1      -0.944   3.816   2.521  0.00  0.00     0.267 S 
ATOM     15  O   UNL d   1      -1.906   4.905   2.571  0.00  0.00    -0.200 OA
ATOM     16  O   UNL d   1      -1.223   2.540   3.145  0.00  0.00    -0.200 OA
BRANCH  14  17
ATOM     17  C   UNL d   1       0.569   4.429   3.225  0.00  0.00     0.080 A 
ATOM     18  C   UNL d   1       0.791   5.808   3.292  0.00  0.00     0.025 A 
ATOM     19  C   UNL d   1       1.973   6.283   3.855  0.00  0.00     0.002 A 
ATOM     20  C   UNL d   1       2.918   5.384   4.353  0.00  0.00     0.000 A 
ATOM     21  C   UNL d   1       2.684   4.008   4.297  0.00  0.00     0.002 A 
ATOM     22  C   UNL d   1       1.504   3.523   3.736  0.00  0.00     0.025 A 
ENDBRANCH  14  17
ENDBRANCH  12  14
ENDBRANCH  10  12
ENDBRANCH   1  10
BRANCH   3  23
ATOM     23  C   UNL d   1      -2.553  -2.224  -0.152  0.00  0.00     0.300 C 
ATOM     24  O   UNL d   1      -2.004  -3.316  -0.055  0.00  0.00    -0.259 OA
BRANCH  23  25
ATOM     25  O   UNL d   1      -3.893  -2.064  -0.359  0.00  0.00    -0.317 OA
BRANCH  25  26
ATOM     26  C   UNL d   1      -4.595  -3.221  -0.825  0.00  0.00     0.174 C 
ATOM     27  C   UNL d   1      -4.476  -3.258  -2.339  0.00  0.00     0.034 C 
ENDBRANCH  25  26
ENDBRANCH  23  25
ENDBRANCH   3  23
TORSDOF 7
