REMARK  3 active torsions:
REMARK  status: ('A' for Active; 'I' for Inactive)
REMARK    1  A    between atoms: C_7  and  C_1 
REMARK    2  A    between atoms: C_8  and  N_4 
REMARK       I    between atoms: N_10  and  C_7 
REMARK    3  A    between atoms: C_11  and  C_8 
ROOT
ATOM      1  C   UNL d   1       1.071  -0.697  -0.060  0.00  0.00     0.124 A 
ATOM      2  N   UNL d   1      -0.235  -1.168  -0.091  0.00  0.00    -0.346 N 
ATOM      3  HN  UNL d   1      -0.541  -2.141  -0.111  1.00  0.00     0.167 HD
ATOM      4  N   UNL d   1      -0.247   1.054  -0.075  0.00  0.00    -0.340 N 
ATOM      5  C   UNL d   1       1.081   0.692  -0.048  0.00  0.00     0.041 A 
ATOM      6  C   UNL d   1      -0.990  -0.096  -0.089  0.00  0.00     0.184 A 
ATOM      7  C   UNL d   1       2.232   1.629  -0.010  0.00  0.00     0.071 C 
ENDROOT
BRANCH   4   8
ATOM      8  C   UNL d   1      -0.817   2.390   0.020  0.00  0.00     0.168 C 
BRANCH   8   9
ATOM      9  C   UNL d   1      -0.988   3.055  -1.326  0.00  0.00    -0.040 A 
ATOM     10  C   UNL d   1      -1.876   2.535  -2.282  0.00  0.00     0.010 A 
ATOM     11  C   UNL d   1      -2.077   3.191  -3.500  0.00  0.00     0.024 A 
ATOM     12  C   UNL d   1      -1.396   4.374  -3.771  0.00  0.00     0.034 A 
ATOM     13  C   UNL d   1      -0.507   4.902  -2.838  0.00  0.00     0.024 A 
ATOM     14 CL   UNL d   1      -1.665   5.195  -5.258  0.00  0.00    -0.084 Cl
ATOM     15  C   UNL d   1      -0.303   4.245  -1.621  0.00  0.00     0.010 A 
ENDBRANCH   8   9
ENDBRANCH   4   8
BRANCH   1  16
ATOM     16  C   UNL d   1       2.228  -1.595  -0.030  0.00  0.00     0.268 C 
ATOM     17  O   UNL d   1       3.398  -1.228   0.019  0.00  0.00    -0.266 OA
ATOM     18  N   UNL d   1       1.891  -2.917  -0.054  0.00  0.00    -0.365 N 
ATOM     19  H   UNL d   1       0.911  -3.171  -0.092  0.00  0.00     0.159 HD
ATOM     20  H   UNL d   1       2.615  -3.617  -0.034  0.00  0.00     0.159 HD
ENDBRANCH   1  16
TORSDOF 3
