REMARK  6 active torsions:
REMARK  status: ('A' for Active; 'I' for Inactive)
REMARK    1  A    between atoms: C_2  and  S_1 
REMARK    2  A    between atoms: C_5  and  S_1 
REMARK    3  A    between atoms: C_3  and  C_2 
REMARK    4  A    between atoms: O_9  and  C_3 
REMARK    5  A    between atoms: C_4  and  C_6 
REMARK    6  A    between atoms: C_19  and  O_9 
ROOT
ATOM      1  S   UNL d   1       1.204  -0.167  -0.124  0.00  0.00     0.208 S 
ATOM      2  O   UNL d   1       0.868  -1.580  -0.043  0.00  0.00    -0.220 OA
ATOM      3  O   UNL d   1       0.862   0.698   0.997  0.00  0.00    -0.220 OA
ENDROOT
BRANCH   1   4
ATOM      4  C   UNL d   1       0.425   0.488  -1.603  0.00  0.00     0.150 C 
ATOM      5  C   UNL d   1      -1.095   0.555  -1.367  0.00  0.00     0.043 C 
ATOM      6  C   UNL d   1       0.916   1.905  -1.932  0.00  0.00     0.043 C 
BRANCH   4   7
ATOM      7  C   UNL d   1       0.845  -0.435  -2.731  0.00  0.00     0.287 C 
ATOM      8  O   UNL d   1       1.986  -0.482  -3.166  0.00  0.00    -0.263 OA
BRANCH   7   9
ATOM      9  O   UNL d   1      -0.218  -1.193  -3.232  0.00  0.00    -0.278 OA
BRANCH   9  10
ATOM     10  C   UNL d   1      -0.122  -1.970  -4.413  0.00  0.00     0.079 A 
ATOM     11  C   UNL d   1      -1.034  -3.023  -4.528  0.00  0.00     0.039 A 
ATOM     12  C   UNL d   1      -1.122  -3.739  -5.727  0.00  0.00     0.026 A 
ATOM     13  C   UNL d   1      -0.298  -3.400  -6.800  0.00  0.00     0.034 A 
ATOM     14  C   UNL d   1       0.635  -2.372  -6.673  0.00  0.00     0.026 A 
ATOM     15 CL   UNL d   1      -0.459  -4.226  -8.301  0.00  0.00    -0.084 Cl
ATOM     16  C   UNL d   1       0.721  -1.650  -5.478  0.00  0.00     0.039 A 
ENDBRANCH   9  10
ENDBRANCH   7   9
ENDBRANCH   4   7
ENDBRANCH   1   4
BRANCH   1  17
ATOM     17  C   UNL d   1       2.970  -0.057  -0.375  0.00  0.00     0.129 A 
ATOM     18  N   UNL d   1       3.509   1.153  -0.081  0.00  0.00    -0.356 N 
ATOM     19  C   UNL d   1       4.850   1.262  -0.231  0.00  0.00     0.105 A 
ATOM     20  HN  UNL d   1       2.937   1.935   0.236  1.00  0.00     0.166 HD
ATOM     21  C   UNL d   1       5.666   0.230  -0.679  0.00  0.00     0.063 A 
ATOM     22  C   UNL d   1       5.062  -1.000  -0.977  0.00  0.00     0.020 A 
ATOM     23  C   UNL d   1       3.692  -1.161  -0.801  0.00  0.00     0.043 A 
BRANCH  21  24
ATOM     24  C   UNL d   1       7.143   0.428  -0.836  0.00  0.00     0.418 C 
ATOM     25  F   UNL d   1       7.572   1.661  -0.453  0.00  0.00    -0.166 F 
ATOM     26  F   UNL d   1       7.865  -0.464  -0.104  0.00  0.00    -0.166 F 
ATOM     27  F   UNL d   1       7.553   0.273  -2.124  0.00  0.00    -0.166 F 
ENDBRANCH  21  24
ENDBRANCH   1  17
TORSDOF 6
