REMARK  4 active torsions:
REMARK  status: ('A' for Active; 'I' for Inactive)
REMARK    1  A    between atoms: C_2  and  C_1 
REMARK       I    between atoms: N_3  and  C_2 
REMARK       I    between atoms: C_4  and  N_3 
REMARK       I    between atoms: N_10  and  C_4 
REMARK    2  A    between atoms: O_22  and  C_5 
REMARK    3  A    between atoms: O_21  and  C_6 
REMARK    4  A    between atoms: C_7  and  N_10 
ROOT
ATOM      1  C   UNL d   1       0.293  -3.221  -1.495  0.00  0.00     0.265 C 
ATOM      2  N   UNL d   1       1.676  -3.470  -1.256  0.00  0.00    -0.275 N 
ATOM      3  C   UNL d   1       2.935  -3.177  -0.724  0.00  0.00     0.327 C 
ATOM      4  N   UNL d   1       3.030  -2.136   0.128  0.00  0.00    -0.308 N 
ATOM      5  O   UNL d   1      -0.190  -4.090  -2.233  0.00  0.00    -0.267 OA
ATOM      6  O   UNL d   1       3.864  -3.901  -1.057  0.00  0.00    -0.247 OA
ATOM      7  H   UNL d   1       1.853  -4.312  -1.801  0.00  0.00     0.173 HD
ATOM      8  H   UNL d   1       2.177  -1.913   0.613  0.00  0.00     0.170 HD
ENDROOT
BRANCH   1   9
ATOM      9  C   UNL d   1      -0.610  -2.119  -0.978  0.00  0.00     0.102 C 
ATOM     10  C   UNL d   1      -0.171  -0.943  -0.345  0.00  0.00     0.108 C 
ATOM     11  C   UNL d   1      -1.083  -0.089   0.310  0.00  0.00     0.070 C 
ATOM     12 CL   UNL d   1      -0.557   1.210   1.330  0.00  0.00    -0.081 Cl
ATOM     13  C   UNL d   1      -2.450  -0.295   0.217  0.00  0.00     0.053 C 
ATOM     14  C   UNL d   1      -2.927  -1.367  -0.521  0.00  0.00     0.070 C 
ATOM     15  C   UNL d   1      -2.032  -2.267  -1.142  0.00  0.00     0.108 C 
ATOM     16 CL   UNL d   1      -4.647  -1.572  -0.514  0.00  0.00    -0.081 Cl
BRANCH  10  17
ATOM     17  O   UNL d   1       1.152  -0.635  -0.319  0.00  0.00    -0.353 OA
ATOM     18  C   UNL d   1       1.494   0.564  -1.028  0.00  0.00     0.210 C 
ENDBRANCH  10  17
BRANCH  15  19
ATOM     19  O   UNL d   1      -2.521  -3.369  -1.808  0.00  0.00    -0.353 OA
ATOM     20  C   UNL d   1      -3.437  -3.116  -2.878  0.00  0.00     0.210 C 
ENDBRANCH  15  19
ENDBRANCH   1   9
BRANCH   4  21
ATOM     21  C   UNL d   1       4.191  -1.440   0.553  0.00  0.00     0.048 A 
ATOM     22  C   UNL d   1       5.267  -1.096  -0.300  0.00  0.00    -0.034 A 
ATOM     23  C   UNL d   1       6.262  -0.215   0.182  0.00  0.00     0.015 A 
ATOM     24  C   UNL d   1       5.441  -1.525  -1.731  0.00  0.00     0.050 C 
ATOM     25  C   UNL d   1       6.198   0.353   1.454  0.00  0.00    -0.061 A 
ATOM     26  C   UNL d   1       5.167  -0.037   2.303  0.00  0.00     0.015 A 
ATOM     27  C   UNL d   1       7.232   1.345   1.896  0.00  0.00     0.048 C 
ATOM     28  C   UNL d   1       4.176  -0.938   1.877  0.00  0.00    -0.034 A 
ATOM     29  C   UNL d   1       3.128  -1.336   2.886  0.00  0.00     0.050 C 
ENDBRANCH   4  21
TORSDOF 4
