REMARK  2 active torsions:
REMARK  status: ('A' for Active; 'I' for Inactive)
REMARK    1  A    between atoms: C_12  and  C_10 
REMARK    2  A    between atoms: O_13  and  C_12 
ROOT
ATOM      1  C   UNL d   1       0.137  -0.725   0.036  0.00  0.00     0.086 A 
ATOM      2  C   UNL d   1       0.174   0.729   0.003  0.00  0.00     0.085 A 
ATOM      3  O   UNL d   1       2.200  -0.051   0.038  0.00  0.00    -0.156 OA
ATOM      4  N   UNL d   1       1.395  -1.179   0.056  0.00  0.00    -0.240 N 
ATOM      5  HN  UNL d   1       1.699  -2.152   0.078  1.00  0.00     0.197 HD
ATOM      6  N   UNL d   1       1.455   1.116   0.007  0.00  0.00    -0.240 N 
ATOM      7  HN  UNL d   1       1.810   2.072  -0.010  1.00  0.00     0.197 HD
ATOM      8  C   UNL d   1      -1.071  -1.449   0.041  0.00  0.00     0.043 A 
ATOM      9  C   UNL d   1      -0.994   1.509  -0.031  0.00  0.00     0.034 A 
ATOM     10  C   UNL d   1      -2.248  -0.662   0.017  0.00  0.00    -0.033 A 
ATOM     11  C   UNL d   1      -2.193   0.767  -0.032  0.00  0.00     0.012 A 
ENDROOT
BRANCH  10  12
ATOM     12  C   UNL d   1      -3.585  -1.371  -0.034  0.00  0.00     0.203 C 
BRANCH  12  13
ATOM     13  O   UNL d   1      -4.592  -0.638   0.648  0.00  0.00    -0.396 OA
ATOM     14  H   UNL d   1      -4.286  -0.524   1.565  0.00  0.00     0.209 HD
ENDBRANCH  12  13
ENDBRANCH  10  12
TORSDOF 2
