REMARK  10 active torsions:
REMARK  status: ('A' for Active; 'I' for Inactive)
REMARK    1  A    between atoms: C_10  and  N_1 
REMARK    2  A    between atoms: S_2  and  C_13 
REMARK    3  A    between atoms: C_9  and  S_2 
REMARK    4  A    between atoms: S_17  and  C_3 
REMARK    5  A    between atoms: C_8  and  C_11 
REMARK    6  A    between atoms: C_13  and  C_24 
REMARK    7  A    between atoms: C_24  and  S_17 
REMARK    8  A    between atoms: O_23  and  C_25 
REMARK    9  A    between atoms: C_26  and  O_23 
REMARK   10  A    between atoms: C_29  and  C_26 
ROOT
ATOM      1  N   UNL d   1       0.872  -0.602  -0.355  0.00  0.00    -0.241 N 
ATOM      2  C   UNL d   1       0.829   0.743  -0.098  0.00  0.00     0.170 A 
ATOM      3  C   UNL d   1      -0.449  -0.995  -0.391  0.00  0.00     0.347 A 
ATOM      4  N   UNL d   1      -0.366   1.239   0.016  0.00  0.00    -0.275 N 
ATOM      5  HN  UNL d   1      -0.629   2.206   0.203  1.00  0.00     0.189 HD
ATOM      6  N   UNL d   1      -1.189   0.165  -0.174  0.00  0.00    -0.249 N 
ATOM      7  O   UNL d   1      -0.929  -2.114  -0.498  0.00  0.00    -0.245 OA
ATOM      8  H   UNL d   1      -2.190   0.197  -0.031  0.00  0.00     0.192 HD
ENDROOT
BRANCH   2   9
ATOM      9  S   UNL d   1       2.269   1.711  -0.009  0.00  0.00    -0.091 SA
BRANCH   9  10
ATOM     10  C   UNL d   1       1.624   3.408   0.154  0.00  0.00     0.098 C 
BRANCH  10  11
ATOM     11  C   UNL d   1       0.985   3.662   1.508  0.00  0.00     0.156 C 
BRANCH  11  12
ATOM     12  S   UNL d   1       0.507   5.363   1.734  0.00  0.00     0.176 S 
ATOM     13  O   UNL d   1      -0.213   5.467   2.989  0.00  0.00    -0.223 OA
ATOM     14  O   UNL d   1       1.676   6.183   1.481  0.00  0.00    -0.223 OA
BRANCH  12  15
ATOM     15  C   UNL d   1      -0.673   5.706   0.448  0.00  0.00     0.060 A 
ATOM     16  C   UNL d   1      -0.417   6.729  -0.472  0.00  0.00     0.039 A 
ATOM     17  C   UNL d   1      -1.265   6.902  -1.577  0.00  0.00     0.049 A 
ATOM     18  C   UNL d   1      -2.400   6.082  -1.697  0.00  0.00     0.016 A 
ATOM     19  C   UNL d   1      -2.679   5.102  -0.741  0.00  0.00     0.002 A 
ATOM     20  C   UNL d   1      -1.813   4.907   0.333  0.00  0.00     0.023 A 
BRANCH  17  21
ATOM     21  C   UNL d   1      -0.936   7.894  -2.668  0.00  0.00     0.417 C 
ATOM     22  F   UNL d   1       0.205   8.600  -2.439  0.00  0.00    -0.166 F 
ATOM     23  F   UNL d   1      -0.754   7.276  -3.870  0.00  0.00    -0.166 F 
ATOM     24  F   UNL d   1      -1.919   8.813  -2.865  0.00  0.00    -0.166 F 
ENDBRANCH  17  21
ENDBRANCH  12  15
ENDBRANCH  11  12
ENDBRANCH  10  11
ENDBRANCH   9  10
ENDBRANCH   2   9
BRANCH   1  25
ATOM     25  C   UNL d   1       1.954  -1.496  -0.378  0.00  0.00     0.046 A 
ATOM     26  C   UNL d   1       2.035  -2.509  -1.340  0.00  0.00     0.033 A 
ATOM     27  C   UNL d   1       3.151  -3.356  -1.382  0.00  0.00     0.039 A 
ATOM     28  C   UNL d   1       4.164  -3.235  -0.429  0.00  0.00     0.069 A 
ATOM     29  C   UNL d   1       4.058  -2.261   0.560  0.00  0.00     0.039 A 
ATOM     30  C   UNL d   1       2.961  -1.403   0.587  0.00  0.00     0.033 A 
BRANCH  28  31
ATOM     31  O   UNL d   1       5.209  -4.109  -0.550  0.00  0.00    -0.347 OA
BRANCH  31  32
ATOM     32  C   UNL d   1       6.052  -4.214   0.601  0.00  0.00     0.214 C 
BRANCH  32  33
ATOM     33  C   UNL d   1       6.946  -5.417   0.466  0.00  0.00    -0.034 A 
ATOM     34  C   UNL d   1       8.325  -5.315   0.699  0.00  0.00     0.009 A 
ATOM     35  C   UNL d   1       9.135  -6.448   0.618  0.00  0.00     0.001 A 
ATOM     36  C   UNL d   1       8.574  -7.686   0.310  0.00  0.00     0.000 A 
ATOM     37  C   UNL d   1       7.205  -7.798   0.087  0.00  0.00     0.001 A 
ATOM     38  C   UNL d   1       6.392  -6.669   0.169  0.00  0.00     0.009 A 
ENDBRANCH  32  33
ENDBRANCH  31  32
ENDBRANCH  28  31
ENDBRANCH   1  25
TORSDOF 10
