REMARK  5 active torsions:
REMARK  status: ('A' for Active; 'I' for Inactive)
REMARK    1  A    between atoms: C_2  and  C_1 
REMARK    2  A    between atoms: C_8  and  C_2 
REMARK    3  A    between atoms: C_3  and  O_10 
REMARK    4  A    between atoms: C_9  and  C_4 
REMARK    5  A    between atoms: O_10  and  C_20 
ROOT
ATOM      1  C   UNL d   1       0.990  -0.171  -0.068  0.00  0.00     0.096 C 
ATOM      2  C   UNL d   1       0.270   0.836  -0.604  0.00  0.00     0.038 C 
ATOM      3  C   UNL d   1       0.384  -1.370   0.408  0.00  0.00     0.103 C 
ATOM      4  N   UNL d   1      -0.109  -2.334   0.815  0.00  0.00    -0.191 NA
ENDROOT
BRANCH   1   5
ATOM      5  C   UNL d   1       2.478  -0.012  -0.010  0.00  0.00     0.202 C 
ATOM      6  O   UNL d   1       3.080   0.692  -0.816  0.00  0.00    -0.286 OA
BRANCH   5   7
ATOM      7  C   UNL d   1       3.245  -0.746   1.036  0.00  0.00     0.016 A 
ATOM      8  C   UNL d   1       4.510  -1.259   0.719  0.00  0.00     0.018 A 
ATOM      9  C   UNL d   1       5.245  -1.986   1.669  0.00  0.00     0.038 A 
ATOM     10  C   UNL d   1       4.735  -2.173   2.953  0.00  0.00     0.078 A 
ATOM     11  C   UNL d   1       3.478  -1.650   3.269  0.00  0.00     0.038 A 
ATOM     12  C   UNL d   1       2.745  -0.921   2.330  0.00  0.00     0.018 A 
BRANCH  10  13
ATOM     13  O   UNL d   1       5.311  -2.872   3.967  0.00  0.00    -0.255 OA
BRANCH  13  14
ATOM     14  C   UNL d   1       6.723  -2.969   4.064  0.00  0.00     0.530 C 
ATOM     15  F   UNL d   1       7.389  -2.132   3.243  0.00  0.00    -0.144 F 
ATOM     16  F   UNL d   1       7.080  -2.672   5.334  0.00  0.00    -0.144 F 
ATOM     17  F   UNL d   1       7.105  -4.237   3.806  0.00  0.00    -0.144 F 
ENDBRANCH  13  14
ENDBRANCH  10  13
ENDBRANCH   5   7
ENDBRANCH   1   5
BRANCH   2  18
ATOM     18  C   UNL d   1      -1.197   0.816  -0.683  0.00  0.00    -0.033 A 
ATOM     19  C   UNL d   1      -1.957   1.379   0.350  0.00  0.00     0.037 A 
ATOM     20  C   UNL d   1      -3.354   1.280   0.334  0.00  0.00     0.056 A 
ATOM     21 CL   UNL d   1      -4.222   1.978   1.656  0.00  0.00    -0.083 Cl
ATOM     22  C   UNL d   1      -3.996   0.620  -0.720  0.00  0.00     0.055 A 
ATOM     23  C   UNL d   1      -3.237   0.073  -1.759  0.00  0.00     0.026 A 
ATOM     24 CL   UNL d   1      -5.712   0.437  -0.792  0.00  0.00    -0.083 Cl
ATOM     25  C   UNL d   1      -1.843   0.171  -1.741  0.00  0.00     0.013 A 
ENDBRANCH   2  18
TORSDOF 5
