REMARK  6 active torsions:
REMARK  status: ('A' for Active; 'I' for Inactive)
REMARK    1  A    between atoms: C_11  and  C_1 
REMARK    2  A    between atoms: C_7  and  C_2 
REMARK    3  A    between atoms: S_19  and  C_10 
REMARK    4  A    between atoms: C_15  and  C_22 
REMARK       I    between atoms: N_18  and  C_15 
REMARK    5  A    between atoms: C_27  and  N_18 
REMARK    6  A    between atoms: C_22  and  S_19 
ROOT
ATOM      1  N   UNL d   1      -1.154   3.263  -0.606  0.00  0.00    -0.334 N 
ATOM      2  HN  UNL d   1      -0.394   3.143  -1.276  1.00  0.00     0.168 HD
ATOM      3  C   UNL d   1      -1.765   4.442  -0.436  0.00  0.00     0.145 A 
ATOM      4  C   UNL d   1      -1.598   2.243   0.156  0.00  0.00     0.071 A 
ATOM      5  N   UNL d   1      -2.768   4.678   0.418  0.00  0.00    -0.347 N 
ATOM      6  HN  UNL d   1      -3.198   5.598   0.502  1.00  0.00     0.167 HD
ATOM      7  C   UNL d   1      -2.615   2.385   1.076  0.00  0.00     0.049 A 
ATOM      8  C   UNL d   1      -3.175   3.634   1.158  0.00  0.00     0.092 A 
ENDROOT
BRANCH   4   9
ATOM      9  C   UNL d   1      -0.908   0.991  -0.082  0.00  0.00     0.127 A 
ATOM     10  C   UNL d   1       0.059   0.588  -0.971  0.00  0.00     0.074 A 
ATOM     11  C   UNL d   1       0.286  -0.782  -0.683  0.00  0.00     0.069 A 
ATOM     12  N   UNL d   1      -0.517  -1.178   0.320  0.00  0.00    -0.260 N 
ATOM     13  O   UNL d   1      -1.249  -0.070   0.696  0.00  0.00    -0.235 OA
ATOM     14  HN  UNL d   1      -0.574  -2.113   0.723  1.00  0.00     0.195 HD
BRANCH  11  15
ATOM     15  C   UNL d   1       1.173  -1.726  -1.365  0.00  0.00     0.014 A 
ATOM     16  C   UNL d   1       2.462  -1.395  -1.822  0.00  0.00     0.048 A 
ATOM     17  C   UNL d   1       3.229  -2.332  -2.527  0.00  0.00     0.048 A 
ATOM     18 CL   UNL d   1       3.213   0.136  -1.517  0.00  0.00    -0.083 Cl
ATOM     19  C   UNL d   1       2.727  -3.608  -2.764  0.00  0.00     0.035 A 
ATOM     20  C   UNL d   1       1.469  -3.967  -2.293  0.00  0.00     0.025 A 
ATOM     21 CL   UNL d   1       3.671  -4.749  -3.638  0.00  0.00    -0.084 Cl
ATOM     22  C   UNL d   1       0.698  -3.032  -1.599  0.00  0.00     0.017 A 
ENDBRANCH  11  15
ENDBRANCH   4   9
BRANCH   3  23
ATOM     23  S   UNL d   1      -1.031   5.814  -1.281  0.00  0.00    -0.085 SA
BRANCH  23  24
ATOM     24  C   UNL d   1      -0.901   6.950   0.126  0.00  0.00     0.185 C 
BRANCH  24  25
ATOM     25  C   UNL d   1      -0.056   6.467   1.301  0.00  0.00     0.231 C 
ATOM     26  N   UNL d   1       0.769   5.382   1.071  0.00  0.00    -0.327 N 
ATOM     27  H   UNL d   1       0.779   5.015   0.124  0.00  0.00     0.169 HD
ATOM     28  O   UNL d   1      -0.107   7.102   2.357  0.00  0.00    -0.272 OA
BRANCH  26  29
ATOM     29  C   UNL d   1       1.648   4.761   1.984  0.00  0.00     0.034 A 
ATOM     30  C   UNL d   1       1.711   5.080   3.342  0.00  0.00     0.029 A 
ATOM     31  C   UNL d   1       2.660   4.474   4.172  0.00  0.00     0.002 A 
ATOM     32  C   UNL d   1       3.548   3.537   3.652  0.00  0.00     0.000 A 
ATOM     33  C   UNL d   1       3.466   3.180   2.309  0.00  0.00     0.002 A 
ATOM     34  C   UNL d   1       2.513   3.781   1.481  0.00  0.00     0.029 A 
ENDBRANCH  26  29
ENDBRANCH  24  25
ENDBRANCH  23  24
ENDBRANCH   3  23
TORSDOF 6
