REMARK  11 active torsions:
REMARK  status: ('A' for Active; 'I' for Inactive)
REMARK    1  A    between atoms: N_2  and  C_1 
REMARK    2  A    between atoms: N_12  and  C_4 
REMARK    3  A    between atoms: N_13  and  C_8 
REMARK    4  A    between atoms: C_18  and  N_12 
REMARK    5  A    between atoms: C_21  and  N_13 
REMARK    6  A    between atoms: N_14  and  C_20 
REMARK    7  A    between atoms: N_15  and  C_19 
REMARK    8  A    between atoms: C_16  and  C_18 
REMARK    9  A    between atoms: C_20  and  C_16 
REMARK   10  A    between atoms: C_17  and  C_21 
REMARK   11  A    between atoms: C_19  and  C_17 
ROOT
ATOM      1  C   UNL d   1       1.592   1.215   0.023  0.00  0.00     0.130 A 
ATOM      2  C   UNL d   1      -0.481  -0.001   0.065  0.00  0.00     0.099 A 
ATOM      3  C   UNL d   1       0.180   1.260   0.081  0.00  0.00     0.084 A 
ATOM      4  C   UNL d   1      -1.919  -0.091   0.049  0.00  0.00     0.104 C 
ATOM      5  N   UNL d   1      -3.072  -0.209   0.065  0.00  0.00    -0.191 NA
ATOM      6  C   UNL d   1       2.322   0.025  -0.024  0.00  0.00     0.041 A 
ATOM      7  C   UNL d   1       0.240  -1.233   0.047  0.00  0.00     0.051 A 
ATOM      8  C   UNL d   1       1.641  -1.185  -0.023  0.00  0.00     0.033 A 
ENDROOT
BRANCH   3   9
ATOM      9  N   UNL d   1      -0.444   2.505   0.218  0.00  0.00    -0.387 N 
ATOM     10  H   UNL d   1      -0.196   3.184  -0.507  0.00  0.00     0.159 HD
BRANCH   9  11
ATOM     11  C   UNL d   1      -1.751   2.696   0.825  0.00  0.00     0.121 C 
BRANCH  11  12
ATOM     12  C   UNL d   1      -1.904   4.119   1.355  0.00  0.00     0.050 C 
BRANCH  12  13
ATOM     13  C   UNL d   1      -3.263   4.232   2.059  0.00  0.00     0.273 C 
BRANCH  13  14
ATOM     14  N   UNL d   1      -3.536   5.545   2.663  0.00  0.00     0.080 N 
ATOM     15  C   UNL d   1      -3.578   6.614   1.664  0.00  0.00     0.309 C 
ATOM     16  C   UNL d   1      -4.816   5.491   3.379  0.00  0.00     0.309 C 
ENDBRANCH  13  14
ENDBRANCH  12  13
ENDBRANCH  11  12
ENDBRANCH   9  11
ENDBRANCH   3   9
BRANCH   7  17
ATOM     17  N   UNL d   1      -0.429  -2.470   0.018  0.00  0.00    -0.389 N 
ATOM     18  H   UNL d   1      -1.431  -2.424   0.202  0.00  0.00     0.159 HD
BRANCH  17  19
ATOM     19  C   UNL d   1       0.176  -3.664   0.609  0.00  0.00     0.121 C 
BRANCH  19  20
ATOM     20  C   UNL d   1       0.409  -3.507   2.115  0.00  0.00     0.050 C 
BRANCH  20  21
ATOM     21  C   UNL d   1       1.053  -4.778   2.680  0.00  0.00     0.273 C 
BRANCH  21  22
ATOM     22  N   UNL d   1       1.373  -4.705   4.115  0.00  0.00     0.080 N 
ATOM     23  C   UNL d   1       0.183  -4.511   4.946  0.00  0.00     0.309 C 
ATOM     24  C   UNL d   1       2.062  -5.933   4.528  0.00  0.00     0.309 C 
ENDBRANCH  21  22
ENDBRANCH  20  21
ENDBRANCH  19  20
ENDBRANCH  17  19
ENDBRANCH   7  17
BRANCH   1  25
ATOM     25  N   UNL d   1       2.363   2.447   0.048  0.00  0.00    -0.113 N 
ATOM     26  O   UNL d   1       2.175   3.252  -0.877  0.00  0.00    -0.532 OA
ATOM     27  O   UNL d   1       3.191   2.578   0.961  0.00  0.00    -0.532 OA
ENDBRANCH   1  25
TORSDOF 11
