REMARK  6 active torsions:
REMARK  status: ('A' for Active; 'I' for Inactive)
REMARK    1  A    between atoms: C_2  and  N_1 
REMARK       I    between atoms: C_4  and  N_1 
REMARK    2  A    between atoms: C_7  and  C_3 
REMARK    3  A    between atoms: C_13  and  C_4 
REMARK    4  A    between atoms: C_8  and  C_14 
REMARK    5  A    between atoms: O_15  and  C_8 
REMARK    6  A    between atoms: C_14  and  C_13 
ROOT
ATOM      1  C   UNL d   1       0.269  -0.680   1.080  0.00  0.00     0.040 A 
ATOM      2  C   UNL d   1      -1.211  -1.819   3.224  0.00  0.00    -0.050 A 
ATOM      3  C   UNL d   1      -1.645  -1.923   1.887  0.00  0.00     0.017 A 
ATOM      4  C   UNL d   1      -0.930  -1.354   0.814  0.00  0.00    -0.035 A 
ATOM      5  C   UNL d   1       0.694  -0.529   2.401  0.00  0.00     0.030 A 
ATOM      6  C   UNL d   1      -0.047  -1.070   3.457  0.00  0.00     0.010 A 
ATOM      7  C   UNL d   1      -1.423  -1.570  -0.591  0.00  0.00     0.050 C 
ENDROOT
BRANCH   1   8
ATOM      8  N   UNL d   1       1.020  -0.118   0.028  0.00  0.00    -0.327 N 
ATOM      9  C   UNL d   1       2.388  -0.283  -0.092  0.00  0.00     0.222 C 
ATOM     10  O   UNL d   1       3.089  -0.992   0.628  0.00  0.00    -0.273 OA
ATOM     11  H   UNL d   1       0.513   0.114  -0.827  0.00  0.00     0.169 HD
BRANCH   9  12
ATOM     12  C   UNL d   1       2.996   0.449  -1.274  0.00  0.00     0.113 C 
BRANCH  12  13
ATOM     13  C   UNL d   1       2.892  -0.343  -2.574  0.00  0.00     0.119 C 
BRANCH  13  14
ATOM     14  C   UNL d   1       1.464  -0.466  -3.045  0.00  0.00     0.139 C 
ATOM     15  O   UNL d   1       0.552   0.248  -2.666  0.00  0.00    -0.650 OA
BRANCH  14  16
ATOM     16  O   UNL d   1       1.280  -1.464  -3.935  0.00  0.00    -0.776 OA
ATOM     17  H   UNL d   1       2.080  -1.986  -4.131  0.00  0.00     0.167 HD
ENDBRANCH  14  16
ENDBRANCH  13  14
ENDBRANCH  12  13
ENDBRANCH   9  12
ENDBRANCH   1   8
BRANCH   2  18
ATOM     18  C   UNL d   1      -1.996  -2.477   4.375  0.00  0.00    -0.024 C 
ATOM     19  C   UNL d   1      -3.115  -1.517   4.821  0.00  0.00     0.019 C 
ATOM     20  C   UNL d   1      -2.634  -3.821   3.951  0.00  0.00     0.019 C 
ATOM     21  C   UNL d   1      -1.109  -2.795   5.603  0.00  0.00     0.019 C 
ENDBRANCH   2  18
TORSDOF 6
