REMARK  6 active torsions:
REMARK  status: ('A' for Active; 'I' for Inactive)
REMARK    1  A    between atoms: C_6  and  C_1 
REMARK    2  A    between atoms: C_16  and  N_2 
REMARK    3  A    between atoms: O_8  and  C_6 
REMARK    4  A    between atoms: C_12  and  O_8 
REMARK    5  A    between atoms: C_9  and  C_12 
REMARK    6  A    between atoms: C_10  and  C_9 
ROOT
ATOM      1  C   UNL d   1      -0.863  -2.396   0.245  0.00  0.00     0.312 C 
ATOM      2  O   UNL d   1      -2.036  -2.557  -0.046  0.00  0.00    -0.258 OA
ENDROOT
BRANCH   1   3
ATOM      3  C   UNL d   1      -0.135  -1.147   0.242  0.00  0.00     0.128 A 
ATOM      4  N   UNL d   1      -0.667   0.115   0.103  0.00  0.00    -0.287 N 
ATOM      5  N   UNL d   1       0.264   1.093   0.072  0.00  0.00    -0.302 N 
ATOM      6  C   UNL d   1       1.426   0.460   0.222  0.00  0.00     0.024 A 
ATOM      7  HN  UNL d   1       0.110   2.095  -0.041  1.00  0.00     0.186 HD
ATOM      8  C   UNL d   1       1.236  -0.931   0.331  0.00  0.00     0.063 A 
ATOM      9  C   UNL d   1       2.689   1.235   0.257  0.00  0.00     0.070 C 
BRANCH   4  10
ATOM     10  C   UNL d   1      -2.057   0.536   0.061  0.00  0.00     0.145 C 
ATOM     11  C   UNL d   1      -2.538   0.987   1.429  0.00  0.00     0.028 C 
ENDBRANCH   4  10
ENDBRANCH   1   3
BRANCH   1  12
ATOM     12  O   UNL d   1       0.001  -3.417   0.543  0.00  0.00    -0.308 OA
BRANCH  12  13
ATOM     13  C   UNL d   1      -0.351  -4.693   0.027  0.00  0.00     0.263 C 
BRANCH  13  14
ATOM     14  C   UNL d   1      -1.276  -5.648   0.783  0.00  0.00     0.183 C 
ATOM     15  O   UNL d   1      -2.044  -6.391   0.167  0.00  0.00    -0.290 OA
BRANCH  14  16
ATOM     16  C   UNL d   1      -1.188  -5.806   2.263  0.00  0.00     0.012 A 
ATOM     17  C   UNL d   1      -2.252  -6.455   2.915  0.00  0.00     0.017 A 
ATOM     18  C   UNL d   1      -2.212  -6.686   4.292  0.00  0.00     0.025 A 
ATOM     19  C   UNL d   1      -1.101  -6.279   5.024  0.00  0.00     0.034 A 
ATOM     20  C   UNL d   1      -0.032  -5.646   4.389  0.00  0.00     0.025 A 
ATOM     21 CL   UNL d   1      -1.041  -6.572   6.718  0.00  0.00    -0.084 Cl
ATOM     22  C   UNL d   1      -0.071  -5.409   3.007  0.00  0.00     0.017 A 
ENDBRANCH  14  16
ENDBRANCH  13  14
ENDBRANCH  12  13
ENDBRANCH   1  12
TORSDOF 6
