REMARK  3 active torsions:
REMARK  status: ('A' for Active; 'I' for Inactive)
REMARK    1  A    between atoms: C_8  and  C_5 
REMARK       I    between atoms: N_17  and  C_8 
REMARK    2  A    between atoms: C_10  and  C_16 
REMARK    3  A    between atoms: N_12  and  N_17 
ROOT
ATOM      1  C   UNL d   1       0.875   2.840  -0.316  0.00  0.00     0.287 C 
ATOM      2  N   UNL d   1      -0.177   3.494   0.311  0.00  0.00    -0.265 N 
ATOM      3  O   UNL d   1       1.784   3.394  -0.930  0.00  0.00    -0.264 OA
ATOM      4  H   UNL d   1      -0.967   2.969   0.670  0.00  0.00     0.190 HD
ENDROOT
BRANCH   1   5
ATOM      5  C   UNL d   1       0.887   1.359  -0.128  0.00  0.00     0.116 A 
ATOM      6  N   UNL d   1      -0.223   0.539  -0.227  0.00  0.00    -0.297 N 
ATOM      7  C   UNL d   1      -0.021  -0.798   0.091  0.00  0.00     0.158 A 
ATOM      8  C   UNL d   1      -1.501   0.798  -0.693  0.00  0.00     0.107 A 
ATOM      9  N   UNL d   1       1.073  -1.381   0.429  0.00  0.00    -0.303 N 
ATOM     10  S   UNL d   1      -1.551  -1.685  -0.058  0.00  0.00    -0.064 SA
ATOM     11  C   UNL d   1       2.212  -0.609   0.458  0.00  0.00     0.249 A 
ATOM     12  HN  UNL d   1       1.096  -2.373   0.665  1.00  0.00     0.171 HD
ATOM     13  O   UNL d   1       3.324  -1.057   0.707  0.00  0.00    -0.268 OA
ATOM     14  C   UNL d   1       2.085   0.849   0.195  0.00  0.00     0.110 A 
ATOM     15  C   UNL d   1      -2.341  -0.249  -0.667  0.00  0.00     0.071 A 
ENDBRANCH   1   5
BRANCH   2  16
ATOM     16  N   UNL d   1      -0.388   4.853   0.223  0.00  0.00    -0.308 N 
ATOM     17  C   UNL d   1       0.660   5.608   0.378  0.00  0.00     0.126 C 
ATOM     18  HN  UNL d   1      -1.313   5.245   0.046  1.00  0.00     0.186 HD
BRANCH  17  19
ATOM     19  C   UNL d   1       0.593   7.041   0.232  0.00  0.00     0.021 A 
ATOM     20  S   UNL d   1       1.942   7.978   0.714  0.00  0.00    -0.101 SA
ATOM     21  C   UNL d   1       1.175   9.436   0.259  0.00  0.00     0.050 A 
ATOM     22  C   UNL d   1      -0.083   9.217  -0.257  0.00  0.00     0.008 A 
ATOM     23  C   UNL d   1      -0.424   7.831  -0.265  0.00  0.00     0.021 A 
ENDBRANCH  17  19
ENDBRANCH   2  16
TORSDOF 3
