REMARK  7 active torsions:
REMARK  status: ('A' for Active; 'I' for Inactive)
REMARK    1  A    between atoms: C_6  and  S_1 
REMARK    2  A    between atoms: C_17  and  S_1 
REMARK       I    between atoms: C_2  and  N_3 
REMARK    3  A    between atoms: C_4  and  C_2 
REMARK    4  A    between atoms: N_3  and  C_5 
REMARK    5  A    between atoms: C_9  and  C_7 
REMARK    6  A    between atoms: O_18  and  C_9 
REMARK    7  A    between atoms: O_19  and  C_12 
ROOT
ATOM      1  C   UNL d   1      -0.265   4.201  -3.041  0.00  0.00     0.257 C 
ATOM      2  N   UNL d   1      -0.604   3.037  -3.686  0.00  0.00    -0.320 N 
ATOM      3  O   UNL d   1       0.256   4.294  -1.936  0.00  0.00    -0.267 OA
ATOM      4  H   UNL d   1      -0.944   3.064  -4.647  0.00  0.00     0.169 HD
ENDROOT
BRANCH   2   5
ATOM      5  C   UNL d   1      -0.419   1.719  -3.208  0.00  0.00     0.070 A 
ATOM      6  C   UNL d   1      -0.007   1.403  -1.914  0.00  0.00     0.055 A 
ATOM      7  C   UNL d   1       0.213   0.064  -1.570  0.00  0.00     0.061 A 
ATOM      8  C   UNL d   1      -0.020  -0.967  -2.486  0.00  0.00     0.026 A 
ATOM      9  C   UNL d   1      -0.464  -0.656  -3.771  0.00  0.00     0.040 A 
ATOM     10  C   UNL d   1      -0.657   0.679  -4.121  0.00  0.00     0.092 A 
BRANCH   7  11
ATOM     11  S   UNL d   1       0.807  -0.317   0.063  0.00  0.00     0.175 S 
ATOM     12  O   UNL d   1       0.639  -1.748   0.257  0.00  0.00    -0.223 OA
ATOM     13  O   UNL d   1       0.205   0.632   0.976  0.00  0.00    -0.223 OA
BRANCH  11  14
ATOM     14  C   UNL d   1       2.554   0.025  -0.067  0.00  0.00     0.141 C 
ATOM     15  C   UNL d   1       3.278  -0.247   1.234  0.00  0.00     0.021 C 
ENDBRANCH  11  14
ENDBRANCH   7  11
BRANCH  10  16
ATOM     16  O   UNL d   1      -1.061   1.018  -5.387  0.00  0.00    -0.358 OA
ATOM     17  H   UNL d   1      -1.239   0.202  -5.887  0.00  0.00     0.217 HD
ENDBRANCH  10  16
ENDBRANCH   2   5
BRANCH   1  18
ATOM     18  C   UNL d   1      -0.549   5.461  -3.763  0.00  0.00     0.049 A 
ATOM     19  C   UNL d   1      -1.752   5.764  -4.415  0.00  0.00     0.053 A 
ATOM     20  C   UNL d   1      -1.872   7.005  -5.071  0.00  0.00     0.019 A 
ATOM     21  C   UNL d   1      -0.830   7.935  -5.056  0.00  0.00     0.001 A 
ATOM     22  C   UNL d   1       0.351   7.641  -4.385  0.00  0.00     0.001 A 
ATOM     23  C   UNL d   1       0.488   6.414  -3.740  0.00  0.00     0.018 A 
BRANCH  19  24
ATOM     24  C   UNL d   1      -2.944   4.879  -4.505  0.00  0.00     0.177 C 
ATOM     25  O   UNL d   1      -3.659   4.887  -5.497  0.00  0.00    -0.646 OA
BRANCH  24  26
ATOM     26  O   UNL d   1      -3.226   4.127  -3.431  0.00  0.00    -0.773 OA
ATOM     27  H   UNL d   1      -2.634   4.171  -2.655  0.00  0.00     0.167 HD
ENDBRANCH  24  26
ENDBRANCH  19  24
ENDBRANCH   1  18
TORSDOF 7
