REMARK  6 active torsions:
REMARK  status: ('A' for Active; 'I' for Inactive)
REMARK    1  A    between atoms: C_11  and  C_1 
REMARK    2  A    between atoms: C_7  and  C_2 
REMARK    3  A    between atoms: S_19  and  C_10 
REMARK    4  A    between atoms: C_15  and  C_22 
REMARK       I    between atoms: N_18  and  C_15 
REMARK    5  A    between atoms: C_24  and  N_18 
REMARK    6  A    between atoms: C_22  and  S_19 
ROOT
ATOM      1  N   UNL d   1      -1.125   3.277  -0.592  0.00  0.00    -0.334 N 
ATOM      2  HN  UNL d   1      -0.363   3.155  -1.259  1.00  0.00     0.168 HD
ATOM      3  C   UNL d   1      -1.729   4.459  -0.418  0.00  0.00     0.145 A 
ATOM      4  C   UNL d   1      -1.579   2.256   0.162  0.00  0.00     0.071 A 
ATOM      5  N   UNL d   1      -2.730   4.699   0.438  0.00  0.00    -0.347 N 
ATOM      6  HN  UNL d   1      -3.155   5.622   0.525  1.00  0.00     0.167 HD
ATOM      7  C   UNL d   1      -2.594   2.399   1.085  0.00  0.00     0.049 A 
ATOM      8  C   UNL d   1      -3.144   3.654   1.175  0.00  0.00     0.092 A 
ENDROOT
BRANCH   4   9
ATOM      9  C   UNL d   1      -0.907   0.995  -0.088  0.00  0.00     0.127 A 
ATOM     10  C   UNL d   1       0.052   0.587  -0.984  0.00  0.00     0.074 A 
ATOM     11  C   UNL d   1       0.266  -0.788  -0.704  0.00  0.00     0.069 A 
ATOM     12  N   UNL d   1      -0.543  -1.183   0.295  0.00  0.00    -0.260 N 
ATOM     13  O   UNL d   1      -1.262  -0.069   0.680  0.00  0.00    -0.235 OA
ATOM     14  HN  UNL d   1      -0.611  -2.120   0.690  1.00  0.00     0.195 HD
BRANCH  11  15
ATOM     15  C   UNL d   1       1.149  -1.734  -1.389  0.00  0.00     0.014 A 
ATOM     16  C   UNL d   1       2.436  -1.402  -1.853  0.00  0.00     0.048 A 
ATOM     17  C   UNL d   1       3.199  -2.337  -2.565  0.00  0.00     0.048 A 
ATOM     18 CL   UNL d   1       3.191   0.127  -1.548  0.00  0.00    -0.083 Cl
ATOM     19  C   UNL d   1       2.698  -3.615  -2.798  0.00  0.00     0.035 A 
ATOM     20  C   UNL d   1       1.444  -3.976  -2.317  0.00  0.00     0.025 A 
ATOM     21 CL   UNL d   1       3.636  -4.753  -3.681  0.00  0.00    -0.084 Cl
ATOM     22  C   UNL d   1       0.676  -3.041  -1.617  0.00  0.00     0.017 A 
ENDBRANCH  11  15
ENDBRANCH   4   9
BRANCH   3  23
ATOM     23  S   UNL d   1      -0.991   5.828  -1.266  0.00  0.00    -0.085 SA
BRANCH  23  24
ATOM     24  C   UNL d   1      -0.878   6.982   0.129  0.00  0.00     0.185 C 
BRANCH  24  25
ATOM     25  C   UNL d   1      -0.001   6.541   1.297  0.00  0.00     0.231 C 
ATOM     26  N   UNL d   1       0.777   5.413   1.109  0.00  0.00    -0.327 N 
ATOM     27  H   UNL d   1       0.801   5.032   0.168  0.00  0.00     0.169 HD
ATOM     28  O   UNL d   1      -0.011   7.222   2.324  0.00  0.00    -0.272 OA
BRANCH  26  29
ATOM     29  C   UNL d   1       1.501   4.700   2.089  0.00  0.00     0.034 A 
ATOM     30  C   UNL d   1       1.480   5.016   3.451  0.00  0.00     0.031 A 
ATOM     31  C   UNL d   1       2.183   4.240   4.377  0.00  0.00     0.026 A 
ATOM     32  C   UNL d   1       2.916   3.138   3.946  0.00  0.00     0.034 A 
ATOM     33  C   UNL d   1       2.950   2.812   2.593  0.00  0.00     0.026 A 
ATOM     34 CL   UNL d   1       3.768   2.178   5.088  0.00  0.00    -0.084 Cl
ATOM     35  C   UNL d   1       2.244   3.587   1.669  0.00  0.00     0.031 A 
ENDBRANCH  26  29
ENDBRANCH  24  25
ENDBRANCH  23  24
ENDBRANCH   3  23
TORSDOF 6
