REMARK  3 active torsions:
REMARK  status: ('A' for Active; 'I' for Inactive)
REMARK    1  A    between atoms: N_3  and  C_1 
REMARK    2  A    between atoms: O_16  and  C_1 
REMARK    3  A    between atoms: C_2  and  C_8 
REMARK       I    between atoms: C_8  and  N_3 
ROOT
ATOM      1  C   UNL d   1      -1.854  -0.019  -0.150  0.00  0.00     0.269 C 
ATOM      2  C   UNL d   1      -0.882  -1.221  -0.204  0.00  0.00     0.224 C 
ATOM      3  C   UNL d   1      -0.894   1.172  -0.338  0.00  0.00     0.224 C 
ATOM      4  C   UNL d   1       0.473   0.688  -0.151  0.00  0.00     0.029 A 
ATOM      5  C   UNL d   1       0.483  -0.700  -0.089  0.00  0.00     0.029 A 
ATOM      6  O   UNL d   1      -1.141  -2.407  -0.310  0.00  0.00    -0.286 OA
ATOM      7  O   UNL d   1      -1.162   2.326  -0.627  0.00  0.00    -0.286 OA
ATOM      8  C   UNL d   1       1.636   1.430  -0.048  0.00  0.00     0.016 A 
ATOM      9  C   UNL d   1       1.662  -1.408   0.067  0.00  0.00     0.016 A 
ATOM     10  C   UNL d   1       2.834   0.733   0.129  0.00  0.00     0.001 A 
ATOM     11  C   UNL d   1       2.848  -0.675   0.182  0.00  0.00     0.001 A 
ENDROOT
BRANCH   1  12
ATOM     12  N   UNL d   1      -2.883  -0.021  -1.153  0.00  0.00    -0.311 N 
ATOM     13  C   UNL d   1      -4.033  -0.754  -1.037  0.00  0.00     0.271 C 
ATOM     14  O   UNL d   1      -4.288  -1.436  -0.047  0.00  0.00    -0.266 OA
ATOM     15  H   UNL d   1      -2.787   0.554  -1.986  0.00  0.00     0.166 HD
BRANCH  13  16
ATOM     16  C   UNL d   1      -4.955  -0.596  -2.163  0.00  0.00     0.108 A 
ATOM     17  N   UNL d   1      -4.619   0.163  -3.289  0.00  0.00    -0.349 N 
ATOM     18  C   UNL d   1      -5.624   0.164  -4.140  0.00  0.00     0.047 A 
ATOM     19  HN  UNL d   1      -3.730   0.643  -3.430  1.00  0.00     0.166 HD
ATOM     20  C   UNL d   1      -5.630   0.877  -5.447  0.00  0.00     0.076 C 
ATOM     21  S   UNL d   1      -7.012  -0.729  -3.657  0.00  0.00    -0.087 SA
ATOM     22  C   UNL d   1      -6.220  -1.153  -2.202  0.00  0.00     0.086 A 
ENDBRANCH  13  16
ENDBRANCH   1  12
BRANCH   1  23
ATOM     23  O   UNL d   1      -2.445   0.100   1.127  0.00  0.00    -0.358 OA
ATOM     24  H   UNL d   1      -3.112  -0.617   1.162  0.00  0.00     0.213 HD
ENDBRANCH   1  23
TORSDOF 3
