REMARK  6 active torsions:
REMARK  status: ('A' for Active; 'I' for Inactive)
REMARK    1  A    between atoms: C_3  and  C_1 
REMARK    2  A    between atoms: C_12  and  C_2 
REMARK    3  A    between atoms: N_14  and  C_7 
REMARK    4  A    between atoms: O_17  and  C_12 
REMARK    5  A    between atoms: C_16  and  N_14 
REMARK    6  A    between atoms: C_25  and  O_17 
ROOT
ATOM      1  C   UNL d   1      -2.610  -1.643   0.003  0.00  0.00     0.078 C 
ATOM      2  N   UNL d   1      -2.682  -2.732   0.851  0.00  0.00    -0.334 N 
ATOM      3  HN  UNL d   1      -1.906  -3.076   1.417  1.00  0.00     0.168 HD
ATOM      4  C   UNL d   1      -3.883  -3.267   0.833  0.00  0.00     0.149 C 
ATOM      5  S   UNL d   1      -4.956  -2.563  -0.318  0.00  0.00    -0.063 SA
ATOM      6  C   UNL d   1      -3.726  -1.466  -0.784  0.00  0.00     0.085 C 
ENDROOT
BRANCH   1   7
ATOM      7  C   UNL d   1      -1.367  -0.806  -0.014  0.00  0.00     0.144 A 
ATOM      8  C   UNL d   1      -1.144   0.455  -0.539  0.00  0.00     0.101 A 
ATOM      9  C   UNL d   1       0.242   0.693  -0.306  0.00  0.00     0.048 A 
ATOM     10  C   UNL d   1       1.071   1.879  -0.629  0.00  0.00     0.071 C 
ATOM     11  N   UNL d   1       0.807  -0.330   0.342  0.00  0.00    -0.264 N 
ATOM     12  O   UNL d   1      -0.202  -1.245   0.552  0.00  0.00    -0.234 OA
ATOM     13  HN  UNL d   1       1.784  -0.416   0.623  1.00  0.00     0.194 HD
BRANCH   8  14
ATOM     14  C   UNL d   1      -2.117   1.331  -1.139  0.00  0.00     0.298 C 
ATOM     15  O   UNL d   1      -3.283   1.403  -0.767  0.00  0.00    -0.259 OA
BRANCH  14  16
ATOM     16  O   UNL d   1      -1.614   2.015  -2.203  0.00  0.00    -0.318 OA
BRANCH  16  17
ATOM     17  C   UNL d   1      -2.587   2.678  -3.024  0.00  0.00     0.174 C 
ATOM     18  C   UNL d   1      -3.007   1.731  -4.132  0.00  0.00     0.034 C 
ENDBRANCH  16  17
ENDBRANCH  14  16
ENDBRANCH   8  14
ENDBRANCH   1   7
BRANCH   4  19
ATOM     19  N   UNL d   1      -4.331  -4.255   1.639  0.00  0.00    -0.337 N 
ATOM     20  H   UNL d   1      -5.329  -4.420   1.681  0.00  0.00     0.168 HD
BRANCH  19  21
ATOM     21  C   UNL d   1      -3.548  -5.175   2.354  0.00  0.00     0.034 A 
ATOM     22  C   UNL d   1      -4.045  -5.708   3.551  0.00  0.00     0.031 A 
ATOM     23  C   UNL d   1      -3.280  -6.596   4.315  0.00  0.00     0.026 A 
ATOM     24  C   UNL d   1      -2.008  -6.961   3.883  0.00  0.00     0.034 A 
ATOM     25  C   UNL d   1      -1.489  -6.433   2.707  0.00  0.00     0.026 A 
ATOM     26 CL   UNL d   1      -1.073  -8.068   4.809  0.00  0.00    -0.084 Cl
ATOM     27  C   UNL d   1      -2.250  -5.530   1.958  0.00  0.00     0.031 A 
ENDBRANCH  19  21
ENDBRANCH   4  19
TORSDOF 6
