REMARK  6 active torsions:
REMARK  status: ('A' for Active; 'I' for Inactive)
REMARK    1  A    between atoms: C_8  and  N_1 
REMARK    2  A    between atoms: C_9  and  C_2 
REMARK    3  A    between atoms: S_10  and  C_5 
REMARK    4  A    between atoms: C_11  and  C_8 
REMARK    5  A    between atoms: O_17  and  C_11 
REMARK    6  A    between atoms: O_18  and  C_11 
ROOT
ATOM      1  N   UNL d   1      -0.132  -1.149  -0.162  0.00  0.00    -0.306 N 
ATOM      2  C   UNL d   1       1.066  -0.477  -0.377  0.00  0.00     0.134 A 
ATOM      3  N   UNL d   1       0.831   0.815  -0.203  0.00  0.00    -0.283 N 
ATOM      4  HN  UNL d   1       1.532   1.554  -0.267  1.00  0.00     0.188 HD
ATOM      5  C   UNL d   1      -1.061  -0.164   0.085  0.00  0.00     0.160 A 
ATOM      6  N   UNL d   1      -0.487   1.008   0.074  0.00  0.00    -0.278 N 
ATOM      7  HN  UNL d   1      -0.943   1.904   0.243  1.00  0.00     0.189 HD
ENDROOT
BRANCH   2   8
ATOM      8  C   UNL d   1       2.408  -0.981  -0.725  0.00  0.00     0.009 A 
ATOM      9  C   UNL d   1       2.663  -2.153  -1.444  0.00  0.00     0.016 A 
ATOM     10  C   UNL d   1       3.971  -2.507  -1.811  0.00  0.00     0.007 A 
ATOM     11  C   UNL d   1       5.054  -1.678  -1.502  0.00  0.00    -0.062 A 
ATOM     12  C   UNL d   1       4.814  -0.507  -0.783  0.00  0.00     0.007 A 
ATOM     13  C   UNL d   1       6.431  -2.019  -1.985  0.00  0.00     0.048 C 
ATOM     14  C   UNL d   1       3.511  -0.173  -0.396  0.00  0.00     0.016 A 
ENDBRANCH   2   8
BRANCH   1  15
ATOM     15  C   UNL d   1      -0.374  -2.575  -0.209  0.00  0.00     0.193 C 
BRANCH  15  16
ATOM     16  C   UNL d   1       0.305  -3.404   0.891  0.00  0.00     0.276 C 
BRANCH  16  17
ATOM     17  O   UNL d   1      -0.170  -2.923   2.152  0.00  0.00    -0.364 OA
ATOM     18  C   UNL d   1       0.486  -3.547   3.249  0.00  0.00     0.204 C 
ENDBRANCH  16  17
BRANCH  16  19
ATOM     19  O   UNL d   1      -0.054  -4.787   0.769  0.00  0.00    -0.364 OA
ATOM     20  C   UNL d   1       0.451  -5.431  -0.389  0.00  0.00     0.204 C 
ENDBRANCH  16  19
ENDBRANCH  15  16
ENDBRANCH   1  15
BRANCH   5  21
ATOM     21  S   UNL d   1      -2.763  -0.365   0.363  0.00  0.00    -0.105 SA
ATOM     22  H   UNL d   1      -2.979  -1.591  -0.122  0.00  0.00     0.110 HD
ENDBRANCH   5  21
TORSDOF 6
