REMARK  5 active torsions:
REMARK  status: ('A' for Active; 'I' for Inactive)
REMARK    1  A    between atoms: N_6  and  S_1 
REMARK    2  A    between atoms: C_13  and  S_1 
REMARK    3  A    between atoms: C_3  and  S_8 
REMARK    4  A    between atoms: C_12  and  N_6 
REMARK    5  A    between atoms: S_8  and  C_14 
ROOT
ATOM      1  C   UNL d   1       0.933   1.739   1.741  0.00  0.00     0.040 A 
ATOM      2  C   UNL d   1       2.292   1.734   2.109  0.00  0.00     0.029 A 
ATOM      3  C   UNL d   1      -0.026   2.276   2.610  0.00  0.00     0.026 A 
ATOM      4  C   UNL d   1       2.657   2.242   3.365  0.00  0.00     0.021 A 
ATOM      5  C   UNL d   1       0.355   2.797   3.846  0.00  0.00     0.002 A 
ATOM      6  C   UNL d   1       1.694   2.771   4.229  0.00  0.00     0.001 A 
ENDROOT
BRANCH   2   7
ATOM      7  S   UNL d   1       3.577   1.114   1.032  0.00  0.00    -0.069 SA
BRANCH   7   8
ATOM      8  C   UNL d   1       4.211   2.600   0.294  0.00  0.00     0.095 A 
ATOM      9  C   UNL d   1       5.360   2.579  -0.502  0.00  0.00     0.066 A 
ATOM     10  S   UNL d   1       6.367   1.275  -1.001  0.00  0.00    -0.096 SA
ATOM     11  C   UNL d   1       5.839   3.788  -1.008  0.00  0.00     0.059 A 
ATOM     12  C   UNL d   1       7.426   2.309  -1.845  0.00  0.00     0.059 A 
ATOM     13  C   UNL d   1       7.050   3.635  -1.770  0.00  0.00    -0.027 A 
ATOM     14  C   UNL d   1       7.816   4.753  -2.395  0.00  0.00     0.051 C 
ATOM     15  N   UNL d   1       5.219   4.971  -0.775  0.00  0.00    -0.351 N 
ATOM     16  C   UNL d   1       4.121   4.884  -0.022  0.00  0.00     0.181 A 
ATOM     17  HN  UNL d   1       5.564   5.857  -1.145  1.00  0.00     0.166 HD
ATOM     18  N   UNL d   1       3.597   3.782   0.524  0.00  0.00    -0.345 N 
ATOM     19  HN  UNL d   1       2.756   3.833   1.099  1.00  0.00     0.167 HD
ENDBRANCH   7   8
ENDBRANCH   2   7
BRANCH   1  20
ATOM     20  N   UNL d   1       0.470   1.122   0.524  0.00  0.00    -0.180 NA
ATOM     21  H   UNL d   1      -0.356   1.596   0.156  0.00  0.00     0.146 HD
BRANCH  20  22
ATOM     22  S   UNL d   1       0.082  -0.540   0.552  0.00  0.00     0.245 S 
ATOM     23  O   UNL d   1       0.983  -1.228  -0.345  0.00  0.00    -0.206 OA
ATOM     24  O   UNL d   1      -1.351  -0.585   0.331  0.00  0.00    -0.206 OA
BRANCH  22  25
ATOM     25  C   UNL d   1       0.381  -1.123   2.202  0.00  0.00     0.074 A 
ATOM     26  C   UNL d   1      -0.632  -1.066   3.162  0.00  0.00     0.025 A 
ATOM     27  C   UNL d   1      -0.341  -1.407   4.483  0.00  0.00     0.008 A 
ATOM     28  C   UNL d   1       0.952  -1.815   4.842  0.00  0.00    -0.062 A 
ATOM     29  C   UNL d   1       1.926  -1.967   3.848  0.00  0.00     0.008 A 
ATOM     30  C   UNL d   1       1.282  -2.089   6.279  0.00  0.00     0.048 C 
ATOM     31  C   UNL d   1       1.640  -1.635   2.526  0.00  0.00     0.025 A 
ENDBRANCH  22  25
ENDBRANCH  20  22
ENDBRANCH   1  20
TORSDOF 5
