REMARK  4 active torsions:
REMARK  status: ('A' for Active; 'I' for Inactive)
REMARK    1  A    between atoms: C_6  and  N_1 
REMARK    2  A    between atoms: C_7  and  C_2 
REMARK    3  A    between atoms: C_9  and  C_6 
REMARK    4  A    between atoms: C_11  and  C_9 
ROOT
ATOM      1  N   UNL d   1       1.028  -0.638  -0.063  0.00  0.00    -0.334 N 
ATOM      2  C   UNL d   1      -0.322  -1.058  -0.023  0.00  0.00     0.027 A 
ATOM      3  C   UNL d   1       1.199   0.767   0.001  0.00  0.00     0.145 A 
ATOM      4  S   UNL d   1      -0.387   1.526   0.074  0.00  0.00    -0.070 SA
ATOM      5  C   UNL d   1      -1.167  -0.005   0.058  0.00  0.00     0.078 A 
ATOM      6  S   UNL d   1       2.604   1.670   0.025  0.00  0.00    -0.052 SA
ENDROOT
BRANCH   1   7
ATOM      7  C   UNL d   1       2.205  -1.506  -0.086  0.00  0.00     0.135 C 
BRANCH   7   8
ATOM      8  C   UNL d   1       2.723  -1.867   1.314  0.00  0.00     0.058 C 
BRANCH   8   9
ATOM      9  C   UNL d   1       3.973  -2.714   1.394  0.00  0.00    -0.057 A 
ATOM     10  C   UNL d   1       4.673  -3.179   0.266  0.00  0.00     0.009 A 
ATOM     11  C   UNL d   1       5.826  -3.964   0.416  0.00  0.00     0.024 A 
ATOM     12  C   UNL d   1       6.290  -4.290   1.689  0.00  0.00     0.034 A 
ATOM     13  C   UNL d   1       5.616  -3.837   2.816  0.00  0.00     0.024 A 
ATOM     14 CL   UNL d   1       7.698  -5.260   1.862  0.00  0.00    -0.084 Cl
ATOM     15  C   UNL d   1       4.466  -3.054   2.670  0.00  0.00     0.009 A 
ENDBRANCH   8   9
ENDBRANCH   7   8
ENDBRANCH   1   7
BRANCH   2  16
ATOM     16  C   UNL d   1      -0.882  -2.508  -0.002  0.00  0.00    -0.008 C 
ATOM     17  C   UNL d   1      -1.233  -2.864   1.463  0.00  0.00     0.021 C 
ATOM     18  C   UNL d   1      -2.189  -2.609  -0.851  0.00  0.00     0.021 C 
ATOM     19  C   UNL d   1      -0.004  -3.646  -0.556  0.00  0.00     0.021 C 
ENDBRANCH   2  16
TORSDOF 4
