REMARK  2 active torsions:
REMARK  status: ('A' for Active; 'I' for Inactive)
REMARK    1  A    between atoms: C_7  and  C_2 
REMARK    2  A    between atoms: S_10  and  C_3 
ROOT
ATOM      1  C   UNL d   1      -0.763  -0.019   0.056  0.00  0.00     0.079 A 
ATOM      2  C   UNL d   1      -0.101  -1.306  -0.003  0.00  0.00     0.003 A 
ATOM      3  C   UNL d   1       0.124   1.042   0.038  0.00  0.00     0.062 A 
ATOM      4  C   UNL d   1       1.273  -1.136  -0.018  0.00  0.00     0.065 A 
ATOM      5  S   UNL d   1       1.748   0.502   0.031  0.00  0.00    -0.092 SA
ATOM      6  C   UNL d   1      -2.184   0.166   0.098  0.00  0.00     0.102 C 
ATOM      7  N   UNL d   1      -3.337   0.305   0.136  0.00  0.00    -0.191 NA
ENDROOT
BRANCH   2   8
ATOM      8  C   UNL d   1      -0.690  -2.654  -0.089  0.00  0.00    -0.022 A 
ATOM      9  C   UNL d   1      -0.066  -3.756   0.519  0.00  0.00     0.036 A 
ATOM     10  C   UNL d   1      -0.610  -5.037   0.397  0.00  0.00     0.034 A 
ATOM     11 CL   UNL d   1       0.197  -6.377   1.115  0.00  0.00    -0.084 Cl
ATOM     12  C   UNL d   1      -1.792  -5.243  -0.307  0.00  0.00     0.024 A 
ATOM     13  C   UNL d   1      -2.429  -4.160  -0.905  0.00  0.00     0.003 A 
ATOM     14  C   UNL d   1      -1.874  -2.879  -0.809  0.00  0.00     0.012 A 
ENDBRANCH   2   8
BRANCH   3  15
ATOM     15  S   UNL d   1      -0.214   2.772  -0.070  0.00  0.00    -0.126 SA
ATOM     16  C   UNL d   1      -1.042   3.103   1.500  0.00  0.00     0.096 C 
ENDBRANCH   3  15
TORSDOF 2
