REMARK  0 active torsions:
REMARK  status: ('A' for Active; 'I' for Inactive)
ROOT
ATOM      1  N   UNL d   1      -0.922  -0.429   0.007  0.00  0.00    -0.138 N 
ATOM      2  C   UNL d   1      -1.679   0.722   0.038  0.00  0.00     0.719 A 
ATOM      3  C   UNL d   1       0.485  -0.432   0.001  0.00  0.00     0.086 A 
ATOM      4  N   UNL d   1      -1.058   1.927   0.093  0.00  0.00    -0.130 N 
ATOM      5  C   UNL d   1       1.100   0.836  -0.012  0.00  0.00     0.076 A 
ATOM      6  N   UNL d   1      -2.956   0.411   0.015  0.00  0.00    -0.129 N 
ATOM      7  HN  UNL d   1      -3.736   1.068   0.019  1.00  0.00     0.205 HD
ATOM      8  N   UNL d   1       0.302   2.008  -0.135  0.00  0.00    -0.284 N 
ATOM      9  N   UNL d   1      -3.050  -0.967  -0.015  0.00  0.00    -0.281 N 
ATOM     10  HN  UNL d   1      -3.912  -1.511  -0.033  1.00  0.00     0.188 HD
ATOM     11  C   UNL d   1      -1.826  -1.452  -0.015  0.00  0.00     0.224 A 
ATOM     12  C   UNL d   1       1.238  -1.606   0.018  0.00  0.00     0.034 A 
ATOM     13  C   UNL d   1       2.494   0.909  -0.038  0.00  0.00     0.040 A 
ATOM     14  C   UNL d   1       2.632  -1.512   0.020  0.00  0.00     0.009 A 
ATOM     15  C   UNL d   1       3.268  -0.262  -0.006  0.00  0.00    -0.060 A 
ATOM     16  C   UNL d   1       4.766  -0.163  -0.003  0.00  0.00     0.048 C 
ATOM     17  H   UNL d   1      -1.629   2.739  -0.140  0.00  0.00     0.205 HD
ATOM     18  H   UNL d   1       0.768   2.831   0.251  0.00  0.00     0.187 HD
ENDROOT
TORSDOF 0
