REMARK  4 active torsions:
REMARK  status: ('A' for Active; 'I' for Inactive)
REMARK    1  A    between atoms: C_8  and  C_1 
REMARK    2  A    between atoms: C_10  and  C_6 
REMARK    3  A    between atoms: C_7  and  C_8 
REMARK    4  A    between atoms: N_12  and  C_9 
ROOT
ATOM      1  C   UNL d   1      -0.843   0.948   0.015  0.00  0.00     0.151 A 
ATOM      2  C   UNL d   1      -1.362  -0.325  -0.027  0.00  0.00     0.075 A 
ATOM      3  N   UNL d   1       0.890  -0.476   0.131  0.00  0.00    -0.260 N 
ATOM      4  HN  UNL d   1       1.840  -0.840   0.206  1.00  0.00     0.195 HD
ATOM      5  O   UNL d   1       0.512   0.854   0.107  0.00  0.00    -0.233 OA
ATOM      6  C   UNL d   1      -0.241  -1.194   0.036  0.00  0.00     0.068 A 
ENDROOT
BRANCH   1   7
ATOM      7  C   UNL d   1      -1.497   2.238  -0.019  0.00  0.00     0.208 C 
ATOM      8  O   UNL d   1      -2.721   2.343  -0.085  0.00  0.00    -0.285 OA
BRANCH   7   9
ATOM      9  C   UNL d   1      -0.639   3.461   0.026  0.00  0.00     0.074 C 
ATOM     10  C   UNL d   1      -1.175   4.691   0.001  0.00  0.00     0.088 C 
BRANCH  10  11
ATOM     11  N   UNL d   1      -0.545   5.930   0.032  0.00  0.00    -0.398 N 
ATOM     12  C   UNL d   1       0.901   6.125   0.109  0.00  0.00     0.148 C 
ATOM     13  C   UNL d   1      -1.306   7.183  -0.003  0.00  0.00     0.148 C 
ENDBRANCH  10  11
ENDBRANCH   7   9
ENDBRANCH   1   7
BRANCH   6  14
ATOM     14  C   UNL d   1      -0.245  -2.657   0.010  0.00  0.00    -0.007 A 
ATOM     15  C   UNL d   1      -1.261  -3.353  -0.664  0.00  0.00     0.014 A 
ATOM     16  C   UNL d   1      -1.284  -4.750  -0.674  0.00  0.00     0.001 A 
ATOM     17  C   UNL d   1      -0.294  -5.469  -0.009  0.00  0.00     0.000 A 
ATOM     18  C   UNL d   1       0.724  -4.792   0.660  0.00  0.00     0.001 A 
ATOM     19  C   UNL d   1       0.752  -3.393   0.666  0.00  0.00     0.014 A 
ENDBRANCH   6  14
TORSDOF 4
