REMARK  2 active torsions:
REMARK  status: ('A' for Active; 'I' for Inactive)
REMARK    1  A    between atoms: C_3  and  C_1 
REMARK    2  A    between atoms: S_14  and  C_6 
ROOT
ATOM      1  C   UNL d   1      -0.087  -1.339  -0.051  0.00  0.00     0.151 A 
ATOM      2  N   UNL d   1       1.142  -0.720  -0.034  0.00  0.00    -0.314 N 
ATOM      3  N   UNL d   1      -1.020  -0.421  -0.223  0.00  0.00    -0.281 N 
ATOM      4  HN  UNL d   1      -2.020  -0.598  -0.313  1.00  0.00     0.188 HD
ATOM      5  C   UNL d   1       0.874   0.622  -0.131  0.00  0.00     0.159 A 
ATOM      6  N   UNL d   1      -0.417   0.810  -0.261  0.00  0.00    -0.278 N 
ATOM      7  HN  UNL d   1      -0.888   1.708  -0.369  1.00  0.00     0.189 HD
ATOM      8  C   UNL d   1       2.439  -1.336   0.033  0.00  0.00     0.160 C 
ENDROOT
BRANCH   1   9
ATOM      9  C   UNL d   1      -0.392  -2.792   0.109  0.00  0.00     0.085 A 
ATOM     10  N   UNL d   1       0.575  -3.736   0.405  0.00  0.00    -0.351 N 
ATOM     11  C   UNL d   1       0.022  -4.926   0.513  0.00  0.00     0.047 A 
ATOM     12  HN  UNL d   1       1.569  -3.540   0.521  1.00  0.00     0.166 HD
ATOM     13  C   UNL d   1       0.765  -6.171   0.843  0.00  0.00     0.076 C 
ATOM     14  S   UNL d   1      -1.676  -4.980   0.254  0.00  0.00    -0.087 SA
ATOM     15  C   UNL d   1      -1.676  -3.287  -0.004  0.00  0.00     0.084 A 
ENDBRANCH   1   9
BRANCH   5  16
ATOM     16  S   UNL d   1       2.050   1.889  -0.086  0.00  0.00    -0.105 SA
ATOM     17  H   UNL d   1       3.170   1.180   0.090  0.00  0.00     0.110 HD
ENDBRANCH   5  16
TORSDOF 2
