REMARK  5 active torsions:
REMARK  status: ('A' for Active; 'I' for Inactive)
REMARK    1  A    between atoms: C_9  and  C_4 
REMARK    2  A    between atoms: S_22  and  C_6 
REMARK       I    between atoms: N_17  and  C_9 
REMARK    3  A    between atoms: C_11  and  C_13 
REMARK    4  A    between atoms: C_12  and  C_14 
REMARK    5  A    between atoms: C_18  and  N_17 
ROOT
ATOM      1  S   UNL d   1      -1.588  -2.421   0.473  0.00  0.00     0.267 S 
ATOM      2  C   UNL d   1      -2.121  -0.792   0.258  0.00  0.00     0.116 C 
ATOM      3  C   UNL d   1      -1.133   0.256   0.332  0.00  0.00     0.024 C 
ATOM      4  C   UNL d   1      -1.671   1.473  -0.106  0.00  0.00     0.086 C 
ATOM      5  N   UNL d   1       0.044  -2.425   0.065  0.00  0.00    -0.275 N 
ATOM      6  C   UNL d   1      -3.405  -0.344   0.060  0.00  0.00     0.066 C 
ATOM      7  S   UNL d   1      -3.384   1.337  -0.273  0.00  0.00    -0.075 SA
ATOM      8  C   UNL d   1       0.270  -0.017   0.713  0.00  0.00     0.005 C 
ATOM      9  C   UNL d   1       0.830  -1.310   0.532  0.00  0.00     0.056 C 
ATOM     10  O   UNL d   1      -2.334  -3.198  -0.489  0.00  0.00    -0.200 OA
ATOM     11  O   UNL d   1      -1.721  -2.612   1.903  0.00  0.00    -0.200 OA
ATOM     12  C   UNL d   1       0.492  -3.220  -1.085  0.00  0.00     0.170 C 
ATOM     13  C   UNL d   1       1.053   0.946   1.364  0.00  0.00     0.014 C 
ATOM     14  C   UNL d   1       2.178  -1.542   0.840  0.00  0.00     0.031 C 
ATOM     15  C   UNL d   1       2.392   0.700   1.681  0.00  0.00     0.001 C 
ATOM     16  C   UNL d   1       2.962  -0.534   1.395  0.00  0.00     0.002 C 
ENDROOT
BRANCH   4  17
ATOM     17  C   UNL d   1      -1.014   2.748  -0.460  0.00  0.00     0.264 C 
ATOM     18  N   UNL d   1      -1.853   3.810  -0.805  0.00  0.00    -0.322 N 
ATOM     19  H   UNL d   1      -2.841   3.591  -0.845  0.00  0.00     0.169 HD
ATOM     20  O   UNL d   1       0.211   2.849  -0.504  0.00  0.00    -0.267 OA
BRANCH  18  21
ATOM     21  C   UNL d   1      -1.461   5.089  -1.277  0.00  0.00     0.036 A 
ATOM     22  C   UNL d   1      -0.142   5.556  -1.252  0.00  0.00     0.045 A 
ATOM     23  C   UNL d   1       0.217   6.783  -1.840  0.00  0.00     0.050 A 
ATOM     24  C   UNL d   1      -0.779   7.579  -2.416  0.00  0.00     0.032 A 
ATOM     25  C   UNL d   1      -2.113   7.148  -2.436  0.00  0.00     0.050 A 
ATOM     26  C   UNL d   1      -2.444   5.910  -1.846  0.00  0.00     0.045 A 
BRANCH  23  27
ATOM     27  C   UNL d   1       1.672   7.192  -1.887  0.00  0.00     0.417 C 
ATOM     28  F   UNL d   1       1.896   8.288  -2.663  0.00  0.00    -0.166 F 
ATOM     29  F   UNL d   1       2.173   7.494  -0.659  0.00  0.00    -0.166 F 
ATOM     30  F   UNL d   1       2.471   6.213  -2.393  0.00  0.00    -0.166 F 
ENDBRANCH  23  27
BRANCH  25  31
ATOM     31  C   UNL d   1      -3.173   7.967  -3.141  0.00  0.00     0.417 C 
ATOM     32  F   UNL d   1      -2.678   9.069  -3.769  0.00  0.00    -0.166 F 
ATOM     33  F   UNL d   1      -3.819   7.250  -4.100  0.00  0.00    -0.166 F 
ATOM     34  F   UNL d   1      -4.137   8.417  -2.292  0.00  0.00    -0.166 F 
ENDBRANCH  25  31
ENDBRANCH  18  21
ENDBRANCH   4  17
BRANCH   6  35
ATOM     35  S   UNL d   1      -4.947  -1.191   0.025  0.00  0.00    -0.126 SA
ATOM     36  C   UNL d   1      -4.860  -2.291   1.460  0.00  0.00     0.096 C 
ENDBRANCH   6  35
TORSDOF 5
