REMARK  5 active torsions:
REMARK  status: ('A' for Active; 'I' for Inactive)
REMARK    1  A    between atoms: C_8  and  C_1 
REMARK    2  A    between atoms: C_9  and  C_5 
REMARK    3  A    between atoms: C_7  and  C_10 
REMARK    4  A    between atoms: O_19  and  C_8 
REMARK    5  A    between atoms: C_21  and  O_19 
ROOT
ATOM      1  C   UNL d   1      -0.195  -1.129   0.055  0.00  0.00     0.104 A 
ATOM      2  S   UNL d   1       1.345  -0.368   0.057  0.00  0.00    -0.064 SA
ATOM      3  N   UNL d   1      -0.719   1.145   0.081  0.00  0.00    -0.352 N 
ATOM      4  HN  UNL d   1      -1.314   1.972   0.123  1.00  0.00     0.166 HD
ATOM      5  C   UNL d   1       0.597   1.175   0.026  0.00  0.00     0.085 A 
ATOM      6  C   UNL d   1      -1.187  -0.160   0.072  0.00  0.00     0.029 A 
ATOM      7  C   UNL d   1      -2.663  -0.350   0.042  0.00  0.00     0.070 C 
ENDROOT
BRANCH   5   8
ATOM      8  C   UNL d   1       1.379   2.421  -0.029  0.00  0.00    -0.002 A 
ATOM      9  C   UNL d   1       2.637   2.510  -0.642  0.00  0.00     0.015 A 
ATOM     10  C   UNL d   1       3.318   3.732  -0.705  0.00  0.00     0.017 A 
ATOM     11  C   UNL d   1       2.756   4.895  -0.159  0.00  0.00     0.048 A 
ATOM     12  C   UNL d   1       1.500   4.810   0.454  0.00  0.00     0.017 A 
ATOM     13  C   UNL d   1       0.821   3.590   0.513  0.00  0.00     0.015 A 
BRANCH  11  14
ATOM     14  C   UNL d   1       3.495   6.207  -0.246  0.00  0.00     0.417 C 
ATOM     15  F   UNL d   1       2.829   7.249   0.325  0.00  0.00    -0.166 F 
ATOM     16  F   UNL d   1       4.711   6.161   0.365  0.00  0.00    -0.166 F 
ATOM     17  F   UNL d   1       3.738   6.581  -1.533  0.00  0.00    -0.166 F 
ENDBRANCH  11  14
ENDBRANCH   5   8
BRANCH   1  18
ATOM     18  C   UNL d   1      -0.267  -2.571  -0.024  0.00  0.00     0.302 C 
ATOM     19  O   UNL d   1       0.682  -3.338  -0.141  0.00  0.00    -0.259 OA
BRANCH  18  20
ATOM     20  O   UNL d   1      -1.571  -2.966  -0.050  0.00  0.00    -0.317 OA
BRANCH  20  21
ATOM     21  C   UNL d   1      -1.819  -4.263  -0.605  0.00  0.00     0.174 C 
ATOM     22  C   UNL d   1      -1.947  -4.107  -2.110  0.00  0.00     0.034 C 
ENDBRANCH  20  21
ENDBRANCH  18  20
ENDBRANCH   1  18
TORSDOF 5
