REMARK  3 active torsions:
REMARK  status: ('A' for Active; 'I' for Inactive)
REMARK    1  A    between atoms: O_9  and  C_1 
REMARK    2  A    between atoms: C_5  and  C_4 
REMARK    3  A    between atoms: C_17  and  O_9 
ROOT
ATOM      1  C   UNL d   1      -1.042  -1.539  -0.061  0.00  0.00     0.084 A 
ATOM      2  N   UNL d   1      -1.639   1.173   0.067  0.00  0.00    -0.352 N 
ATOM      3  HN  UNL d   1      -1.857   2.166   0.150  1.00  0.00     0.166 HD
ATOM      4  C   UNL d   1      -2.639   0.255   0.016  0.00  0.00     0.119 A 
ATOM      5  C   UNL d   1       0.009  -0.592  -0.105  0.00  0.00     0.025 A 
ATOM      6  C   UNL d   1      -0.363   0.763   0.006  0.00  0.00     0.045 A 
ATOM      7  C   UNL d   1      -2.369  -1.103  -0.037  0.00  0.00     0.072 A 
ATOM      8  C   UNL d   1       1.386  -0.887  -0.271  0.00  0.00     0.023 A 
ATOM      9  C   UNL d   1       0.622   1.739   0.045  0.00  0.00     0.031 A 
ATOM     10  C   UNL d   1       2.374   0.100  -0.197  0.00  0.00    -0.061 A 
ATOM     11  C   UNL d   1       1.980   1.423  -0.035  0.00  0.00     0.009 A 
ATOM     12  C   UNL d   1       3.827  -0.256  -0.295  0.00  0.00     0.048 C 
ENDROOT
BRANCH   1  13
ATOM     13  O   UNL d   1      -0.926  -2.904  -0.086  0.00  0.00    -0.346 OA
BRANCH  13  14
ATOM     14  C   UNL d   1       0.000  -3.563   0.792  0.00  0.00     0.120 C 
ATOM     15  C   UNL d   1      -0.033  -3.086   2.244  0.00  0.00     0.040 C 
ATOM     16  C   UNL d   1      -0.348  -5.053   0.741  0.00  0.00     0.040 C 
ENDBRANCH  13  14
ENDBRANCH   1  13
BRANCH   4  17
ATOM     17  C   UNL d   1      -4.088   0.722   0.015  0.00  0.00     0.432 C 
ATOM     18  F   UNL d   1      -4.245   2.076   0.040  0.00  0.00    -0.165 F 
ATOM     19  F   UNL d   1      -4.774   0.291  -1.084  0.00  0.00    -0.165 F 
ATOM     20  F   UNL d   1      -4.790   0.249   1.088  0.00  0.00    -0.165 F 
ENDBRANCH   4  17
TORSDOF 3
