REMARK  5 active torsions:
REMARK  status: ('A' for Active; 'I' for Inactive)
REMARK    1  A    between atoms: C_6  and  C_1 
REMARK       I    between atoms: C_2  and  N_8 
REMARK       I    between atoms: N_4  and  C_2 
REMARK    2  A    between atoms: C_3  and  N_4 
REMARK    3  A    between atoms: N_5  and  C_6 
REMARK    4  A    between atoms: N_8  and  C_17 
REMARK    5  A    between atoms: O_24  and  C_11 
ROOT
ATOM      1  N   UNL d   1      -1.081   2.933   0.435  0.00  0.00     0.092 N 
ATOM      2  C   UNL d   1      -3.134   3.457  -0.920  0.00  0.00     0.055 C 
ATOM      3  C   UNL d   1      -3.305   3.251   1.588  0.00  0.00     0.055 C 
ATOM      4  C   UNL d   1      -4.051   3.148   0.260  0.00  0.00     0.089 C 
ATOM      5  C   UNL d   1      -1.773   2.772  -0.851  0.00  0.00     0.275 C 
ATOM      6  C   UNL d   1      -1.928   2.592   1.590  0.00  0.00     0.275 C 
ENDROOT
BRANCH   4   7
ATOM      7  N   UNL d   1      -4.880   1.954   0.087  0.00  0.00    -0.338 N 
ATOM      8  C   UNL d   1      -4.467   0.672  -0.054  0.00  0.00     0.321 C 
ATOM      9  N   UNL d   1      -5.384  -0.284  -0.335  0.00  0.00    -0.306 N 
ATOM     10  O   UNL d   1      -3.298   0.304   0.075  0.00  0.00    -0.247 OA
ATOM     11  H   UNL d   1      -4.975  -1.195  -0.186  0.00  0.00     0.171 HD
ATOM     12  H   UNL d   1      -5.800   2.023   0.507  0.00  0.00     0.164 HD
BRANCH   9  13
ATOM     13  C   UNL d   1      -6.750  -0.279  -0.692  0.00  0.00     0.071 C 
ATOM     14  C   UNL d   1      -7.453   0.892  -0.981  0.00  0.00     0.056 C 
ATOM     15  C   UNL d   1      -8.847   0.880  -1.039  0.00  0.00     0.036 C 
ATOM     16 CL   UNL d   1      -9.697   2.367  -1.219  0.00  0.00    -0.084 Cl
ATOM     17  C   UNL d   1      -9.552  -0.309  -0.902  0.00  0.00     0.026 C 
ATOM     18  C   UNL d   1      -8.851  -1.507  -0.769  0.00  0.00     0.041 C 
ATOM     19  C   UNL d   1      -7.451  -1.502  -0.694  0.00  0.00     0.095 C 
BRANCH  19  20
ATOM     20  O   UNL d   1      -6.872  -2.731  -0.496  0.00  0.00    -0.354 OA
ATOM     21  C   UNL d   1      -5.862  -3.085  -1.446  0.00  0.00     0.210 C 
ENDBRANCH  19  20
ENDBRANCH   9  13
ENDBRANCH   4   7
BRANCH   1  22
ATOM     22  C   UNL d   1       0.122   2.062   0.476  0.00  0.00     0.315 C 
BRANCH  22  23
ATOM     23  C   UNL d   1       1.193   2.417  -0.528  0.00  0.00     0.030 A 
ATOM     24  C   UNL d   1       1.526   1.497  -1.533  0.00  0.00     0.126 A 
ATOM     25  F   UNL d   1       0.893   0.317  -1.600  0.00  0.00    -0.205 F 
ATOM     26  C   UNL d   1       2.512   1.764  -2.481  0.00  0.00     0.043 A 
ATOM     27  C   UNL d   1       3.194   2.974  -2.443  0.00  0.00     0.005 A 
ATOM     28  C   UNL d   1       2.886   3.906  -1.452  0.00  0.00     0.024 A 
ATOM     29  C   UNL d   1       1.898   3.629  -0.497  0.00  0.00     0.045 A 
ATOM     30 CL   UNL d   1       1.618   4.827   0.718  0.00  0.00    -0.084 Cl
ENDBRANCH  22  23
ENDBRANCH   1  22
TORSDOF 5
