REMARK  1 active torsions:
REMARK  status: ('A' for Active; 'I' for Inactive)
REMARK    1  A    between atoms: O_9  and  N_5 
ROOT
ATOM      1  C   UNL d   1       0.758   1.264  -0.302  0.00  0.00     0.028 C 
ATOM      2  S   UNL d   1      -0.900   1.266   1.902  0.00  0.00    -0.148 SA
ATOM      3  S   UNL d   1       1.735  -0.172   1.832  0.00  0.00    -0.148 SA
ATOM      4  C   UNL d   1      -0.013  -0.265   2.324  0.00  0.00     0.105 C 
ATOM      5  N   UNL d   1       1.203   2.287  -0.974  0.00  0.00    -0.276 N 
ATOM      6  HN  UNL d   1       0.640   3.107  -1.201  1.00  0.00     0.193 HD
ATOM      7  C   UNL d   1      -0.701   1.278   0.102  0.00  0.00     0.130 C 
ATOM      8  C   UNL d   1       1.563   0.025   0.037  0.00  0.00     0.130 C 
ATOM      9  C   UNL d   1      -0.708  -1.517   1.800  0.00  0.00     0.033 C 
ENDROOT
BRANCH   5  10
ATOM     10  O   UNL d   1       2.540   2.132  -1.348  0.00  0.00    -0.290 OA
ATOM     11  H   UNL d   1       2.735   2.977  -1.794  0.00  0.00     0.244 HD
ENDBRANCH   5  10
TORSDOF 1
