REMARK  3 active torsions:
REMARK  status: ('A' for Active; 'I' for Inactive)
REMARK    1  A    between atoms: N_8  and  C_2 
REMARK    2  A    between atoms: N_10  and  N_8 
REMARK       I    between atoms: C_9  and  N_10 
REMARK       I    between atoms: N_11  and  C_9 
REMARK    3  A    between atoms: C_15  and  N_11 
ROOT
ATOM      1  N   UNL d   1      -2.600   0.306   0.328  0.00  0.00    -0.289 N 
ATOM      2  C   UNL d   1      -3.654   1.336   0.411  0.00  0.00     0.178 C 
ENDROOT
BRANCH   1   3
ATOM      3  C   UNL d   1      -1.287   0.674  -0.007  0.00  0.00     0.094 A 
ATOM      4  C   UNL d   1      -0.460   1.474   0.689  0.00  0.00     0.133 A 
ATOM      5  C   UNL d   1       0.939   1.753   0.246  0.00  0.00     0.285 A 
ATOM      6 CL   UNL d   1      -0.920   2.160   2.215  0.00  0.00    -0.076 Cl
ATOM      7  N   UNL d   1       1.351   1.086  -0.900  0.00  0.00    -0.261 N 
ATOM      8  O   UNL d   1       1.668   2.515   0.881  0.00  0.00    -0.265 OA
ATOM      9  N   UNL d   1       0.530   0.305  -1.669  0.00  0.00    -0.305 N 
ATOM     10  C   UNL d   1       2.703   1.286  -1.387  0.00  0.00     0.181 C 
ATOM     11  C   UNL d   1      -0.679   0.127  -1.248  0.00  0.00     0.140 A 
ATOM     12  HN  UNL d   1       0.859  -0.117  -2.538  1.00  0.00     0.186 HD
ENDBRANCH   1   3
BRANCH   1  13
ATOM     13  N   UNL d   1      -3.146  -0.929  -0.131  0.00  0.00    -0.249 N 
ATOM     14  C   UNL d   1      -3.233  -2.012   0.733  0.00  0.00     0.339 C 
ATOM     15  N   UNL d   1      -2.118  -2.202   1.509  0.00  0.00    -0.308 N 
ATOM     16  O   UNL d   1      -4.210  -2.754   0.630  0.00  0.00    -0.245 OA
ATOM     17  H   UNL d   1      -1.407  -1.503   1.365  0.00  0.00     0.170 HD
ATOM     18  H   UNL d   1      -3.986  -0.847  -0.699  0.00  0.00     0.192 HD
BRANCH  15  19
ATOM     19  C   UNL d   1      -1.704  -3.471   1.961  0.00  0.00     0.036 A 
ATOM     20  C   UNL d   1      -0.330  -3.732   1.980  0.00  0.00     0.029 A 
ATOM     21  C   UNL d   1       0.134  -5.034   2.195  0.00  0.00     0.002 A 
ATOM     22  C   UNL d   1      -0.769  -6.065   2.445  0.00  0.00     0.000 A 
ATOM     23  C   UNL d   1      -2.133  -5.790   2.517  0.00  0.00     0.002 A 
ATOM     24  C   UNL d   1      -2.598  -4.495   2.278  0.00  0.00     0.029 A 
ENDBRANCH  15  19
ENDBRANCH   1  13
TORSDOF 3
