REMARK  3 active torsions:
REMARK  status: ('A' for Active; 'I' for Inactive)
REMARK    1  A    between atoms: C_2  and  C_1 
REMARK    2  A    between atoms: N_16  and  C_11 
REMARK    3  A    between atoms: O_17  and  C_12 
ROOT
ATOM      1  C   UNL d   1       2.055  -2.459  -0.024  0.00  0.00     0.138 A 
ATOM      2  N   UNL d   1       1.955  -3.296  -1.060  0.00  0.00    -0.317 N 
ATOM      3  HN  UNL d   1       1.265  -3.174  -1.801  1.00  0.00     0.170 HD
ATOM      4  N   UNL d   1       2.918  -2.578   0.983  0.00  0.00    -0.306 N 
ATOM      5  HN  UNL d   1       2.962  -1.917   1.759  1.00  0.00     0.171 HD
ATOM      6  N   UNL d   1       3.704  -4.525  -0.098  0.00  0.00    -0.298 N 
ATOM      7  HN  UNL d   1       4.333  -5.328  -0.116  1.00  0.00     0.172 HD
ATOM      8  C   UNL d   1       2.820  -4.294  -1.050  0.00  0.00     0.159 A 
ATOM      9  C   UNL d   1       3.713  -3.632   0.886  0.00  0.00     0.227 A 
ENDROOT
BRANCH   1  10
ATOM     10  C   UNL d   1       1.145  -1.311  -0.005  0.00  0.00     0.084 A 
ATOM     11  N   UNL d   1       1.166  -0.345   1.001  0.00  0.00    -0.351 N 
ATOM     12  C   UNL d   1       0.260   0.578   0.760  0.00  0.00     0.047 A 
ATOM     13  HN  UNL d   1       1.791  -0.354   1.807  1.00  0.00     0.166 HD
ATOM     14  C   UNL d   1       0.022   1.768   1.622  0.00  0.00     0.076 C 
ATOM     15  S   UNL d   1      -0.678   0.346  -0.659  0.00  0.00    -0.087 SA
ATOM     16  C   UNL d   1       0.198  -1.086  -0.989  0.00  0.00     0.084 A 
ENDBRANCH   1  10
BRANCH   8  17
ATOM     17  N   UNL d   1       2.780  -5.174  -2.111  0.00  0.00    -0.274 NA
ATOM     18  H   UNL d   1       1.875  -5.173  -2.557  0.00  0.00     0.127 HD
ATOM     19  H   UNL d   1       3.174  -6.067  -1.852  0.00  0.00     0.127 HD
ENDBRANCH   8  17
BRANCH   9  20
ATOM     20  O   UNL d   1       4.650  -3.882   1.866  0.00  0.00    -0.327 OA
ATOM     21  C   UNL d   1       4.673  -2.896   2.891  0.00  0.00     0.213 C 
ENDBRANCH   9  20
TORSDOF 3
