REMARK  1 active torsions:
REMARK  status: ('A' for Active; 'I' for Inactive)
REMARK    1  A    between atoms: C_6  and  C_1 
REMARK       I    between atoms: N_9  and  C_6 
ROOT
ATOM      1  C   UNL d   1       2.545   0.038  -0.000  0.00  0.00     0.095 A 
ATOM      2  S   UNL d   1       1.694   1.526   0.000  0.00  0.00    -0.082 SA
ATOM      3  C   UNL d   1       1.666  -1.028  -0.000  0.00  0.00     0.068 A 
ATOM      4  C   UNL d   1       0.279  -0.629   0.000  0.00  0.00     0.004 A 
ATOM      5  C   UNL d   1       0.158   0.762   0.000  0.00  0.00     0.017 A 
ATOM      6 CL   UNL d   1       2.110  -2.693  -0.001  0.00  0.00    -0.082 Cl
ATOM      7  C   UNL d   1      -0.919  -1.392   0.001  0.00  0.00     0.014 A 
ATOM      8  C   UNL d   1      -1.099   1.399   0.001  0.00  0.00     0.020 A 
ATOM      9  C   UNL d   1      -2.169  -0.765   0.001  0.00  0.00     0.001 A 
ATOM     10  C   UNL d   1      -2.255   0.619   0.001  0.00  0.00     0.001 A 
ENDROOT
BRANCH   1  11
ATOM     11  C   UNL d   1       4.000   0.013  -0.000  0.00  0.00     0.258 C 
ATOM     12  O   UNL d   1       4.691  -1.002  -0.003  0.00  0.00    -0.267 OA
ATOM     13  N   UNL d   1       4.641   1.224   0.002  0.00  0.00    -0.365 N 
ATOM     14  H   UNL d   1       4.140   2.100   0.004  0.00  0.00     0.159 HD
ATOM     15  H   UNL d   1       5.651   1.221   0.002  0.00  0.00     0.159 HD
ENDBRANCH   1  11
TORSDOF 1
