REMARK  3 active torsions:
REMARK  status: ('A' for Active; 'I' for Inactive)
REMARK    1  A    between atoms: C_2  and  S_1 
REMARK    2  A    between atoms: C_4  and  S_1 
REMARK    3  A    between atoms: C_7  and  C_4 
ROOT
ATOM      1  C   UNL d   1       0.527  -1.221  -1.329  0.00  0.00     0.162 C 
ATOM      2  C   UNL d   1      -0.746  -1.654  -1.432  0.00  0.00     0.069 C 
ATOM      3  C   UNL d   1       1.563  -1.691  -2.180  0.00  0.00     0.113 C 
ATOM      4  N   UNL d   1       2.386  -2.085  -2.899  0.00  0.00    -0.191 NA
ATOM      5  S   UNL d   1      -1.194  -2.935  -2.565  0.00  0.00    -0.120 SA
ATOM      6  S   UNL d   1      -2.101  -1.102  -0.474  0.00  0.00    -0.120 SA
ATOM      7  C   UNL d   1      -2.937  -3.081  -2.067  0.00  0.00     0.090 C 
ATOM      8  C   UNL d   1      -3.050  -2.640  -0.622  0.00  0.00     0.090 C 
ENDROOT
BRANCH   1   9
ATOM      9  S   UNL d   1       1.033  -0.014  -0.187  0.00  0.00     0.193 S 
ATOM     10  O   UNL d   1       0.236   1.188  -0.382  0.00  0.00    -0.221 OA
ATOM     11  O   UNL d   1       2.482   0.124  -0.237  0.00  0.00    -0.221 OA
BRANCH   9  12
ATOM     12  C   UNL d   1       0.661  -0.631   1.441  0.00  0.00     0.211 C 
BRANCH  12  13
ATOM     13  C   UNL d   1       1.203  -1.992   1.641  0.00  0.00     0.066 A 
ATOM     14  O   UNL d   1       0.412  -3.031   1.241  0.00  0.00    -0.326 OA
ATOM     15  C   UNL d   1       1.062  -4.176   1.573  0.00  0.00     0.142 A 
ATOM     16  C   UNL d   1       2.256  -3.889   2.192  0.00  0.00     0.027 A 
ATOM     17  C   UNL d   1       2.350  -2.476   2.230  0.00  0.00     0.035 A 
ENDBRANCH  12  13
ENDBRANCH   9  12
ENDBRANCH   1   9
TORSDOF 3
