REMARK  3 active torsions:
REMARK  status: ('A' for Active; 'I' for Inactive)
REMARK    1  A    between atoms: C_2  and  C_1 
REMARK    2  A    between atoms: O_9  and  C_3 
REMARK    3  A    between atoms: O_10  and  C_7 
ROOT
ATOM      1  C   UNL d   1       0.317   1.200   0.071  0.00  0.00     0.045 A 
ATOM      2  C   UNL d   1       0.926  -0.058   0.107  0.00  0.00     0.079 A 
ATOM      3  C   UNL d   1      -1.092   1.272   0.010  0.00  0.00     0.054 A 
ATOM      4  C   UNL d   1       0.148  -1.216   0.097  0.00  0.00     0.040 A 
ATOM      5  C   UNL d   1      -1.871   0.114  -0.006  0.00  0.00     0.069 A 
ATOM      6  C   UNL d   1      -1.244  -1.130   0.034  0.00  0.00     0.039 A 
ENDROOT
BRANCH   1   7
ATOM      7  C   UNL d   1       1.035   2.509   0.056  0.00  0.00     0.158 C 
ATOM      8  O   UNL d   1       0.504   3.465  -0.512  0.00  0.00    -0.293 OA
ATOM      9  C   UNL d   1       2.363   2.687   0.741  0.00  0.00     0.097 C 
ENDBRANCH   1   7
BRANCH   2  10
ATOM     10  O   UNL d   1       2.273  -0.255   0.121  0.00  0.00    -0.360 OA
ATOM     11  H   UNL d   1       2.644   0.193  -0.664  0.00  0.00     0.217 HD
ENDBRANCH   2  10
BRANCH   5  12
ATOM     12  O   UNL d   1      -3.236   0.068  -0.063  0.00  0.00    -0.356 OA
ATOM     13  C   UNL d   1      -3.922   1.315  -0.079  0.00  0.00     0.210 C 
ENDBRANCH   5  12
TORSDOF 3
