REMARK  6 active torsions:
REMARK  status: ('A' for Active; 'I' for Inactive)
REMARK    1  A    between atoms: N_10  and  S_1 
REMARK    2  A    between atoms: C_12  and  S_1 
REMARK    3  A    between atoms: C_2  and  C_9 
REMARK    4  A    between atoms: C_15  and  C_8 
REMARK    5  A    between atoms: C_11  and  N_10 
REMARK    6  A    between atoms: C_16  and  C_17 
ROOT
ATOM      1  C   UNL d   1       2.116   1.793   2.236  0.00  0.00     0.044 A 
ATOM      2  C   UNL d   1       0.991   2.323   1.575  0.00  0.00     0.057 A 
ATOM      3  C   UNL d   1       2.136   1.820   3.644  0.00  0.00     0.018 A 
ATOM      4  C   UNL d   1      -0.091   2.818   2.319  0.00  0.00     0.031 A 
ATOM      5  C   UNL d   1       1.056   2.315   4.377  0.00  0.00     0.001 A 
ATOM      6  C   UNL d   1      -0.064   2.799   3.712  0.00  0.00     0.002 A 
ENDROOT
BRANCH   1   7
ATOM      7  C   UNL d   1       3.264   1.192   1.565  0.00  0.00     0.177 A 
ATOM      8  O   UNL d   1       3.527   1.560   0.274  0.00  0.00    -0.273 OA
ATOM      9  C   UNL d   1       4.600   0.765  -0.029  0.00  0.00     0.174 A 
ATOM     10  N   UNL d   1       4.995   0.033   0.993  0.00  0.00    -0.277 N 
ATOM     11  N   UNL d   1       4.139   0.324   2.034  0.00  0.00    -0.277 N 
ATOM     12  HN  UNL d   1       5.779  -0.620   1.011  1.00  0.00     0.189 HD
ATOM     13  HN  UNL d   1       4.176  -0.057   2.979  1.00  0.00     0.189 HD
BRANCH   9  14
ATOM     14  C   UNL d   1       5.152   0.872  -1.370  0.00  0.00     0.017 A 
ATOM     15  C   UNL d   1       4.680   1.805  -2.298  0.00  0.00     0.016 A 
ATOM     16  C   UNL d   1       5.282   1.930  -3.556  0.00  0.00     0.009 A 
ATOM     17  C   UNL d   1       6.368   1.120  -3.935  0.00  0.00    -0.051 A 
ATOM     18  C   UNL d   1       6.804   0.158  -3.010  0.00  0.00     0.009 A 
ATOM     19  C   UNL d   1       6.208   0.037  -1.750  0.00  0.00     0.016 A 
BRANCH  17  20
ATOM     20  C   UNL d   1       7.037   1.307  -5.307  0.00  0.00    -0.024 C 
ATOM     21  C   UNL d   1       8.217   0.340  -5.551  0.00  0.00     0.019 C 
ATOM     22  C   UNL d   1       6.005   1.073  -6.430  0.00  0.00     0.019 C 
ATOM     23  C   UNL d   1       7.595   2.743  -5.428  0.00  0.00     0.019 C 
ENDBRANCH  17  20
ENDBRANCH   9  14
ENDBRANCH   1   7
BRANCH   2  24
ATOM     24  N   UNL d   1       0.850   2.318   0.152  0.00  0.00    -0.280 N 
ATOM     25  H   UNL d   1       0.447   3.150  -0.277  0.00  0.00     0.179 HD
BRANCH  24  26
ATOM     26  S   UNL d   1       0.316   0.903  -0.616  0.00  0.00     0.263 S 
ATOM     27  O   UNL d   1       1.083  -0.231  -0.147  0.00  0.00    -0.200 OA
ATOM     28  O   UNL d   1       0.222   1.224  -2.023  0.00  0.00    -0.200 OA
BRANCH  26  29
ATOM     29  C   UNL d   1      -1.344   0.726   0.002  0.00  0.00     0.080 A 
ATOM     30  C   UNL d   1      -2.401   1.328  -0.690  0.00  0.00     0.027 A 
ATOM     31  C   UNL d   1      -3.706   1.177  -0.217  0.00  0.00     0.025 A 
ATOM     32  C   UNL d   1      -3.944   0.423   0.933  0.00  0.00     0.034 A 
ATOM     33  C   UNL d   1      -2.890  -0.188   1.614  0.00  0.00     0.025 A 
ATOM     34 CL   UNL d   1      -5.554   0.240   1.512  0.00  0.00    -0.084 Cl
ATOM     35  C   UNL d   1      -1.584  -0.047   1.143  0.00  0.00     0.027 A 
ENDBRANCH  26  29
ENDBRANCH  24  26
ENDBRANCH   2  24
TORSDOF 6
