REMARK  9 active torsions:
REMARK  status: ('A' for Active; 'I' for Inactive)
REMARK    1  A    between atoms: C_2  and  C_1 
REMARK    2  A    between atoms: C_3  and  C_1 
REMARK    3  A    between atoms: C_6  and  C_1 
REMARK    4  A    between atoms: O_10  and  C_2 
REMARK    5  A    between atoms: O_11  and  C_3 
REMARK    6  A    between atoms: N_9  and  N_4 
REMARK    7  A    between atoms: C_12  and  N_9 
REMARK    8  A    between atoms: C_14  and  O_10 
REMARK    9  A    between atoms: C_13  and  O_11 
ROOT
ATOM      1  C   UNL d   1       1.079  -0.117   0.130  0.00  0.00     0.224 C 
ENDROOT
BRANCH   1   2
ATOM      2  C   UNL d   1       0.571  -1.377  -0.505  0.00  0.00     0.277 C 
ATOM      3  O   UNL d   1       1.144  -2.457  -0.449  0.00  0.00    -0.264 OA
BRANCH   2   4
ATOM      4  O   UNL d   1      -0.577  -1.139  -1.198  0.00  0.00    -0.321 OA
BRANCH   4   5
ATOM      5  C   UNL d   1      -0.919  -2.130  -2.177  0.00  0.00     0.174 C 
ATOM      6  C   UNL d   1      -0.223  -1.751  -3.471  0.00  0.00     0.034 C 
ENDBRANCH   4   5
ENDBRANCH   2   4
ENDBRANCH   1   2
BRANCH   1   7
ATOM      7  C   UNL d   1       0.618  -0.021   1.547  0.00  0.00     0.277 C 
ATOM      8  O   UNL d   1       1.357  -0.026   2.523  0.00  0.00    -0.264 OA
BRANCH   7   9
ATOM      9  O   UNL d   1      -0.743   0.019   1.606  0.00  0.00    -0.321 OA
BRANCH   9  10
ATOM     10  C   UNL d   1      -1.306  -0.259   2.896  0.00  0.00     0.174 C 
ATOM     11  C   UNL d   1      -1.438  -1.764   3.034  0.00  0.00     0.034 C 
ENDBRANCH   9  10
ENDBRANCH   7   9
ENDBRANCH   1   7
BRANCH   1  12
ATOM     12  C   UNL d   1       2.576  -0.111   0.049  0.00  0.00     0.105 C 
ATOM     13  N   UNL d   1       3.191   0.745  -0.700  0.00  0.00    -0.314 N 
ATOM     14  HN  UNL d   1       2.706   1.454  -1.250  1.00  0.00     0.185 HD
BRANCH  13  15
ATOM     15  N   UNL d   1       4.542   0.612  -0.688  0.00  0.00    -0.301 N 
ATOM     16  H   UNL d   1       4.959  -0.307  -0.545  0.00  0.00     0.187 HD
BRANCH  15  17
ATOM     17  C   UNL d   1       5.308   1.464  -1.507  0.00  0.00     0.048 A 
ATOM     18  C   UNL d   1       4.775   2.616  -2.099  0.00  0.00     0.031 A 
ATOM     19  C   UNL d   1       5.578   3.486  -2.834  0.00  0.00     0.002 A 
ATOM     20  C   UNL d   1       6.942   3.229  -2.974  0.00  0.00     0.000 A 
ATOM     21  C   UNL d   1       7.492   2.096  -2.375  0.00  0.00     0.002 A 
ATOM     22  C   UNL d   1       6.684   1.229  -1.639  0.00  0.00     0.031 A 
ENDBRANCH  15  17
ENDBRANCH  13  15
ENDBRANCH   1  12
TORSDOF 9
