REMARK  1 active torsions:
REMARK  status: ('A' for Active; 'I' for Inactive)
REMARK    1  A    between atoms: N_2  and  C_1 
ROOT
ATOM      1  C   UNL d   1      -1.773  -1.293  -0.099  0.00  0.00     0.178 A 
ATOM      2  C   UNL d   1      -2.110   0.133  -0.028  0.00  0.00     0.321 A 
ATOM      3  C   UNL d   1      -0.523  -1.779  -0.077  0.00  0.00     0.056 A 
ATOM      4  O   UNL d   1      -1.014   1.001  -0.090  0.00  0.00    -0.273 OA
ATOM      5  C   UNL d   1       0.585  -0.839  -0.022  0.00  0.00     0.000 A 
ATOM      6  C   UNL d   1       0.313   0.528  -0.059  0.00  0.00     0.089 A 
ATOM      7  O   UNL d   1      -3.243   0.577   0.109  0.00  0.00    -0.257 OA
ATOM      8  C   UNL d   1       1.914  -1.262   0.046  0.00  0.00     0.014 A 
ATOM      9  C   UNL d   1       1.331   1.478  -0.043  0.00  0.00     0.038 A 
ATOM     10  C   UNL d   1       2.946  -0.318   0.069  0.00  0.00     0.001 A 
ATOM     11  C   UNL d   1       2.655   1.048   0.019  0.00  0.00     0.003 A 
ENDROOT
BRANCH   1  12
ATOM     12  N   UNL d   1      -2.849  -2.246  -0.189  0.00  0.00    -0.109 N 
ATOM     13  O   UNL d   1      -2.725  -3.309   0.439  0.00  0.00    -0.532 OA
ATOM     14  O   UNL d   1      -3.794  -1.980  -0.940  0.00  0.00    -0.532 OA
ENDBRANCH   1  12
TORSDOF 1
