REMARK  2 active torsions:
REMARK  status: ('A' for Active; 'I' for Inactive)
REMARK    1  A    between atoms: C_6  and  C_1 
REMARK    2  A    between atoms: C_11  and  C_6 
ROOT
ATOM      1  C   UNL d   1      -2.455   1.465  -0.077  0.00  0.00     0.091 C 
ATOM      2  C   UNL d   1      -3.094   0.153  -0.304  0.00  0.00     0.302 C 
ATOM      3  C   UNL d   1      -1.116   1.547   0.041  0.00  0.00     0.037 C 
ATOM      4  C   UNL d   1      -0.256   0.361   0.014  0.00  0.00     0.010 A 
ATOM      5  O   UNL d   1      -2.305  -0.968  -0.086  0.00  0.00    -0.274 OA
ATOM      6  C   UNL d   1      -0.904  -0.874  -0.002  0.00  0.00     0.090 A 
ATOM      7  C   UNL d   1       1.169   0.393   0.015  0.00  0.00    -0.013 A 
ATOM      8  O   UNL d   1      -4.263   0.030  -0.646  0.00  0.00    -0.259 OA
ATOM      9  C   UNL d   1      -0.213  -2.078   0.019  0.00  0.00     0.039 A 
ATOM     10  C   UNL d   1       1.875  -0.843   0.020  0.00  0.00    -0.025 A 
ATOM     11  C   UNL d   1       1.175  -2.058   0.030  0.00  0.00     0.015 A 
ATOM     12  C   UNL d   1       1.946   1.578   0.004  0.00  0.00     0.013 A 
ATOM     13  C   UNL d   1       3.279  -0.858   0.003  0.00  0.00     0.012 A 
ATOM     14  C   UNL d   1       3.345   1.545  -0.012  0.00  0.00     0.001 A 
ATOM     15  C   UNL d   1       4.010   0.327  -0.014  0.00  0.00     0.001 A 
ENDROOT
BRANCH   1  16
ATOM     16  C   UNL d   1      -3.196   2.764  -0.055  0.00  0.00     0.198 C 
ATOM     17  O   UNL d   1      -2.624   3.818  -0.346  0.00  0.00    -0.286 OA
BRANCH  16  18
ATOM     18  C   UNL d   1      -4.634   2.830   0.320  0.00  0.00     0.015 A 
ATOM     19  C   UNL d   1      -5.213   1.982   1.273  0.00  0.00     0.015 A 
ATOM     20  C   UNL d   1      -6.578   2.077   1.558  0.00  0.00     0.001 A 
ATOM     21  C   UNL d   1      -7.362   3.044   0.929  0.00  0.00     0.000 A 
ATOM     22  C   UNL d   1      -6.782   3.929   0.023  0.00  0.00     0.001 A 
ATOM     23  C   UNL d   1      -5.422   3.825  -0.279  0.00  0.00     0.015 A 
ENDBRANCH  16  18
ENDBRANCH   1  16
TORSDOF 2
