REMARK  3 active torsions:
REMARK  status: ('A' for Active; 'I' for Inactive)
REMARK    1  A    between atoms: N_2  and  S_1 
REMARK    2  A    between atoms: C_4  and  S_1 
REMARK    3  A    between atoms: C_3  and  N_2 
ROOT
ATOM      1  S   UNL d   1       1.110  -0.126  -0.055  0.00  0.00     0.259 S 
ATOM      2  O   UNL d   1       0.450  -1.204   0.640  0.00  0.00    -0.201 OA
ATOM      3  O   UNL d   1       2.546   0.002  -0.104  0.00  0.00    -0.201 OA
ENDROOT
BRANCH   1   4
ATOM      4  N   UNL d   1       0.488   1.306   0.564  0.00  0.00    -0.303 N 
ATOM      5  H   UNL d   1       0.015   1.168   1.465  0.00  0.00     0.173 HD
BRANCH   4   6
ATOM      6  C   UNL d   1       1.292   2.539   0.449  0.00  0.00     0.174 C 
ATOM      7  C   UNL d   1       0.609   3.700   1.146  0.00  0.00     0.209 C 
ATOM      8  S   UNL d   1       0.876   5.212   0.281  0.00  0.00    -0.090 SA
ATOM      9  O   UNL d   1      -0.025   3.629   2.188  0.00  0.00    -0.283 OA
ATOM     10  C   UNL d   1       1.905   4.429  -0.985  0.00  0.00     0.085 C 
ATOM     11  C   UNL d   1       1.433   2.990  -0.999  0.00  0.00     0.045 C 
ENDBRANCH   4   6
ENDBRANCH   1   4
BRANCH   1  12
ATOM     12  C   UNL d   1       0.482  -0.119  -1.719  0.00  0.00     0.081 A 
ATOM     13  C   UNL d   1      -0.897  -0.210  -1.926  0.00  0.00     0.050 A 
ATOM     14  C   UNL d   1      -1.401  -0.177  -3.229  0.00  0.00     0.057 A 
ATOM     15 CL   UNL d   1      -3.113  -0.284  -3.428  0.00  0.00    -0.083 Cl
ATOM     16  C   UNL d   1      -0.527  -0.053  -4.318  0.00  0.00     0.055 A 
ATOM     17  C   UNL d   1       0.853   0.026  -4.100  0.00  0.00     0.027 A 
ATOM     18 CL   UNL d   1      -1.084   0.013  -5.952  0.00  0.00    -0.083 Cl
ATOM     19  C   UNL d   1       1.362  -0.018  -2.801  0.00  0.00     0.027 A 
ENDBRANCH   1  12
TORSDOF 3
