REMARK  8 active torsions:
REMARK  status: ('A' for Active; 'I' for Inactive)
REMARK    1  A    between atoms: C_7  and  C_1 
REMARK    2  A    between atoms: C_11  and  N_2 
REMARK    3  A    between atoms: C_20  and  C_3 
REMARK    4  A    between atoms: O_12  and  C_7 
REMARK    5  A    between atoms: N_8  and  O_12 
REMARK    6  A    between atoms: C_13  and  C_10 
REMARK    7  A    between atoms: N_19  and  C_10 
REMARK    8  A    between atoms: C_29  and  C_20 
ROOT
ATOM      1  C   UNL d   1      -0.397   1.357  -0.093  0.00  0.00     0.082 C 
ATOM      2  N   UNL d   1      -2.387   2.348   0.043  0.00  0.00    -0.260 N 
ATOM      3  C   UNL d   1      -1.020   2.606  -0.069  0.00  0.00     0.052 C 
ATOM      4  N   UNL d   1      -2.618   1.034   0.302  0.00  0.00    -0.304 N 
ATOM      5  HN  UNL d   1      -3.502   0.598   0.565  1.00  0.00     0.186 HD
ATOM      6  C   UNL d   1      -1.441   0.442   0.138  0.00  0.00     0.127 C 
ENDROOT
BRANCH   1   7
ATOM      7  C   UNL d   1       1.008   1.034  -0.308  0.00  0.00     0.318 C 
ATOM      8  O   UNL d   1       1.837   1.845  -0.713  0.00  0.00    -0.257 OA
BRANCH   7   9
ATOM      9  O   UNL d   1       1.275  -0.285  -0.016  0.00  0.00    -0.193 OA
BRANCH   9  10
ATOM     10  N   UNL d   1       2.248  -0.786  -0.903  0.00  0.00    -0.246 N 
ATOM     11  C   UNL d   1       2.648  -1.971  -0.552  0.00  0.00     0.109 C 
ATOM     12  HN  UNL d   1       2.594  -0.281  -1.720  1.00  0.00     0.196 HD
BRANCH  11  13
ATOM     13  C   UNL d   1       3.538  -2.713  -1.500  0.00  0.00     0.004 A 
ATOM     14  C   UNL d   1       4.309  -2.012  -2.437  0.00  0.00     0.016 A 
ATOM     15  C   UNL d   1       5.105  -2.708  -3.351  0.00  0.00     0.024 A 
ATOM     16  C   UNL d   1       5.124  -4.102  -3.333  0.00  0.00     0.034 A 
ATOM     17  C   UNL d   1       4.352  -4.808  -2.411  0.00  0.00     0.024 A 
ATOM     18 CL   UNL d   1       6.096  -4.959  -4.465  0.00  0.00    -0.084 Cl
ATOM     19  C   UNL d   1       3.558  -4.115  -1.494  0.00  0.00     0.016 A 
ENDBRANCH  11  13
BRANCH  11  20
ATOM     20  N   UNL d   1       2.298  -2.574   0.636  0.00  0.00    -0.286 NA
ATOM     21  H   UNL d   1       1.948  -1.906   1.316  0.00  0.00     0.125 HD
ATOM     22  H   UNL d   1       3.009  -3.175   1.040  0.00  0.00     0.125 HD
ENDBRANCH  11  20
ENDBRANCH   9  10
ENDBRANCH   7   9
ENDBRANCH   1   7
BRANCH   3  23
ATOM     23  C   UNL d   1      -0.382   3.970  -0.082  0.00  0.00     0.060 C 
BRANCH  23  24
ATOM     24  C   UNL d   1      -0.745   4.882   1.100  0.00  0.00     0.002 C 
ATOM     25  C   UNL d   1      -0.382   4.309   2.461  0.00  0.00     0.005 C 
ENDBRANCH  23  24
ENDBRANCH   3  23
BRANCH   2  26
ATOM     26  C   UNL d   1      -3.497   3.241   0.012  0.00  0.00     0.056 A 
ATOM     27  C   UNL d   1      -3.473   4.428  -0.729  0.00  0.00     0.033 A 
ATOM     28  C   UNL d   1      -4.507   5.359  -0.593  0.00  0.00     0.026 A 
ATOM     29  C   UNL d   1      -5.579   5.088   0.255  0.00  0.00     0.034 A 
ATOM     30  C   UNL d   1      -5.657   3.870   0.925  0.00  0.00     0.026 A 
ATOM     31 CL   UNL d   1      -6.804   6.273   0.488  0.00  0.00    -0.084 Cl
ATOM     32  C   UNL d   1      -4.626   2.937   0.790  0.00  0.00     0.033 A 
ENDBRANCH   2  26
TORSDOF 8
