REMARK  5 active torsions:
REMARK  status: ('A' for Active; 'I' for Inactive)
REMARK    1  A    between atoms: C_11  and  N_1 
REMARK    2  A    between atoms: C_7  and  C_5 
REMARK       I    between atoms: C_9  and  N_10 
REMARK    3  A    between atoms: C_13  and  C_9 
REMARK    4  A    between atoms: N_10  and  C_25 
REMARK    5  A    between atoms: O_31  and  C_26 
ROOT
ATOM      1  C   UNL d   1       2.077  -1.395   0.013  0.00  0.00     0.057 A 
ATOM      2  C   UNL d   1       2.112  -2.504  -0.841  0.00  0.00     0.034 A 
ATOM      3  C   UNL d   1       3.202  -1.075   0.776  0.00  0.00     0.034 A 
ATOM      4  C   UNL d   1       4.367  -3.025  -0.101  0.00  0.00     0.035 A 
ATOM      5  C   UNL d   1       4.331  -1.905   0.736  0.00  0.00     0.032 A 
ATOM      6  C   UNL d   1       3.249  -3.313  -0.892  0.00  0.00     0.032 A 
ENDROOT
BRANCH   1   7
ATOM      7  N   UNL d   1       0.894  -0.614   0.123  0.00  0.00    -0.255 N 
ATOM      8  C   UNL d   1      -0.425  -1.037   0.009  0.00  0.00     0.076 C 
ATOM      9  C   UNL d   1      -1.172   0.114  -0.121  0.00  0.00     0.069 C 
ATOM     10  C   UNL d   1      -0.885  -2.393   0.151  0.00  0.00     0.033 A 
ATOM     11  C   UNL d   1      -0.282   1.181   0.160  0.00  0.00     0.135 C 
ATOM     12  N   UNL d   1       0.966   0.721   0.379  0.00  0.00    -0.289 N 
ATOM     13  HN  UNL d   1       1.784   1.255   0.671  1.00  0.00     0.187 HD
ATOM     14  S   UNL d   1      -2.215  -3.001  -0.739  0.00  0.00    -0.100 SA
ATOM     15  C   UNL d   1      -0.389  -3.349   1.022  0.00  0.00     0.021 A 
ATOM     16  C   UNL d   1      -2.127  -4.525   0.037  0.00  0.00     0.050 A 
ATOM     17  C   UNL d   1      -1.096  -4.580   0.950  0.00  0.00     0.008 A 
BRANCH  11  18
ATOM     18  C   UNL d   1      -0.678   2.630   0.279  0.00  0.00     0.434 C 
ATOM     19  F   UNL d   1       0.337   3.453   0.650  0.00  0.00    -0.165 F 
ATOM     20  F   UNL d   1      -1.166   3.111  -0.897  0.00  0.00    -0.165 F 
ATOM     21  F   UNL d   1      -1.671   2.796   1.197  0.00  0.00    -0.165 F 
ENDBRANCH  11  18
ENDBRANCH   1   7
BRANCH   4  22
ATOM     22  N   UNL d   1       5.478  -3.882  -0.239  0.00  0.00    -0.323 N 
ATOM     23  C   UNL d   1       6.702  -3.778   0.399  0.00  0.00     0.256 C 
ATOM     24  O   UNL d   1       7.007  -2.973   1.266  0.00  0.00    -0.267 OA
ATOM     25  H   UNL d   1       5.388  -4.585  -0.960  0.00  0.00     0.169 HD
BRANCH  23  26
ATOM     26  C   UNL d   1       7.754  -4.721  -0.091  0.00  0.00     0.032 A 
ATOM     27  C   UNL d   1       9.088  -4.292  -0.050  0.00  0.00     0.020 A 
ATOM     28  C   UNL d   1      10.111  -5.093  -0.569  0.00  0.00     0.038 A 
ATOM     29  C   UNL d   1       9.809  -6.332  -1.133  0.00  0.00     0.068 A 
ATOM     30  C   UNL d   1       8.485  -6.782  -1.127  0.00  0.00     0.038 A 
ATOM     31  C   UNL d   1       7.459  -5.988  -0.606  0.00  0.00     0.020 A 
BRANCH  29  32
ATOM     32  O   UNL d   1      10.701  -7.191  -1.712  0.00  0.00    -0.356 OA
ATOM     33  C   UNL d   1      12.040  -6.729  -1.848  0.00  0.00     0.210 C 
ENDBRANCH  29  32
ENDBRANCH  23  26
ENDBRANCH   4  22
TORSDOF 5
