REMARK  8 active torsions:
REMARK  status: ('A' for Active; 'I' for Inactive)
REMARK    1  A    between atoms: N_3  and  C_1 
REMARK    2  A    between atoms: C_9  and  C_2 
REMARK       I    between atoms: C_4  and  N_3 
REMARK    3  A    between atoms: C_6  and  C_4 
REMARK    4  A    between atoms: O_11  and  C_7 
REMARK    5  A    between atoms: O_16  and  C_9 
REMARK    6  A    between atoms: C_19  and  C_10 
REMARK    7  A    between atoms: C_17  and  O_11 
REMARK    8  A    between atoms: C_21  and  O_16 
ROOT
ATOM      1  N   UNL d   1      -0.328   2.268  -0.229  0.00  0.00    -0.316 N 
ATOM      2  C   UNL d   1       0.358   3.472  -0.368  0.00  0.00     0.260 C 
ATOM      3  O   UNL d   1       1.553   3.603  -0.624  0.00  0.00    -0.267 OA
ATOM      4  H   UNL d   1      -1.330   2.240  -0.371  0.00  0.00     0.169 HD
ENDROOT
BRANCH   2   5
ATOM      5  C   UNL d   1      -0.382   4.728  -0.144  0.00  0.00     0.083 A 
ATOM      6  C   UNL d   1      -1.617   5.036  -0.687  0.00  0.00     0.163 A 
ATOM      7  N   UNL d   1      -2.230   6.239  -0.502  0.00  0.00    -0.346 N 
ATOM      8  C   UNL d   1      -1.592   7.157   0.257  0.00  0.00     0.090 A 
ATOM      9  HN  UNL d   1      -3.137   6.440  -0.923  1.00  0.00     0.167 HD
ATOM     10  C   UNL d   1      -0.363   6.939   0.849  0.00  0.00     0.018 A 
ATOM     11  C   UNL d   1       0.250   5.708   0.638  0.00  0.00     0.023 A 
BRANCH   6  12
ATOM     12  O   UNL d   1      -2.214   4.111  -1.532  0.00  0.00    -0.293 OA
BRANCH  12  13
ATOM     13  C   UNL d   1      -3.584   4.164  -1.636  0.00  0.00     0.077 A 
ATOM     14  C   UNL d   1      -4.136   4.225  -2.915  0.00  0.00     0.037 A 
ATOM     15  C   UNL d   1      -5.523   4.199  -3.072  0.00  0.00     0.003 A 
ATOM     16  C   UNL d   1      -6.351   4.100  -1.952  0.00  0.00     0.000 A 
ATOM     17  C   UNL d   1      -5.795   4.030  -0.675  0.00  0.00     0.003 A 
ATOM     18  C   UNL d   1      -4.410   4.055  -0.514  0.00  0.00     0.037 A 
ENDBRANCH  12  13
ENDBRANCH   6  12
ENDBRANCH   2   5
BRANCH   1  19
ATOM     19  C   UNL d   1       0.316   1.054   0.029  0.00  0.00     0.093 A 
ATOM     20  C   UNL d   1      -0.131  -0.251  -0.119  0.00  0.00     0.074 A 
ATOM     21  C   UNL d   1       0.860  -1.191   0.347  0.00  0.00     0.035 A 
ATOM     22  C   UNL d   1       2.014  -0.598   0.789  0.00  0.00    -0.015 A 
ATOM     23  S   UNL d   1       1.883   1.090   0.734  0.00  0.00    -0.076 SA
BRANCH  20  24
ATOM     24  C   UNL d   1      -1.398  -0.703  -0.671  0.00  0.00     0.296 C 
ATOM     25  O   UNL d   1      -2.472  -0.144  -0.496  0.00  0.00    -0.259 OA
BRANCH  24  26
ATOM     26  O   UNL d   1      -1.223  -1.879  -1.343  0.00  0.00    -0.318 OA
BRANCH  26  27
ATOM     27  C   UNL d   1      -2.080  -2.966  -0.981  0.00  0.00     0.174 C 
ATOM     28  C   UNL d   1      -2.083  -3.970  -2.121  0.00  0.00     0.034 C 
ENDBRANCH  26  27
ENDBRANCH  24  26
ENDBRANCH  20  24
BRANCH  22  29
ATOM     29  C   UNL d   1       3.263  -1.272   1.259  0.00  0.00     0.042 C 
ATOM     30  C   UNL d   1       3.971  -1.958   0.098  0.00  0.00     0.010 C 
ENDBRANCH  22  29
ENDBRANCH   1  19
TORSDOF 8
