REMARK  10 active torsions:
REMARK  status: ('A' for Active; 'I' for Inactive)
REMARK    1  A    between atoms: C_2  and  S_1 
REMARK    2  A    between atoms: N_3  and  S_1 
REMARK    3  A    between atoms: N_7  and  N_3 
REMARK    4  A    between atoms: C_4  and  C_12 
REMARK       I    between atoms: C_5  and  N_7 
REMARK    5  A    between atoms: C_9  and  C_5 
REMARK       I    between atoms: C_6  and  N_8 
REMARK    6  A    between atoms: C_13  and  C_6 
REMARK    7  A    between atoms: N_8  and  C_9 
REMARK    8  A    between atoms: C_25  and  C_9 
REMARK    9  A    between atoms: C_28  and  C_25 
REMARK   10  A    between atoms: S_26  and  C_28 
ROOT
ATOM      1  C   UNL d   1      -0.334   2.449  -3.684  0.00  0.00     0.179 C 
ENDROOT
BRANCH   1   2
ATOM      2  N   UNL d   1       0.654   2.634  -4.753  0.00  0.00    -0.344 N 
ATOM      3  C   UNL d   1       1.101   3.891  -5.098  0.00  0.00     0.252 C 
ATOM      4  O   UNL d   1       0.681   4.915  -4.571  0.00  0.00    -0.268 OA
ATOM      5  H   UNL d   1       0.799   1.879  -5.407  0.00  0.00     0.163 HD
BRANCH   3   6
ATOM      6  C   UNL d   1       2.140   3.957  -6.169  0.00  0.00     0.032 A 
ATOM      7  C   UNL d   1       2.340   5.172  -6.835  0.00  0.00     0.018 A 
ATOM      8  C   UNL d   1       3.357   5.299  -7.788  0.00  0.00     0.017 A 
ATOM      9  C   UNL d   1       4.196   4.214  -8.083  0.00  0.00     0.048 A 
ATOM     10  C   UNL d   1       3.979   2.992  -7.428  0.00  0.00     0.017 A 
ATOM     11  C   UNL d   1       2.965   2.865  -6.473  0.00  0.00     0.018 A 
BRANCH   9  12
ATOM     12  C   UNL d   1       5.348   4.353  -9.051  0.00  0.00     0.417 C 
ATOM     13  F   UNL d   1       5.450   5.591  -9.608  0.00  0.00    -0.166 F 
ATOM     14  F   UNL d   1       6.551   4.110  -8.459  0.00  0.00    -0.166 F 
ATOM     15  F   UNL d   1       5.263   3.479 -10.092  0.00  0.00    -0.166 F 
ENDBRANCH   9  12
ENDBRANCH   3   6
ENDBRANCH   1   2
BRANCH   1  16
ATOM     16  C   UNL d   1       0.297   2.822  -2.322  0.00  0.00     0.259 C 
ATOM     17  N   UNL d   1      -0.616   3.149  -1.333  0.00  0.00    -0.259 N 
ATOM     18  H   UNL d   1      -1.626   3.078  -1.447  0.00  0.00     0.190 HD
ATOM     19  O   UNL d   1       1.507   2.756  -2.086  0.00  0.00    -0.269 OA
BRANCH  17  20
ATOM     20  N   UNL d   1      -0.080   3.464  -0.025  0.00  0.00    -0.220 N 
ATOM     21  H   UNL d   1       0.944   3.417   0.063  0.00  0.00     0.200 HD
BRANCH  20  22
ATOM     22  S   UNL d   1      -1.017   3.240   1.359  0.00  0.00     0.277 S 
ATOM     23  O   UNL d   1      -2.088   4.218   1.304  0.00  0.00    -0.199 OA
ATOM     24  O   UNL d   1      -1.326   1.833   1.485  0.00  0.00    -0.199 OA
BRANCH  22  25
ATOM     25  C   UNL d   1       0.098   3.696   2.656  0.00  0.00     0.102 A 
ATOM     26  C   UNL d   1       1.318   3.042   2.835  0.00  0.00     0.057 A 
ATOM     27 CL   UNL d   1       1.853   1.717   1.866  0.00  0.00    -0.083 Cl
ATOM     28  C   UNL d   1       2.196   3.480   3.836  0.00  0.00     0.025 A 
ATOM     29  C   UNL d   1       1.853   4.557   4.656  0.00  0.00     0.002 A 
ATOM     30  C   UNL d   1       0.628   5.196   4.489  0.00  0.00     0.002 A 
ATOM     31  C   UNL d   1      -0.252   4.769   3.492  0.00  0.00     0.027 A 
ENDBRANCH  22  25
ENDBRANCH  20  22
ENDBRANCH  17  20
ENDBRANCH   1  16
BRANCH   1  32
ATOM     32  C   UNL d   1      -0.791   0.978  -3.680  0.00  0.00     0.045 C 
BRANCH  32  33
ATOM     33  C   UNL d   1      -1.895   0.590  -2.694  0.00  0.00     0.076 C 
BRANCH  33  34
ATOM     34  S   UNL d   1      -3.370   1.638  -2.886  0.00  0.00    -0.173 SA
ATOM     35  C   UNL d   1      -4.394   0.929  -1.575  0.00  0.00     0.089 C 
ENDBRANCH  33  34
ENDBRANCH  32  33
ENDBRANCH   1  32
TORSDOF 10
