REMARK  2 active torsions:
REMARK  status: ('A' for Active; 'I' for Inactive)
REMARK    1  A    between atoms: C_2  and  C_1 
REMARK    2  A    between atoms: C_14  and  C_10 
ROOT
ATOM      1  C   UNL d   1      -0.311  -1.049   0.008  0.00  0.00     0.192 A 
ATOM      2  O   UNL d   1      -1.140   0.038  -0.125  0.00  0.00    -0.271 OA
ATOM      3  N   UNL d   1       0.948  -0.688   0.193  0.00  0.00    -0.276 N 
ATOM      4  HN  UNL d   1       1.746  -1.310   0.320  1.00  0.00     0.189 HD
ATOM      5  N   UNL d   1       0.975   0.691   0.182  0.00  0.00    -0.277 N 
ATOM      6  HN  UNL d   1       1.796   1.287   0.293  1.00  0.00     0.189 HD
ATOM      7  C   UNL d   1      -0.268   1.087   0.001  0.00  0.00     0.174 A 
ENDROOT
BRANCH   1   8
ATOM      8  C   UNL d   1      -0.775  -2.470  -0.052  0.00  0.00     0.092 A 
ATOM      9  N   UNL d   1      -2.097  -2.812  -0.296  0.00  0.00    -0.350 N 
ATOM     10  C   UNL d   1      -2.220  -4.122  -0.320  0.00  0.00     0.047 A 
ATOM     11  HN  UNL d   1      -2.860  -2.148  -0.434  1.00  0.00     0.166 HD
ATOM     12  C   UNL d   1      -3.490  -4.850  -0.591  0.00  0.00     0.076 C 
ATOM     13  S   UNL d   1      -0.776  -5.009  -0.018  0.00  0.00    -0.087 SA
ATOM     14  C   UNL d   1       0.085  -3.535   0.124  0.00  0.00     0.085 A 
ENDBRANCH   1   8
BRANCH   7  15
ATOM     15  C   UNL d   1      -0.822   2.433  -0.075  0.00  0.00     0.017 A 
ATOM     16  C   UNL d   1      -2.200   2.657  -0.213  0.00  0.00     0.016 A 
ATOM     17  C   UNL d   1      -2.710   3.957  -0.276  0.00  0.00     0.007 A 
ATOM     18  C   UNL d   1      -1.854   5.061  -0.204  0.00  0.00    -0.062 A 
ATOM     19  C   UNL d   1      -0.480   4.846  -0.066  0.00  0.00     0.007 A 
ATOM     20  C   UNL d   1      -2.419   6.449  -0.271  0.00  0.00     0.048 C 
ATOM     21  C   UNL d   1       0.030   3.544  -0.002  0.00  0.00     0.016 A 
ENDBRANCH   7  15
TORSDOF 2
