REMARK  2 active torsions:
REMARK  status: ('A' for Active; 'I' for Inactive)
REMARK    1  A    between atoms: C_2  and  C_1 
REMARK       I    between atoms: N_3  and  C_1 
REMARK    2  A    between atoms: C_6  and  N_3 
ROOT
ATOM      1  C   UNL d   1       1.082  -0.091  -0.036  0.00  0.00     0.259 C 
ATOM      2  N   UNL d   1       0.260  -0.890  -0.811  0.00  0.00    -0.323 N 
ATOM      3  O   UNL d   1       2.308  -0.048  -0.107  0.00  0.00    -0.267 OA
ATOM      4  H   UNL d   1      -0.740  -0.784  -0.681  0.00  0.00     0.169 HD
ENDROOT
BRANCH   1   5
ATOM      5  C   UNL d   1       0.415   0.791   0.970  0.00  0.00     0.070 A 
ATOM      6  C   UNL d   1      -0.965   0.804   1.183  0.00  0.00     0.132 A 
ATOM      7  F   UNL d   1      -1.785   0.034   0.452  0.00  0.00    -0.205 F 
ATOM      8  C   UNL d   1      -1.535   1.615   2.164  0.00  0.00     0.043 A 
ATOM      9  C   UNL d   1      -0.723   2.433   2.949  0.00  0.00     0.003 A 
ATOM     10  C   UNL d   1       0.655   2.444   2.742  0.00  0.00     0.001 A 
ATOM     11  C   UNL d   1       1.221   1.629   1.758  0.00  0.00     0.020 A 
ENDBRANCH   1   5
BRANCH   2  12
ATOM     12  C   UNL d   1       0.654  -1.831  -1.789  0.00  0.00     0.036 A 
ATOM     13  C   UNL d   1       1.983  -2.137  -2.088  0.00  0.00     0.053 A 
ATOM     14  C   UNL d   1       2.281  -3.059  -3.092  0.00  0.00     0.036 A 
ATOM     15 CL   UNL d   1       3.925  -3.418  -3.463  0.00  0.00    -0.084 Cl
ATOM     16  C   UNL d   1       1.265  -3.693  -3.802  0.00  0.00     0.024 A 
ATOM     17  C   UNL d   1      -0.064  -3.410  -3.496  0.00  0.00     0.004 A 
ATOM     18  C   UNL d   1      -0.367  -2.485  -2.493  0.00  0.00     0.029 A 
ENDBRANCH   2  12
TORSDOF 2
