REMARK  7 active torsions:
REMARK  status: ('A' for Active; 'I' for Inactive)
REMARK    1  A    between atoms: C_3  and  S_1 
REMARK    2  A    between atoms: N_10  and  S_1 
REMARK    3  A    between atoms: N_4  and  C_16 
REMARK    4  A    between atoms: O_18  and  C_7 
REMARK    5  A    between atoms: C_15  and  N_10 
REMARK    6  A    between atoms: O_20  and  C_12 
REMARK    7  A    between atoms: C_16  and  C_15 
ROOT
ATOM      1  S   UNL d   1       0.957  -0.093  -0.009  0.00  0.00     0.241 S 
ATOM      2  O   UNL d   1       0.457   1.232  -0.305  0.00  0.00    -0.206 OA
ATOM      3  O   UNL d   1       0.669  -1.224  -0.861  0.00  0.00    -0.206 OA
ENDROOT
BRANCH   1   4
ATOM      4  C   UNL d   1       0.460  -0.534   1.634  0.00  0.00     0.077 A 
ATOM      5  C   UNL d   1      -0.334   0.349   2.374  0.00  0.00     0.064 A 
ATOM      6  C   UNL d   1      -0.803  -0.004   3.651  0.00  0.00     0.102 A 
ATOM      7  C   UNL d   1      -0.447  -1.261   4.178  0.00  0.00     0.101 A 
ATOM      8  C   UNL d   1       0.351  -2.133   3.419  0.00  0.00     0.041 A 
ATOM      9  C   UNL d   1       0.803  -1.781   2.147  0.00  0.00     0.028 A 
BRANCH   6  10
ATOM     10  O   UNL d   1      -1.596   0.819   4.400  0.00  0.00    -0.353 OA
ATOM     11  C   UNL d   1      -1.973   2.080   3.858  0.00  0.00     0.210 C 
ENDBRANCH   6  10
BRANCH   7  12
ATOM     12  O   UNL d   1      -0.780  -1.803   5.396  0.00  0.00    -0.353 OA
ATOM     13  C   UNL d   1      -1.628  -1.073   6.269  0.00  0.00     0.210 C 
ENDBRANCH   7  12
ENDBRANCH   1   4
BRANCH   1  14
ATOM     14  N   UNL d   1       2.637  -0.004   0.107  0.00  0.00    -0.214 NA
ATOM     15  H   UNL d   1       3.061  -0.450  -0.709  0.00  0.00     0.140 HD
BRANCH  14  16
ATOM     16  C   UNL d   1       3.216   1.285   0.534  0.00  0.00     0.124 C 
BRANCH  16  17
ATOM     17  C   UNL d   1       4.741   1.167   0.646  0.00  0.00     0.142 C 
BRANCH  17  18
ATOM     18  N   UNL d   1       5.391   2.401   1.046  0.00  0.00    -0.332 N 
ATOM     19  C   UNL d   1       5.687   3.441   0.170  0.00  0.00     0.318 C 
ATOM     20  N   UNL d   1       6.155   4.504   0.931  0.00  0.00    -0.341 N 
ATOM     21  O   UNL d   1       5.575   3.439  -1.042  0.00  0.00    -0.247 OA
ATOM     22  C   UNL d   1       6.366   4.090   2.292  0.00  0.00     0.144 C 
ATOM     23  H   UNL d   1       6.603   5.285   0.469  0.00  0.00     0.164 HD
ATOM     24  C   UNL d   1       5.477   2.857   2.416  0.00  0.00     0.147 C 
ENDBRANCH  17  18
ENDBRANCH  16  17
ENDBRANCH  14  16
ENDBRANCH   1  14
TORSDOF 7
