REMARK  2 active torsions:
REMARK  status: ('A' for Active; 'I' for Inactive)
REMARK    1  A    between atoms: C_6  and  C_1 
REMARK    2  A    between atoms: S_13  and  C_2 
ROOT
ATOM      1  C   UNL d   1      -0.168  -1.170   0.027  0.00  0.00     0.024 A 
ATOM      2  C   UNL d   1       1.140  -0.704  -0.003  0.00  0.00     0.055 A 
ATOM      3  S   UNL d   1       1.213   1.001   0.056  0.00  0.00    -0.071 SA
ATOM      4  C   UNL d   1      -1.129  -0.079   0.089  0.00  0.00    -0.020 A 
ATOM      5  C   UNL d   1      -0.482   1.148   0.084  0.00  0.00     0.093 A 
ATOM      6  C   UNL d   1      -1.123   2.432   0.099  0.00  0.00     0.107 C 
ATOM      7  N   UNL d   1      -1.666   3.455   0.104  0.00  0.00    -0.191 NA
ATOM      8  C   UNL d   1      -2.627  -0.196   0.147  0.00  0.00     0.051 C 
ENDROOT
BRANCH   1   9
ATOM      9  C   UNL d   1      -0.548  -2.599  -0.011  0.00  0.00     0.062 A 
ATOM     10  N   UNL d   1       0.094  -3.541   0.692  0.00  0.00    -0.300 N 
ATOM     11  N   UNL d   1      -0.492  -4.687   0.319  0.00  0.00    -0.311 N 
ATOM     12  HN  UNL d   1       0.855  -3.415   1.360  1.00  0.00     0.187 HD
ATOM     13  C   UNL d   1      -1.543  -4.505  -0.534  0.00  0.00     0.109 A 
ATOM     14  H   UNL d   1      -0.126  -5.559   0.686  0.00  0.00     0.186 HD
ATOM     15  C   UNL d   1      -1.591  -3.155  -0.787  0.00  0.00     0.050 A 
ENDBRANCH   1   9
BRANCH   2  16
ATOM     16  S   UNL d   1       2.640  -1.623  -0.175  0.00  0.00    -0.126 SA
ATOM     17  C   UNL d   1       3.121  -1.775   1.562  0.00  0.00     0.096 C 
ENDBRANCH   2  16
TORSDOF 2
