REMARK  6 active torsions:
REMARK  status: ('A' for Active; 'I' for Inactive)
REMARK    1  A    between atoms: N_2  and  C_1 
REMARK    2  A    between atoms: C_3  and  C_1 
REMARK    3  A    between atoms: C_4  and  C_1 
REMARK    4  A    between atoms: N_5  and  C_1 
REMARK       I    between atoms: C_6  and  N_2 
REMARK    5  A    between atoms: C_7  and  N_5 
REMARK    6  A    between atoms: C_11  and  C_6 
ROOT
ATOM      1  C   UNL d   1       0.914   0.158   0.080  0.00  0.00     0.306 C 
ENDROOT
BRANCH   1   2
ATOM      2  N   UNL d   1       0.340   0.677  -1.190  0.00  0.00    -0.315 N 
ATOM      3  C   UNL d   1       0.166  -0.063  -2.323  0.00  0.00     0.254 C 
ATOM      4  O   UNL d   1       0.444  -1.257  -2.397  0.00  0.00    -0.268 OA
ATOM      5  H   UNL d   1       0.118   1.661  -1.192  0.00  0.00     0.165 HD
BRANCH   3   6
ATOM      6  C   UNL d   1      -0.453   0.644  -3.469  0.00  0.00     0.032 A 
ATOM      7  C   UNL d   1      -0.088   1.957  -3.803  0.00  0.00     0.017 A 
ATOM      8  C   UNL d   1      -0.692   2.585  -4.894  0.00  0.00     0.001 A 
ATOM      9  C   UNL d   1      -1.650   1.912  -5.651  0.00  0.00     0.000 A 
ATOM     10  C   UNL d   1      -2.014   0.605  -5.319  0.00  0.00     0.001 A 
ATOM     11  C   UNL d   1      -1.411  -0.029  -4.237  0.00  0.00     0.017 A 
ENDBRANCH   3   6
ENDBRANCH   1   2
BRANCH   1  12
ATOM     12  C   UNL d   1       0.420  -1.282   0.484  0.00  0.00     0.441 C 
ATOM     13  F   UNL d   1      -0.867  -1.506   0.127  0.00  0.00    -0.166 F 
ATOM     14  F   UNL d   1       1.183  -2.246  -0.106  0.00  0.00    -0.166 F 
ATOM     15  F   UNL d   1       0.518  -1.532   1.814  0.00  0.00    -0.166 F 
ENDBRANCH   1  12
BRANCH   1  16
ATOM     16  C   UNL d   1       0.463   1.050   1.288  0.00  0.00     0.441 C 
ATOM     17  F   UNL d   1      -0.082   2.220   0.844  0.00  0.00    -0.166 F 
ATOM     18  F   UNL d   1      -0.489   0.506   2.077  0.00  0.00    -0.166 F 
ATOM     19  F   UNL d   1       1.498   1.399   2.096  0.00  0.00    -0.166 F 
ENDBRANCH   1  16
BRANCH   1  20
ATOM     20  N   UNL d   1       2.398   0.112  -0.160  0.00  0.00    -0.346 N 
ATOM     21  H   UNL d   1       2.654  -0.778  -0.599  0.00  0.00     0.163 HD
BRANCH  20  22
ATOM     22  C   UNL d   1       3.272   1.140  -0.469  0.00  0.00     0.069 A 
ATOM     23  C   UNL d   1       2.949   2.502  -0.572  0.00  0.00     0.145 A 
ATOM     24  C   UNL d   1       3.915   3.484  -0.782  0.00  0.00     0.086 A 
ATOM     25  F   UNL d   1       1.674   2.907  -0.518  0.00  0.00    -0.204 F 
ATOM     26  C   UNL d   1       5.243   3.113  -0.886  0.00  0.00     0.119 A 
ATOM     27  C   UNL d   1       5.615   1.781  -0.789  0.00  0.00     0.044 A 
ATOM     28  F   UNL d   1       6.180   4.049  -1.082  0.00  0.00    -0.206 F 
ATOM     29  C   UNL d   1       4.635   0.806  -0.574  0.00  0.00     0.035 A 
ENDBRANCH  20  22
ENDBRANCH   1  20
TORSDOF 6
