REMARK  2 active torsions:
REMARK  status: ('A' for Active; 'I' for Inactive)
REMARK    1  A    between atoms: C_5  and  S_1 
REMARK    2  A    between atoms: C_2  and  C_5 
ROOT
ATOM      1  C   UNL d   1       0.905   1.489  -2.367  0.00  0.00    -0.007 A 
ATOM      2  C   UNL d   1       1.877   1.566  -3.379  0.00  0.00     0.087 A 
ATOM      3  C   UNL d   1       2.236   2.796  -3.947  0.00  0.00     0.003 A 
ATOM      4  C   UNL d   1       0.277   2.673  -1.951  0.00  0.00     0.053 A 
ATOM      5  O   UNL d   1       2.478   0.397  -3.768  0.00  0.00    -0.325 OA
ATOM      6  C   UNL d   1       1.596   3.964  -3.519  0.00  0.00     0.054 A 
ATOM      7  C   UNL d   1       0.626   3.890  -2.527  0.00  0.00     0.117 A 
ATOM      8  O   UNL d   1       4.052   1.656  -5.032  0.00  0.00    -0.362 OA
ATOM      9  C   UNL d   1       3.195   0.522  -4.997  0.00  0.00     0.345 C 
ATOM     10  C   UNL d   1       3.269   2.844  -5.031  0.00  0.00     0.212 C 
ATOM     11  F   UNL d   1       0.019   5.012  -2.120  0.00  0.00    -0.206 F 
ENDROOT
BRANCH   1  12
ATOM     12  C   UNL d   1       0.513   0.169  -1.755  0.00  0.00     0.181 C 
BRANCH  12  13
ATOM     13  S   UNL d   1      -0.870  -0.520  -2.664  0.00  0.00     0.144 S 
ATOM     14  O   UNL d   1      -0.482  -0.769  -4.040  0.00  0.00    -0.228 OA
ATOM     15  O   UNL d   1      -2.059   0.255  -2.354  0.00  0.00    -0.228 OA
ATOM     16  C   UNL d   1      -1.082  -2.109  -1.897  0.00  0.00     0.161 C 
ENDBRANCH  12  13
ENDBRANCH   1  12
TORSDOF 2
