REMARK  8 active torsions:
REMARK  status: ('A' for Active; 'I' for Inactive)
REMARK    1  A    between atoms: C_7  and  C_1 
REMARK    2  A    between atoms: N_2  and  C_6 
REMARK    3  A    between atoms: O_9  and  C_4 
REMARK    4  A    between atoms: C_5  and  S_10 
REMARK    5  A    between atoms: O_20  and  C_7 
REMARK    6  A    between atoms: C_18  and  O_9 
REMARK    7  A    between atoms: S_10  and  C_19 
REMARK    8  A    between atoms: C_25  and  O_20 
ROOT
ATOM      1  C   UNL d   1       1.414  -0.265   0.307  0.00  0.00     0.075 A 
ATOM      2  C   UNL d   1       0.545  -1.370   0.235  0.00  0.00     0.056 A 
ATOM      3  C   UNL d   1       0.925   1.028   0.058  0.00  0.00     0.092 A 
ATOM      4  C   UNL d   1      -0.814  -1.173  -0.048  0.00  0.00     0.104 A 
ATOM      5  C   UNL d   1      -0.426   1.192  -0.305  0.00  0.00     0.041 A 
ATOM      6  C   UNL d   1      -1.302   0.106  -0.323  0.00  0.00     0.039 A 
ENDROOT
BRANCH   3   7
ATOM      7  O   UNL d   1       1.800   2.099   0.121  0.00  0.00    -0.310 OA
BRANCH   7   8
ATOM      8  C   UNL d   1       1.292   3.347   0.412  0.00  0.00     0.076 A 
ATOM      9  C   UNL d   1       0.393   3.576   1.457  0.00  0.00     0.038 A 
ATOM     10  C   UNL d   1      -0.174   4.842   1.624  0.00  0.00     0.021 A 
ATOM     11  C   UNL d   1       0.186   5.894   0.775  0.00  0.00     0.009 A 
ATOM     12  C   UNL d   1       1.169   5.682  -0.198  0.00  0.00     0.021 A 
ATOM     13  C   UNL d   1       1.720   4.410  -0.382  0.00  0.00     0.038 A 
BRANCH  11  14
ATOM     14  S   UNL d   1      -0.546   7.506   0.953  0.00  0.00    -0.016 SA
BRANCH  14  15
ATOM     15  C   UNL d   1      -2.237   7.179   0.422  0.00  0.00     0.448 C 
ATOM     16  F   UNL d   1      -2.483   5.875   0.149  0.00  0.00    -0.160 F 
ATOM     17  F   UNL d   1      -3.120   7.557   1.378  0.00  0.00    -0.160 F 
ATOM     18  F   UNL d   1      -2.536   7.882  -0.697  0.00  0.00    -0.160 F 
ENDBRANCH  14  15
ENDBRANCH  11  14
ENDBRANCH   7   8
ENDBRANCH   3   7
BRANCH   1  19
ATOM     19  C   UNL d   1       2.817  -0.564   0.699  0.00  0.00     0.296 C 
ATOM     20  O   UNL d   1       3.390  -1.593   0.389  0.00  0.00    -0.259 OA
BRANCH  19  21
ATOM     21  O   UNL d   1       3.244   0.364   1.591  0.00  0.00    -0.318 OA
BRANCH  21  22
ATOM     22  C   UNL d   1       4.379   0.002   2.392  0.00  0.00     0.174 C 
ATOM     23  C   UNL d   1       5.665   0.594   1.851  0.00  0.00     0.034 C 
ENDBRANCH  21  22
ENDBRANCH  19  21
ENDBRANCH   1  19
BRANCH   4  24
ATOM     24  N   UNL d   1      -1.742  -2.313  -0.042  0.00  0.00    -0.116 N 
ATOM     25  O   UNL d   1      -1.258  -3.445   0.100  0.00  0.00    -0.532 OA
ATOM     26  O   UNL d   1      -2.950  -2.070  -0.169  0.00  0.00    -0.532 OA
ENDBRANCH   4  24
TORSDOF 8
