REMARK  4 active torsions:
REMARK  status: ('A' for Active; 'I' for Inactive)
REMARK       I    between atoms: C_2  and  N_1 
REMARK    1  A    between atoms: C_3  and  N_1 
REMARK    2  A    between atoms: C_7  and  C_2 
REMARK    3  A    between atoms: C_16  and  N_10 
REMARK    4  A    between atoms: C_11  and  C_16 
ROOT
ATOM      1  C   UNL d   1       2.506   0.032   0.099  0.00  0.00     0.174 C 
ATOM      2  S   UNL d   1       3.071  -0.074   1.667  0.00  0.00    -0.041 SA
ATOM      3  N   UNL d   1       3.261   0.257  -1.013  0.00  0.00    -0.364 N 
ATOM      4  H   UNL d   1       2.746   0.600  -1.826  0.00  0.00     0.162 HD
ENDROOT
BRANCH   1   5
ATOM      5  N   UNL d   1       1.162  -0.186  -0.118  0.00  0.00    -0.300 N 
ATOM      6  C   UNL d   1       0.479  -0.296  -1.319  0.00  0.00     0.257 C 
ATOM      7  O   UNL d   1       0.907   0.105  -2.399  0.00  0.00    -0.267 OA
ATOM      8  H   UNL d   1       0.665  -0.391   0.735  0.00  0.00     0.171 HD
BRANCH   6   9
ATOM      9  C   UNL d   1      -0.895  -0.860  -1.215  0.00  0.00     0.032 A 
ATOM     10  C   UNL d   1      -1.871  -0.416  -2.113  0.00  0.00     0.017 A 
ATOM     11  C   UNL d   1      -3.182  -0.888  -2.018  0.00  0.00     0.007 A 
ATOM     12  C   UNL d   1      -3.532  -1.826  -1.038  0.00  0.00    -0.062 A 
ATOM     13  C   UNL d   1      -2.546  -2.296  -0.162  0.00  0.00     0.007 A 
ATOM     14  C   UNL d   1      -4.952  -2.298  -0.927  0.00  0.00     0.048 C 
ATOM     15  C   UNL d   1      -1.232  -1.824  -0.254  0.00  0.00     0.017 A 
ENDBRANCH   6   9
ENDBRANCH   1   5
BRANCH   3  16
ATOM     16  C   UNL d   1       4.718   0.333  -1.085  0.00  0.00     0.156 C 
BRANCH  16  17
ATOM     17  C   UNL d   1       5.205   0.192  -2.538  0.00  0.00     0.171 C 
ATOM     18  O   UNL d   1       4.801   1.335  -3.314  0.00  0.00    -0.339 OA
ATOM     19  C   UNL d   1       5.643   2.402  -3.145  0.00  0.00     0.102 A 
ATOM     20  C   UNL d   1       5.174   3.639  -3.579  0.00  0.00     0.039 A 
ATOM     21  C   UNL d   1       6.903   2.300  -2.544  0.00  0.00     0.102 A 
ATOM     22  C   UNL d   1       5.948   4.783  -3.377  0.00  0.00     0.003 A 
ATOM     23  C   UNL d   1       7.190   4.685  -2.745  0.00  0.00     0.003 A 
ATOM     24  C   UNL d   1       7.668   3.441  -2.331  0.00  0.00     0.039 A 
ATOM     25  O   UNL d   1       7.429   1.111  -2.103  0.00  0.00    -0.346 OA
ATOM     26  C   UNL d   1       6.715  -0.005  -2.642  0.00  0.00     0.209 C 
ENDBRANCH  16  17
ENDBRANCH   3  16
TORSDOF 4
