REMARK  3 active torsions:
REMARK  status: ('A' for Active; 'I' for Inactive)
REMARK    1  A    between atoms: C_2  and  C_1 
REMARK    2  A    between atoms: C_8  and  C_4 
REMARK    3  A    between atoms: S_20  and  C_11 
ROOT
ATOM      1  C   UNL d   1      -0.460  -2.742   0.107  0.00  0.00     0.074 C 
ATOM      2  C   UNL d   1      -0.535  -5.034   0.909  0.00  0.00     0.104 C 
ATOM      3  S   UNL d   1      -0.177  -3.513   1.612  0.00  0.00    -0.064 SA
ATOM      4  N   UNL d   1      -0.976  -4.987  -0.331  0.00  0.00    -0.351 N 
ATOM      5  HN  UNL d   1      -1.273  -5.795  -0.877  1.00  0.00     0.166 HD
ATOM      6  C   UNL d   1      -0.979  -3.670  -0.787  0.00  0.00     0.027 C 
ATOM      7  C   UNL d   1      -1.480  -3.406  -2.165  0.00  0.00     0.070 C 
ENDROOT
BRANCH   1   8
ATOM      8  C   UNL d   1      -0.242  -1.338  -0.092  0.00  0.00     0.143 A 
ATOM      9  N   UNL d   1       0.784  -0.561   0.403  0.00  0.00    -0.315 N 
ATOM     10  C   UNL d   1       0.511   0.713  -0.018  0.00  0.00     0.159 A 
ATOM     11  C   UNL d   1       1.944  -1.004   1.132  0.00  0.00     0.160 C 
ATOM     12  N   UNL d   1      -0.549   0.708  -0.789  0.00  0.00    -0.278 N 
ATOM     13  N   UNL d   1      -1.017  -0.583  -0.847  0.00  0.00    -0.282 N 
ATOM     14  HN  UNL d   1      -0.954   1.517  -1.261  1.00  0.00     0.189 HD
ATOM     15  HN  UNL d   1      -1.825  -0.902  -1.382  1.00  0.00     0.188 HD
BRANCH  10  16
ATOM     16  S   UNL d   1       1.425   2.120   0.396  0.00  0.00    -0.105 SA
ATOM     17  H   UNL d   1       2.083   1.664   1.469  0.00  0.00     0.110 HD
ENDBRANCH  10  16
ENDBRANCH   1   8
BRANCH   2  18
ATOM     18  C   UNL d   1      -0.325  -6.323   1.650  0.00  0.00     0.091 A 
ATOM     19  N   UNL d   1       0.130  -6.375   2.910  0.00  0.00    -0.258 N 
ATOM     20  O   UNL d   1       0.233  -7.718   3.218  0.00  0.00    -0.242 OA
ATOM     21  HN  UNL d   1       0.355  -5.586   3.516  1.00  0.00     0.195 HD
ATOM     22  C   UNL d   1      -0.151  -8.460   2.146  0.00  0.00     0.074 A 
ATOM     23  C   UNL d   1      -0.527  -7.621   1.126  0.00  0.00     0.068 A 
ATOM     24  C   UNL d   1      -0.073  -9.921   2.310  0.00  0.00     0.079 C 
ENDBRANCH   2  18
TORSDOF 3
