REMARK  8 active torsions:
REMARK  status: ('A' for Active; 'I' for Inactive)
REMARK    1  A    between atoms: O_9  and  C_1 
REMARK    2  A    between atoms: C_5  and  C_4 
REMARK    3  A    between atoms: C_18  and  O_9 
REMARK    4  A    between atoms: C_20  and  C_15 
REMARK    5  A    between atoms: S_17  and  C_20 
REMARK    6  A    between atoms: C_21  and  S_17 
REMARK    7  A    between atoms: O_19  and  C_22 
REMARK    8  A    between atoms: C_22  and  C_21 
ROOT
ATOM      1  C   UNL d   1      -1.011  -1.462  -0.064  0.00  0.00     0.084 A 
ATOM      2  N   UNL d   1      -1.180   1.317   0.029  0.00  0.00    -0.352 N 
ATOM      3  HN  UNL d   1      -1.241   2.333   0.089  1.00  0.00     0.166 HD
ATOM      4  C   UNL d   1      -2.308   0.564  -0.004  0.00  0.00     0.119 A 
ATOM      5  C   UNL d   1       0.179  -0.688  -0.099  0.00  0.00     0.025 A 
ATOM      6  C   UNL d   1       0.016   0.712  -0.019  0.00  0.00     0.045 A 
ATOM      7  C   UNL d   1      -2.252  -0.821  -0.048  0.00  0.00     0.072 A 
ATOM      8  C   UNL d   1       1.504  -1.181  -0.214  0.00  0.00     0.024 A 
ATOM      9  C   UNL d   1       1.136   1.529   0.009  0.00  0.00     0.031 A 
ATOM     10  C   UNL d   1       2.635  -0.352  -0.151  0.00  0.00    -0.048 A 
ATOM     11  C   UNL d   1       2.434   1.019  -0.033  0.00  0.00     0.010 A 
ENDROOT
BRANCH  10  12
ATOM     12  C   UNL d   1       4.027  -0.935  -0.123  0.00  0.00     0.112 C 
BRANCH  12  13
ATOM     13  S   UNL d   1       4.410  -2.055  -1.502  0.00  0.00    -0.162 SA
BRANCH  13  14
ATOM     14  C   UNL d   1       4.380  -0.855  -2.869  0.00  0.00     0.100 C 
BRANCH  14  15
ATOM     15  C   UNL d   1       4.719  -1.550  -4.182  0.00  0.00     0.174 C 
BRANCH  15  16
ATOM     16  O   UNL d   1       4.720  -0.589  -5.234  0.00  0.00    -0.400 OA
ATOM     17  H   UNL d   1       4.913  -1.073  -6.056  0.00  0.00     0.209 HD
ENDBRANCH  15  16
ENDBRANCH  14  15
ENDBRANCH  13  14
ENDBRANCH  12  13
ENDBRANCH  10  12
BRANCH   1  18
ATOM     18  O   UNL d   1      -1.134  -2.827  -0.081  0.00  0.00    -0.346 OA
BRANCH  18  19
ATOM     19  C   UNL d   1      -0.263  -3.666   0.688  0.00  0.00     0.120 C 
ATOM     20  C   UNL d   1      -0.127  -3.258   2.155  0.00  0.00     0.040 C 
ATOM     21  C   UNL d   1      -0.835  -5.083   0.605  0.00  0.00     0.040 C 
ENDBRANCH  18  19
ENDBRANCH   1  18
BRANCH   4  22
ATOM     22  C   UNL d   1      -3.667   1.252   0.020  0.00  0.00     0.432 C 
ATOM     23  F   UNL d   1      -3.608   2.614   0.057  0.00  0.00    -0.165 F 
ATOM     24  F   UNL d   1      -4.429   0.946  -1.071  0.00  0.00    -0.165 F 
ATOM     25  F   UNL d   1      -4.418   0.887   1.101  0.00  0.00    -0.165 F 
ENDBRANCH   4  22
TORSDOF 8
