REMARK  1 active torsions:
REMARK  status: ('A' for Active; 'I' for Inactive)
REMARK    1  A    between atoms: C_7  and  C_6 
ROOT
ATOM      1  N   UNL d   1       0.634  -1.308  -0.562  0.00  0.00    -0.301 N 
ATOM      2  HN  UNL d   1       0.719  -2.195  -1.059  1.00  0.00     0.187 HD
ATOM      3  C   UNL d   1       1.092   0.587   0.604  0.00  0.00     0.076 A 
ATOM      4  C   UNL d   1      -0.264   0.547   0.397  0.00  0.00     0.117 A 
ATOM      5  N   UNL d   1      -0.492  -0.609  -0.308  0.00  0.00    -0.281 N 
ATOM      6  C   UNL d   1       1.616  -0.577  -0.016  0.00  0.00     0.037 A 
ATOM      7  N   UNL d   1      -1.219   1.414   0.786  0.00  0.00    -0.384 N 
ATOM      8  C   UNL d   1      -1.745  -1.152  -0.771  0.00  0.00     0.179 C 
ATOM      9  H   UNL d   1      -2.194   1.353   0.512  0.00  0.00     0.157 HD
ATOM     10  H   UNL d   1      -0.977   2.281   1.258  0.00  0.00     0.157 HD
ENDROOT
BRANCH   6  11
ATOM     11  C   UNL d   1       3.059  -1.054  -0.063  0.00  0.00    -0.007 C 
ATOM     12  C   UNL d   1       3.347  -1.941   1.164  0.00  0.00     0.021 C 
ATOM     13  C   UNL d   1       3.342  -1.871  -1.342  0.00  0.00     0.021 C 
ATOM     14  C   UNL d   1       4.043   0.136  -0.048  0.00  0.00     0.021 C 
ENDBRANCH   6  11
TORSDOF 1
