REMARK  5 active torsions:
REMARK  status: ('A' for Active; 'I' for Inactive)
REMARK    1  A    between atoms: C_1  and  C_3 
REMARK    2  A    between atoms: C_4  and  N_11 
REMARK    3  A    between atoms: N_10  and  C_18 
REMARK    4  A    between atoms: C_18  and  C_23 
REMARK    5  A    between atoms: C_20  and  N_31 
ROOT
ATOM      1  C   UNL d   1       1.525   1.484   0.719  0.00  0.00     0.052 C 
ATOM      2  C   UNL d   1       0.188   0.846   0.473  0.00  0.00    -0.004 A 
ATOM      3  C   UNL d   1       2.630   0.666   0.802  0.00  0.00     0.097 C 
ATOM      4  C   UNL d   1       0.116  -0.523   0.194  0.00  0.00     0.046 A 
ATOM      5  C   UNL d   1      -1.033   1.550   0.502  0.00  0.00     0.016 A 
ATOM      6  N   UNL d   1       2.540  -0.684   0.443  0.00  0.00    -0.299 N 
ATOM      7  C   UNL d   1       1.351  -1.312   0.093  0.00  0.00     0.260 C 
ATOM      8  C   UNL d   1      -1.107  -1.182  -0.034  0.00  0.00     0.054 A 
ATOM      9  C   UNL d   1      -2.261   0.917   0.243  0.00  0.00     0.037 A 
ATOM     10  O   UNL d   1       1.266  -2.469  -0.317  0.00  0.00    -0.267 OA
ATOM     11  C   UNL d   1      -2.293  -0.457  -0.010  0.00  0.00     0.103 A 
ENDROOT
BRANCH   1  12
ATOM     12  C   UNL d   1       1.819   2.928   0.613  0.00  0.00     0.102 C 
ATOM     13  N   UNL d   1       3.017   3.468   0.327  0.00  0.00    -0.344 N 
ATOM     14  C   UNL d   1       2.920   3.563  -1.048  0.00  0.00     0.055 C 
ATOM     15  HN  UNL d   1       3.781   3.733   0.949  1.00  0.00     0.167 HD
ATOM     16  C   UNL d   1       3.891   3.495  -2.049  0.00  0.00     0.031 C 
ATOM     17  C   UNL d   1       1.569   3.606  -1.406  0.00  0.00     0.043 C 
ATOM     18  C   UNL d   1       3.444   3.302  -3.364  0.00  0.00     0.002 C 
ATOM     19  C   UNL d   1       2.076   3.256  -3.676  0.00  0.00     0.002 C 
ATOM     20  C   UNL d   1       1.093   3.460  -2.702  0.00  0.00     0.026 C 
ATOM     21  N   UNL d   1       0.969   3.735  -0.156  0.00  0.00    -0.237 NA
ATOM     22  C   UNL d   1       0.563   5.051   0.332  0.00  0.00     0.125 C 
ENDBRANCH   1  12
BRANCH   3  23
ATOM     23  N   UNL d   1       3.890   1.160   1.162  0.00  0.00    -0.288 NA
ATOM     24  H   UNL d   1       4.536   1.048   0.387  0.00  0.00     0.125 HD
ATOM     25  H   UNL d   1       3.846   2.175   1.315  0.00  0.00     0.125 HD
ENDBRANCH   3  23
BRANCH   6  26
ATOM     26  C   UNL d   1       3.752  -1.492   0.257  0.00  0.00     0.172 C 
BRANCH  26  27
ATOM     27  C   UNL d   1       4.117  -2.332   1.454  0.00  0.00    -0.040 A 
ATOM     28  C   UNL d   1       3.613  -3.635   1.586  0.00  0.00     0.009 A 
ATOM     29  C   UNL d   1       3.960  -4.421   2.677  0.00  0.00     0.001 A 
ATOM     30  C   UNL d   1       4.814  -3.921   3.654  0.00  0.00     0.000 A 
ATOM     31  C   UNL d   1       5.318  -2.625   3.539  0.00  0.00     0.001 A 
ATOM     32  C   UNL d   1       4.969  -1.833   2.448  0.00  0.00     0.009 A 
ENDBRANCH  26  27
ENDBRANCH   6  26
BRANCH  11  33
ATOM     33  N   UNL d   1      -3.575  -1.134  -0.241  0.00  0.00    -0.116 N 
ATOM     34  O   UNL d   1      -3.565  -2.372  -0.334  0.00  0.00    -0.532 OA
ATOM     35  O   UNL d   1      -4.588  -0.431  -0.323  0.00  0.00    -0.532 OA
ENDBRANCH  11  33
TORSDOF 5
