REMARK  4 active torsions:
REMARK  status: ('A' for Active; 'I' for Inactive)
REMARK    1  A    between atoms: C_2  and  S_1 
REMARK    2  A    between atoms: C_11  and  S_1 
REMARK    3  A    between atoms: N_18  and  C_5 
REMARK    4  A    between atoms: C_9  and  C_6 
ROOT
ATOM      1  C   UNL d   1       0.613   1.432   0.898  0.00  0.00     0.113 A 
ATOM      2  N   UNL d   1      -0.381   2.582   2.714  0.00  0.00    -0.330 N 
ATOM      3  HN  UNL d   1      -0.869   2.573   3.609  1.00  0.00     0.168 HD
ATOM      4  C   UNL d   1      -0.069   1.437   2.089  0.00  0.00     0.102 A 
ATOM      5  C   UNL d   1      -0.032   3.749   2.127  0.00  0.00     0.135 A 
ATOM      6  N   UNL d   1       0.589   3.825   0.931  0.00  0.00    -0.349 N 
ATOM      7  HN  UNL d   1       0.824   4.721   0.504  1.00  0.00     0.167 HD
ATOM      8  C   UNL d   1       0.880   2.656   0.329  0.00  0.00     0.116 A 
ENDROOT
BRANCH   5   9
ATOM      9  C   UNL d   1      -0.256   5.010   2.865  0.00  0.00     0.092 A 
ATOM     10  N   UNL d   1      -0.917   4.961   4.061  0.00  0.00    -0.360 N 
ATOM     11  C   UNL d   1      -1.055   6.133   4.724  0.00  0.00     0.105 A 
ATOM     12  HN  UNL d   1      -1.287   4.087   4.433  1.00  0.00     0.165 HD
ATOM     13  C   UNL d   1      -0.560   7.328   4.236  0.00  0.00     0.104 A 
ATOM     14  N   UNL d   1       0.089   7.409   3.056  0.00  0.00    -0.372 N 
ATOM     15  C   UNL d   1       0.225   6.231   2.390  0.00  0.00     0.121 A 
ATOM     16  HN  UNL d   1       0.451   8.290   2.690  1.00  0.00     0.164 HD
ENDBRANCH   5   9
BRANCH   4  17
ATOM     17  N   UNL d   1      -0.376   0.288   2.808  0.00  0.00    -0.287 NA
ATOM     18  H   UNL d   1      -0.963   0.544   3.600  0.00  0.00     0.125 HD
ATOM     19  H   UNL d   1      -0.787  -0.450   2.233  0.00  0.00     0.125 HD
ENDBRANCH   4  17
BRANCH   1  20
ATOM     20  S   UNL d   1       1.089  -0.030   0.057  0.00  0.00     0.187 S 
ATOM     21  O   UNL d   1       1.219   0.333  -1.340  0.00  0.00    -0.222 OA
ATOM     22  O   UNL d   1       0.150  -1.075   0.434  0.00  0.00    -0.222 OA
BRANCH  20  23
ATOM     23  C   UNL d   1       2.752  -0.455   0.683  0.00  0.00     0.058 C 
ATOM     24  C   UNL d   1       2.730  -0.690   2.197  0.00  0.00     0.031 C 
ATOM     25  C   UNL d   1       3.204  -1.750  -0.016  0.00  0.00     0.031 C 
ATOM     26  C   UNL d   1       3.757   0.658   0.347  0.00  0.00     0.031 C 
ENDBRANCH  20  23
ENDBRANCH   1  20
TORSDOF 4
