REMARK  4 active torsions:
REMARK  status: ('A' for Active; 'I' for Inactive)
REMARK    1  A    between atoms: C_7  and  C_1 
REMARK    2  A    between atoms: C_15  and  C_6 
REMARK    3  A    between atoms: C_8  and  O_16 
REMARK    4  A    between atoms: O_16  and  C_15 
ROOT
ATOM      1  C   UNL d   1      -0.528  -0.827   0.468  0.00  0.00     0.074 A 
ATOM      2  N   UNL d   1       0.268   0.654  -1.164  0.00  0.00    -0.355 N 
ATOM      3  HN  UNL d   1       0.424   1.026  -2.100  1.00  0.00     0.166 HD
ATOM      4  C   UNL d   1      -0.444  -0.503  -0.880  0.00  0.00     0.026 A 
ATOM      5  S   UNL d   1       0.307   0.360   1.383  0.00  0.00    -0.069 SA
ATOM      6  C   UNL d   1       0.712   1.202  -0.054  0.00  0.00     0.076 A 
ATOM      7  C   UNL d   1      -1.024  -1.254  -2.028  0.00  0.00     0.070 C 
ENDROOT
BRANCH   6   8
ATOM      8  C   UNL d   1       1.443   2.506   0.010  0.00  0.00     0.240 C 
BRANCH   8   9
ATOM      9  O   UNL d   1       2.847   2.232   0.027  0.00  0.00    -0.345 OA
BRANCH   9  10
ATOM     10  C   UNL d   1       3.673   3.325   0.062  0.00  0.00     0.072 A 
ATOM     11  C   UNL d   1       3.256   4.657   0.084  0.00  0.00     0.060 A 
ATOM     12  C   UNL d   1       4.203   5.683   0.137  0.00  0.00     0.038 A 
ATOM     13 CL   UNL d   1       3.673   7.321   0.174  0.00  0.00    -0.084 Cl
ATOM     14  C   UNL d   1       5.565   5.398   0.161  0.00  0.00     0.048 A 
ATOM     15  C   UNL d   1       5.977   4.071   0.132  0.00  0.00     0.038 A 
ATOM     16  C   UNL d   1       5.040   3.035   0.082  0.00  0.00     0.060 A 
ATOM     17 CL   UNL d   1       7.657   3.702   0.164  0.00  0.00    -0.084 Cl
ENDBRANCH   9  10
ENDBRANCH   8   9
ENDBRANCH   6   8
BRANCH   1  18
ATOM     18  C   UNL d   1      -1.225  -1.951   1.073  0.00  0.00     0.164 C 
ATOM     19  O   UNL d   1      -2.048  -2.624   0.444  0.00  0.00    -0.292 OA
ATOM     20  C   UNL d   1      -0.951  -2.337   2.510  0.00  0.00     0.097 C 
ENDBRANCH   1  18
TORSDOF 4
