REMARK  8 active torsions:
REMARK  status: ('A' for Active; 'I' for Inactive)
REMARK    1  A    between atoms: C_8  and  C_1 
REMARK    2  A    between atoms: S_11  and  C_5 
REMARK    3  A    between atoms: C_18  and  C_7 
REMARK    4  A    between atoms: O_16  and  C_8 
REMARK    5  A    between atoms: C_15  and  S_11 
REMARK    6  A    between atoms: C_12  and  C_15 
REMARK    7  A    between atoms: O_17  and  C_12 
REMARK    8  A    between atoms: O_19  and  C_18 
ROOT
ATOM      1  C   UNL d   1      -1.548   1.353   0.060  0.00  0.00     0.065 A 
ATOM      2  C   UNL d   1       0.566   0.152  -0.013  0.00  0.00     0.079 A 
ATOM      3  N   UNL d   1      -1.510  -1.055  -0.159  0.00  0.00    -0.350 N 
ATOM      4  HN  UNL d   1      -2.009  -1.940  -0.257  1.00  0.00     0.166 HD
ATOM      5  C   UNL d   1      -0.153  -1.035  -0.102  0.00  0.00     0.091 A 
ATOM      6  C   UNL d   1      -0.145   1.353   0.068  0.00  0.00     0.045 A 
ATOM      7  C   UNL d   1      -2.201   0.127  -0.084  0.00  0.00     0.050 A 
ATOM      8  C   UNL d   1       1.997   0.187   0.030  0.00  0.00     0.102 C 
ATOM      9  N   UNL d   1       3.153   0.272   0.088  0.00  0.00    -0.191 NA
ENDROOT
BRANCH   5  10
ATOM     10  S   UNL d   1       0.627  -2.638   0.014  0.00  0.00    -0.101 SA
BRANCH  10  11
ATOM     11  C   UNL d   1      -0.086  -3.439  -1.455  0.00  0.00     0.191 C 
BRANCH  11  12
ATOM     12  C   UNL d   1       0.394  -2.805  -2.744  0.00  0.00     0.268 C 
ATOM     13  O   UNL d   1       1.062  -1.785  -2.852  0.00  0.00    -0.264 OA
BRANCH  12  14
ATOM     14  O   UNL d   1      -0.047  -3.555  -3.800  0.00  0.00    -0.326 OA
ATOM     15  C   UNL d   1       0.355  -3.054  -5.076  0.00  0.00     0.213 C 
ENDBRANCH  12  14
ENDBRANCH  11  12
ENDBRANCH  10  11
ENDBRANCH   5  10
BRANCH   1  16
ATOM     16  C   UNL d   1      -2.290   2.624   0.300  0.00  0.00     0.295 C 
ATOM     17  O   UNL d   1      -3.385   2.696   0.827  0.00  0.00    -0.259 OA
BRANCH  16  18
ATOM     18  O   UNL d   1      -1.516   3.673  -0.079  0.00  0.00    -0.322 OA
ATOM     19  C   UNL d   1      -2.045   4.965   0.229  0.00  0.00     0.213 C 
ENDBRANCH  16  18
ENDBRANCH   1  16
BRANCH   7  20
ATOM     20  C   UNL d   1      -3.706   0.001  -0.164  0.00  0.00     0.225 C 
BRANCH  20  21
ATOM     21  O   UNL d   1      -4.204   0.741  -1.280  0.00  0.00    -0.390 OA
ATOM     22  C   UNL d   1      -5.597   0.516  -1.469  0.00  0.00     0.201 C 
ENDBRANCH  20  21
ENDBRANCH   7  20
TORSDOF 8
