REMARK  7 active torsions:
REMARK  status: ('A' for Active; 'I' for Inactive)
REMARK    1  A    between atoms: N_2  and  C_1 
REMARK    2  A    between atoms: O_9  and  C_4 
REMARK    3  A    between atoms: C_6  and  C_5 
REMARK    4  A    between atoms: O_20  and  C_6 
REMARK    5  A    between atoms: C_7  and  C_13 
REMARK    6  A    between atoms: C_19  and  O_9 
REMARK    7  A    between atoms: C_25  and  O_20 
ROOT
ATOM      1  C   UNL d   1       1.344  -0.208   0.133  0.00  0.00     0.137 A 
ATOM      2  C   UNL d   1       0.502  -1.331   0.146  0.00  0.00     0.056 A 
ATOM      3  C   UNL d   1       0.838   1.089   0.025  0.00  0.00     0.109 A 
ATOM      4  C   UNL d   1      -0.884  -1.139   0.093  0.00  0.00     0.042 A 
ATOM      5  C   UNL d   1      -0.552   1.267   0.034  0.00  0.00     0.041 A 
ATOM      6  C   UNL d   1      -1.403   0.161   0.047  0.00  0.00     0.020 A 
ENDROOT
BRANCH   3   7
ATOM      7  O   UNL d   1       1.706   2.152  -0.046  0.00  0.00    -0.308 OA
BRANCH   7   8
ATOM      8  C   UNL d   1       1.405   3.203  -0.884  0.00  0.00     0.076 A 
ATOM      9  C   UNL d   1       1.822   4.463  -0.461  0.00  0.00     0.038 A 
ATOM     10  C   UNL d   1       1.561   5.590  -1.247  0.00  0.00     0.012 A 
ATOM     11  C   UNL d   1       0.883   5.473  -2.472  0.00  0.00    -0.035 A 
ATOM     12  C   UNL d   1       0.489   4.191  -2.894  0.00  0.00     0.012 A 
ATOM     13  C   UNL d   1       0.769   3.062  -2.119  0.00  0.00     0.038 A 
BRANCH  11  14
ATOM     14  C   UNL d   1       0.633   6.707  -3.316  0.00  0.00     0.141 C 
ATOM     15  S   UNL d   1      -1.140   6.996  -3.633  0.00  0.00    -0.148 SA
ATOM     16  C   UNL d   1      -0.963   7.473  -5.370  0.00  0.00     0.085 C 
ATOM     17  C   UNL d   1       0.098   6.580  -5.979  0.00  0.00     0.085 C 
ATOM     18  S   UNL d   1       1.547   6.645  -4.896  0.00  0.00    -0.148 SA
ENDBRANCH  11  14
ENDBRANCH   7   8
ENDBRANCH   3   7
BRANCH   1  19
ATOM     19  N   UNL d   1       2.773  -0.427   0.271  0.00  0.00    -0.113 N 
ATOM     20  O   UNL d   1       3.287  -1.257  -0.494  0.00  0.00    -0.532 OA
ATOM     21  O   UNL d   1       3.361   0.175   1.177  0.00  0.00    -0.532 OA
ENDBRANCH   1  19
BRANCH   4  22
ATOM     22  C   UNL d   1      -1.852  -2.264   0.170  0.00  0.00     0.293 C 
ATOM     23  O   UNL d   1      -3.060  -2.110   0.142  0.00  0.00    -0.259 OA
BRANCH  22  24
ATOM     24  O   UNL d   1      -1.191  -3.426   0.384  0.00  0.00    -0.318 OA
BRANCH  24  25
ATOM     25  C   UNL d   1      -1.998  -4.499   0.889  0.00  0.00     0.174 C 
ATOM     26  C   UNL d   1      -2.002  -4.405   2.404  0.00  0.00     0.034 C 
ENDBRANCH  24  25
ENDBRANCH  22  24
ENDBRANCH   4  22
TORSDOF 7
