REMARK  5 active torsions:
REMARK  status: ('A' for Active; 'I' for Inactive)
REMARK    1  A    between atoms: N_2  and  S_1 
REMARK    2  A    between atoms: C_6  and  S_1 
REMARK    3  A    between atoms: C_4  and  O_10 
REMARK    4  A    between atoms: O_10  and  C_18 
REMARK    5  A    between atoms: O_24  and  C_19 
ROOT
ATOM      1  C   UNL d   1      -0.575  -4.009  -6.779  0.00  0.00     0.100 A 
ATOM      2  C   UNL d   1       0.029  -3.051  -5.949  0.00  0.00     0.098 A 
ATOM      3  C   UNL d   1      -2.003  -4.028  -6.941  0.00  0.00     0.104 C 
ATOM      4  N   UNL d   1      -3.153  -4.037  -7.086  0.00  0.00    -0.191 NA
ATOM      5  C   UNL d   1       0.239  -4.925  -7.462  0.00  0.00     0.057 A 
ATOM      6 CL   UNL d   1      -0.413  -6.155  -8.488  0.00  0.00    -0.083 Cl
ATOM      7  C   UNL d   1       1.430  -2.959  -5.891  0.00  0.00     0.039 A 
ATOM      8  C   UNL d   1       2.227  -3.885  -6.555  0.00  0.00     0.005 A 
ATOM      9  C   UNL d   1       1.632  -4.875  -7.332  0.00  0.00     0.025 A 
ENDROOT
BRANCH   2  10
ATOM     10  O   UNL d   1      -0.789  -2.190  -5.237  0.00  0.00    -0.309 OA
BRANCH  10  11
ATOM     11  C   UNL d   1      -0.373  -1.740  -4.000  0.00  0.00     0.076 A 
ATOM     12  C   UNL d   1      -0.727  -0.431  -3.662  0.00  0.00     0.039 A 
ATOM     13  C   UNL d   1      -0.305   0.118  -2.447  0.00  0.00     0.028 A 
ATOM     14  C   UNL d   1       0.485  -0.648  -1.582  0.00  0.00     0.079 A 
ATOM     15  C   UNL d   1       0.783  -1.979  -1.884  0.00  0.00     0.028 A 
ATOM     16  C   UNL d   1       0.333  -2.530  -3.084  0.00  0.00     0.039 A 
BRANCH  14  17
ATOM     17  S   UNL d   1       1.052   0.041  -0.040  0.00  0.00     0.260 S 
ATOM     18  O   UNL d   1       0.170   1.139   0.295  0.00  0.00    -0.200 OA
ATOM     19  O   UNL d   1       1.259  -1.060   0.876  0.00  0.00    -0.200 OA
BRANCH  17  20
ATOM     20  N   UNL d   1       2.577   0.687  -0.445  0.00  0.00    -0.307 N 
ATOM     21  C   UNL d   1       3.667  -0.272  -0.735  0.00  0.00     0.138 C 
ATOM     22  C   UNL d   1       5.018   0.424  -0.567  0.00  0.00     0.052 C 
ATOM     23  C   UNL d   1       5.111   1.736  -1.346  0.00  0.00     0.121 C 
ATOM     24  C   UNL d   1       3.888   2.626  -1.131  0.00  0.00     0.052 C 
ATOM     25  C   UNL d   1       2.588   1.860  -1.347  0.00  0.00     0.138 C 
BRANCH  23  26
ATOM     26  O   UNL d   1       5.306   1.481  -2.737  0.00  0.00    -0.395 OA
ATOM     27  H   UNL d   1       4.555   0.975  -3.085  0.00  0.00     0.210 HD
ENDBRANCH  23  26
ENDBRANCH  17  20
ENDBRANCH  14  17
ENDBRANCH  10  11
ENDBRANCH   2  10
TORSDOF 5
