REMARK  2 active torsions:
REMARK  status: ('A' for Active; 'I' for Inactive)
REMARK    1  A    between atoms: C_4  and  C_1 
REMARK       I    between atoms: N_9  and  C_4 
REMARK    2  A    between atoms: N_10  and  N_9 
ROOT
ATOM      1  C   UNL d   1       1.197  -1.306  -0.064  0.00  0.00     0.109 A 
ATOM      2  N   UNL d   1      -0.193  -1.472  -0.052  0.00  0.00    -0.349 N 
ATOM      3  HN  UNL d   1      -0.676  -2.370  -0.077  1.00  0.00     0.166 HD
ATOM      4  C   UNL d   1       1.617   0.010  -0.009  0.00  0.00     0.086 A 
ATOM      5  C   UNL d   1      -0.783  -0.296  -0.005  0.00  0.00     0.047 A 
ATOM      6  S   UNL d   1       0.270   1.062   0.046  0.00  0.00    -0.087 SA
ATOM      7  C   UNL d   1      -2.257  -0.088  -0.004  0.00  0.00     0.076 C 
ENDROOT
BRANCH   1   8
ATOM      8  C   UNL d   1       2.108  -2.450  -0.139  0.00  0.00     0.282 C 
ATOM      9  O   UNL d   1       3.331  -2.343  -0.196  0.00  0.00    -0.265 OA
ATOM     10  N   UNL d   1       1.447  -3.672  -0.148  0.00  0.00    -0.288 N 
ATOM     11  H   UNL d   1       0.434  -3.665  -0.016  0.00  0.00     0.183 HD
BRANCH  10  12
ATOM     12  N   UNL d   1       2.170  -4.888  -0.165  0.00  0.00    -0.247 NA
ATOM     13  H   UNL d   1       3.157  -4.652  -0.000  0.00  0.00     0.143 HD
ATOM     14  H   UNL d   1       2.155  -5.245  -1.124  0.00  0.00     0.143 HD
ENDBRANCH  10  12
ENDBRANCH   1   8
TORSDOF 2
