REMARK  4 active torsions:
REMARK  status: ('A' for Active; 'I' for Inactive)
REMARK    1  A    between atoms: C_4  and  C_1 
REMARK    2  A    between atoms: O_12  and  C_2 
REMARK    3  A    between atoms: O_14  and  C_4 
REMARK    4  A    between atoms: C_17  and  O_14 
ROOT
ATOM      1  C   UNL d   1       2.431  -0.714  -0.092  0.00  0.00     0.088 A 
ATOM      2  C   UNL d   1       1.233  -1.435  -0.076  0.00  0.00     0.095 A 
ATOM      3  C   UNL d   1      -0.005  -0.761  -0.071  0.00  0.00     0.026 A 
ATOM      4  N   UNL d   1       1.168   1.350  -0.112  0.00  0.00    -0.364 N 
ATOM      5  HN  UNL d   1       1.158   2.370  -0.132  1.00  0.00     0.165 HD
ATOM      6  C   UNL d   1       2.339   0.666  -0.114  0.00  0.00     0.108 A 
ATOM      7  C   UNL d   1       0.023   0.651  -0.083  0.00  0.00     0.045 A 
ATOM      8  C   UNL d   1      -1.246  -1.433  -0.040  0.00  0.00     0.040 A 
ATOM      9  C   UNL d   1      -1.182   1.340  -0.061  0.00  0.00     0.032 A 
ATOM     10  C   UNL d   1      -2.437  -0.715  -0.021  0.00  0.00     0.035 A 
ATOM     11  C   UNL d   1      -2.411   0.674  -0.030  0.00  0.00     0.026 A 
ATOM     12 CL   UNL d   1      -3.943  -1.543   0.019  0.00  0.00    -0.084 Cl
ENDROOT
BRANCH   1  13
ATOM     13  C   UNL d   1       3.731  -1.407  -0.025  0.00  0.00     0.297 C 
ATOM     14  O   UNL d   1       3.812  -2.625   0.032  0.00  0.00    -0.259 OA
BRANCH  13  15
ATOM     15  O   UNL d   1       4.753  -0.524   0.047  0.00  0.00    -0.318 OA
BRANCH  15  16
ATOM     16  C   UNL d   1       6.026  -1.074   0.417  0.00  0.00     0.174 C 
ATOM     17  C   UNL d   1       6.141  -1.035   1.930  0.00  0.00     0.034 C 
ENDBRANCH  15  16
ENDBRANCH  13  15
ENDBRANCH   1  13
BRANCH   2  18
ATOM     18  O   UNL d   1       1.210  -2.811  -0.050  0.00  0.00    -0.359 OA
ATOM     19  H   UNL d   1       2.132  -3.155  -0.029  0.00  0.00     0.217 HD
ENDBRANCH   2  18
TORSDOF 4
