REMARK  0 active torsions:
REMARK  status: ('A' for Active; 'I' for Inactive)
ROOT
ATOM      1  C   UNL d   1      -0.975   2.206   0.000  0.00  0.00     0.164 A 
ATOM      2  C   UNL d   1       1.039   0.993  -0.001  0.00  0.00    -0.039 A 
ATOM      3  C   UNL d   1      -1.232   0.787   0.001  0.00  0.00     0.022 A 
ATOM      4  C   UNL d   1      -0.028   0.114   0.001  0.00  0.00    -0.005 A 
ATOM      5  C   UNL d   1       0.569   2.416  -0.002  0.00  0.00     0.123 A 
ATOM      6  O   UNL d   1      -1.765   3.147   0.001  0.00  0.00    -0.292 OA
ATOM      7  C   UNL d   1       0.097  -1.251   0.001  0.00  0.00    -0.025 A 
ATOM      8  C   UNL d   1       2.346   0.519  -0.000  0.00  0.00     0.008 A 
ATOM      9  C   UNL d   1      -2.431   0.080   0.001  0.00  0.00     0.016 A 
ATOM     10  C   UNL d   1       2.507  -0.879   0.000  0.00  0.00     0.001 A 
ATOM     11  C   UNL d   1      -2.340  -1.324   0.002  0.00  0.00     0.002 A 
ATOM     12  C   UNL d   1       1.407  -1.759   0.001  0.00  0.00     0.012 A 
ATOM     13  C   UNL d   1      -1.098  -1.989   0.002  0.00  0.00     0.012 A 
ENDROOT
TORSDOF 0
