REMARK  5 active torsions:
REMARK  status: ('A' for Active; 'I' for Inactive)
REMARK    1  A    between atoms: N_3  and  C_1 
REMARK       I    between atoms: C_2  and  N_4 
REMARK    2  A    between atoms: C_9  and  C_2 
REMARK    3  A    between atoms: C_24  and  C_15 
REMARK    4  A    between atoms: O_23  and  C_20 
REMARK    5  A    between atoms: C_26  and  C_24 
ROOT
ATOM      1  C   UNL d   1       1.282   6.652   0.675  0.00  0.00     0.253 C 
ATOM      2  N   UNL d   1       0.113   2.747  -0.081  0.00  0.00    -0.251 NA
ATOM      3  N   UNL d   1       0.678   5.541   0.091  0.00  0.00    -0.346 N 
ATOM      4  C   UNL d   1      -0.588   5.028   0.637  0.00  0.00     0.141 C 
ATOM      5  C   UNL d   1       1.151   4.745  -1.053  0.00  0.00     0.141 C 
ATOM      6  C   UNL d   1      -0.473   3.536   1.024  0.00  0.00     0.118 C 
ATOM      7  C   UNL d   1       1.373   3.286  -0.616  0.00  0.00     0.118 C 
ATOM      8  O   UNL d   1       0.722   7.317   1.553  0.00  0.00    -0.267 OA
ENDROOT
BRANCH   2   9
ATOM      9  C   UNL d   1       0.130   1.375   0.156  0.00  0.00     0.159 A 
ATOM     10  N   UNL d   1      -0.881   0.828   0.850  0.00  0.00    -0.342 N 
ATOM     11  C   UNL d   1      -0.847  -0.500   1.071  0.00  0.00     0.099 A 
ATOM     12  HN  UNL d   1      -1.651   1.399   1.198  1.00  0.00     0.167 HD
ATOM     13  C   UNL d   1       0.170  -1.322   0.644  0.00  0.00    -0.027 A 
ATOM     14  C   UNL d   1       1.142  -0.681  -0.087  0.00  0.00     0.099 A 
ATOM     15  N   UNL d   1       1.141   0.640  -0.340  0.00  0.00    -0.342 N 
ATOM     16  HN  UNL d   1       1.884   1.071  -0.891  1.00  0.00     0.167 HD
BRANCH  13  17
ATOM     17  C   UNL d   1       0.224  -2.780   0.972  0.00  0.00     0.041 C 
BRANCH  17  18
ATOM     18  C   UNL d   1       1.464  -3.178   1.784  0.00  0.00     0.000 C 
ATOM     19  C   UNL d   1       1.536  -2.494   3.144  0.00  0.00     0.005 C 
ENDBRANCH  17  18
ENDBRANCH  13  17
ENDBRANCH   2   9
BRANCH   1  20
ATOM     20  C   UNL d   1       2.640   7.088   0.255  0.00  0.00     0.032 A 
ATOM     21  C   UNL d   1       2.930   8.457   0.200  0.00  0.00     0.020 A 
ATOM     22  C   UNL d   1       4.189   8.904  -0.231  0.00  0.00     0.038 A 
ATOM     23  C   UNL d   1       5.157   7.979  -0.626  0.00  0.00     0.068 A 
ATOM     24  C   UNL d   1       4.892   6.617  -0.505  0.00  0.00     0.038 A 
ATOM     25  C   UNL d   1       3.660   6.176  -0.024  0.00  0.00     0.020 A 
BRANCH  23  26
ATOM     26  O   UNL d   1       6.410   8.274  -1.083  0.00  0.00    -0.356 OA
ATOM     27  C   UNL d   1       6.554   9.527  -1.737  0.00  0.00     0.210 C 
ENDBRANCH  23  26
ENDBRANCH   1  20
TORSDOF 5
