REMARK  4 active torsions:
REMARK  status: ('A' for Active; 'I' for Inactive)
REMARK    1  A    between atoms: C_4  and  C_3 
REMARK    2  A    between atoms: C_12  and  C_5 
REMARK    3  A    between atoms: C_18  and  C_6 
REMARK    4  A    between atoms: C_13  and  C_17 
ROOT
ATOM      1  N   UNL d   1       1.365  -0.599  -0.105  0.00  0.00    -0.347 N 
ATOM      2  HN  UNL d   1       2.231  -1.112  -0.271  1.00  0.00     0.167 HD
ATOM      3  C   UNL d   1       1.270   0.777   0.018  0.00  0.00     0.076 A 
ATOM      4  C   UNL d   1       0.174  -1.152   0.024  0.00  0.00     0.084 A 
ATOM      5  S   UNL d   1      -1.122  -0.024   0.215  0.00  0.00    -0.081 SA
ATOM      6  C   UNL d   1      -0.002   1.269   0.201  0.00  0.00     0.084 A 
ENDROOT
BRANCH   3   7
ATOM      7  C   UNL d   1       2.468   1.648  -0.072  0.00  0.00     0.128 A 
ATOM      8  C   UNL d   1       3.751   1.218  -0.301  0.00  0.00     0.074 A 
ATOM      9  C   UNL d   1       4.524   2.399  -0.436  0.00  0.00     0.069 A 
ATOM     10  N   UNL d   1       3.762   3.477  -0.179  0.00  0.00    -0.260 N 
ATOM     11  O   UNL d   1       2.479   3.004   0.031  0.00  0.00    -0.235 OA
ATOM     12  HN  UNL d   1       4.068   4.449  -0.146  1.00  0.00     0.195 HD
BRANCH   9  13
ATOM     13  C   UNL d   1       5.941   2.534  -0.784  0.00  0.00     0.014 A 
ATOM     14  C   UNL d   1       6.583   1.723  -1.740  0.00  0.00     0.048 A 
ATOM     15  C   UNL d   1       7.944   1.894  -2.024  0.00  0.00     0.048 A 
ATOM     16 CL   UNL d   1       5.765   0.518  -2.679  0.00  0.00    -0.083 Cl
ATOM     17  C   UNL d   1       8.671   2.887  -1.375  0.00  0.00     0.035 A 
ATOM     18  C   UNL d   1       8.054   3.714  -0.444  0.00  0.00     0.025 A 
ATOM     19 CL   UNL d   1      10.338   3.098  -1.740  0.00  0.00    -0.084 Cl
ATOM     20  C   UNL d   1       6.698   3.538  -0.149  0.00  0.00     0.017 A 
ENDBRANCH   9  13
ENDBRANCH   3   7
BRANCH   4  21
ATOM     21  C   UNL d   1      -0.075  -2.604  -0.007  0.00  0.00    -0.002 A 
ATOM     22  C   UNL d   1      -1.129  -3.199   0.702  0.00  0.00     0.015 A 
ATOM     23  C   UNL d   1      -1.319  -4.584   0.683  0.00  0.00     0.017 A 
ATOM     24  C   UNL d   1      -0.458  -5.416  -0.045  0.00  0.00     0.048 A 
ATOM     25  C   UNL d   1       0.599  -4.830  -0.753  0.00  0.00     0.017 A 
ATOM     26  C   UNL d   1       0.791  -3.442  -0.730  0.00  0.00     0.015 A 
BRANCH  24  27
ATOM     27  C   UNL d   1      -0.680  -6.909  -0.041  0.00  0.00     0.417 C 
ATOM     28  F   UNL d   1       0.214  -7.599  -0.802  0.00  0.00    -0.166 F 
ATOM     29  F   UNL d   1      -0.597  -7.442   1.210  0.00  0.00    -0.166 F 
ATOM     30  F   UNL d   1      -1.913  -7.252  -0.510  0.00  0.00    -0.166 F 
ENDBRANCH  24  27
ENDBRANCH   4  21
TORSDOF 4
