REMARK  3 active torsions:
REMARK  status: ('A' for Active; 'I' for Inactive)
REMARK    1  A    between atoms: N_7  and  C_1 
REMARK    2  A    between atoms: C_13  and  C_4 
REMARK       I    between atoms: C_10  and  N_9 
REMARK    3  A    between atoms: C_20  and  N_11 
ROOT
ATOM      1  C   UNL d   1      -1.309  -0.759  -0.014  0.00  0.00     0.240 A 
ATOM      2  N   UNL d   1      -0.675   1.273   1.017  0.00  0.00    -0.303 N 
ATOM      3  HN  UNL d   1      -0.645   2.250   1.308  1.00  0.00     0.186 HD
ATOM      4  C   UNL d   1      -1.570   0.705   0.261  0.00  0.00     0.041 A 
ATOM      5  C   UNL d   1      -0.064  -0.969   0.813  0.00  0.00     0.266 A 
ATOM      6  N   UNL d   1       0.219   0.286   1.343  0.00  0.00    -0.268 N 
ATOM      7  O   UNL d   1       0.567  -1.994   0.981  0.00  0.00    -0.269 OA
ATOM      8  H   UNL d   1       1.018   0.475   1.940  0.00  0.00     0.190 HD
ENDROOT
BRANCH   1   9
ATOM      9  N   UNL d   1      -0.955  -0.918  -1.424  0.00  0.00    -0.316 N 
ATOM     10  N   UNL d   1      -1.881  -1.406  -2.106  0.00  0.00    -0.304 N 
ATOM     11  HN  UNL d   1      -2.787  -1.690  -1.733  1.00  0.00     0.186 HD
ATOM     12  HN  UNL d   1      -0.047  -0.657  -1.810  1.00  0.00     0.181 HD
BRANCH  10  13
ATOM     13  C   UNL d   1      -1.504  -1.512  -3.460  0.00  0.00     0.047 A 
ATOM     14  C   UNL d   1      -0.310  -2.131  -3.863  0.00  0.00     0.032 A 
ATOM     15  C   UNL d   1       0.022  -2.231  -5.217  0.00  0.00     0.026 A 
ATOM     16  C   UNL d   1      -0.846  -1.721  -6.180  0.00  0.00     0.034 A 
ATOM     17  C   UNL d   1      -2.042  -1.117  -5.800  0.00  0.00     0.026 A 
ATOM     18 CL   UNL d   1      -0.440  -1.841  -7.847  0.00  0.00    -0.084 Cl
ATOM     19  C   UNL d   1      -2.370  -1.018  -4.444  0.00  0.00     0.032 A 
ENDBRANCH  10  13
ENDBRANCH   1   9
BRANCH   4  20
ATOM     20  C   UNL d   1      -2.789   1.405  -0.295  0.00  0.00     0.038 C 
ATOM     21  C   UNL d   1      -2.507   2.130  -1.609  0.00  0.00     0.030 C 
ATOM     22  C   UNL d   1      -1.861   3.494  -1.418  0.00  0.00     0.126 C 
ATOM     23  N   UNL d   1      -2.581   4.332  -0.468  0.00  0.00    -0.352 N 
ATOM     24  C   UNL d   1      -2.862   3.728   0.831  0.00  0.00     0.126 C 
ATOM     25  C   UNL d   1      -2.500   5.709  -0.674  0.00  0.00     0.215 C 
ATOM     26  C   UNL d   1      -3.460   2.323   0.731  0.00  0.00     0.030 C 
ATOM     27  O   UNL d   1      -2.200   6.197  -1.766  0.00  0.00    -0.274 OA
ATOM     28  C   UNL d   1      -2.801   6.628   0.484  0.00  0.00     0.117 C 
ENDBRANCH   4  20
TORSDOF 3
