REMARK  9 active torsions:
REMARK  status: ('A' for Active; 'I' for Inactive)
REMARK    1  A    between atoms: C_5  and  C_1 
REMARK    2  A    between atoms: C_6  and  C_1 
REMARK    3  A    between atoms: N_2  and  C_7 
REMARK    4  A    between atoms: N_10  and  N_3 
REMARK    5  A    between atoms: O_15  and  C_5 
REMARK    6  A    between atoms: O_16  and  C_6 
REMARK    7  A    between atoms: C_14  and  N_10 
REMARK    8  A    between atoms: C_21  and  O_15 
REMARK    9  A    between atoms: C_20  and  O_16 
ROOT
ATOM      1  C   UNL d   1       1.029   0.055  -0.207  0.00  0.00     0.199 C 
ATOM      2  N   UNL d   1       0.321  -0.908  -0.744  0.00  0.00    -0.290 N 
ATOM      3  HN  UNL d   1      -0.699  -0.868  -0.754  1.00  0.00     0.187 HD
ENDROOT
BRANCH   2   4
ATOM      4  N   UNL d   1       0.985  -1.960  -1.286  0.00  0.00    -0.300 N 
ATOM      5  H   UNL d   1       2.002  -1.942  -1.426  0.00  0.00     0.187 HD
BRANCH   4   6
ATOM      6  C   UNL d   1       0.373  -3.222  -1.358  0.00  0.00     0.050 A 
ATOM      7  C   UNL d   1      -0.959  -3.435  -0.983  0.00  0.00     0.067 A 
ATOM      8  C   UNL d   1      -1.532  -4.707  -1.116  0.00  0.00     0.105 A 
ATOM      9  C   UNL d   1      -0.791  -5.777  -1.635  0.00  0.00     0.036 A 
ATOM     10  C   UNL d   1       0.530  -5.568  -2.022  0.00  0.00     0.005 A 
ATOM     11  C   UNL d   1       1.102  -4.300  -1.887  0.00  0.00     0.031 A 
BRANCH   8  12
ATOM     12  N   UNL d   1      -2.926  -4.922  -0.713  0.00  0.00    -0.116 N 
ATOM     13  O   UNL d   1      -3.552  -3.961  -0.244  0.00  0.00    -0.532 OA
ATOM     14  O   UNL d   1      -3.399  -6.059  -0.860  0.00  0.00    -0.532 OA
ENDBRANCH   8  12
ENDBRANCH   4   6
ENDBRANCH   2   4
BRANCH   1  15
ATOM     15  C   UNL d   1       0.302   1.220   0.423  0.00  0.00     0.317 C 
ATOM     16  O   UNL d   1       0.775   2.338   0.461  0.00  0.00    -0.257 OA
BRANCH  15  17
ATOM     17  O   UNL d   1      -0.818   0.769   1.034  0.00  0.00    -0.317 OA
BRANCH  17  18
ATOM     18  C   UNL d   1      -1.355   1.603   2.067  0.00  0.00     0.175 C 
ATOM     19  C   UNL d   1      -0.790   1.103   3.384  0.00  0.00     0.034 C 
ENDBRANCH  17  18
ENDBRANCH  15  17
ENDBRANCH   1  15
BRANCH   1  20
ATOM     20  C   UNL d   1       2.543  -0.014  -0.100  0.00  0.00     0.317 C 
ATOM     21  O   UNL d   1       3.240  -0.562  -0.943  0.00  0.00    -0.257 OA
BRANCH  20  22
ATOM     22  O   UNL d   1       2.921   0.415   1.120  0.00  0.00    -0.317 OA
BRANCH  22  23
ATOM     23  C   UNL d   1       4.213  -0.032   1.557  0.00  0.00     0.175 C 
ATOM     24  C   UNL d   1       4.003  -1.303   2.358  0.00  0.00     0.034 C 
ENDBRANCH  22  23
ENDBRANCH  20  22
ENDBRANCH   1  20
TORSDOF 9
