REMARK  7 active torsions:
REMARK  status: ('A' for Active; 'I' for Inactive)
REMARK    1  A    between atoms: C_2  and  C_1 
REMARK       I    between atoms: N_5  and  C_1 
REMARK    2  A    between atoms: C_4  and  C_3 
REMARK    3  A    between atoms: O_13  and  C_4 
REMARK    4  A    between atoms: C_10  and  N_5 
REMARK    5  A    between atoms: N_8  and  C_7 
REMARK    6  A    between atoms: C_18  and  N_8 
REMARK    7  A    between atoms: C_19  and  N_8 
ROOT
ATOM      1  C   UNL d   1       1.140  -1.664   1.229  0.00  0.00     0.257 C 
ATOM      2  N   UNL d   1       0.225  -1.068   0.387  0.00  0.00    -0.323 N 
ATOM      3  O   UNL d   1       0.904  -2.591   2.000  0.00  0.00    -0.267 OA
ATOM      4  H   UNL d   1       0.542  -0.420  -0.325  0.00  0.00     0.169 HD
ENDROOT
BRANCH   2   5
ATOM      5  C   UNL d   1      -1.172  -1.275   0.402  0.00  0.00     0.035 A 
ATOM      6  C   UNL d   1      -1.854  -1.879   1.453  0.00  0.00     0.032 A 
ATOM      7  C   UNL d   1      -3.255  -1.946   1.447  0.00  0.00     0.031 A 
ATOM      8  C   UNL d   1      -4.024  -1.413   0.404  0.00  0.00     0.030 A 
ATOM      9  C   UNL d   1      -3.309  -0.864  -0.671  0.00  0.00     0.031 A 
ATOM     10  C   UNL d   1      -1.910  -0.785  -0.674  0.00  0.00     0.032 A 
BRANCH   8  11
ATOM     11  N   UNL d   1      -5.411  -1.391   0.458  0.00  0.00    -0.382 N 
BRANCH  11  12
ATOM     12  C   UNL d   1      -6.151  -2.476   1.111  0.00  0.00     0.118 C 
ATOM     13  C   UNL d   1      -6.623  -2.074   2.500  0.00  0.00     0.026 C 
ENDBRANCH  11  12
BRANCH  11  14
ATOM     14  C   UNL d   1      -6.191  -0.370  -0.253  0.00  0.00     0.118 C 
ATOM     15  C   UNL d   1      -5.905   1.030   0.279  0.00  0.00     0.026 C 
ENDBRANCH  11  14
ENDBRANCH   8  11
ENDBRANCH   2   5
BRANCH   1  16
ATOM     16  C   UNL d   1       2.545  -1.171   1.190  0.00  0.00     0.049 A 
ATOM     17  C   UNL d   1       3.242  -0.738   0.054  0.00  0.00     0.053 A 
ATOM     18  C   UNL d   1       4.564  -0.270   0.192  0.00  0.00     0.019 A 
ATOM     19  C   UNL d   1       5.200  -0.266   1.433  0.00  0.00     0.001 A 
ATOM     20  C   UNL d   1       4.522  -0.721   2.557  0.00  0.00     0.001 A 
ATOM     21  C   UNL d   1       3.207  -1.170   2.435  0.00  0.00     0.018 A 
BRANCH  17  22
ATOM     22  C   UNL d   1       2.698  -0.694  -1.319  0.00  0.00     0.177 C 
ATOM     23  O   UNL d   1       2.903   0.247  -2.064  0.00  0.00    -0.646 OA
BRANCH  22  24
ATOM     24  O   UNL d   1       1.966  -1.763  -1.683  0.00  0.00    -0.773 OA
ATOM     25  H   UNL d   1       1.897  -2.506  -1.052  0.00  0.00     0.167 HD
ENDBRANCH  22  24
ENDBRANCH  17  22
ENDBRANCH   1  16
TORSDOF 7
