REMARK  7 active torsions:
REMARK  status: ('A' for Active; 'I' for Inactive)
REMARK    1  A    between atoms: S_8  and  C_1 
REMARK    2  A    between atoms: N_11  and  C_1 
REMARK    3  A    between atoms: C_2  and  C_10 
REMARK    4  A    between atoms: C_3  and  C_9 
REMARK    5  A    between atoms: N_4  and  N_11 
REMARK    6  A    between atoms: O_19  and  C_7 
REMARK    7  A    between atoms: C_10  and  S_8 
ROOT
ATOM      1  N   UNL d   1       0.566   0.899   0.825  0.00  0.00    -0.281 N 
ATOM      2  C   UNL d   1      -0.896   1.008   0.845  0.00  0.00     0.179 C 
ENDROOT
BRANCH   1   3
ATOM      3  N   UNL d   1       1.168   1.558   1.892  0.00  0.00    -0.308 N 
ATOM      4  C   UNL d   1       2.379   1.979   1.691  0.00  0.00     0.121 C 
ATOM      5  HN  UNL d   1       0.687   1.701   2.780  1.00  0.00     0.186 HD
BRANCH   4   6
ATOM      6  C   UNL d   1       3.137   2.718   2.721  0.00  0.00     0.017 A 
ATOM      7  C   UNL d   1       4.505   2.950   2.547  0.00  0.00     0.099 A 
ATOM      8  C   UNL d   1       5.213   3.682   3.506  0.00  0.00     0.069 A 
ATOM      9 CL   UNL d   1       6.902   3.974   3.304  0.00  0.00    -0.081 Cl
ATOM     10  C   UNL d   1       4.566   4.192   4.629  0.00  0.00     0.050 A 
ATOM     11  C   UNL d   1       3.202   3.955   4.796  0.00  0.00     0.036 A 
ATOM     12  C   UNL d   1       2.484   3.216   3.856  0.00  0.00     0.039 A 
ATOM     13 CL   UNL d   1       2.395   4.598   6.174  0.00  0.00    -0.084 Cl
BRANCH   7  14
ATOM     14  O   UNL d   1       5.141   2.454   1.439  0.00  0.00    -0.358 OA
ATOM     15  H   UNL d   1       6.090   2.668   1.515  0.00  0.00     0.217 HD
ENDBRANCH   7  14
ENDBRANCH   4   6
ENDBRANCH   1   3
BRANCH   1  16
ATOM     16  C   UNL d   1       1.161  -0.225   0.188  0.00  0.00     0.155 C 
ATOM     17  S   UNL d   1       2.353  -1.194   0.888  0.00  0.00    -0.051 SA
BRANCH  16  18
ATOM     18  S   UNL d   1       0.499  -0.489  -1.446  0.00  0.00    -0.094 SA
BRANCH  18  19
ATOM     19  C   UNL d   1       1.550  -1.782  -2.161  0.00  0.00     0.125 C 
BRANCH  19  20
ATOM     20  C   UNL d   1       1.167  -2.100  -3.586  0.00  0.00     0.012 A 
ATOM     21  C   UNL d   1       1.770  -1.505  -4.704  0.00  0.00     0.044 A 
ATOM     22 CL   UNL d   1       3.011  -0.312  -4.549  0.00  0.00    -0.084 Cl
ATOM     23  C   UNL d   1       1.390  -1.869  -6.004  0.00  0.00     0.024 A 
ATOM     24  C   UNL d   1       0.391  -2.821  -6.207  0.00  0.00     0.005 A 
ATOM     25  C   UNL d   1      -0.231  -3.406  -5.110  0.00  0.00     0.043 A 
ATOM     26  C   UNL d   1       0.159  -3.044  -3.821  0.00  0.00     0.125 A 
ATOM     27  F   UNL d   1      -0.454  -3.634  -2.785  0.00  0.00    -0.205 F 
ENDBRANCH  19  20
ENDBRANCH  18  19
ENDBRANCH  16  18
ENDBRANCH   1  16
TORSDOF 7
