REMARK  6 active torsions:
REMARK  status: ('A' for Active; 'I' for Inactive)
REMARK    1  A    between atoms: O_6  and  C_1 
REMARK    2  A    between atoms: C_8  and  C_2 
REMARK    3  A    between atoms: C_7  and  O_6 
REMARK    4  A    between atoms: C_9  and  C_7 
REMARK    5  A    between atoms: O_20  and  C_8 
REMARK    6  A    between atoms: C_10  and  C_11 
ROOT
ATOM      1  O   UNL d   1       0.087  -4.096   1.410  0.00  0.00    -0.272 OA
ENDROOT
BRANCH   1   2
ATOM      2  C   UNL d   1      -1.202  -4.492   1.586  0.00  0.00     0.122 A 
ATOM      3  C   UNL d   1      -1.609  -5.819   1.583  0.00  0.00     0.116 A 
ATOM      4  S   UNL d   1      -3.296  -5.932   1.939  0.00  0.00    -0.072 SA
ATOM      5  C   UNL d   1      -3.428  -4.268   2.207  0.00  0.00     0.072 A 
ATOM      6  C   UNL d   1      -2.256  -3.604   1.961  0.00  0.00     0.070 A 
ATOM      7 BR   UNL d   1      -5.027  -3.497   2.815  0.00  0.00    -0.042 Br
ATOM      8 BR   UNL d   1      -1.969  -1.740   2.126  0.00  0.00    -0.046 Br
BRANCH   3   9
ATOM      9  C   UNL d   1      -0.826  -7.023   1.351  0.00  0.00     0.302 C 
ATOM     10  O   UNL d   1       0.351  -7.049   1.005  0.00  0.00    -0.259 OA
BRANCH   9  11
ATOM     11  O   UNL d   1      -1.562  -8.138   1.631  0.00  0.00    -0.322 OA
ATOM     12  C   UNL d   1      -0.889  -9.389   1.503  0.00  0.00     0.213 C 
ENDBRANCH   9  11
ENDBRANCH   3   9
ENDBRANCH   1   2
BRANCH   1  13
ATOM     13  C   UNL d   1       0.524  -3.938   0.130  0.00  0.00     0.298 C 
ATOM     14  O   UNL d   1      -0.081  -4.221  -0.894  0.00  0.00    -0.259 OA
BRANCH  13  15
ATOM     15  C   UNL d   1       1.897  -3.353   0.145  0.00  0.00     0.040 A 
ATOM     16  C   UNL d   1       2.317  -2.476   1.151  0.00  0.00     0.018 A 
ATOM     17  C   UNL d   1       3.613  -1.936   1.124  0.00  0.00     0.009 A 
ATOM     18  C   UNL d   1       4.528  -2.253   0.100  0.00  0.00    -0.051 A 
ATOM     19  C   UNL d   1       4.076  -3.122  -0.910  0.00  0.00     0.009 A 
ATOM     20  C   UNL d   1       2.778  -3.658  -0.893  0.00  0.00     0.018 A 
BRANCH  18  21
ATOM     21  C   UNL d   1       5.954  -1.663   0.119  0.00  0.00    -0.024 C 
ATOM     22  C   UNL d   1       6.830  -2.102  -1.077  0.00  0.00     0.019 C 
ATOM     23  C   UNL d   1       5.895  -0.120   0.093  0.00  0.00     0.019 C 
ATOM     24  C   UNL d   1       6.688  -2.110   1.403  0.00  0.00     0.019 C 
ENDBRANCH  18  21
ENDBRANCH  13  15
ENDBRANCH   1  13
TORSDOF 6
