REMARK  6 active torsions:
REMARK  status: ('A' for Active; 'I' for Inactive)
REMARK    1  A    between atoms: C_4  and  C_1 
REMARK    2  A    between atoms: N_9  and  C_2 
REMARK    3  A    between atoms: C_7  and  C_4 
REMARK    4  A    between atoms: C_10  and  C_7 
REMARK    5  A    between atoms: O_19  and  C_10 
REMARK    6  A    between atoms: N_16  and  C_11 
ROOT
ATOM      1  C   UNL d   1       4.017  -3.348   0.138  0.00  0.00     0.220 C 
ATOM      2  O   UNL d   1       5.146  -3.144  -0.306  0.00  0.00    -0.285 OA
ENDROOT
BRANCH   1   3
ATOM      3  C   UNL d   1       3.771  -4.615   0.852  0.00  0.00     0.136 C 
ATOM      4  C   UNL d   1       2.725  -5.131   1.627  0.00  0.00     0.158 C 
ATOM      5  C   UNL d   1       3.023  -6.491   1.881  0.00  0.00     0.057 C 
ATOM      6  C   UNL d   1       2.253  -7.535   2.607  0.00  0.00     0.072 C 
ATOM      7  N   UNL d   1       4.223  -6.804   1.395  0.00  0.00    -0.300 N 
ATOM      8  N   UNL d   1       4.712  -5.641   0.920  0.00  0.00    -0.290 N 
ATOM      9  HN  UNL d   1       4.672  -7.720   1.385  1.00  0.00     0.187 HD
ATOM     10  C   UNL d   1       6.131  -5.638   0.635  0.00  0.00     0.178 C 
BRANCH   4  11
ATOM     11  N   UNL d   1       1.579  -4.455   2.136  0.00  0.00    -0.111 N 
ATOM     12  O   UNL d   1       1.792  -3.374   2.696  0.00  0.00    -0.532 OA
ATOM     13  O   UNL d   1       0.485  -5.007   1.984  0.00  0.00    -0.532 OA
ENDBRANCH   4  11
ENDBRANCH   1   3
BRANCH   1  14
ATOM     14  C   UNL d   1       2.969  -2.272  -0.087  0.00  0.00     0.113 C 
ATOM     15  C   UNL d   1       3.226  -0.972  -0.432  0.00  0.00     0.021 C 
ATOM     16  C   UNL d   1       4.560  -0.489  -0.982  0.00  0.00     0.069 C 
BRANCH  14  17
ATOM     17  C   UNL d   1       1.532  -2.638  -0.212  0.00  0.00     0.299 C 
ATOM     18  O   UNL d   1       0.584  -2.006   0.216  0.00  0.00    -0.259 OA
BRANCH  17  19
ATOM     19  O   UNL d   1       1.463  -3.770  -0.970  0.00  0.00    -0.322 OA
ATOM     20  C   UNL d   1       0.144  -4.145  -1.363  0.00  0.00     0.213 C 
ENDBRANCH  17  19
ENDBRANCH  14  17
BRANCH  15  21
ATOM     21  N   UNL d   1       2.246   0.041  -0.402  0.00  0.00    -0.397 N 
ATOM     22  C   UNL d   1       2.495   1.473  -0.375  0.00  0.00     0.146 C 
ATOM     23  H   UNL d   1       1.413  -0.224   0.143  0.00  0.00     0.158 HD
ENDBRANCH  15  21
ENDBRANCH   1  14
TORSDOF 6
