REMARK  9 active torsions:
REMARK  status: ('A' for Active; 'I' for Inactive)
REMARK    1  A    between atoms: C_5  and  C_1 
REMARK    2  A    between atoms: N_10  and  C_2 
REMARK    3  A    between atoms: C_16  and  N_6 
REMARK    4  A    between atoms: C_21  and  N_10 
REMARK    5  A    between atoms: C_25  and  C_16 
REMARK    6  A    between atoms: C_17  and  O_24 
REMARK    7  A    between atoms: O_24  and  C_30 
REMARK    8  A    between atoms: C_30  and  C_25 
REMARK    9  A    between atoms: O_32  and  C_25 
ROOT
ATOM      1  N   UNL d   1      -0.962  -6.872   1.320  0.00  0.00     0.091 N 
ATOM      2  C   UNL d   1      -3.233  -5.805   1.703  0.00  0.00     0.050 C 
ATOM      3  C   UNL d   1      -1.897  -5.189  -0.272  0.00  0.00     0.050 C 
ATOM      4  C   UNL d   1      -2.896  -4.645   0.746  0.00  0.00     0.066 C 
ATOM      5  C   UNL d   1      -0.657  -5.737   0.418  0.00  0.00     0.274 C 
ATOM      6  C   UNL d   1      -1.982  -6.468   2.314  0.00  0.00     0.274 C 
ENDROOT
BRANCH   1   7
ATOM      7  C   UNL d   1       0.309  -7.240   1.992  0.00  0.00     0.306 C 
BRANCH   7   8
ATOM      8  C   UNL d   1       0.402  -8.560   2.787  0.00  0.00     0.170 C 
BRANCH   8   9
ATOM      9  C   UNL d   1       0.289  -9.820   1.907  0.00  0.00     0.209 C 
BRANCH   9  10
ATOM     10  O   UNL d   1       0.537 -10.971   2.735  0.00  0.00    -0.349 OA
BRANCH  10  11
ATOM     11  C   UNL d   1       0.681 -12.190   2.125  0.00  0.00     0.070 A 
ATOM     12  C   UNL d   1       0.364 -12.475   0.800  0.00  0.00     0.062 A 
ATOM     13  C   UNL d   1       0.528 -13.777   0.304  0.00  0.00     0.058 A 
ATOM     14 CL   UNL d   1       0.108 -14.063  -1.349  0.00  0.00    -0.082 Cl
ATOM     15  C   UNL d   1       1.012 -14.794   1.136  0.00  0.00     0.056 A 
ATOM     16  C   UNL d   1       1.335 -14.504   2.461  0.00  0.00     0.028 A 
ATOM     17 CL   UNL d   1       1.228 -16.420   0.589  0.00  0.00    -0.083 Cl
ATOM     18  C   UNL d   1       1.167 -13.206   2.951  0.00  0.00     0.038 A 
ENDBRANCH  10  11
ENDBRANCH   9  10
ENDBRANCH   8   9
BRANCH   8  19
ATOM     19  O   UNL d   1       1.684  -8.551   3.453  0.00  0.00    -0.392 OA
ATOM     20  H   UNL d   1       2.370  -8.700   2.779  0.00  0.00     0.210 HD
ENDBRANCH   8  19
ENDBRANCH   7   8
ENDBRANCH   1   7
BRANCH   4  21
ATOM     21  N   UNL d   1      -2.408  -3.507   1.530  0.00  0.00    -0.259 NA
ATOM     22  H   UNL d   1      -2.985  -3.279   2.337  0.00  0.00     0.131 HD
BRANCH  21  23
ATOM     23  C   UNL d   1      -2.164  -2.281   0.934  0.00  0.00     0.157 A 
ATOM     24  N   UNL d   1      -1.610  -2.190  -0.277  0.00  0.00    -0.329 N 
ATOM     25  C   UNL d   1      -1.286  -0.954  -0.748  0.00  0.00     0.120 A 
ATOM     26  HN  UNL d   1      -1.434  -3.025  -0.836  1.00  0.00     0.168 HD
ATOM     27  C   UNL d   1      -1.536   0.191  -0.017  0.00  0.00     0.051 A 
ATOM     28  C   UNL d   1      -2.126  -0.001   1.205  0.00  0.00     0.093 A 
ATOM     29  N   UNL d   1      -2.443  -1.216   1.694  0.00  0.00    -0.343 N 
ATOM     30  HN  UNL d   1      -2.881  -1.320   2.609  1.00  0.00     0.167 HD
BRANCH  25  31
ATOM     31  C   UNL d   1      -0.612  -0.821  -2.103  0.00  0.00     0.432 C 
ATOM     32  F   UNL d   1      -0.362  -2.004  -2.731  0.00  0.00    -0.165 F 
ATOM     33  F   UNL d   1       0.594  -0.182  -2.021  0.00  0.00    -0.165 F 
ATOM     34  F   UNL d   1      -1.353  -0.082  -2.980  0.00  0.00    -0.165 F 
ENDBRANCH  25  31
ENDBRANCH  21  23
ENDBRANCH   4  21
TORSDOF 9
