REMARK  4 active torsions:
REMARK  status: ('A' for Active; 'I' for Inactive)
REMARK    1  A    between atoms: C_4  and  C_1 
REMARK       I    between atoms: C_2  and  N_3 
REMARK    2  A    between atoms: C_5  and  C_2 
REMARK    3  A    between atoms: N_3  and  C_14 
REMARK    4  A    between atoms: C_14  and  C_16 
ROOT
ATOM      1  C   UNL d   1       0.202  -7.483  -1.659  0.00  0.00     0.251 C 
ATOM      2  N   UNL d   1       0.289  -6.329  -0.915  0.00  0.00    -0.353 N 
ATOM      3  O   UNL d   1      -0.770  -7.782  -2.341  0.00  0.00    -0.268 OA
ATOM      4  H   UNL d   1       0.987  -6.257  -0.187  0.00  0.00     0.163 HD
ENDROOT
BRANCH   2   5
ATOM      5  C   UNL d   1      -0.778  -5.353  -0.908  0.00  0.00     0.161 C 
BRANCH   5   6
ATOM      6  C   UNL d   1      -0.233  -3.973  -0.636  0.00  0.00    -0.041 A 
ATOM      7  C   UNL d   1       0.693  -3.398  -1.518  0.00  0.00     0.009 A 
ATOM      8  C   UNL d   1       1.198  -2.117  -1.285  0.00  0.00     0.017 A 
ATOM      9  C   UNL d   1       0.782  -1.379  -0.167  0.00  0.00     0.047 A 
ATOM     10  C   UNL d   1      -0.147  -1.954   0.713  0.00  0.00     0.017 A 
ATOM     11  C   UNL d   1      -0.649  -3.238   0.481  0.00  0.00     0.009 A 
BRANCH   9  12
ATOM     12  C   UNL d   1       1.332   0.007   0.065  0.00  0.00     0.417 C 
ATOM     13  F   UNL d   1       0.827   0.617   1.173  0.00  0.00    -0.166 F 
ATOM     14  F   UNL d   1       1.078   0.850  -0.974  0.00  0.00    -0.166 F 
ATOM     15  F   UNL d   1       2.685   0.008   0.224  0.00  0.00    -0.166 F 
ENDBRANCH   9  12
ENDBRANCH   5   6
ENDBRANCH   2   5
BRANCH   1  16
ATOM     16  C   UNL d   1       1.374  -8.398  -1.582  0.00  0.00     0.032 A 
ATOM     17  C   UNL d   1       1.172  -9.773  -1.768  0.00  0.00     0.020 A 
ATOM     18  C   UNL d   1       2.256 -10.652  -1.716  0.00  0.00     0.043 A 
ATOM     19  C   UNL d   1       3.535 -10.153  -1.495  0.00  0.00     0.116 A 
ATOM     20  C   UNL d   1       3.753  -8.791  -1.329  0.00  0.00     0.043 A 
ATOM     21  F   UNL d   1       4.573 -10.997  -1.450  0.00  0.00    -0.206 F 
ATOM     22  C   UNL d   1       2.672  -7.907  -1.374  0.00  0.00     0.020 A 
ENDBRANCH   1  16
TORSDOF 4
