REMARK  5 active torsions:
REMARK  status: ('A' for Active; 'I' for Inactive)
REMARK    1  A    between atoms: C_8  and  C_1 
REMARK    2  A    between atoms: N_7  and  C_2 
REMARK    3  A    between atoms: S_10  and  C_8 
REMARK    4  A    between atoms: C_9  and  C_11 
REMARK    5  A    between atoms: C_15  and  S_10 
ROOT
ATOM      1  C   UNL d   1       1.699  -2.109   0.092  0.00  0.00     0.244 C 
ATOM      2  O   UNL d   1       1.584  -3.157  -0.528  0.00  0.00    -0.278 OA
ENDROOT
BRANCH   1   3
ATOM      3  C   UNL d   1       0.612  -1.172   0.269  0.00  0.00     0.143 A 
ATOM      4  C   UNL d   1      -0.714  -1.500   0.536  0.00  0.00     0.159 A 
ATOM      5  C   UNL d   1      -1.450  -0.299   0.485  0.00  0.00     0.057 A 
ATOM      6  C   UNL d   1      -2.904  -0.052   0.655  0.00  0.00     0.072 C 
ATOM      7  N   UNL d   1      -0.639   0.736   0.244  0.00  0.00    -0.300 N 
ATOM      8  N   UNL d   1       0.592   0.197   0.120  0.00  0.00    -0.290 N 
ATOM      9  HN  UNL d   1      -0.896   1.720   0.170  1.00  0.00     0.187 HD
ATOM     10  C   UNL d   1       1.641   1.129  -0.233  0.00  0.00     0.178 C 
BRANCH   4  11
ATOM     11  N   UNL d   1      -1.217  -2.809   0.830  0.00  0.00    -0.111 N 
ATOM     12  O   UNL d   1      -0.553  -3.485   1.626  0.00  0.00    -0.532 OA
ATOM     13  O   UNL d   1      -2.282  -3.130   0.306  0.00  0.00    -0.532 OA
ENDBRANCH   4  11
ENDBRANCH   1   3
BRANCH   1  14
ATOM     14  S   UNL d   1       3.194  -1.640   0.873  0.00  0.00    -0.046 SA
BRANCH  14  15
ATOM     15  C   UNL d   1       4.092  -3.136   1.218  0.00  0.00     0.009 A 
ATOM     16  C   UNL d   1       5.492  -3.035   1.275  0.00  0.00     0.035 A 
ATOM     17  C   UNL d   1       6.286  -4.109   1.711  0.00  0.00     0.049 A 
ATOM     18  C   UNL d   1       5.658  -5.308   2.070  0.00  0.00     0.016 A 
ATOM     19  C   UNL d   1       4.270  -5.427   1.991  0.00  0.00     0.002 A 
ATOM     20  C   UNL d   1       3.490  -4.344   1.575  0.00  0.00     0.019 A 
BRANCH  17  21
ATOM     21  C   UNL d   1       7.783  -3.967   1.837  0.00  0.00     0.417 C 
ATOM     22  F   UNL d   1       8.248  -2.744   1.456  0.00  0.00    -0.166 F 
ATOM     23  F   UNL d   1       8.215  -4.145   3.116  0.00  0.00    -0.166 F 
ATOM     24  F   UNL d   1       8.462  -4.875   1.083  0.00  0.00    -0.166 F 
ENDBRANCH  17  21
ENDBRANCH  14  15
ENDBRANCH   1  14
TORSDOF 5
