REMARK  3 active torsions:
REMARK  status: ('A' for Active; 'I' for Inactive)
REMARK    1  A    between atoms: C_3  and  C_1 
REMARK       I    between atoms: N_4  and  C_1 
REMARK    2  A    between atoms: C_2  and  C_6 
REMARK    3  A    between atoms: C_7  and  N_5 
ROOT
ATOM      1  C   UNL d   1       2.450   0.188   0.017  0.00  0.00     0.271 C 
ATOM      2  N   UNL d   1       3.246  -0.955   0.133  0.00  0.00    -0.344 N 
ATOM      3  N   UNL d   1       4.698  -3.321   0.674  0.00  0.00    -0.364 N 
ATOM      4  C   UNL d   1       3.384  -2.009  -0.889  0.00  0.00     0.146 C 
ATOM      5  C   UNL d   1       4.316  -0.958   1.150  0.00  0.00     0.146 C 
ATOM      6  C   UNL d   1       4.537  -2.359   1.769  0.00  0.00     0.144 C 
ATOM      7  C   UNL d   1       3.554  -3.390  -0.238  0.00  0.00     0.144 C 
ATOM      8  O   UNL d   1       2.650   1.185   0.714  0.00  0.00    -0.266 OA
ENDROOT
BRANCH   1   9
ATOM      9  C   UNL d   1       1.319   0.247  -0.950  0.00  0.00     0.116 A 
ATOM     10  N   UNL d   1       0.696  -0.897  -1.329  0.00  0.00    -0.359 N 
ATOM     11  C   UNL d   1      -0.335  -0.746  -2.194  0.00  0.00     0.113 A 
ATOM     12  HN  UNL d   1       0.986  -1.812  -0.984  1.00  0.00     0.165 HD
ATOM     13  C   UNL d   1      -0.760   0.495  -2.655  0.00  0.00     0.020 A 
ATOM     14  N   UNL d   1      -0.152   1.641  -2.260  0.00  0.00    -0.366 N 
ATOM     15  C   UNL d   1      -1.907   0.599  -3.610  0.00  0.00     0.069 C 
ATOM     16  C   UNL d   1       0.884   1.490  -1.392  0.00  0.00     0.123 A 
ATOM     17  HN  UNL d   1      -0.453   2.558  -2.591  1.00  0.00     0.165 HD
ENDBRANCH   1   9
BRANCH   3  18
ATOM     18  C   UNL d   1       5.585  -4.364   0.789  0.00  0.00     0.103 A 
ATOM     19  N   UNL d   1       6.005  -4.752   2.010  0.00  0.00    -0.352 N 
ATOM     20  C   UNL d   1       6.934  -5.736   2.093  0.00  0.00     0.106 A 
ATOM     21  HN  UNL d   1       5.633  -4.314   2.852  1.00  0.00     0.166 HD
ATOM     22  C   UNL d   1       7.510  -6.357   0.998  0.00  0.00     0.063 A 
ATOM     23  C   UNL d   1       7.087  -5.941  -0.261  0.00  0.00     0.021 A 
ATOM     24  C   UNL d   1       6.117  -4.948  -0.360  0.00  0.00     0.049 A 
BRANCH  22  25
ATOM     25  C   UNL d   1       8.558  -7.410   1.156  0.00  0.00     0.418 C 
ATOM     26  F   UNL d   1       8.806  -7.750   2.450  0.00  0.00    -0.166 F 
ATOM     27  F   UNL d   1       8.229  -8.570   0.523  0.00  0.00    -0.166 F 
ATOM     28  F   UNL d   1       9.757  -7.032   0.633  0.00  0.00    -0.166 F 
ENDBRANCH  22  25
ENDBRANCH   3  18
TORSDOF 3
