REMARK  5 active torsions:
REMARK  status: ('A' for Active; 'I' for Inactive)
REMARK    1  A    between atoms: C_5  and  C_1 
REMARK    2  A    between atoms: N_3  and  C_2 
REMARK       I    between atoms: N_12  and  C_5 
REMARK    3  A    between atoms: C_6  and  C_11 
REMARK    4  A    between atoms: C_7  and  C_10 
REMARK    5  A    between atoms: C_13  and  N_12 
ROOT
ATOM      1  C   UNL d   1      -1.031  -3.817  -0.947  0.00  0.00     0.050 A 
ATOM      2  C   UNL d   1      -0.255  -5.187   0.912  0.00  0.00     0.050 A 
ATOM      3  C   UNL d   1       1.250  -3.557  -0.108  0.00  0.00     0.036 A 
ATOM      4  C   UNL d   1      -1.268  -4.801   0.019  0.00  0.00     0.032 A 
ATOM      5  C   UNL d   1       0.241  -3.232  -1.020  0.00  0.00     0.045 A 
ATOM      6  C   UNL d   1       1.011  -4.573   0.824  0.00  0.00     0.045 A 
ENDROOT
BRANCH   3   7
ATOM      7  N   UNL d   1       2.479  -2.855  -0.046  0.00  0.00    -0.323 N 
ATOM      8  C   UNL d   1       2.688  -1.591  -0.581  0.00  0.00     0.256 C 
ATOM      9  O   UNL d   1       1.845  -0.943  -1.195  0.00  0.00    -0.267 OA
ATOM     10  H   UNL d   1       3.171  -3.211   0.600  0.00  0.00     0.169 HD
BRANCH   8  11
ATOM     11  C   UNL d   1       3.995  -0.972  -0.334  0.00  0.00     0.041 A 
ATOM     12  C   UNL d   1       4.258   0.412  -0.658  0.00  0.00     0.061 A 
ATOM     13  C   UNL d   1       5.546   0.794  -0.372  0.00  0.00     0.144 A 
ATOM     14  S   UNL d   1       6.460  -0.471   0.292  0.00  0.00    -0.077 SA
ATOM     15  C   UNL d   1       5.133  -1.562   0.190  0.00  0.00     0.069 A 
BRANCH  13  16
ATOM     16  N   UNL d   1       6.119   2.096  -0.590  0.00  0.00    -0.108 N 
ATOM     17  O   UNL d   1       5.388   2.945  -1.116  0.00  0.00    -0.531 OA
ATOM     18  O   UNL d   1       7.290   2.287  -0.239  0.00  0.00    -0.531 OA
ENDBRANCH  13  16
ENDBRANCH   8  11
ENDBRANCH   3   7
BRANCH   1  19
ATOM     19  C   UNL d   1      -2.119  -3.321  -1.869  0.00  0.00     0.417 C 
ATOM     20  F   UNL d   1      -3.341  -3.856  -1.594  0.00  0.00    -0.166 F 
ATOM     21  F   UNL d   1      -2.283  -1.971  -1.798  0.00  0.00    -0.166 F 
ATOM     22  F   UNL d   1      -1.870  -3.604  -3.176  0.00  0.00    -0.166 F 
ENDBRANCH   1  19
BRANCH   2  23
ATOM     23  C   UNL d   1      -0.534  -6.198   2.000  0.00  0.00     0.417 C 
ATOM     24  F   UNL d   1      -1.834  -6.599   2.049  0.00  0.00    -0.166 F 
ATOM     25  F   UNL d   1       0.206  -7.330   1.864  0.00  0.00    -0.166 F 
ATOM     26  F   UNL d   1      -0.248  -5.708   3.239  0.00  0.00    -0.166 F 
ENDBRANCH   2  23
TORSDOF 5
