REMARK  6 active torsions:
REMARK  status: ('A' for Active; 'I' for Inactive)
REMARK    1  A    between atoms: C_3  and  C_1 
REMARK    2  A    between atoms: C_5  and  CA_2 
REMARK       I    between atoms: N_6  and  C_3 
REMARK    3  A    between atoms: C_4  and  C_8 
REMARK    4  A    between atoms: OXT_22  and  C_5 
REMARK    5  A    between atoms: C_17  and  N_6 
REMARK    6  A    between atoms: C_8  and  N_7 
ROOT
ATOM      1  C   UNL d   1      -2.928  -4.517   0.082  0.00  0.00     0.271 C 
ATOM      2  N   UNL d   1      -1.741  -3.834  -0.087  0.00  0.00    -0.351 N 
ATOM      3  O   UNL d   1      -3.864  -3.832   0.478  0.00  0.00    -0.266 OA
ATOM      4  H   UNL d   1      -1.925  -2.878   0.201  0.00  0.00     0.163 HD
ENDROOT
BRANCH   2   5
ATOM      5  C   UNL d   1      -0.308  -4.202  -0.076  0.00  0.00     0.088 C 
ATOM      6  C   UNL d   1       0.508  -2.923   0.180  0.00  0.00     0.055 C 
ATOM      7  C   UNL d   1       0.395  -1.969  -1.017  0.00  0.00     0.275 C 
ATOM      8  N   UNL d   1       0.958  -2.571  -2.232  0.00  0.00     0.092 N 
ATOM      9  C   UNL d   1       0.326  -3.865  -2.535  0.00  0.00     0.275 C 
ATOM     10  C   UNL d   1       0.281  -4.827  -1.349  0.00  0.00     0.055 C 
BRANCH   8  11
ATOM     11  C   UNL d   1       0.816  -1.678  -3.410  0.00  0.00     0.315 C 
BRANCH  11  12
ATOM     12  C   UNL d   1       1.458  -0.318  -3.248  0.00  0.00     0.030 A 
ATOM     13  C   UNL d   1       2.842  -0.235  -3.050  0.00  0.00     0.126 A 
ATOM     14  F   UNL d   1       3.594  -1.346  -3.087  0.00  0.00    -0.205 F 
ATOM     15  C   UNL d   1       3.482   0.979  -2.808  0.00  0.00     0.043 A 
ATOM     16  C   UNL d   1       2.743   2.157  -2.781  0.00  0.00     0.005 A 
ATOM     17  C   UNL d   1       1.372   2.111  -3.022  0.00  0.00     0.024 A 
ATOM     18  C   UNL d   1       0.733   0.886  -3.260  0.00  0.00     0.045 A 
ATOM     19 CL   UNL d   1      -0.968   0.942  -3.564  0.00  0.00    -0.084 Cl
ENDBRANCH  11  12
ENDBRANCH   8  11
ENDBRANCH   2   5
BRANCH   1  20
ATOM     20  C   UNL d   1      -3.084  -5.979  -0.162  0.00  0.00     0.134 A 
ATOM     21  CA  UNL d   1      -4.298  -6.674  -0.161  0.00  0.00     0.139 A 
ATOM     22  N   UNL d   1      -4.354  -8.045  -0.360  0.00  0.00    -0.357 N 
ATOM     23  C   UNL d   1      -3.183  -8.662  -0.617  0.00  0.00     0.105 A 
ATOM     24  HN  UNL d   1      -5.234  -8.559  -0.315  1.00  0.00     0.165 HD
ATOM     25  C   UNL d   1      -1.991  -7.977  -0.633  0.00  0.00     0.105 A 
ATOM     26  N   UNL d   1      -1.919  -6.654  -0.380  0.00  0.00    -0.358 N 
ATOM     27  HN  UNL d   1      -1.020  -6.173  -0.353  1.00  0.00     0.165 HD
BRANCH  21  28
ATOM     28  C   UNL d   1      -5.685  -6.108   0.002  0.00  0.00     0.196 C 
ATOM     29  O   UNL d   1      -6.070  -4.968  -0.109  0.00  0.00    -0.645 OA
BRANCH  28  30
ATOM     30  OXT UNL d   1      -6.556  -7.139   0.230  0.00  0.00    -0.772 OA
ATOM     31  HXT UNL d   1      -6.075  -7.996   0.146  0.00  0.00     0.167 HD
ENDBRANCH  28  30
ENDBRANCH  21  28
ENDBRANCH   1  20
TORSDOF 6
