REMARK  6 active torsions:
REMARK  status: ('A' for Active; 'I' for Inactive)
REMARK    1  A    between atoms: C_6  and  C_1 
REMARK       I    between atoms: N_11  and  C_6 
REMARK    2  A    between atoms: C_12  and  C_7 
REMARK    3  A    between atoms: C_8  and  C_9 
REMARK    4  A    between atoms: N_17  and  N_11 
REMARK    5  A    between atoms: O_15  and  C_12 
REMARK    6  A    between atoms: C_16  and  O_15 
ROOT
ATOM      1  C   UNL d   1       0.237  -1.543   0.346  0.00  0.00     0.098 A 
ATOM      2  C   UNL d   1      -0.672  -0.543   0.670  0.00  0.00     0.028 A 
ATOM      3  N   UNL d   1      -0.105   0.694   0.931  0.00  0.00    -0.354 N 
ATOM      4  HN  UNL d   1      -0.632   1.528   1.189  1.00  0.00     0.166 HD
ATOM      5  S   UNL d   1       1.833  -0.881   0.374  0.00  0.00    -0.067 SA
ATOM      6  C   UNL d   1       1.203   0.650   0.802  0.00  0.00     0.076 A 
ATOM      7  C   UNL d   1      -2.154  -0.609   0.794  0.00  0.00     0.070 C 
ENDROOT
BRANCH   6   8
ATOM      8  C   UNL d   1       2.096   1.819   1.089  0.00  0.00     0.240 C 
BRANCH   8   9
ATOM      9  O   UNL d   1       2.882   2.103  -0.072  0.00  0.00    -0.345 OA
BRANCH   9  10
ATOM     10  C   UNL d   1       3.732   3.170   0.061  0.00  0.00     0.069 A 
ATOM     11  C   UNL d   1       4.865   3.155  -0.748  0.00  0.00     0.037 A 
ATOM     12  C   UNL d   1       5.799   4.199  -0.688  0.00  0.00     0.011 A 
ATOM     13  C   UNL d   1       5.620   5.297   0.175  0.00  0.00    -0.050 A 
ATOM     14  C   UNL d   1       4.457   5.301   0.961  0.00  0.00     0.011 A 
ATOM     15  C   UNL d   1       3.526   4.258   0.904  0.00  0.00     0.037 A 
BRANCH  13  16
ATOM     16  C   UNL d   1       6.662   6.427   0.244  0.00  0.00    -0.024 C 
ATOM     17  C   UNL d   1       6.275   7.555   1.230  0.00  0.00     0.019 C 
ATOM     18  C   UNL d   1       8.018   5.854   0.708  0.00  0.00     0.019 C 
ATOM     19  C   UNL d   1       6.847   7.082  -1.141  0.00  0.00     0.019 C 
ENDBRANCH  13  16
ENDBRANCH   9  10
ENDBRANCH   8   9
ENDBRANCH   6   8
BRANCH   1  20
ATOM     20  C   UNL d   1       0.010  -2.952   0.039  0.00  0.00     0.274 C 
ATOM     21  O   UNL d   1      -1.095  -3.494   0.079  0.00  0.00    -0.266 OA
ATOM     22  N   UNL d   1       1.151  -3.681  -0.299  0.00  0.00    -0.289 N 
ATOM     23  H   UNL d   1       2.036  -3.193  -0.423  0.00  0.00     0.183 HD
BRANCH  22  24
ATOM     24  N   UNL d   1       1.070  -5.052  -0.647  0.00  0.00    -0.247 NA
ATOM     25  H   UNL d   1       0.071  -5.281  -0.746  0.00  0.00     0.143 HD
ATOM     26  H   UNL d   1       1.377  -5.602   0.160  0.00  0.00     0.143 HD
ENDBRANCH  22  24
ENDBRANCH   1  20
TORSDOF 6
