REMARK  4 active torsions:
REMARK  status: ('A' for Active; 'I' for Inactive)
REMARK       I    between atoms: N_2  and  C_1 
REMARK    1  A    between atoms: C_10  and  C_1 
REMARK       I    between atoms: C_3  and  N_4 
REMARK    2  A    between atoms: O_5  and  C_3 
REMARK    3  A    between atoms: N_4  and  C_14 
REMARK    4  A    between atoms: C_11  and  O_5 
ROOT
ATOM      1  C   UNL d   1       1.064  -0.003   0.375  0.00  0.00     0.253 C 
ATOM      2  N   UNL d   1       0.747  -1.303  -0.021  0.00  0.00    -0.348 N 
ATOM      3  C   UNL d   1       0.503  -1.756  -1.386  0.00  0.00     0.128 C 
ATOM      4  C   UNL d   1       0.624  -2.367   0.967  0.00  0.00     0.128 C 
ATOM      5  O   UNL d   1       1.357   0.294   1.528  0.00  0.00    -0.267 OA
ATOM      6  C   UNL d   1      -0.955  -2.167  -1.519  0.00  0.00     0.045 C 
ATOM      7  C   UNL d   1      -0.782  -2.966   0.949  0.00  0.00     0.045 C 
ATOM      8  C   UNL d   1      -1.403  -3.168  -0.446  0.00  0.00     0.089 C 
ENDROOT
BRANCH   8   9
ATOM      9  N   UNL d   1      -1.437  -4.544  -0.936  0.00  0.00    -0.332 N 
ATOM     10  C   UNL d   1      -0.450  -5.360  -1.394  0.00  0.00     0.361 C 
ATOM     11  O   UNL d   1      -0.740  -6.391  -1.985  0.00  0.00    -0.238 OA
ATOM     12  H   UNL d   1      -2.346  -4.912  -1.184  0.00  0.00     0.165 HD
BRANCH  10  13
ATOM     13  O   UNL d   1       0.798  -4.914  -1.146  0.00  0.00    -0.294 OA
BRANCH  13  14
ATOM     14  C   UNL d   1       1.940  -5.688  -1.609  0.00  0.00     0.061 C 
ATOM     15  C   UNL d   1       1.962  -5.787  -3.140  0.00  0.00     0.046 C 
ATOM     16  C   UNL d   1       3.177  -4.899  -1.152  0.00  0.00     0.046 C 
ATOM     17  C   UNL d   1       1.979  -7.070  -0.944  0.00  0.00     0.046 C 
ENDBRANCH  13  14
ENDBRANCH  10  13
ENDBRANCH   8   9
BRANCH   1  18
ATOM     18  C   UNL d   1       1.073   1.083  -0.640  0.00  0.00     0.032 A 
ATOM     19  C   UNL d   1      -0.023   1.304  -1.489  0.00  0.00     0.017 A 
ATOM     20  C   UNL d   1       0.059   2.240  -2.520  0.00  0.00     0.001 A 
ATOM     21  C   UNL d   1       1.207   3.017  -2.658  0.00  0.00     0.000 A 
ATOM     22  C   UNL d   1       2.259   2.877  -1.753  0.00  0.00     0.001 A 
ATOM     23  C   UNL d   1       2.197   1.909  -0.744  0.00  0.00     0.017 A 
ENDBRANCH   1  18
TORSDOF 4
