REMARK  4 active torsions:
REMARK  status: ('A' for Active; 'I' for Inactive)
REMARK    1  A    between atoms: C_2  and  S_1 
REMARK    2  A    between atoms: N_3  and  S_1 
REMARK    3  A    between atoms: C_14  and  N_3 
REMARK    4  A    between atoms: C_8  and  C_14 
ROOT
ATOM      1  S   UNL d   1       1.037  -0.001  -0.134  0.00  0.00     0.258 S 
ATOM      2  O   UNL d   1       0.313   1.227   0.078  0.00  0.00    -0.201 OA
ATOM      3  O   UNL d   1       2.483  -0.076  -0.048  0.00  0.00    -0.201 OA
ENDROOT
BRANCH   1   4
ATOM      4  C   UNL d   1       0.573  -0.626  -1.725  0.00  0.00     0.082 A 
ATOM      5  C   UNL d   1      -0.212   0.169  -2.569  0.00  0.00     0.049 A 
ATOM      6  C   UNL d   1      -0.611  -0.337  -3.803  0.00  0.00     0.037 A 
ATOM      7 CL   UNL d   1      -1.552   0.641  -4.860  0.00  0.00    -0.084 Cl
ATOM      8  C   UNL d   1      -0.258  -1.628  -4.192  0.00  0.00     0.047 A 
ATOM      9  C   UNL d   1       0.533  -2.404  -3.347  0.00  0.00     0.037 A 
ATOM     10  C   UNL d   1       0.975  -1.902  -2.124  0.00  0.00     0.049 A 
ATOM     11 CL   UNL d   1       0.962  -4.004  -3.809  0.00  0.00    -0.084 Cl
ENDBRANCH   1   4
BRANCH   1  12
ATOM     12  N   UNL d   1       0.362  -1.127   0.899  0.00  0.00    -0.315 N 
ATOM     13  H   UNL d   1      -0.601  -0.985   1.188  0.00  0.00     0.172 HD
BRANCH  12  14
ATOM     14  C   UNL d   1       1.142  -2.243   1.403  0.00  0.00     0.136 C 
BRANCH  14  15
ATOM     15  C   UNL d   1       0.341  -2.994   2.422  0.00  0.00     0.004 A 
ATOM     16  C   UNL d   1      -0.073  -2.352   3.724  0.00  0.00     0.007 A 
ATOM     17  C   UNL d   1       0.980  -3.425   3.721  0.00  0.00     0.007 A 
ENDBRANCH  14  15
ENDBRANCH  12  14
ENDBRANCH   1  12
TORSDOF 4
