REMARK  5 active torsions:
REMARK  status: ('A' for Active; 'I' for Inactive)
REMARK    1  A    between atoms: N_5  and  S_1 
REMARK    2  A    between atoms: C_12  and  S_1 
REMARK    3  A    between atoms: N_8  and  N_5 
REMARK    4  A    between atoms: C_6  and  C_7 
REMARK    5  A    between atoms: C_7  and  C_11 
REMARK       I    between atoms: C_11  and  N_8 
ROOT
ATOM      1  N   UNL d   1       1.572   0.343   5.762  0.00  0.00    -0.260 N 
ATOM      2  C   UNL d   1       0.447   0.462   4.987  0.00  0.00     0.238 C 
ATOM      3  O   UNL d   1      -0.122  -0.543   4.561  0.00  0.00    -0.272 OA
ATOM      4  H   UNL d   1       1.861  -0.603   6.016  0.00  0.00     0.190 HD
ENDROOT
BRANCH   2   5
ATOM      5  C   UNL d   1      -0.112   1.845   4.716  0.00  0.00     0.129 C 
BRANCH   5   6
ATOM      6  C   UNL d   1      -0.034   2.187   3.228  0.00  0.00     0.153 C 
ATOM      7  C   UNL d   1       1.399   2.130   2.733  0.00  0.00     0.236 C 
ATOM      8  N   UNL d   1       2.203   3.221   2.784  0.00  0.00    -0.325 N 
ATOM      9  O   UNL d   1       1.913   1.056   2.406  0.00  0.00    -0.272 OA
ATOM     10  C   UNL d   1       1.812   4.556   2.918  0.00  0.00     0.051 A 
ATOM     11  H   UNL d   1       3.164   3.024   2.526  0.00  0.00     0.169 HD
ATOM     12  C   UNL d   1       0.471   4.939   2.994  0.00  0.00     0.028 A 
ATOM     13  C   UNL d   1       2.823   5.527   2.889  0.00  0.00     0.031 A 
ATOM     14  S   UNL d   1      -0.875   3.780   2.918  0.00  0.00    -0.113 SA
ATOM     15  C   UNL d   1       0.161   6.307   3.033  0.00  0.00     0.021 A 
ATOM     16  C   UNL d   1       1.169   7.273   2.999  0.00  0.00     0.002 A 
ATOM     17  C   UNL d   1       2.503   6.883   2.928  0.00  0.00     0.002 A 
ENDBRANCH   5   6
ENDBRANCH   2   5
BRANCH   1  18
ATOM     18  N   UNL d   1       2.370   1.443   6.263  0.00  0.00    -0.220 N 
ATOM     19  H   UNL d   1       2.381   2.345   5.783  0.00  0.00     0.200 HD
BRANCH  18  20
ATOM     20  S   UNL d   1       3.749   1.073   7.184  0.00  0.00     0.276 S 
ATOM     21  O   UNL d   1       4.817   0.788   6.253  0.00  0.00    -0.199 OA
ATOM     22  O   UNL d   1       3.365   0.141   8.221  0.00  0.00    -0.199 OA
BRANCH  20  23
ATOM     23  C   UNL d   1       4.085   2.645   7.946  0.00  0.00     0.081 A 
ATOM     24  C   UNL d   1       3.247   3.101   8.970  0.00  0.00     0.027 A 
ATOM     25  C   UNL d   1       3.480   4.356   9.540  0.00  0.00     0.025 A 
ATOM     26  C   UNL d   1       4.548   5.135   9.093  0.00  0.00     0.034 A 
ATOM     27  C   UNL d   1       5.403   4.662   8.096  0.00  0.00     0.025 A 
ATOM     28 CL   UNL d   1       4.808   6.696   9.766  0.00  0.00    -0.084 Cl
ATOM     29  C   UNL d   1       5.176   3.409   7.521  0.00  0.00     0.027 A 
ENDBRANCH  20  23
ENDBRANCH  18  20
ENDBRANCH   1  18
TORSDOF 5
