REMARK  8 active torsions:
REMARK  status: ('A' for Active; 'I' for Inactive)
REMARK    1  A    between atoms: C_3  and  N_1 
REMARK    2  A    between atoms: S_18  and  C_2 
REMARK    3  A    between atoms: C_4  and  C_6 
REMARK    4  A    between atoms: O_33  and  C_5 
REMARK    5  A    between atoms: C_14  and  C_7 
REMARK    6  A    between atoms: O_35  and  C_17 
REMARK    7  A    between atoms: C_34  and  S_18 
REMARK    8  A    between atoms: C_23  and  C_34 
ROOT
ATOM      1  C   UNL d   1       2.415  -3.158  -0.287  0.00  0.00     0.139 C 
ENDROOT
BRANCH   1   2
ATOM      2  C   UNL d   1       3.711  -3.936  -0.163  0.00  0.00     0.024 A 
ATOM      3  N   UNL d   1       4.882  -3.259  -0.114  0.00  0.00    -0.348 N 
ATOM      4  C   UNL d   1       6.032  -3.951   0.014  0.00  0.00     0.092 A 
ATOM      5  HN  UNL d   1       4.894  -2.241  -0.173  1.00  0.00     0.167 HD
ATOM      6  N   UNL d   1       6.097  -5.290   0.059  0.00  0.00    -0.326 N 
ATOM      7  C   UNL d   1       4.917  -5.917  -0.018  0.00  0.00     0.142 A 
ATOM      8  HN  UNL d   1       6.980  -5.793   0.145  1.00  0.00     0.169 HD
ATOM      9  C   UNL d   1       3.694  -5.316  -0.149  0.00  0.00     0.081 A 
BRANCH   4  10
ATOM     10  C   UNL d   1       7.314  -3.137   0.097  0.00  0.00     0.019 C 
ATOM     11  C   UNL d   1       7.223  -2.137   1.282  0.00  0.00     0.022 C 
ATOM     12  C   UNL d   1       8.487  -1.264   1.355  0.00  0.00    -0.013 C 
ATOM     13  C   UNL d   1       9.714  -2.164   1.559  0.00  0.00     0.009 C 
ATOM     14  C   UNL d   1       8.640  -0.485   0.038  0.00  0.00     0.009 C 
ATOM     15  C   UNL d   1       9.843  -3.151   0.387  0.00  0.00    -0.013 C 
ATOM     16  C   UNL d   1       8.574  -4.019   0.314  0.00  0.00     0.022 C 
ATOM     17  C   UNL d   1       9.993  -2.365  -0.926  0.00  0.00     0.009 C 
ATOM     18  C   UNL d   1       8.769  -1.462  -1.142  0.00  0.00    -0.013 C 
ATOM     19  C   UNL d   1       7.505  -2.334  -1.216  0.00  0.00     0.022 C 
ENDBRANCH   4  10
BRANCH   7  20
ATOM     20  O   UNL d   1       5.013  -7.272   0.033  0.00  0.00    -0.346 OA
ATOM     21  H   UNL d   1       5.974  -7.366   0.130  0.00  0.00     0.219 HD
ENDBRANCH   7  20
ENDBRANCH   1   2
BRANCH   1  22
ATOM     22  S   UNL d   1       2.567  -1.377   0.128  0.00  0.00    -0.086 SA
BRANCH  22  23
ATOM     23  C   UNL d   1       1.079  -0.763  -0.516  0.00  0.00     0.169 A 
ATOM     24  N   UNL d   1       0.777   0.579  -0.728  0.00  0.00    -0.254 N 
ATOM     25  C   UNL d   1      -0.612   0.548  -0.891  0.00  0.00     0.245 A 
ATOM     26  N   UNL d   1      -1.056  -0.684  -0.880  0.00  0.00    -0.263 N 
ATOM     27  N   UNL d   1       0.009  -1.511  -0.666  0.00  0.00    -0.276 N 
ATOM     28  HN  UNL d   1      -2.025  -0.975  -1.009  1.00  0.00     0.190 HD
ATOM     29  HN  UNL d   1      -0.020  -2.530  -0.628  1.00  0.00     0.189 HD
BRANCH  24  30
ATOM     30  C   UNL d   1       1.608   1.750  -0.676  0.00  0.00     0.060 A 
ATOM     31  C   UNL d   1       2.914   1.834  -1.217  0.00  0.00     0.075 A 
ATOM     32  C   UNL d   1       3.649   3.031  -1.017  0.00  0.00     0.018 A 
ATOM     33  C   UNL d   1       3.096   4.143  -0.388  0.00  0.00     0.001 A 
ATOM     34  C   UNL d   1       1.794   4.080   0.079  0.00  0.00     0.002 A 
ATOM     35  C   UNL d   1       1.067   2.893  -0.041  0.00  0.00     0.031 A 
BRANCH  31  36
ATOM     36  C   UNL d   1       3.608   0.823  -2.110  0.00  0.00     0.419 C 
ATOM     37  F   UNL d   1       2.801  -0.148  -2.607  0.00  0.00    -0.166 F 
ATOM     38  F   UNL d   1       4.144   1.424  -3.216  0.00  0.00    -0.166 F 
ATOM     39  F   UNL d   1       4.656   0.213  -1.498  0.00  0.00    -0.166 F 
ENDBRANCH  31  36
ENDBRANCH  24  30
BRANCH  25  40
ATOM     40  O   UNL d   1      -1.429   1.577  -1.096  0.00  0.00    -0.331 OA
ATOM     41  H   UNL d   1      -0.922   2.334  -1.423  0.00  0.00     0.221 HD
ENDBRANCH  25  40
ENDBRANCH  22  23
ENDBRANCH   1  22
TORSDOF 8
