REMARK  3 active torsions:
REMARK  status: ('A' for Active; 'I' for Inactive)
REMARK    1  A    between atoms: C_2  and  C_1 
REMARK       I    between atoms: C_3  and  N_4 
REMARK       I    between atoms: N_6  and  C_3 
REMARK    2  A    between atoms: N_4  and  C_8 
REMARK    3  A    between atoms: C_14  and  N_6 
ROOT
ATOM      1  C   UNL d   1       5.122  -1.180   0.329  0.00  0.00     0.325 C 
ATOM      2  N   UNL d   1       4.256  -0.134   0.301  0.00  0.00    -0.309 N 
ATOM      3  N   UNL d   1       4.664  -2.456   0.380  0.00  0.00    -0.309 N 
ATOM      4  O   UNL d   1       6.311  -0.853   0.320  0.00  0.00    -0.247 OA
ATOM      5  H   UNL d   1       4.835   0.700   0.281  0.00  0.00     0.170 HD
ATOM      6  H   UNL d   1       3.719  -2.613   0.086  0.00  0.00     0.170 HD
ENDROOT
BRANCH   2   7
ATOM      7  C   UNL d   1       2.878   0.116   0.297  0.00  0.00     0.037 A 
ATOM      8  C   UNL d   1       1.845  -0.816   0.301  0.00  0.00     0.047 A 
ATOM      9  C   UNL d   1       0.477  -0.419   0.214  0.00  0.00     0.067 A 
ATOM     10  C   UNL d   1       0.172   0.948   0.191  0.00  0.00     0.026 A 
ATOM     11  C   UNL d   1       1.203   1.888   0.225  0.00  0.00     0.022 A 
ATOM     12 BR   UNL d   1      -1.589   1.648   0.127  0.00  0.00    -0.050 Br
ATOM     13  C   UNL d   1       2.532   1.475   0.268  0.00  0.00     0.031 A 
BRANCH   9  14
ATOM     14  C   UNL d   1      -0.551  -1.524   0.162  0.00  0.00     0.418 C 
ATOM     15  F   UNL d   1      -1.803  -1.172  -0.225  0.00  0.00    -0.166 F 
ATOM     16  F   UNL d   1      -0.177  -2.509  -0.709  0.00  0.00    -0.166 F 
ATOM     17  F   UNL d   1      -0.690  -2.146   1.367  0.00  0.00    -0.166 F 
ENDBRANCH   9  14
ENDBRANCH   2   7
BRANCH   3  18
ATOM     18  C   UNL d   1       5.448  -3.621   0.579  0.00  0.00     0.036 A 
ATOM     19  C   UNL d   1       6.806  -3.594   0.924  0.00  0.00     0.032 A 
ATOM     20  C   UNL d   1       7.525  -4.780   1.112  0.00  0.00     0.044 A 
ATOM     21  C   UNL d   1       6.884  -5.998   0.968  0.00  0.00     0.116 A 
ATOM     22  C   UNL d   1       5.535  -6.053   0.638  0.00  0.00     0.044 A 
ATOM     23  F   UNL d   1       7.569  -7.133   1.153  0.00  0.00    -0.206 F 
ATOM     24  C   UNL d   1       4.817  -4.866   0.444  0.00  0.00     0.032 A 
ENDBRANCH   3  18
TORSDOF 3
