REMARK  6 active torsions:
REMARK  status: ('A' for Active; 'I' for Inactive)
REMARK    1  A    between atoms: O_6  and  S_1 
REMARK    2  A    between atoms: C_7  and  S_1 
REMARK    3  A    between atoms: S_2  and  C_8 
REMARK    4  A    between atoms: C_18  and  S_2 
REMARK    5  A    between atoms: N_3  and  C_4 
REMARK    6  A    between atoms: C_5  and  O_6 
ROOT
ATOM      1  C   UNL d   1       2.268  -2.801  -1.218  0.00  0.00     0.137 A 
ATOM      2  C   UNL d   1       0.976  -2.643  -0.694  0.00  0.00     0.124 A 
ATOM      3  C   UNL d   1       0.428  -4.829  -1.607  0.00  0.00     0.067 A 
ATOM      4  C   UNL d   1       0.064  -3.690  -0.874  0.00  0.00     0.064 A 
ATOM      5  C   UNL d   1       2.651  -3.951  -1.927  0.00  0.00     0.040 A 
ATOM      6  C   UNL d   1       1.715  -4.962  -2.139  0.00  0.00     0.026 A 
ENDROOT
BRANCH   2   7
ATOM      7  O   UNL d   1       0.668  -1.476  -0.033  0.00  0.00    -0.227 OA
BRANCH   7   8
ATOM      8  S   UNL d   1      -0.884  -1.013   0.207  0.00  0.00     0.303 S 
ATOM      9  O   UNL d   1      -1.360  -1.645   1.420  0.00  0.00    -0.193 OA
ATOM     10  O   UNL d   1      -1.598  -1.152  -1.045  0.00  0.00    -0.193 OA
BRANCH   8  11
ATOM     11  C   UNL d   1      -0.832   0.729   0.527  0.00  0.00     0.090 A 
ATOM     12  C   UNL d   1       0.359   1.371   0.867  0.00  0.00     0.049 A 
ATOM     13  C   UNL d   1       0.370   2.765   0.925  0.00  0.00     0.037 A 
ATOM     14 CL   UNL d   1       1.836   3.586   1.299  0.00  0.00    -0.084 Cl
ATOM     15  C   UNL d   1      -0.781   3.507   0.655  0.00  0.00     0.047 A 
ATOM     16  C   UNL d   1      -1.968   2.845   0.350  0.00  0.00     0.037 A 
ATOM     17  C   UNL d   1      -2.005   1.457   0.293  0.00  0.00     0.049 A 
ATOM     18 CL   UNL d   1      -3.388   3.748  -0.003  0.00  0.00    -0.084 Cl
ENDBRANCH   8  11
ENDBRANCH   7   8
ENDBRANCH   2   7
BRANCH   1  19
ATOM     19  N   UNL d   1       3.251  -1.745  -1.069  0.00  0.00    -0.113 N 
ATOM     20  O   UNL d   1       2.959  -0.630  -1.522  0.00  0.00    -0.532 OA
ATOM     21  O   UNL d   1       4.314  -2.044  -0.512  0.00  0.00    -0.532 OA
ENDBRANCH   1  19
BRANCH   3  22
ATOM     22  S   UNL d   1      -0.827  -6.028  -2.019  0.00  0.00     0.206 S 
ATOM     23  O   UNL d   1      -2.096  -5.325  -2.026  0.00  0.00    -0.217 OA
ATOM     24  O   UNL d   1      -0.371  -6.714  -3.219  0.00  0.00    -0.217 OA
BRANCH  22  25
ATOM     25  C   UNL d   1      -0.881  -7.226  -0.715  0.00  0.00     0.064 A 
ATOM     26  C   UNL d   1      -1.788  -7.062   0.338  0.00  0.00     0.024 A 
ATOM     27  C   UNL d   1      -1.891  -8.054   1.314  0.00  0.00     0.002 A 
ATOM     28  C   UNL d   1      -1.100  -9.200   1.232  0.00  0.00     0.000 A 
ATOM     29  C   UNL d   1      -0.201  -9.362   0.175  0.00  0.00     0.002 A 
ATOM     30  C   UNL d   1      -0.093  -8.376  -0.805  0.00  0.00     0.024 A 
ENDBRANCH  22  25
ENDBRANCH   3  22
TORSDOF 6
