REMARK  4 active torsions:
REMARK  status: ('A' for Active; 'I' for Inactive)
REMARK    1  A    between atoms: C_3  and  C_1 
REMARK    2  A    between atoms: S_4  and  C_2 
REMARK    3  A    between atoms: O_10  and  C_3 
REMARK    4  A    between atoms: C_9  and  S_4 
ROOT
ATOM      1  C   UNL d   1       0.773   0.004   1.016  0.00  0.00     0.061 A 
ATOM      2  C   UNL d   1       1.540  -0.567  -0.062  0.00  0.00     0.029 A 
ATOM      3  S   UNL d   1      -0.103   1.046  -1.196  0.00  0.00    -0.111 SA
ATOM      4  C   UNL d   1      -0.141   0.915   0.505  0.00  0.00     0.069 A 
ATOM      5  C   UNL d   1       1.155  -0.102  -1.301  0.00  0.00     0.069 A 
ENDROOT
BRANCH   2   6
ATOM      6  S   UNL d   1       2.812  -1.777   0.118  0.00  0.00    -0.089 SA
BRANCH   6   7
ATOM      7  C   UNL d   1       4.271  -0.757   0.231  0.00  0.00     0.005 A 
ATOM      8  C   UNL d   1       4.811  -0.437   1.482  0.00  0.00     0.020 A 
ATOM      9  C   UNL d   1       5.996   0.301   1.572  0.00  0.00     0.025 A 
ATOM     10  C   UNL d   1       6.644   0.716   0.410  0.00  0.00     0.034 A 
ATOM     11  C   UNL d   1       6.112   0.407  -0.840  0.00  0.00     0.025 A 
ATOM     12 CL   UNL d   1       8.115   1.600   0.520  0.00  0.00    -0.084 Cl
ATOM     13  C   UNL d   1       4.928  -0.331  -0.930  0.00  0.00     0.020 A 
ENDBRANCH   6   7
ENDBRANCH   2   6
BRANCH   1  14
ATOM     14  C   UNL d   1       0.842  -0.230   2.459  0.00  0.00     0.178 C 
ATOM     15  O   UNL d   1       0.299   0.495   3.281  0.00  0.00    -0.646 OA
BRANCH  14  16
ATOM     16  O   UNL d   1       1.533  -1.331   2.851  0.00  0.00    -0.773 OA
ATOM     17  H   UNL d   1       1.861  -1.852   2.094  0.00  0.00     0.167 HD
ENDBRANCH  14  16
ENDBRANCH   1  14
TORSDOF 4
