REMARK  4 active torsions:
REMARK  status: ('A' for Active; 'I' for Inactive)
REMARK    1  A    between atoms: O_8  and  C_1 
REMARK    2  A    between atoms: N_7  and  C_2 
REMARK    3  A    between atoms: C_11  and  O_8 
REMARK    4  A    between atoms: O_19  and  C_14 
ROOT
ATOM      1  C   UNL d   1       0.569  -1.343   0.066  0.00  0.00     0.200 A 
ATOM      2  C   UNL d   1      -0.760  -1.209   0.450  0.00  0.00     0.179 A 
ATOM      3  N   UNL d   1       0.925  -0.083  -0.349  0.00  0.00    -0.273 N 
ATOM      4  N   UNL d   1      -0.095   0.799  -0.375  0.00  0.00    -0.299 N 
ATOM      5  HN  UNL d   1      -0.078   1.769  -0.691  1.00  0.00     0.187 HD
ATOM      6  C   UNL d   1      -1.136   0.109   0.110  0.00  0.00     0.059 A 
ATOM      7  C   UNL d   1       2.232   0.361  -0.776  0.00  0.00     0.180 C 
ATOM      8  C   UNL d   1      -2.457   0.776   0.238  0.00  0.00     0.072 C 
ENDROOT
BRANCH   1   9
ATOM      9  O   UNL d   1       1.467  -2.333   0.042  0.00  0.00    -0.290 OA
BRANCH   9  10
ATOM     10  C   UNL d   1       1.098  -3.648  -0.113  0.00  0.00     0.078 A 
ATOM     11  C   UNL d   1       0.043  -4.052  -0.931  0.00  0.00     0.040 A 
ATOM     12  C   UNL d   1      -0.335  -5.396  -0.975  0.00  0.00     0.039 A 
ATOM     13  C   UNL d   1       0.381  -6.350  -0.251  0.00  0.00     0.068 A 
ATOM     14  C   UNL d   1       1.499  -5.950   0.487  0.00  0.00     0.039 A 
ATOM     15  C   UNL d   1       1.857  -4.602   0.559  0.00  0.00     0.040 A 
BRANCH  13  16
ATOM     16  O   UNL d   1       0.093  -7.685  -0.191  0.00  0.00    -0.356 OA
ATOM     17  C   UNL d   1      -1.119  -8.100  -0.812  0.00  0.00     0.210 C 
ENDBRANCH  13  16
ENDBRANCH   9  10
ENDBRANCH   1   9
BRANCH   2  18
ATOM     18  N   UNL d   1      -1.588  -2.203   1.041  0.00  0.00    -0.109 N 
ATOM     19  O   UNL d   1      -1.206  -2.692   2.110  0.00  0.00    -0.532 OA
ATOM     20  O   UNL d   1      -2.642  -2.469   0.446  0.00  0.00    -0.532 OA
ENDBRANCH   2  18
TORSDOF 4
