REMARK  4 active torsions:
REMARK  status: ('A' for Active; 'I' for Inactive)
REMARK    1  A    between atoms: C_5  and  C_1 
REMARK    2  A    between atoms: N_8  and  C_2 
REMARK       I    between atoms: C_9  and  N_8 
REMARK    3  A    between atoms: O_18  and  C_9 
REMARK    4  A    between atoms: N_11  and  O_18 
ROOT
ATOM      1  C   UNL d   1      -1.000  -0.341  -0.935  0.00  0.00     0.098 A 
ATOM      2  C   UNL d   1      -0.231  -1.243  -0.127  0.00  0.00     0.098 A 
ATOM      3  N   UNL d   1      -1.689   0.515  -0.169  0.00  0.00    -0.258 N 
ATOM      4  HN  UNL d   1      -2.284   1.281  -0.485  1.00  0.00     0.195 HD
ATOM      5  C   UNL d   1      -0.607  -0.933   1.160  0.00  0.00     0.101 A 
ATOM      6  O   UNL d   1      -1.431   0.150   1.132  0.00  0.00    -0.240 OA
ATOM      7  C   UNL d   1      -0.415  -1.515   2.506  0.00  0.00     0.081 C 
ENDROOT
BRANCH   2   8
ATOM      8  N   UNL d   1       0.616  -2.222  -0.623  0.00  0.00    -0.297 N 
ATOM      9  C   UNL d   1       1.517  -2.995   0.054  0.00  0.00     0.387 C 
ATOM     10  O   UNL d   1       1.779  -2.948   1.249  0.00  0.00    -0.236 OA
ATOM     11  H   UNL d   1       0.601  -2.382  -1.620  0.00  0.00     0.171 HD
BRANCH   9  12
ATOM     12  O   UNL d   1       2.112  -3.831  -0.863  0.00  0.00    -0.181 OA
BRANCH  12  13
ATOM     13  N   UNL d   1       2.719  -4.930  -0.233  0.00  0.00    -0.263 N 
ATOM     14  C   UNL d   1       3.413  -5.652  -1.063  0.00  0.00     0.029 C 
ATOM     15  C   UNL d   1       3.954  -6.970  -0.550  0.00  0.00     0.130 C 
ATOM     16  C   UNL d   1       3.646  -5.335  -2.527  0.00  0.00     0.130 C 
ATOM     17  S   UNL d   1       5.760  -7.004  -0.570  0.00  0.00    -0.148 SA
ATOM     18  C   UNL d   1       6.077  -6.723  -2.337  0.00  0.00     0.105 C 
ATOM     19  S   UNL d   1       5.412  -5.117  -2.883  0.00  0.00    -0.148 SA
ATOM     20  C   UNL d   1       5.620  -7.882  -3.218  0.00  0.00     0.033 C 
ATOM     21  HN  UNL d   1       2.625  -5.138   0.761  1.00  0.00     0.194 HD
ENDBRANCH  12  13
ENDBRANCH   9  12
ENDBRANCH   2   8
BRANCH   1  22
ATOM     22  C   UNL d   1      -1.113  -0.299  -2.392  0.00  0.00     0.038 A 
ATOM     23  C   UNL d   1      -1.662  -1.386  -3.102  0.00  0.00     0.048 A 
ATOM     24 CL   UNL d   1      -2.213  -2.836  -2.326  0.00  0.00    -0.083 Cl
ATOM     25  C   UNL d   1      -1.790  -1.347  -4.495  0.00  0.00     0.025 A 
ATOM     26  C   UNL d   1      -1.387  -0.220  -5.204  0.00  0.00     0.003 A 
ATOM     27  C   UNL d   1      -0.839   0.863  -4.521  0.00  0.00     0.025 A 
ATOM     28  C   UNL d   1      -0.693   0.825  -3.127  0.00  0.00     0.048 A 
ATOM     29 CL   UNL d   1       0.066   2.196  -2.390  0.00  0.00    -0.083 Cl
ENDBRANCH   1  22
TORSDOF 4
