REMARK  4 active torsions:
REMARK  status: ('A' for Active; 'I' for Inactive)
REMARK    1  A    between atoms: C_7  and  C_2 
REMARK    2  A    between atoms: C_9  and  C_3 
REMARK    3  A    between atoms: C_4  and  C_8 
REMARK    4  A    between atoms: O_15  and  C_7 
ROOT
ATOM      1  C   UNL d   1      -0.979  -4.627   1.005  0.00  0.00     0.048 A 
ATOM      2  C   UNL d   1      -0.805  -2.406  -0.019  0.00  0.00    -0.002 A 
ATOM      3  C   UNL d   1      -0.488  -3.309   1.008  0.00  0.00     0.030 A 
ATOM      4  C   UNL d   1      -1.821  -5.034  -0.038  0.00  0.00     0.016 A 
ATOM      5  C   UNL d   1      -1.665  -2.839  -1.039  0.00  0.00     0.014 A 
ATOM      6  C   UNL d   1      -2.169  -4.142  -1.050  0.00  0.00     0.002 A 
ENDROOT
BRANCH   2   7
ATOM      7  C   UNL d   1      -0.218  -1.068  -0.061  0.00  0.00     0.086 A 
ATOM      8  O   UNL d   1       0.703  -0.775   0.909  0.00  0.00    -0.303 OA
ATOM      9  C   UNL d   1       1.188   0.482   0.658  0.00  0.00     0.149 A 
ATOM     10  C   UNL d   1       0.567   1.001  -0.459  0.00  0.00     0.047 A 
ATOM     11  C   UNL d   1      -0.339   0.013  -0.914  0.00  0.00     0.041 A 
BRANCH   9  12
ATOM     12  C   UNL d   1       2.207   1.026   1.523  0.00  0.00     0.201 C 
ATOM     13  O   UNL d   1       2.741   2.117   1.407  0.00  0.00    -0.645 OA
BRANCH  12  14
ATOM     14  O   UNL d   1       2.522   0.155   2.518  0.00  0.00    -0.771 OA
ATOM     15  H   UNL d   1       1.985  -0.660   2.429  0.00  0.00     0.167 HD
ENDBRANCH  12  14
ENDBRANCH   9  12
ENDBRANCH   2   7
BRANCH   1  16
ATOM     16  C   UNL d   1      -0.586  -5.605   2.085  0.00  0.00     0.417 C 
ATOM     17  F   UNL d   1       0.239  -5.069   3.028  0.00  0.00    -0.166 F 
ATOM     18  F   UNL d   1      -1.660  -6.095   2.763  0.00  0.00    -0.166 F 
ATOM     19  F   UNL d   1       0.072  -6.689   1.588  0.00  0.00    -0.166 F 
ENDBRANCH   1  16
TORSDOF 4
