REMARK  5 active torsions:
REMARK  status: ('A' for Active; 'I' for Inactive)
REMARK    1  A    between atoms: C_4  and  C_3 
REMARK       I    between atoms: C_9  and  N_7 
REMARK    2  A    between atoms: C_15  and  N_8 
REMARK       I    between atoms: N_18  and  C_9 
REMARK    3  A    between atoms: C_25  and  N_18 
REMARK    4  A    between atoms: C_26  and  C_25 
REMARK    5  A    between atoms: C_27  and  C_26 
ROOT
ATOM      1  N   UNL d   1       0.946   0.504   1.248  0.00  0.00    -0.288 N 
ATOM      2  HN  UNL d   1       1.431   1.024   1.979  1.00  0.00     0.188 HD
ATOM      3  C   UNL d   1       1.387   0.509   0.015  0.00  0.00     0.127 A 
ATOM      4  N   UNL d   1      -0.198  -0.227   1.537  0.00  0.00    -0.267 N 
ATOM      5  C   UNL d   1       0.618  -0.225  -1.095  0.00  0.00     0.203 A 
ATOM      6  C   UNL d   1      -0.567  -0.991  -0.714  0.00  0.00     0.076 A 
ATOM      7  C   UNL d   1      -0.891  -0.931   0.572  0.00  0.00     0.120 A 
ATOM      8  O   UNL d   1       0.935  -0.173  -2.276  0.00  0.00    -0.286 OA
ENDROOT
BRANCH   3   9
ATOM      9  C   UNL d   1       2.635   1.243  -0.318  0.00  0.00     0.082 A 
ATOM     10  N   UNL d   1       3.315   2.028   0.557  0.00  0.00    -0.288 N 
ATOM     11  N   UNL d   1       4.320   2.596  -0.189  0.00  0.00    -0.217 N 
ATOM     12  HN  UNL d   1       3.123   2.165   1.549  1.00  0.00     0.188 HD
ATOM     13  C   UNL d   1       5.243   3.536   0.332  0.00  0.00     0.341 C 
ATOM     14  C   UNL d   1       4.329   2.126  -1.478  0.00  0.00     0.124 A 
ATOM     15  O   UNL d   1       6.012   4.116  -0.424  0.00  0.00    -0.245 OA
ATOM     16  N   UNL d   1       5.186   3.638   1.700  0.00  0.00    -0.341 N 
ATOM     17  H   UNL d   1       4.533   3.022   2.184  0.00  0.00     0.164 HD
ATOM     18  C   UNL d   1       3.299   1.233  -1.579  0.00  0.00     0.053 A 
BRANCH  16  19
ATOM     19  C   UNL d   1       6.170   4.413   2.427  0.00  0.00     0.124 C 
BRANCH  19  20
ATOM     20  C   UNL d   1       5.534   5.544   3.226  0.00  0.00     0.019 C 
BRANCH  20  21
ATOM     21  C   UNL d   1       4.752   5.018   4.431  0.00  0.00    -0.003 C 
ATOM     22  C   UNL d   1       4.104   6.151   5.210  0.00  0.00     0.005 C 
ENDBRANCH  20  21
ENDBRANCH  19  20
ENDBRANCH  16  19
ENDBRANCH   3   9
BRANCH   4  23
ATOM     23  C   UNL d   1      -0.652  -0.181   2.895  0.00  0.00     0.056 A 
ATOM     24  C   UNL d   1      -0.452   0.963   3.687  0.00  0.00     0.034 A 
ATOM     25  C   UNL d   1      -0.964   1.042   4.987  0.00  0.00     0.044 A 
ATOM     26  C   UNL d   1      -1.668  -0.034   5.516  0.00  0.00     0.116 A 
ATOM     27  C   UNL d   1      -1.858  -1.192   4.777  0.00  0.00     0.044 A 
ATOM     28  F   UNL d   1      -2.166   0.045   6.757  0.00  0.00    -0.206 F 
ATOM     29  C   UNL d   1      -1.351  -1.264   3.477  0.00  0.00     0.034 A 
ENDBRANCH   4  23
TORSDOF 5
