REMARK  5 active torsions:
REMARK  status: ('A' for Active; 'I' for Inactive)
REMARK    1  A    between atoms: C_4  and  C_1 
REMARK       I    between atoms: N_9  and  C_4 
REMARK    2  A    between atoms: C_10  and  C_5 
REMARK    3  A    between atoms: C_6  and  C_10 
REMARK    4  A    between atoms: C_15  and  N_9 
REMARK    5  A    between atoms: C_20  and  C_14 
ROOT
ATOM      1  C   UNL d   1       1.227   0.819  -0.152  0.00  0.00     0.108 A 
ATOM      2  N   UNL d   1       0.032   1.322  -0.681  0.00  0.00    -0.349 N 
ATOM      3  HN  UNL d   1      -0.132   2.295  -0.938  1.00  0.00     0.166 HD
ATOM      4  C   UNL d   1      -0.851   0.345  -0.797  0.00  0.00     0.055 A 
ATOM      5  C   UNL d   1       1.174  -0.514   0.211  0.00  0.00     0.086 A 
ATOM      6  S   UNL d   1      -0.344  -1.181  -0.179  0.00  0.00    -0.086 SA
ENDROOT
BRANCH   1   7
ATOM      7  C   UNL d   1       2.450   1.621  -0.033  0.00  0.00     0.273 C 
ATOM      8  N   UNL d   1       2.232   2.985  -0.122  0.00  0.00    -0.322 N 
ATOM      9  H   UNL d   1       1.261   3.276  -0.076  0.00  0.00     0.169 HD
ATOM     10  O   UNL d   1       3.540   1.084   0.152  0.00  0.00    -0.266 OA
BRANCH   8  11
ATOM     11  C   UNL d   1       3.223   3.976  -0.259  0.00  0.00     0.035 A 
ATOM     12  C   UNL d   1       4.517   3.691  -0.700  0.00  0.00     0.030 A 
ATOM     13  C   UNL d   1       5.436   4.719  -0.932  0.00  0.00     0.010 A 
ATOM     14  C   UNL d   1       5.092   6.057  -0.708  0.00  0.00    -0.055 A 
ATOM     15  C   UNL d   1       3.808   6.336  -0.219  0.00  0.00     0.010 A 
ATOM     16  C   UNL d   1       2.877   5.307  -0.012  0.00  0.00     0.030 A 
BRANCH  14  17
ATOM     17  C   UNL d   1       6.048   7.187  -1.049  0.00  0.00     0.010 C 
ATOM     18  C   UNL d   1       7.394   7.059  -0.331  0.00  0.00     0.015 C 
ATOM     19  C   UNL d   1       6.252   7.272  -2.566  0.00  0.00     0.015 C 
ENDBRANCH  14  17
ENDBRANCH   8  11
ENDBRANCH   1   7
BRANCH   4  20
ATOM     20  C   UNL d   1      -2.206   0.472  -1.445  0.00  0.00     0.107 C 
BRANCH  20  21
ATOM     21  C   UNL d   1      -3.256   1.031  -0.506  0.00  0.00    -0.009 A 
ATOM     22  C   UNL d   1      -3.450   2.420  -0.378  0.00  0.00     0.042 A 
ATOM     23 CL   UNL d   1      -2.588   3.569  -1.344  0.00  0.00    -0.084 Cl
ATOM     24  C   UNL d   1      -4.367   2.940   0.543  0.00  0.00     0.024 A 
ATOM     25  C   UNL d   1      -5.105   2.089   1.359  0.00  0.00     0.003 A 
ATOM     26  C   UNL d   1      -4.940   0.714   1.240  0.00  0.00     0.024 A 
ATOM     27  C   UNL d   1      -4.033   0.188   0.314  0.00  0.00     0.042 A 
ATOM     28 CL   UNL d   1      -3.941  -1.538   0.226  0.00  0.00    -0.084 Cl
ENDBRANCH  20  21
ENDBRANCH   4  20
TORSDOF 5
