REMARK  10 active torsions:
REMARK  status: ('A' for Active; 'I' for Inactive)
REMARK    1  A    between atoms: C_3  and  C_1 
REMARK    2  A    between atoms: N_4  and  C_2 
REMARK    3  A    between atoms: O_16  and  C_3 
REMARK       I    between atoms: C_7  and  N_8 
REMARK    4  A    between atoms: C_18  and  C_7 
REMARK    5  A    between atoms: N_8  and  C_10 
REMARK    6  A    between atoms: C_9  and  C_19 
REMARK    7  A    between atoms: O_17  and  C_9 
REMARK    8  A    between atoms: S_14  and  C_18 
REMARK    9  A    between atoms: C_19  and  S_14 
REMARK   10  A    between atoms: C_22  and  O_16 
ROOT
ATOM      1  C   UNL d   1       1.458  -0.247   0.058  0.00  0.00     0.068 A 
ATOM      2  C   UNL d   1       0.613  -1.378   0.018  0.00  0.00     0.046 A 
ATOM      3  C   UNL d   1       0.910   1.058   0.043  0.00  0.00     0.049 A 
ATOM      4  C   UNL d   1      -0.769  -1.121  -0.123  0.00  0.00     0.032 A 
ATOM      5  C   UNL d   1      -0.464   1.280  -0.011  0.00  0.00     0.035 A 
ATOM      6  C   UNL d   1      -1.303   0.176  -0.123  0.00  0.00     0.032 A 
ENDROOT
BRANCH   5   7
ATOM      7  N   UNL d   1      -1.052   2.563   0.081  0.00  0.00    -0.327 N 
ATOM      8  C   UNL d   1      -0.390   3.776   0.089  0.00  0.00     0.231 C 
ATOM      9  O   UNL d   1       0.816   3.953  -0.102  0.00  0.00    -0.272 OA
ATOM     10  H   UNL d   1      -2.061   2.579   0.185  0.00  0.00     0.169 HD
BRANCH   8  11
ATOM     11  C   UNL d   1      -1.260   4.977   0.419  0.00  0.00     0.177 C 
BRANCH  11  12
ATOM     12  S   UNL d   1      -1.135   5.389   2.192  0.00  0.00    -0.149 SA
BRANCH  12  13
ATOM     13  C   UNL d   1       0.668   5.616   2.398  0.00  0.00     0.184 C 
BRANCH  13  14
ATOM     14  C   UNL d   1       1.225   6.733   1.542  0.00  0.00     0.149 C 
ATOM     15  O   UNL d   1       1.209   7.912   1.863  0.00  0.00    -0.649 OA
BRANCH  14  16
ATOM     16  O   UNL d   1       1.742   6.323   0.360  0.00  0.00    -0.776 OA
ATOM     17  H   UNL d   1       1.659   5.354   0.181  0.00  0.00     0.167 HD
ENDBRANCH  14  16
ENDBRANCH  13  14
ENDBRANCH  12  13
ENDBRANCH  11  12
ENDBRANCH   8  11
ENDBRANCH   5   7
BRANCH   1  18
ATOM     18  C   UNL d   1       2.947  -0.330   0.029  0.00  0.00     0.295 C 
ATOM     19  O   UNL d   1       3.594  -1.160  -0.591  0.00  0.00    -0.259 OA
BRANCH  18  20
ATOM     20  O   UNL d   1       3.475   0.670   0.786  0.00  0.00    -0.318 OA
BRANCH  20  21
ATOM     21  C   UNL d   1       4.907   0.716   0.895  0.00  0.00     0.174 C 
ATOM     22  C   UNL d   1       5.568   1.222  -0.377  0.00  0.00     0.034 C 
ENDBRANCH  20  21
ENDBRANCH  18  20
ENDBRANCH   1  18
BRANCH   2  23
ATOM     23  N   UNL d   1       0.973  -2.710   0.228  0.00  0.00    -0.380 N 
ATOM     24  C   UNL d   1       2.080  -3.047   1.127  0.00  0.00     0.123 C 
ATOM     25  C   UNL d   1       1.807  -4.408   1.764  0.00  0.00     0.020 C 
ATOM     26  C   UNL d   1       1.596  -5.474   0.692  0.00  0.00     0.003 C 
ATOM     27  C   UNL d   1       0.491  -5.055  -0.278  0.00  0.00     0.020 C 
ATOM     28  C   UNL d   1       0.750  -3.663  -0.868  0.00  0.00     0.123 C 
ENDBRANCH   2  23
TORSDOF 10
