REMARK  6 active torsions:
REMARK  status: ('A' for Active; 'I' for Inactive)
REMARK    1  A    between atoms: N_2  and  C_1 
REMARK    2  A    between atoms: C_3  and  C_1 
REMARK    3  A    between atoms: C_4  and  C_1 
REMARK    4  A    between atoms: N_6  and  C_1 
REMARK       I    between atoms: C_5  and  N_2 
REMARK    5  A    between atoms: C_8  and  C_5 
REMARK    6  A    between atoms: C_15  and  N_6 
ROOT
ATOM      1  C   UNL d   1       0.884  -0.121   0.005  0.00  0.00     0.306 C 
ENDROOT
BRANCH   1   2
ATOM      2  N   UNL d   1       0.399  -0.136   1.415  0.00  0.00    -0.315 N 
ATOM      3  C   UNL d   1       0.539  -1.185   2.275  0.00  0.00     0.254 C 
ATOM      4  O   UNL d   1       1.123  -2.225   1.945  0.00  0.00    -0.268 OA
ATOM      5  H   UNL d   1       0.108   0.766   1.779  0.00  0.00     0.165 HD
BRANCH   3   6
ATOM      6  C   UNL d   1      -0.037  -1.030   3.648  0.00  0.00     0.032 A 
ATOM      7  C   UNL d   1      -0.950  -0.018   3.979  0.00  0.00     0.017 A 
ATOM      8  C   UNL d   1      -1.465   0.074   5.279  0.00  0.00     0.001 A 
ATOM      9  C   UNL d   1      -1.086  -0.852   6.249  0.00  0.00     0.000 A 
ATOM     10  C   UNL d   1      -0.195  -1.872   5.923  0.00  0.00     0.001 A 
ATOM     11  C   UNL d   1       0.326  -1.962   4.630  0.00  0.00     0.017 A 
ENDBRANCH   3   6
ENDBRANCH   1   2
BRANCH   1  12
ATOM     12  C   UNL d   1       0.191   1.035  -0.795  0.00  0.00     0.441 C 
ATOM     13  F   UNL d   1      -0.368   1.927   0.085  0.00  0.00    -0.166 F 
ATOM     14  F   UNL d   1       1.058   1.754  -1.546  0.00  0.00    -0.166 F 
ATOM     15  F   UNL d   1      -0.823   0.656  -1.599  0.00  0.00    -0.166 F 
ENDBRANCH   1  12
BRANCH   1  16
ATOM     16  C   UNL d   1       0.533  -1.431  -0.797  0.00  0.00     0.441 C 
ATOM     17  F   UNL d   1      -0.587  -2.032  -0.327  0.00  0.00    -0.166 F 
ATOM     18  F   UNL d   1       0.345  -1.228  -2.122  0.00  0.00    -0.166 F 
ATOM     19  F   UNL d   1       1.544  -2.340  -0.716  0.00  0.00    -0.166 F 
ENDBRANCH   1  16
BRANCH   1  20
ATOM     20  N   UNL d   1       2.372   0.033   0.107  0.00  0.00    -0.349 N 
ATOM     21  H   UNL d   1       2.829  -0.881   0.164  0.00  0.00     0.162 HD
BRANCH  20  22
ATOM     22  C   UNL d   1       3.115   1.056   0.659  0.00  0.00     0.030 A 
ATOM     23  C   UNL d   1       2.583   2.222   1.218  0.00  0.00     0.032 A 
ATOM     24  C   UNL d   1       3.410   3.245   1.697  0.00  0.00     0.044 A 
ATOM     25  C   UNL d   1       4.785   3.128   1.582  0.00  0.00     0.116 A 
ATOM     26  C   UNL d   1       5.349   2.007   1.001  0.00  0.00     0.044 A 
ATOM     27  F   UNL d   1       5.573   4.116   2.028  0.00  0.00    -0.206 F 
ATOM     28  C   UNL d   1       4.516   0.982   0.541  0.00  0.00     0.032 A 
ENDBRANCH  20  22
ENDBRANCH   1  20
TORSDOF 6
