REMARK  4 active torsions:
REMARK  status: ('A' for Active; 'I' for Inactive)
REMARK    1  A    between atoms: C_7  and  C_1 
REMARK    2  A    between atoms: N_8  and  C_4 
REMARK    3  A    between atoms: S_10  and  C_5 
REMARK    4  A    between atoms: O_11  and  C_7 
ROOT
ATOM      1  C   UNL d   1      -0.112   1.131  -0.007  0.00  0.00     0.126 A 
ATOM      2  N   UNL d   1      -0.633  -1.151   0.000  0.00  0.00    -0.330 N 
ATOM      3  HN  UNL d   1      -1.228  -1.979   0.004  1.00  0.00     0.168 HD
ATOM      4  C   UNL d   1      -1.075   0.143  -0.001  0.00  0.00     0.123 A 
ATOM      5  C   UNL d   1       0.680  -1.159  -0.004  0.00  0.00     0.114 A 
ATOM      6  S   UNL d   1       1.437   0.377  -0.011  0.00  0.00    -0.055 SA
ENDROOT
BRANCH   1   7
ATOM      7  C   UNL d   1      -0.207   2.571  -0.011  0.00  0.00     0.303 C 
ATOM      8  O   UNL d   1       0.731   3.361  -0.014  0.00  0.00    -0.259 OA
BRANCH   7   9
ATOM      9  O   UNL d   1      -1.520   2.961  -0.011  0.00  0.00    -0.322 OA
ATOM     10  C   UNL d   1      -1.717   4.376  -0.015  0.00  0.00     0.213 C 
ENDBRANCH   7   9
ENDBRANCH   1   7
BRANCH   4  11
ATOM     11  N   UNL d   1      -2.400   0.315   0.005  0.00  0.00    -0.384 N 
ATOM     12  H   UNL d   1      -3.021  -0.485   0.001  0.00  0.00     0.157 HD
ATOM     13  H   UNL d   1      -2.842   1.229  -0.003  0.00  0.00     0.157 HD
ENDBRANCH   4  11
BRANCH   5  14
ATOM     14  S   UNL d   1       1.597  -2.652  -0.004  0.00  0.00    -0.109 SA
ATOM     15  C   UNL d   1       0.260  -3.867   0.002  0.00  0.00     0.097 C 
ENDBRANCH   5  14
TORSDOF 4
