REMARK  2 active torsions:
REMARK  status: ('A' for Active; 'I' for Inactive)
REMARK    1  A    between atoms: S_8  and  C_1 
REMARK    2  A    between atoms: O_16  and  C_9 
ROOT
ATOM      1  C   UNL d   1      -2.535   0.387  -0.030  0.00  0.00     0.232 A 
ATOM      2  N   UNL d   1      -0.736  -0.711  -0.013  0.00  0.00    -0.061 N 
ATOM      3  C   UNL d   1      -0.437   0.659  -0.020  0.00  0.00     0.708 A 
ATOM      4  N   UNL d   1      -1.554   1.352  -0.030  0.00  0.00    -0.163 N 
ATOM      5  HN  UNL d   1      -1.667   2.366  -0.035  1.00  0.00     0.186 HD
ATOM      6  N   UNL d   1      -2.082  -0.877  -0.017  0.00  0.00    -0.252 N 
ATOM      7  HN  UNL d   1      -2.616  -1.746  -0.012  1.00  0.00     0.190 HD
ATOM      8  C   UNL d   1       0.283  -1.683  -0.007  0.00  0.00     0.183 A 
ATOM      9  N   UNL d   1       0.848   1.117  -0.021  0.00  0.00    -0.194 N 
ATOM     10  HN  UNL d   1       1.062   2.114  -0.027  1.00  0.00     0.184 HD
ATOM     11  C   UNL d   1       1.562  -1.262  -0.006  0.00  0.00     0.083 A 
ATOM     12  C   UNL d   1       1.784   0.217  -0.016  0.00  0.00     0.027 A 
ATOM     13  C   UNL d   1       3.224   0.670  -0.025  0.00  0.00     0.069 C 
ENDROOT
BRANCH   1  14
ATOM     14  S   UNL d   1      -4.240   0.800  -0.055  0.00  0.00     0.205 S 
ATOM     15  O   UNL d   1      -4.739   0.312  -1.328  0.00  0.00    -0.220 OA
ATOM     16  O   UNL d   1      -4.770   0.344   1.217  0.00  0.00    -0.220 OA
ATOM     17  C   UNL d   1      -4.266   2.571  -0.079  0.00  0.00     0.170 C 
ENDBRANCH   1  14
BRANCH   8  18
ATOM     18  O   UNL d   1      -0.118  -3.007  -0.004  0.00  0.00    -0.339 OA
ATOM     19  C   UNL d   1       0.883  -4.017  -0.004  0.00  0.00     0.211 C 
ENDBRANCH   8  18
TORSDOF 2
