REMARK  4 active torsions:
REMARK  status: ('A' for Active; 'I' for Inactive)
REMARK    1  A    between atoms: C_2  and  S_1 
REMARK    2  A    between atoms: N_3  and  S_1 
REMARK    3  A    between atoms: C_12  and  N_6 
REMARK    4  A    between atoms: O_21  and  C_17 
ROOT
ATOM      1  N   UNL d   1       0.546   1.135  -0.406  0.00  0.00    -0.203 NA
ATOM      2  N   UNL d   1      -1.109   2.912   1.241  0.00  0.00    -0.376 N 
ATOM      3  C   UNL d   1       1.016   2.515  -0.042  0.00  0.00     0.127 C 
ATOM      4  C   UNL d   1      -0.949   1.121  -0.473  0.00  0.00     0.127 C 
ATOM      5  C   UNL d   1       0.372   3.040   1.274  0.00  0.00     0.138 C 
ATOM      6  C   UNL d   1      -1.568   1.554   0.863  0.00  0.00     0.138 C 
ENDROOT
BRANCH   1   7
ATOM      7  S   UNL d   1       1.246  -0.165   0.436  0.00  0.00     0.245 S 
ATOM      8  O   UNL d   1       1.932   0.374   1.593  0.00  0.00    -0.206 OA
ATOM      9  O   UNL d   1       0.280  -1.228   0.583  0.00  0.00    -0.206 OA
BRANCH   7  10
ATOM     10  C   UNL d   1       2.501  -0.783  -0.664  0.00  0.00     0.098 A 
ATOM     11  C   UNL d   1       3.812  -0.880  -0.170  0.00  0.00     0.052 A 
ATOM     12  C   UNL d   1       4.799  -1.544  -0.905  0.00  0.00     0.057 A 
ATOM     13 CL   UNL d   1       6.375  -1.667  -0.211  0.00  0.00    -0.083 Cl
ATOM     14  C   UNL d   1       4.481  -2.108  -2.144  0.00  0.00     0.057 A 
ATOM     15  C   UNL d   1       3.186  -1.985  -2.648  0.00  0.00     0.051 A 
ATOM     16 CL   UNL d   1       5.631  -2.989  -3.085  0.00  0.00    -0.082 Cl
ATOM     17  C   UNL d   1       2.187  -1.329  -1.911  0.00  0.00     0.058 A 
ATOM     18 CL   UNL d   1       0.624  -1.265  -2.636  0.00  0.00    -0.083 Cl
ENDBRANCH   7  10
ENDBRANCH   1   7
BRANCH   2  19
ATOM     19  C   UNL d   1      -1.858   3.602   2.222  0.00  0.00     0.064 A 
ATOM     20  C   UNL d   1      -1.745   5.000   2.450  0.00  0.00     0.094 A 
ATOM     21  C   UNL d   1      -2.650   5.663   3.306  0.00  0.00     0.039 A 
ATOM     22  C   UNL d   1      -3.642   4.966   3.988  0.00  0.00     0.003 A 
ATOM     23  C   UNL d   1      -3.730   3.594   3.837  0.00  0.00     0.002 A 
ATOM     24  C   UNL d   1      -2.852   2.931   2.974  0.00  0.00     0.032 A 
BRANCH  20  25
ATOM     25  O   UNL d   1      -0.797   5.710   1.746  0.00  0.00    -0.354 OA
ATOM     26  C   UNL d   1      -0.322   6.899   2.376  0.00  0.00     0.210 C 
ENDBRANCH  20  25
ENDBRANCH   2  19
TORSDOF 4
