REMARK  6 active torsions:
REMARK  status: ('A' for Active; 'I' for Inactive)
REMARK    1  A    between atoms: N_3  and  C_18 
REMARK    2  A    between atoms: C_17  and  N_4 
REMARK    3  A    between atoms: C_24  and  C_17 
REMARK    4  A    between atoms: C_18  and  C_23 
REMARK    5  A    between atoms: C_23  and  C_27 
REMARK    6  A    between atoms: C_27  and  C_24 
ROOT
ATOM      1  C   UNL d   1       3.403  -4.393   0.048  0.00  0.00     0.003 C 
ENDROOT
BRANCH   1   2
ATOM      2  C   UNL d   1       3.009  -5.873  -0.001  0.00  0.00     0.021 C 
BRANCH   2   3
ATOM      3  C   UNL d   1       2.170  -6.210  -1.231  0.00  0.00     0.145 C 
BRANCH   3   4
ATOM      4  N   UNL d   1       1.693  -7.585  -1.158  0.00  0.00    -0.237 N 
ATOM      5  S   UNL d   1       2.564  -8.805  -1.913  0.00  0.00     0.268 S 
ATOM      6  C   UNL d   1       1.360 -10.006  -1.553  0.00  0.00     0.095 A 
ATOM      7  O   UNL d   1       2.574  -8.573  -3.338  0.00  0.00    -0.200 OA
ATOM      8  O   UNL d   1       3.749  -9.091  -1.142  0.00  0.00    -0.200 OA
ATOM      9  C   UNL d   1       1.413 -11.347  -1.880  0.00  0.00     0.026 A 
ATOM     10  C   UNL d   1       0.288  -9.443  -0.873  0.00  0.00     0.056 A 
ATOM     11  C   UNL d   1       0.328 -12.139  -1.499  0.00  0.00     0.002 A 
ATOM     12  C   UNL d   1      -0.770 -11.579  -0.816  0.00  0.00     0.001 A 
ATOM     13  C   UNL d   1      -0.797 -10.218  -0.497  0.00  0.00     0.018 A 
ATOM     14  C   UNL d   1       0.458  -8.002  -0.619  0.00  0.00     0.269 A 
ATOM     15  O   UNL d   1      -0.342  -7.296  -0.038  0.00  0.00    -0.266 OA
ENDBRANCH   3   4
ENDBRANCH   2   3
ENDBRANCH   1   2
BRANCH   1  16
ATOM     16  C   UNL d   1       2.216  -3.426   0.055  0.00  0.00     0.021 C 
BRANCH  16  17
ATOM     17  C   UNL d   1       1.266  -3.670   1.226  0.00  0.00     0.145 C 
BRANCH  17  18
ATOM     18  N   UNL d   1       0.127  -2.765   1.138  0.00  0.00    -0.237 N 
ATOM     19  S   UNL d   1      -0.156  -1.695   2.401  0.00  0.00     0.268 S 
ATOM     20  C   UNL d   1      -1.625  -1.103   1.686  0.00  0.00     0.095 A 
ATOM     21  O   UNL d   1      -0.486  -2.435   3.591  0.00  0.00    -0.200 OA
ATOM     22  O   UNL d   1       0.839  -0.649   2.356  0.00  0.00    -0.200 OA
ATOM     23  C   UNL d   1      -1.899  -1.767   0.498  0.00  0.00     0.056 A 
ATOM     24  C   UNL d   1      -2.440  -0.107   2.189  0.00  0.00     0.026 A 
ATOM     25  C   UNL d   1      -3.024  -1.448  -0.245  0.00  0.00     0.018 A 
ATOM     26  C   UNL d   1      -0.887  -2.780   0.154  0.00  0.00     0.269 A 
ATOM     27  C   UNL d   1      -3.865  -0.442   0.240  0.00  0.00     0.001 A 
ATOM     28  C   UNL d   1      -3.576   0.221   1.448  0.00  0.00     0.002 A 
ATOM     29  O   UNL d   1      -0.920  -3.495  -0.829  0.00  0.00    -0.266 OA
ENDBRANCH  17  18
ENDBRANCH  16  17
ENDBRANCH   1  16
TORSDOF 6
