REMARK  4 active torsions:
REMARK  status: ('A' for Active; 'I' for Inactive)
REMARK    1  A    between atoms: C_9  and  C_1 
REMARK    2  A    between atoms: N_8  and  C_2 
REMARK    3  A    between atoms: C_10  and  C_4 
REMARK    4  A    between atoms: C_6  and  C_7 
REMARK       I    between atoms: C_7  and  N_8 
ROOT
ATOM      1  C   UNL d   1       0.088   1.191  -0.103  0.00  0.00     0.077 A 
ATOM      2  C   UNL d   1       1.402   0.740  -0.168  0.00  0.00     0.057 A 
ATOM      3  S   UNL d   1      -1.014  -0.143  -0.043  0.00  0.00    -0.084 SA
ATOM      4  C   UNL d   1       0.220  -1.316  -0.083  0.00  0.00     0.018 A 
ATOM      5  C   UNL d   1       1.448  -0.698  -0.184  0.00  0.00     0.051 A 
ENDROOT
BRANCH   2   6
ATOM      6  N   UNL d   1       2.620   1.414  -0.189  0.00  0.00    -0.318 N 
ATOM      7  C   UNL d   1       2.908   2.713   0.198  0.00  0.00     0.330 C 
ATOM      8  O   UNL d   1       2.081   3.518   0.617  0.00  0.00    -0.263 OA
ATOM      9  H   UNL d   1       3.438   0.816  -0.332  0.00  0.00     0.169 HD
BRANCH   7  10
ATOM     10  C   UNL d   1       4.417   3.034   0.081  0.00  0.00     0.472 C 
ATOM     11  F   UNL d   1       5.123   1.934  -0.331  0.00  0.00    -0.162 F 
ATOM     12  F   UNL d   1       4.680   4.013  -0.824  0.00  0.00    -0.162 F 
ATOM     13  F   UNL d   1       4.973   3.415   1.261  0.00  0.00    -0.162 F 
ENDBRANCH   7  10
ENDBRANCH   2   6
BRANCH   1  14
ATOM     14  C   UNL d   1      -0.565   2.499  -0.112  0.00  0.00     0.164 C 
ATOM     15  O   UNL d   1      -1.546   2.757   0.591  0.00  0.00    -0.292 OA
ATOM     16  C   UNL d   1      -0.132   3.525  -1.129  0.00  0.00     0.097 C 
ENDBRANCH   1  14
BRANCH   4  17
ATOM     17  C   UNL d   1      -0.077  -2.758  -0.021  0.00  0.00    -0.019 A 
ATOM     18  C   UNL d   1       0.761  -3.679  -0.671  0.00  0.00     0.013 A 
ATOM     19  C   UNL d   1       0.517  -5.054  -0.597  0.00  0.00     0.001 A 
ATOM     20  C   UNL d   1      -0.571  -5.529   0.128  0.00  0.00     0.000 A 
ATOM     21  C   UNL d   1      -1.414  -4.635   0.778  0.00  0.00     0.001 A 
ATOM     22  C   UNL d   1      -1.167  -3.260   0.708  0.00  0.00     0.013 A 
ENDBRANCH   4  17
TORSDOF 4
