REMARK  2 active torsions:
REMARK  status: ('A' for Active; 'I' for Inactive)
REMARK    1  A    between atoms: C_7  and  N_1 
REMARK    2  A    between atoms: C_8  and  C_2 
ROOT
ATOM      1  N   UNL d   1      -0.167  -1.373  -0.083  0.00  0.00    -0.224 N 
ATOM      2  C   UNL d   1       1.059  -0.719   0.019  0.00  0.00     0.148 C 
ATOM      3  N   UNL d   1      -1.115  -0.446  -0.357  0.00  0.00     0.001 NA
ATOM      4  N   UNL d   1      -0.524   0.729  -0.217  0.00  0.00    -0.007 NA
ATOM      5  N   UNL d   1       0.814   0.580   0.026  0.00  0.00    -0.269 N 
ATOM      6  HN  UNL d   1       1.491   1.327   0.183  1.00  0.00     0.185 HD
ENDROOT
BRANCH   1   7
ATOM      7  C   UNL d   1      -0.506  -2.741   0.064  0.00  0.00     0.056 A 
ATOM      8  C   UNL d   1       0.256  -3.589   0.883  0.00  0.00     0.033 A 
ATOM      9  C   UNL d   1      -0.071  -4.946   0.979  0.00  0.00     0.026 A 
ATOM     10  C   UNL d   1      -1.153  -5.452   0.262  0.00  0.00     0.034 A 
ATOM     11  C   UNL d   1      -1.931  -4.610  -0.529  0.00  0.00     0.026 A 
ATOM     12 CL   UNL d   1      -1.530  -7.127   0.359  0.00  0.00    -0.084 Cl
ATOM     13  C   UNL d   1      -1.622  -3.249  -0.616  0.00  0.00     0.033 A 
ENDBRANCH   1   7
BRANCH   2  14
ATOM     14  C   UNL d   1       2.393  -1.321  -0.003  0.00  0.00     0.011 A 
ATOM     15  C   UNL d   1       2.697  -2.401  -0.851  0.00  0.00     0.017 A 
ATOM     16  C   UNL d   1       3.973  -2.970  -0.853  0.00  0.00     0.025 A 
ATOM     17  C   UNL d   1       4.966  -2.444  -0.034  0.00  0.00     0.034 A 
ATOM     18  C   UNL d   1       4.696  -1.347   0.782  0.00  0.00     0.025 A 
ATOM     19 CL   UNL d   1       6.536  -3.145  -0.038  0.00  0.00    -0.084 Cl
ATOM     20  C   UNL d   1       3.415  -0.785   0.795  0.00  0.00     0.017 A 
ENDBRANCH   2  14
TORSDOF 2
