REMARK  12 active torsions:
REMARK  status: ('A' for Active; 'I' for Inactive)
REMARK       I    between atoms: N_4  and  C_1 
REMARK    1  A    between atoms: O_8  and  C_1 
REMARK    2  A    between atoms: C_2  and  N_4 
REMARK    3  A    between atoms: C_3  and  C_2 
REMARK    4  A    between atoms: C_2  and  C_5 
REMARK    5  A    between atoms: C_6  and  C_3 
REMARK    6  A    between atoms: O_9  and  C_5 
REMARK       I    between atoms: N_16  and  C_6 
REMARK    7  A    between atoms: C_7  and  C_15 
REMARK    8  A    between atoms: O_20  and  C_7 
REMARK    9  A    between atoms: C_14  and  O_8 
REMARK   10  A    between atoms: C_17  and  O_9 
REMARK   11  A    between atoms: C_15  and  C_18 
REMARK   12  A    between atoms: C_19  and  C_17 
ROOT
ATOM      1  C   UNL d   1       1.101   0.485   2.265  0.00  0.00     0.195 C 
ENDROOT
BRANCH   1   2
ATOM      2  N   UNL d   1       0.392   0.278   1.002  0.00  0.00    -0.323 N 
ATOM      3  C   UNL d   1      -0.748   0.961   0.699  0.00  0.00     0.362 C 
ATOM      4  O   UNL d   1      -1.319   1.706   1.483  0.00  0.00    -0.238 OA
ATOM      5  H   UNL d   1       0.914  -0.086   0.210  0.00  0.00     0.165 HD
BRANCH   3   6
ATOM      6  O   UNL d   1      -1.135   0.682  -0.569  0.00  0.00    -0.294 OA
BRANCH   6   7
ATOM      7  C   UNL d   1      -2.370   1.241  -1.098  0.00  0.00     0.061 C 
ATOM      8  C   UNL d   1      -2.256   2.759  -1.272  0.00  0.00     0.046 C 
ATOM      9  C   UNL d   1      -2.561   0.599  -2.483  0.00  0.00     0.046 C 
ATOM     10  C   UNL d   1      -3.584   0.861  -0.238  0.00  0.00     0.046 C 
ENDBRANCH   6   7
ENDBRANCH   3   6
ENDBRANCH   1   2
BRANCH   1  11
ATOM     11  C   UNL d   1       1.898  -0.753   2.686  0.00  0.00     0.138 C 
BRANCH  11  12
ATOM     12  C   UNL d   1       3.008  -1.066   1.708  0.00  0.00     0.217 C 
ATOM     13  O   UNL d   1       2.962  -0.789   0.514  0.00  0.00    -0.274 OA
ATOM     14  N   UNL d   1       4.064  -1.753   2.228  0.00  0.00    -0.370 N 
ATOM     15  H   UNL d   1       4.219  -1.847   3.223  0.00  0.00     0.159 HD
ATOM     16  H   UNL d   1       4.844  -1.941   1.611  0.00  0.00     0.159 HD
ENDBRANCH  11  12
ENDBRANCH   1  11
BRANCH   1  17
ATOM     17  C   UNL d   1       2.034   1.710   2.294  0.00  0.00     0.282 C 
ATOM     18  O   UNL d   1       2.788   1.955   3.231  0.00  0.00    -0.263 OA
BRANCH  17  19
ATOM     19  O   UNL d   1       1.912   2.465   1.175  0.00  0.00    -0.315 OA
BRANCH  19  20
ATOM     20  C   UNL d   1       2.818   3.566   1.015  0.00  0.00     0.217 C 
BRANCH  20  21
ATOM     21  C   UNL d   1       3.729   3.308  -0.165  0.00  0.00    -0.034 A 
ATOM     22  C   UNL d   1       3.325   2.489  -1.228  0.00  0.00     0.010 A 
ATOM     23  C   UNL d   1       4.163   2.266  -2.322  0.00  0.00     0.008 A 
ATOM     24  C   UNL d   1       5.422   2.874  -2.387  0.00  0.00    -0.048 A 
ATOM     25  C   UNL d   1       5.820   3.717  -1.341  0.00  0.00     0.008 A 
ATOM     26  C   UNL d   1       4.981   3.933  -0.242  0.00  0.00     0.010 A 
BRANCH  24  27
ATOM     27  C   UNL d   1       6.314   2.638  -3.585  0.00  0.00     0.148 C 
BRANCH  27  28
ATOM     28  C   UNL d   1       7.649   1.984  -3.302  0.00  0.00     0.143 C 
ATOM     29  O   UNL d   1       8.635   2.162  -4.005  0.00  0.00    -0.650 OA
BRANCH  28  30
ATOM     30  O   UNL d   1       7.670   1.116  -2.266  0.00  0.00    -0.776 OA
ATOM     31  H   UNL d   1       6.818   1.049  -1.790  0.00  0.00     0.167 HD
ENDBRANCH  28  30
ENDBRANCH  27  28
ENDBRANCH  24  27
ENDBRANCH  20  21
ENDBRANCH  19  20
ENDBRANCH  17  19
ENDBRANCH   1  17
TORSDOF 12
