REMARK  7 active torsions:
REMARK  status: ('A' for Active; 'I' for Inactive)
REMARK    1  A    between atoms: C_7  and  C_1 
REMARK    2  A    between atoms: C_3  and  C_2 
REMARK    3  A    between atoms: N_11  and  C_6 
REMARK    4  A    between atoms: O_12  and  C_7 
REMARK    5  A    between atoms: C_17  and  N_11 
REMARK    6  A    between atoms: C_18  and  O_12 
REMARK    7  A    between atoms: C_25  and  C_18 
ROOT
ATOM      1  C   UNL d   1      -0.020  -1.437   0.017  0.00  0.00     0.087 A 
ATOM      2  C   UNL d   1       1.212  -0.817   0.067  0.00  0.00     0.150 A 
ATOM      3  N   UNL d   1       1.299   0.547   0.141  0.00  0.00    -0.185 N 
ATOM      4  HN  UNL d   1       2.211   0.996   0.225  1.00  0.00     0.184 HD
ATOM      5  C   UNL d   1       0.186   1.293   0.104  0.00  0.00     0.683 A 
ATOM      6  N   UNL d   1      -1.034   0.762   0.014  0.00  0.00    -0.201 N 
ATOM      7  HN  UNL d   1      -1.870   1.345  -0.027  1.00  0.00     0.183 HD
ATOM      8  C   UNL d   1      -1.110  -0.589  -0.020  0.00  0.00     0.126 A 
ENDROOT
BRANCH   1   9
ATOM      9  C   UNL d   1      -0.291  -2.875  -0.094  0.00  0.00     0.297 C 
ATOM     10  O   UNL d   1      -1.142  -3.308  -0.858  0.00  0.00    -0.259 OA
BRANCH   9  11
ATOM     11  O   UNL d   1       0.448  -3.583   0.780  0.00  0.00    -0.313 OA
BRANCH  11  12
ATOM     12  C   UNL d   1       0.335  -5.015   0.649  0.00  0.00     0.217 C 
BRANCH  12  13
ATOM     13  C   UNL d   1      -0.577  -5.575   1.709  0.00  0.00    -0.034 A 
ATOM     14  C   UNL d   1      -1.699  -6.340   1.359  0.00  0.00     0.009 A 
ATOM     15  C   UNL d   1      -2.530  -6.870   2.349  0.00  0.00     0.001 A 
ATOM     16  C   UNL d   1      -2.247  -6.643   3.694  0.00  0.00     0.000 A 
ATOM     17  C   UNL d   1      -1.131  -5.889   4.052  0.00  0.00     0.001 A 
ATOM     18  C   UNL d   1      -0.298  -5.360   3.065  0.00  0.00     0.009 A 
ENDBRANCH  12  13
ENDBRANCH  11  12
ENDBRANCH   9  11
ENDBRANCH   1   9
BRANCH   2  19
ATOM     19  C   UNL d   1       2.542  -1.531  -0.044  0.00  0.00     0.434 C 
ATOM     20  F   UNL d   1       2.492  -2.874  -0.250  0.00  0.00    -0.165 F 
ATOM     21  F   UNL d   1       3.287  -1.059  -1.089  0.00  0.00    -0.165 F 
ATOM     22  F   UNL d   1       3.317  -1.357   1.066  0.00  0.00    -0.165 F 
ENDBRANCH   2  19
BRANCH   5  23
ATOM     23  N   UNL d   1       0.285   2.685   0.102  0.00  0.00    -0.192 N 
ATOM     24  H   UNL d   1      -0.647   3.078   0.109  0.00  0.00     0.184 HD
BRANCH  23  25
ATOM     25  C   UNL d   1       1.235   3.464   0.788  0.00  0.00     0.049 A 
ATOM     26  C   UNL d   1       1.552   4.742   0.305  0.00  0.00     0.033 A 
ATOM     27  C   UNL d   1       2.491   5.540   0.965  0.00  0.00     0.044 A 
ATOM     28  C   UNL d   1       3.095   5.071   2.125  0.00  0.00     0.116 A 
ATOM     29  C   UNL d   1       2.777   3.822   2.638  0.00  0.00     0.044 A 
ATOM     30  F   UNL d   1       3.994   5.835   2.759  0.00  0.00    -0.206 F 
ATOM     31  C   UNL d   1       1.850   3.022   1.970  0.00  0.00     0.033 A 
ENDBRANCH  23  25
ENDBRANCH   5  23
TORSDOF 7
