REMARK  4 active torsions:
REMARK  status: ('A' for Active; 'I' for Inactive)
REMARK    1  A    between atoms: C_4  and  N_1 
REMARK    2  A    between atoms: C_2  and  S_10 
REMARK    3  A    between atoms: S_10  and  C_14 
REMARK    4  A    between atoms: C_14  and  C_16 
ROOT
ATOM      1  S   UNL d   1      -3.448   2.829   4.007  0.00  0.00    -0.125 SA
ENDROOT
BRANCH   1   2
ATOM      2  C   UNL d   1      -4.075   4.024   5.203  0.00  0.00     0.007 A 
ATOM      3  C   UNL d   1      -5.013   3.501   6.123  0.00  0.00     0.027 A 
ATOM      4  C   UNL d   1      -5.684   4.308   7.063  0.00  0.00    -0.039 A 
ATOM      5  C   UNL d   1      -6.751   3.715   7.941  0.00  0.00     0.050 C 
ATOM      6  C   UNL d   1      -5.373   5.667   7.109  0.00  0.00     0.040 A 
ATOM      7  C   UNL d   1      -4.451   6.205   6.210  0.00  0.00     0.032 A 
ATOM      8 CL   UNL d   1      -6.133   6.742   8.227  0.00  0.00    -0.084 Cl
ATOM      9  C   UNL d   1      -3.829   5.410   5.223  0.00  0.00    -0.044 A 
ATOM     10  C   UNL d   1      -2.962   6.134   4.234  0.00  0.00     0.049 C 
ENDBRANCH   1   2
BRANCH   1  11
ATOM     11  C   UNL d   1      -1.687   3.256   3.796  0.00  0.00     0.117 C 
BRANCH  11  12
ATOM     12  C   UNL d   1      -0.945   2.235   2.957  0.00  0.00    -0.048 A 
ATOM     13  C   UNL d   1      -1.003   2.294   1.552  0.00  0.00     0.010 A 
ATOM     14  C   UNL d   1      -0.280   1.392   0.765  0.00  0.00     0.036 A 
ATOM     15  C   UNL d   1       0.503   0.415   1.387  0.00  0.00     0.102 A 
ATOM     16  C   UNL d   1       0.560   0.329   2.782  0.00  0.00     0.036 A 
ATOM     17  C   UNL d   1      -0.167   1.236   3.562  0.00  0.00     0.010 A 
BRANCH  15  18
ATOM     18  N   UNL d   1       1.284  -0.522   0.566  0.00  0.00    -0.116 N 
ATOM     19  O   UNL d   1       1.972  -1.371   1.154  0.00  0.00    -0.532 OA
ATOM     20  O   UNL d   1       1.216  -0.406  -0.665  0.00  0.00    -0.532 OA
ENDBRANCH  15  18
ENDBRANCH  11  12
ENDBRANCH   1  11
TORSDOF 4
