REMARK  5 active torsions:
REMARK  status: ('A' for Active; 'I' for Inactive)
REMARK    1  A    between atoms: C_4  and  S_1 
REMARK    2  A    between atoms: C_14  and  S_1 
REMARK    3  A    between atoms: N_12  and  C_5 
REMARK    4  A    between atoms: S_13  and  C_6 
REMARK    5  A    between atoms: C_16  and  C_14 
ROOT
ATOM      1  N   UNL d   1       0.678  -3.942   0.424  0.00  0.00    -0.326 N 
ATOM      2  HN  UNL d   1       1.044  -4.776  -0.036  1.00  0.00     0.169 HD
ATOM      3  C   UNL d   1       0.539  -1.584   0.620  0.00  0.00     0.112 A 
ATOM      4  C   UNL d   1       1.001  -2.714  -0.011  0.00  0.00     0.102 A 
ATOM      5  C   UNL d   1      -0.142  -4.040   1.485  0.00  0.00     0.144 A 
ATOM      6  N   UNL d   1      -0.663  -2.989   2.139  0.00  0.00    -0.345 N 
ATOM      7  HN  UNL d   1      -1.287  -3.107   2.938  1.00  0.00     0.167 HD
ATOM      8  C   UNL d   1      -0.316  -1.770   1.679  0.00  0.00     0.117 A 
ENDROOT
BRANCH   3   9
ATOM      9  S   UNL d   1       0.947   0.034   0.100  0.00  0.00     0.180 S 
ATOM     10  O   UNL d   1      -0.073   0.916   0.640  0.00  0.00    -0.222 OA
ATOM     11  O   UNL d   1       1.184  -0.000  -1.331  0.00  0.00    -0.222 OA
BRANCH   9  12
ATOM     12  C   UNL d   1       2.477   0.379   0.955  0.00  0.00     0.145 C 
BRANCH  12  13
ATOM     13  C   UNL d   1       3.000   1.773   0.626  0.00  0.00     0.011 C 
ATOM     14  C   UNL d   1       4.258   2.098   1.416  0.00  0.00     0.006 C 
ENDBRANCH  12  13
ENDBRANCH   9  12
ENDBRANCH   3   9
BRANCH   4  15
ATOM     15  N   UNL d   1       1.903  -2.693  -1.068  0.00  0.00    -0.287 NA
ATOM     16  H   UNL d   1       2.013  -3.644  -1.416  0.00  0.00     0.125 HD
ATOM     17  H   UNL d   1       1.626  -2.044  -1.808  0.00  0.00     0.125 HD
ENDBRANCH   4  15
BRANCH   5  18
ATOM     18  S   UNL d   1      -0.510  -5.687   2.037  0.00  0.00    -0.098 SA
ATOM     19  C   UNL d   1      -1.562  -5.337   3.465  0.00  0.00     0.099 C 
ENDBRANCH   5  18
TORSDOF 5
