REMARK  3 active torsions:
REMARK  status: ('A' for Active; 'I' for Inactive)
REMARK    1  A    between atoms: N_5  and  C_1 
REMARK    2  A    between atoms: S_8  and  C_2 
REMARK    3  A    between atoms: C_11  and  S_8 
ROOT
ATOM      1  C   UNL d   1      -1.316  -0.830   0.089  0.00  0.00     0.209 A 
ATOM      2  C   UNL d   1       0.003  -1.244  -0.001  0.00  0.00     0.128 A 
ATOM      3  N   UNL d   1      -1.396   0.554   0.134  0.00  0.00    -0.331 N 
ATOM      4  HN  UNL d   1      -2.236   1.124   0.224  1.00  0.00     0.168 HD
ATOM      5  N   UNL d   1       0.727  -0.074  -0.064  0.00  0.00    -0.339 N 
ATOM      6  C   UNL d   1      -0.156   0.970   0.034  0.00  0.00     0.185 A 
ATOM      7  C   UNL d   1       2.151   0.116  -0.217  0.00  0.00     0.158 C 
ENDROOT
BRANCH   2   8
ATOM      8  S   UNL d   1       0.761  -2.795  -0.147  0.00  0.00    -0.069 SA
BRANCH   8   9
ATOM      9  C   UNL d   1       0.848  -3.392   1.538  0.00  0.00     0.007 A 
ATOM     10  C   UNL d   1       0.637  -2.618   2.684  0.00  0.00     0.019 A 
ATOM     11  C   UNL d   1       0.786  -3.176   3.960  0.00  0.00     0.001 A 
ATOM     12  C   UNL d   1       1.151  -4.514   4.106  0.00  0.00     0.000 A 
ATOM     13  C   UNL d   1       1.360  -5.298   2.976  0.00  0.00     0.001 A 
ATOM     14  C   UNL d   1       1.208  -4.739   1.703  0.00  0.00     0.019 A 
ENDBRANCH   8   9
ENDBRANCH   2   8
BRANCH   1  15
ATOM     15  N   UNL d   1      -2.532  -1.617   0.112  0.00  0.00    -0.095 N 
ATOM     16  O   UNL d   1      -2.423  -2.850   0.072  0.00  0.00    -0.530 OA
ATOM     17  O   UNL d   1      -3.607  -1.002   0.166  0.00  0.00    -0.530 OA
ENDBRANCH   1  15
TORSDOF 3
