REMARK  4 active torsions:
REMARK  status: ('A' for Active; 'I' for Inactive)
REMARK    1  A    between atoms: N_8  and  C_2 
REMARK    2  A    between atoms: C_7  and  C_3 
REMARK    3  A    between atoms: C_13  and  N_8 
REMARK    4  A    between atoms: C_17  and  C_13 
ROOT
ATOM      1  C   UNL d   1       0.176  -1.302   0.201  0.00  0.00     0.069 C 
ATOM      2  C   UNL d   1      -1.165  -1.284   0.134  0.00  0.00    -0.010 C 
ATOM      3  C   UNL d   1      -1.093   1.208  -0.423  0.00  0.00     0.031 C 
ATOM      4  C   UNL d   1       0.951  -0.046   0.339  0.00  0.00     0.151 C 
ATOM      5  C   UNL d   1      -1.931   0.025   0.122  0.00  0.00     0.060 C 
ATOM      6  C   UNL d   1       0.206   1.270   0.391  0.00  0.00     0.092 C 
ATOM      7  O   UNL d   1       2.174  -0.104   0.456  0.00  0.00    -0.293 OA
ENDROOT
BRANCH   2   8
ATOM      8  N   UNL d   1      -1.939  -2.433  -0.006  0.00  0.00    -0.292 NA
ATOM      9  H   UNL d   1      -1.497  -3.077  -0.663  0.00  0.00     0.127 HD
BRANCH   8  10
ATOM     10  C   UNL d   1      -2.354  -3.209   1.166  0.00  0.00     0.130 C 
BRANCH  10  11
ATOM     11  C   UNL d   1      -3.849  -3.393   1.158  0.00  0.00    -0.045 A 
ATOM     12  C   UNL d   1      -4.439  -4.490   0.514  0.00  0.00     0.008 A 
ATOM     13  C   UNL d   1      -5.826  -4.649   0.513  0.00  0.00     0.001 A 
ATOM     14  C   UNL d   1      -6.638  -3.712   1.150  0.00  0.00     0.000 A 
ATOM     15  C   UNL d   1      -6.064  -2.612   1.784  0.00  0.00     0.001 A 
ATOM     16  C   UNL d   1      -4.678  -2.451   1.785  0.00  0.00     0.008 A 
ENDBRANCH  10  11
ENDBRANCH   8  10
ENDBRANCH   2   8
BRANCH   3  17
ATOM     17  C   UNL d   1      -0.927   1.187  -1.949  0.00  0.00    -0.053 A 
ATOM     18  C   UNL d   1       0.324   1.256  -2.589  0.00  0.00     0.009 A 
ATOM     19  C   UNL d   1       0.425   1.251  -3.985  0.00  0.00     0.024 A 
ATOM     20  C   UNL d   1      -0.722   1.186  -4.766  0.00  0.00     0.034 A 
ATOM     21  C   UNL d   1      -1.973   1.133  -4.162  0.00  0.00     0.024 A 
ATOM     22 CL   UNL d   1      -0.594   1.179  -6.481  0.00  0.00    -0.084 Cl
ATOM     23  C   UNL d   1      -2.073   1.144  -2.768  0.00  0.00     0.009 A 
ENDBRANCH   3  17
TORSDOF 4
