REMARK  6 active torsions:
REMARK  status: ('A' for Active; 'I' for Inactive)
REMARK    1  A    between atoms: C_4  and  C_1 
REMARK       I    between atoms: N_10  and  C_1 
REMARK    2  A    between atoms: C_5  and  C_6 
REMARK    3  A    between atoms: O_20  and  C_5 
REMARK    4  A    between atoms: O_11  and  C_7 
REMARK    5  A    between atoms: C_16  and  N_10 
REMARK    6  A    between atoms: C_12  and  O_11 
ROOT
ATOM      1  N   UNL d   1      -3.195   0.524   2.423  0.00  0.00    -0.344 N 
ATOM      2  HN  UNL d   1      -3.687   0.965   3.200  1.00  0.00     0.167 HD
ATOM      3  C   UNL d   1      -3.865  -0.075   1.418  0.00  0.00     0.148 A 
ATOM      4  C   UNL d   1      -1.115  -0.091   1.341  0.00  0.00     0.050 A 
ATOM      5  C   UNL d   1      -1.845   0.515   2.359  0.00  0.00     0.119 A 
ATOM      6  C   UNL d   1      -3.240  -0.769   0.396  0.00  0.00     0.059 A 
ATOM      7  C   UNL d   1      -1.842  -0.769   0.357  0.00  0.00     0.035 A 
ENDROOT
BRANCH   4   8
ATOM      8  N   UNL d   1       0.292  -0.022   1.219  0.00  0.00    -0.322 N 
ATOM      9  C   UNL d   1       1.142   0.571   2.128  0.00  0.00     0.245 C 
ATOM     10  O   UNL d   1       0.841   1.018   3.228  0.00  0.00    -0.268 OA
ATOM     11  H   UNL d   1       0.690  -0.418   0.377  0.00  0.00     0.169 HD
BRANCH   9  12
ATOM     12  C   UNL d   1       2.544   0.643   1.653  0.00  0.00     0.081 C 
ATOM     13  C   UNL d   1       3.455   1.196   2.467  0.00  0.00     0.086 C 
BRANCH  13  14
ATOM     14  C   UNL d   1       4.845   1.316   2.011  0.00  0.00     0.165 C 
ATOM     15  O   UNL d   1       5.245   0.929   0.926  0.00  0.00    -0.647 OA
BRANCH  14  16
ATOM     16  O   UNL d   1       5.633   1.907   2.927  0.00  0.00    -0.773 OA
ATOM     17  H   UNL d   1       5.196   2.178   3.757  0.00  0.00     0.167 HD
ENDBRANCH  14  16
ENDBRANCH  13  14
ENDBRANCH   9  12
ENDBRANCH   4   8
BRANCH   3  18
ATOM     18  O   UNL d   1      -5.249   0.044   1.368  0.00  0.00    -0.292 OA
BRANCH  18  19
ATOM     19  C   UNL d   1      -5.786   1.160   1.970  0.00  0.00     0.094 A 
ATOM     20  C   UNL d   1      -5.247   2.443   1.839  0.00  0.00     0.064 A 
ATOM     21  C   UNL d   1      -5.822   3.495   2.540  0.00  0.00     0.052 A 
ATOM     22 CL   UNL d   1      -5.125   5.063   2.481  0.00  0.00    -0.083 Cl
ATOM     23  C   UNL d   1      -6.956   3.243   3.298  0.00  0.00     0.111 A 
ATOM     24  N   UNL d   1      -7.547   2.026   3.391  0.00  0.00    -0.371 N 
ATOM     25  C   UNL d   1      -6.942   1.011   2.726  0.00  0.00     0.124 A 
ATOM     26  HN  UNL d   1      -8.400   1.882   3.932  1.00  0.00     0.164 HD
ENDBRANCH  18  19
ENDBRANCH   3  18
TORSDOF 6
