REMARK  9 active torsions:
REMARK  status: ('A' for Active; 'I' for Inactive)
REMARK    1  A    between atoms: N_3  and  C_1 
REMARK    2  A    between atoms: N_4  and  C_1 
REMARK    3  A    between atoms: C_5  and  C_1 
REMARK    4  A    between atoms: C_9  and  C_1 
REMARK    5  A    between atoms: C_2  and  N_3 
REMARK       I    between atoms: C_10  and  N_4 
REMARK    6  A    between atoms: O_19  and  C_9 
REMARK    7  A    between atoms: O_18  and  C_10 
REMARK    8  A    between atoms: C_22  and  O_18 
REMARK    9  A    between atoms: C_23  and  O_19 
ROOT
ATOM      1  C   UNL d   1       1.170   0.140  -0.035  0.00  0.00     0.299 C 
ENDROOT
BRANCH   1   2
ATOM      2  N   UNL d   1       0.758   1.123   0.990  0.00  0.00    -0.328 N 
ATOM      3  H   UNL d   1       0.009   1.767   0.760  0.00  0.00     0.165 HD
BRANCH   2   4
ATOM      4  C   UNL d   1       1.105   1.027   2.309  0.00  0.00     0.148 A 
ATOM      5  N   UNL d   1       1.885   0.067   2.719  0.00  0.00    -0.336 N 
ATOM      6  C   UNL d   1       2.144   0.255   4.070  0.00  0.00     0.051 A 
ATOM      7  HN  UNL d   1       2.244  -0.694   2.144  1.00  0.00     0.168 HD
ATOM      8  C   UNL d   1       2.988  -0.540   4.868  0.00  0.00     0.031 A 
ATOM      9  C   UNL d   1       1.502   1.352   4.656  0.00  0.00     0.035 A 
ATOM     10  C   UNL d   1       3.178  -0.214   6.214  0.00  0.00     0.002 A 
ATOM     11  C   UNL d   1       2.530   0.883   6.775  0.00  0.00     0.002 A 
ATOM     12  C   UNL d   1       1.677   1.681   6.008  0.00  0.00     0.021 A 
ATOM     13  S   UNL d   1       0.546   2.141   3.460  0.00  0.00    -0.052 SA
ENDBRANCH   2   4
ENDBRANCH   1   2
BRANCH   1  14
ATOM     14  N   UNL d   1       0.712   0.652  -1.340  0.00  0.00    -0.294 N 
ATOM     15  C   UNL d   1      -0.595   0.940  -1.533  0.00  0.00     0.363 C 
ATOM     16  O   UNL d   1      -1.376   1.102  -0.611  0.00  0.00    -0.238 OA
ATOM     17  H   UNL d   1       1.192   0.324  -2.172  0.00  0.00     0.168 HD
BRANCH  15  18
ATOM     18  O   UNL d   1      -0.853   1.026  -2.849  0.00  0.00    -0.304 OA
BRANCH  18  19
ATOM     19  C   UNL d   1      -2.233   1.225  -3.194  0.00  0.00     0.176 C 
ATOM     20  C   UNL d   1      -2.902  -0.129  -3.327  0.00  0.00     0.034 C 
ENDBRANCH  18  19
ENDBRANCH  15  18
ENDBRANCH   1  14
BRANCH   1  21
ATOM     21  C   UNL d   1       0.654  -1.303   0.287  0.00  0.00     0.442 C 
ATOM     22  F   UNL d   1      -0.369  -1.279   1.180  0.00  0.00    -0.166 F 
ATOM     23  F   UNL d   1       0.168  -1.911  -0.828  0.00  0.00    -0.166 F 
ATOM     24  F   UNL d   1       1.602  -2.119   0.799  0.00  0.00    -0.166 F 
ENDBRANCH   1  21
BRANCH   1  25
ATOM     25  C   UNL d   1       2.677   0.001  -0.259  0.00  0.00     0.318 C 
ATOM     26  O   UNL d   1       3.160  -0.693  -1.150  0.00  0.00    -0.260 OA
BRANCH  25  27
ATOM     27  O   UNL d   1       3.408   0.840   0.529  0.00  0.00    -0.318 OA
BRANCH  27  28
ATOM     28  C   UNL d   1       4.836   0.784   0.383  0.00  0.00     0.174 C 
ATOM     29  C   UNL d   1       5.400  -0.354   1.213  0.00  0.00     0.034 C 
ENDBRANCH  27  28
ENDBRANCH  25  27
ENDBRANCH   1  25
TORSDOF 9
