REMARK  1 active torsions:
REMARK  status: ('A' for Active; 'I' for Inactive)
REMARK    1  A    between atoms: C_5  and  C_1 
REMARK       I    between atoms: N_9  and  C_5 
ROOT
ATOM      1  C   UNL d   1      -1.388  -0.760   0.009  0.00  0.00     0.124 A 
ATOM      2  N   UNL d   1      -1.379   0.586   0.010  0.00  0.00    -0.256 N 
ATOM      3  HN  UNL d   1      -2.188   1.206   0.013  1.00  0.00     0.195 HD
ATOM      4  C   UNL d   1      -0.065  -1.270   0.003  0.00  0.00     0.071 A 
ATOM      5  O   UNL d   1      -0.044   0.955   0.005  0.00  0.00    -0.242 OA
ATOM      6  C   UNL d   1       0.736  -0.157   0.002  0.00  0.00     0.075 A 
ATOM      7  C   UNL d   1       2.193   0.062  -0.001  0.00  0.00     0.079 C 
ENDROOT
BRANCH   1   8
ATOM      8  C   UNL d   1      -2.631  -1.529   0.017  0.00  0.00     0.267 C 
ATOM      9  O   UNL d   1      -2.668  -2.756   0.018  0.00  0.00    -0.266 OA
ATOM     10  N   UNL d   1      -3.780  -0.787   0.022  0.00  0.00    -0.365 N 
ATOM     11  H   UNL d   1      -3.733   0.225   0.022  0.00  0.00     0.159 HD
ATOM     12  H   UNL d   1      -4.671  -1.260   0.029  0.00  0.00     0.159 HD
ENDBRANCH   1   8
TORSDOF 1
