REMARK  6 active torsions:
REMARK  status: ('A' for Active; 'I' for Inactive)
REMARK    1  A    between atoms: C_6  and  C_1 
REMARK    2  A    between atoms: C_11  and  C_2 
REMARK    3  A    between atoms: C_3  and  C_9 
REMARK    4  A    between atoms: N_22  and  C_9 
REMARK    5  A    between atoms: O_18  and  C_11 
REMARK    6  A    between atoms: N_14  and  O_18 
ROOT
ATOM      1  C   UNL d   1      -1.340  -1.165   0.792  0.00  0.00     0.320 C 
ATOM      2  O   UNL d   1      -1.803  -0.067   1.085  0.00  0.00    -0.257 OA
ENDROOT
BRANCH   1   3
ATOM      3  C   UNL d   1      -0.028  -1.320   0.183  0.00  0.00     0.102 A 
ATOM      4  C   UNL d   1       0.659  -2.462  -0.354  0.00  0.00     0.087 A 
ATOM      5  N   UNL d   1       1.878  -2.106  -0.794  0.00  0.00    -0.259 N 
ATOM      6  O   UNL d   1       2.011  -0.765  -0.552  0.00  0.00    -0.241 OA
ATOM      7  HN  UNL d   1       2.571  -2.717  -1.226  1.00  0.00     0.195 HD
ATOM      8  C   UNL d   1       0.871  -0.284  -0.002  0.00  0.00     0.091 A 
ATOM      9  C   UNL d   1       0.874   1.172   0.256  0.00  0.00     0.080 C 
BRANCH   4  10
ATOM     10  C   UNL d   1       0.233  -3.854  -0.533  0.00  0.00     0.037 A 
ATOM     11  C   UNL d   1      -0.908  -4.173  -1.296  0.00  0.00     0.048 A 
ATOM     12 CL   UNL d   1      -1.869  -2.975  -2.104  0.00  0.00    -0.083 Cl
ATOM     13  C   UNL d   1      -1.300  -5.505  -1.486  0.00  0.00     0.025 A 
ATOM     14  C   UNL d   1      -0.532  -6.546  -0.973  0.00  0.00     0.003 A 
ATOM     15  C   UNL d   1       0.624  -6.255  -0.257  0.00  0.00     0.025 A 
ATOM     16  C   UNL d   1       0.999  -4.924  -0.023  0.00  0.00     0.048 A 
ATOM     17 CL   UNL d   1       2.431  -4.698   0.928  0.00  0.00    -0.083 Cl
ENDBRANCH   4  10
ENDBRANCH   1   3
BRANCH   1  18
ATOM     18  O   UNL d   1      -1.995  -2.361   0.995  0.00  0.00    -0.193 OA
BRANCH  18  19
ATOM     19  N   UNL d   1      -3.024  -2.190   1.948  0.00  0.00    -0.244 N 
ATOM     20  C   UNL d   1      -4.105  -2.818   1.606  0.00  0.00     0.126 C 
ATOM     21  HN  UNL d   1      -2.928  -1.640   2.801  1.00  0.00     0.196 HD
BRANCH  20  22
ATOM     22  C   UNL d   1      -5.243  -2.797   2.529  0.00  0.00     0.079 A 
ATOM     23  N   UNL d   1      -6.487  -3.336   2.155  0.00  0.00    -0.351 N 
ATOM     24  C   UNL d   1      -7.345  -3.212   3.147  0.00  0.00     0.047 A 
ATOM     25  HN  UNL d   1      -6.694  -3.760   1.251  1.00  0.00     0.166 HD
ATOM     26  C   UNL d   1      -8.761  -3.672   3.110  0.00  0.00     0.076 C 
ATOM     27  S   UNL d   1      -6.739  -2.454   4.566  0.00  0.00    -0.087 SA
ATOM     28  C   UNL d   1      -5.217  -2.267   3.807  0.00  0.00     0.084 A 
ENDBRANCH  20  22
BRANCH  20  29
ATOM     29  N   UNL d   1      -4.378  -3.502   0.454  0.00  0.00    -0.285 NA
ATOM     30  H   UNL d   1      -5.378  -3.647   0.315  0.00  0.00     0.125 HD
ATOM     31  H   UNL d   1      -3.915  -3.127  -0.366  0.00  0.00     0.125 HD
ENDBRANCH  20  29
ENDBRANCH  18  19
ENDBRANCH   1  18
TORSDOF 6
