REMARK  4 active torsions:
REMARK  status: ('A' for Active; 'I' for Inactive)
REMARK       I    between atoms: N_2  and  C_1 
REMARK    1  A    between atoms: C_6  and  C_1 
REMARK    2  A    between atoms: C_7  and  N_2 
REMARK    3  A    between atoms: C_5  and  C_7 
REMARK    4  A    between atoms: C_8  and  C_6 
ROOT
ATOM      1  C   UNL d   1       0.834   0.087  -0.036  0.00  0.00     0.222 C 
ATOM      2  N   UNL d   1       0.183   0.476  -1.182  0.00  0.00    -0.354 N 
ATOM      3  O   UNL d   1       0.232  -0.295   0.965  0.00  0.00    -0.273 OA
ATOM      4  H   UNL d   1       0.690   0.950  -1.927  0.00  0.00     0.162 HD
ENDROOT
BRANCH   1   5
ATOM      5  C   UNL d   1       2.349   0.091  -0.114  0.00  0.00     0.141 C 
BRANCH   5   6
ATOM      6  C   UNL d   1       2.970   1.457  -0.272  0.00  0.00    -0.050 A 
ATOM      7  C   UNL d   1       2.686   2.487   0.635  0.00  0.00     0.007 A 
ATOM      8  C   UNL d   1       3.305   3.733   0.508  0.00  0.00     0.001 A 
ATOM      9  C   UNL d   1       4.221   3.957  -0.518  0.00  0.00     0.000 A 
ATOM     10  C   UNL d   1       4.519   2.937  -1.419  0.00  0.00     0.001 A 
ATOM     11  C   UNL d   1       3.899   1.693  -1.296  0.00  0.00     0.007 A 
ENDBRANCH   5   6
ENDBRANCH   1   5
BRANCH   2  12
ATOM     12  C   UNL d   1      -1.263   0.478  -1.233  0.00  0.00     0.200 C 
BRANCH  12  13
ATOM     13  C   UNL d   1      -1.776   1.019  -2.559  0.00  0.00     0.140 C 
ATOM     14  O   UNL d   1      -1.024   1.490  -3.414  0.00  0.00    -0.297 OA
ATOM     15  C   UNL d   1      -3.268   0.960  -2.763  0.00  0.00     0.092 C 
ENDBRANCH  12  13
ENDBRANCH   2  12
TORSDOF 4
