REMARK  6 active torsions:
REMARK  status: ('A' for Active; 'I' for Inactive)
REMARK    1  A    between atoms: C_3  and  C_1 
REMARK    2  A    between atoms: C_2  and  C_10 
REMARK    3  A    between atoms: N_11  and  C_2 
REMARK    4  A    between atoms: O_14  and  N_4 
REMARK    5  A    between atoms: C_10  and  O_12 
REMARK    6  A    between atoms: O_12  and  C_13 
ROOT
ATOM      1  C   UNL d   1      -6.594  -3.981  -6.846  0.00  0.00     0.050 A 
ATOM      2  C   UNL d   1      -5.801  -2.961  -6.288  0.00  0.00     0.052 A 
ATOM      3  C   UNL d   1      -5.868  -1.657  -6.785  0.00  0.00     0.070 A 
ATOM      4  C   UNL d   1      -7.456  -3.672  -7.909  0.00  0.00     0.016 A 
ATOM      5  C   UNL d   1      -7.533  -2.370  -8.397  0.00  0.00     0.004 A 
ATOM      6  C   UNL d   1      -6.748  -1.366  -7.830  0.00  0.00     0.037 A 
ENDROOT
BRANCH   3   7
ATOM      7  O   UNL d   1      -5.165  -0.588  -6.298  0.00  0.00    -0.344 OA
BRANCH   7   8
ATOM      8  C   UNL d   1      -3.895  -0.895  -5.725  0.00  0.00     0.247 C 
BRANCH   8   9
ATOM      9  C   UNL d   1      -3.209   0.401  -5.280  0.00  0.00     0.099 C 
ATOM     10  N   UNL d   1      -1.909   0.447  -5.316  0.00  0.00    -0.260 N 
ATOM     11  HN  UNL d   1      -1.309  -0.318  -5.624  1.00  0.00     0.195 HD
BRANCH  10  12
ATOM     12  O   UNL d   1      -1.446   1.697  -4.871  0.00  0.00    -0.289 OA
ATOM     13  H   UNL d   1      -0.479   1.564  -4.856  0.00  0.00     0.244 HD
ENDBRANCH  10  12
BRANCH   9  14
ATOM     14  N   UNL d   1      -3.997   1.437  -4.835  0.00  0.00    -0.289 NA
ATOM     15  H   UNL d   1      -4.912   1.491  -5.273  0.00  0.00     0.125 HD
ATOM     16  H   UNL d   1      -3.484   2.311  -4.821  0.00  0.00     0.125 HD
ENDBRANCH   9  14
ENDBRANCH   8   9
ENDBRANCH   7   8
ENDBRANCH   3   7
BRANCH   1  17
ATOM     17  C   UNL d   1      -6.537  -5.393  -6.314  0.00  0.00     0.417 C 
ATOM     18  F   UNL d   1      -5.667  -5.552  -5.278  0.00  0.00    -0.166 F 
ATOM     19  F   UNL d   1      -6.154  -6.291  -7.263  0.00  0.00    -0.166 F 
ATOM     20  F   UNL d   1      -7.745  -5.825  -5.856  0.00  0.00    -0.166 F 
ENDBRANCH   1  17
TORSDOF 6
