REMARK  4 active torsions:
REMARK  status: ('A' for Active; 'I' for Inactive)
REMARK    1  A    between atoms: N_2  and  C_1 
REMARK    2  A    between atoms: O_8  and  C_5 
REMARK    3  A    between atoms: C_11  and  O_8 
REMARK    4  A    between atoms: C_12  and  C_11 
ROOT
ATOM      1  C   UNL d   1      -0.995   1.205   0.006  0.00  0.00     0.207 A 
ATOM      2  N   UNL d   1       0.375   1.147   0.003  0.00  0.00    -0.339 N 
ATOM      3  HN  UNL d   1       0.937   1.998   0.023  1.00  0.00     0.167 HD
ATOM      4  C   UNL d   1      -1.819   0.067  -0.010  0.00  0.00     0.119 A 
ATOM      5  C   UNL d   1       0.958  -0.069  -0.027  0.00  0.00     0.007 A 
ATOM      6  C   UNL d   1      -1.176  -1.173  -0.044  0.00  0.00     0.043 A 
ATOM      7  C   UNL d   1       0.218  -1.243  -0.051  0.00  0.00     0.027 A 
ATOM      8  C   UNL d   1       2.456  -0.115  -0.041  0.00  0.00     0.068 C 
ENDROOT
BRANCH   4   9
ATOM      9  O   UNL d   1      -3.176   0.223   0.032  0.00  0.00    -0.343 OA
BRANCH   9  10
ATOM     10  C   UNL d   1      -4.002  -0.946  -0.019  0.00  0.00     0.214 C 
BRANCH  10  11
ATOM     11  C   UNL d   1      -5.462  -0.553   0.003  0.00  0.00    -0.034 A 
ATOM     12  C   UNL d   1      -5.899   0.638  -0.594  0.00  0.00     0.010 A 
ATOM     13  C   UNL d   1      -7.252   0.981  -0.590  0.00  0.00     0.007 A 
ATOM     14  C   UNL d   1      -8.200   0.135  -0.008  0.00  0.00    -0.062 A 
ATOM     15  C   UNL d   1      -7.772  -1.064   0.574  0.00  0.00     0.007 A 
ATOM     16  C   UNL d   1      -9.649   0.522  -0.021  0.00  0.00     0.048 C 
ATOM     17  C   UNL d   1      -6.417  -1.408   0.572  0.00  0.00     0.010 A 
ENDBRANCH  10  11
ENDBRANCH   9  10
ENDBRANCH   4   9
BRANCH   1  18
ATOM     18  N   UNL d   1      -1.663   2.515   0.034  0.00  0.00    -0.095 N 
ATOM     19  O   UNL d   1      -2.397   2.814  -0.922  0.00  0.00    -0.530 OA
ATOM     20  O   UNL d   1      -1.401   3.259   0.994  0.00  0.00    -0.530 OA
ENDBRANCH   1  18
TORSDOF 4
