REMARK  5 active torsions:
REMARK  status: ('A' for Active; 'I' for Inactive)
REMARK    1  A    between atoms: C_7  and  C_1 
REMARK    2  A    between atoms: C_6  and  C_2 
REMARK    3  A    between atoms: C_11  and  N_3 
REMARK    4  A    between atoms: S_9  and  C_6 
REMARK    5  A    between atoms: C_10  and  S_9 
ROOT
ATOM      1  C   UNL d   1       0.851  -0.525  -0.521  0.00  0.00     0.156 C 
ATOM      2  C   UNL d   1      -0.286  -1.029   0.124  0.00  0.00     0.072 C 
ATOM      3  N   UNL d   1       0.834   0.845  -0.287  0.00  0.00    -0.251 N 
ATOM      4  N   UNL d   1      -0.407   1.245   0.099  0.00  0.00    -0.303 N 
ATOM      5  HN  UNL d   1      -0.759   2.200   0.167  1.00  0.00     0.186 HD
ATOM      6  C   UNL d   1      -1.059   0.123   0.367  0.00  0.00     0.126 C 
ENDROOT
BRANCH   2   7
ATOM      7  C   UNL d   1      -0.568  -2.419   0.494  0.00  0.00     0.229 C 
ATOM      8  O   UNL d   1       0.204  -3.341   0.278  0.00  0.00    -0.279 OA
BRANCH   7   9
ATOM      9  S   UNL d   1      -2.104  -2.748   1.280  0.00  0.00    -0.029 SA
BRANCH   9  10
ATOM     10  C   UNL d   1      -1.818  -2.104   2.917  0.00  0.00     0.077 A 
ATOM     11  N   UNL d   1      -0.938  -1.090   3.056  0.00  0.00    -0.360 N 
ATOM     12  C   UNL d   1      -0.843  -0.491   4.263  0.00  0.00     0.089 A 
ATOM     13  HN  UNL d   1      -0.362  -0.784   2.271  1.00  0.00     0.166 HD
ATOM     14  C   UNL d   1      -1.585  -0.873   5.364  0.00  0.00     0.017 A 
ATOM     15  C   UNL d   1      -2.464  -1.939   5.219  0.00  0.00     0.004 A 
ATOM     16  C   UNL d   1      -2.587  -2.565   3.979  0.00  0.00     0.037 A 
ENDBRANCH   9  10
ENDBRANCH   7   9
ENDBRANCH   2   7
BRANCH   1  17
ATOM     17  C   UNL d   1       1.970  -1.206  -1.187  0.00  0.00     0.435 C 
ATOM     18  F   UNL d   1       1.786  -2.533  -1.374  0.00  0.00    -0.165 F 
ATOM     19  F   UNL d   1       2.159  -0.709  -2.439  0.00  0.00    -0.165 F 
ATOM     20  F   UNL d   1       3.138  -1.065  -0.516  0.00  0.00    -0.165 F 
ENDBRANCH   1  17
BRANCH   3  21
ATOM     21  C   UNL d   1       1.884   1.815  -0.251  0.00  0.00     0.057 A 
ATOM     22  C   UNL d   1       3.022   1.765  -1.059  0.00  0.00     0.031 A 
ATOM     23  C   UNL d   1       4.046   2.706  -0.898  0.00  0.00     0.002 A 
ATOM     24  C   UNL d   1       3.950   3.698   0.074  0.00  0.00     0.000 A 
ATOM     25  C   UNL d   1       2.813   3.774   0.871  0.00  0.00     0.002 A 
ATOM     26  C   UNL d   1       1.779   2.852   0.698  0.00  0.00     0.031 A 
ENDBRANCH   3  21
TORSDOF 5
