REMARK  4 active torsions:
REMARK  status: ('A' for Active; 'I' for Inactive)
REMARK    1  A    between atoms: S_11  and  C_3 
REMARK    2  A    between atoms: C_5  and  C_4 
REMARK    3  A    between atoms: C_17  and  S_11 
REMARK    4  A    between atoms: C_19  and  C_17 
ROOT
ATOM      1  N   UNL d   1       1.253   0.563   0.059  0.00  0.00    -0.336 N 
ATOM      2  HN  UNL d   1       2.182   0.983   0.074  1.00  0.00     0.168 HD
ATOM      3  C   UNL d   1       0.146   1.325   0.053  0.00  0.00     0.144 A 
ATOM      4  C   UNL d   1       1.093  -0.779   0.043  0.00  0.00     0.045 A 
ATOM      5  N   UNL d   1      -1.109   0.852   0.046  0.00  0.00    -0.347 N 
ATOM      6  HN  UNL d   1      -1.920   1.471   0.045  1.00  0.00     0.167 HD
ATOM      7  C   UNL d   1      -0.166  -1.351   0.039  0.00  0.00     0.047 A 
ATOM      8  C   UNL d   1      -1.235  -0.486   0.038  0.00  0.00     0.092 A 
ENDROOT
BRANCH   4   9
ATOM      9  C   UNL d   1       2.340  -1.577   0.030  0.00  0.00    -0.009 A 
ATOM     10  C   UNL d   1       3.514  -1.089   0.645  0.00  0.00     0.023 A 
ATOM     11  C   UNL d   1       4.671  -1.854   0.621  0.00  0.00    -0.022 A 
ATOM     12  C   UNL d   1       5.992  -1.597   1.237  0.00  0.00     0.068 C 
ATOM     13  C   UNL d   1       4.689  -3.094   0.010  0.00  0.00     0.075 A 
ATOM     14  C   UNL d   1       6.800  -2.692   0.538  0.00  0.00     0.180 C 
ATOM     15  O   UNL d   1       5.899  -3.732   0.088  0.00  0.00    -0.350 OA
ATOM     16  C   UNL d   1       3.574  -3.617  -0.602  0.00  0.00     0.038 A 
ATOM     17  C   UNL d   1       2.403  -2.849  -0.597  0.00  0.00     0.016 A 
ENDBRANCH   4   9
BRANCH   3  18
ATOM     18  S   UNL d   1       0.407   3.077  -0.026  0.00  0.00    -0.089 SA
BRANCH  18  19
ATOM     19  C   UNL d   1      -1.100   3.663   0.807  0.00  0.00     0.121 C 
BRANCH  19  20
ATOM     20  C   UNL d   1      -1.107   5.173   0.897  0.00  0.00    -0.049 A 
ATOM     21  C   UNL d   1      -1.682   5.945  -0.124  0.00  0.00     0.008 A 
ATOM     22  C   UNL d   1      -1.651   7.340  -0.064  0.00  0.00     0.001 A 
ATOM     23  C   UNL d   1      -1.042   7.979   1.014  0.00  0.00     0.000 A 
ATOM     24  C   UNL d   1      -0.466   7.224   2.034  0.00  0.00     0.001 A 
ATOM     25  C   UNL d   1      -0.496   5.829   1.976  0.00  0.00     0.008 A 
ENDBRANCH  19  20
ENDBRANCH  18  19
ENDBRANCH   3  18
TORSDOF 4
