REMARK  3 active torsions:
REMARK  status: ('A' for Active; 'I' for Inactive)
REMARK    1  A    between atoms: N_2  and  S_1 
REMARK    2  A    between atoms: C_3  and  S_1 
REMARK    3  A    between atoms: C_4  and  C_7 
REMARK       I    between atoms: N_16  and  C_4 
ROOT
ATOM      1  C   UNL d   1       0.453   1.819  -0.320  0.00  0.00     0.074 A 
ATOM      2  C   UNL d   1      -0.380   4.479  -0.590  0.00  0.00     0.031 A 
ATOM      3  C   UNL d   1       1.404   2.837  -0.417  0.00  0.00     0.026 A 
ATOM      4  C   UNL d   1      -0.911   2.111  -0.360  0.00  0.00     0.026 A 
ATOM      5  C   UNL d   1      -1.322   3.440  -0.491  0.00  0.00     0.018 A 
ATOM      6  C   UNL d   1       0.987   4.166  -0.551  0.00  0.00     0.018 A 
ENDROOT
BRANCH   1   7
ATOM      7  S   UNL d   1       0.975   0.124  -0.201  0.00  0.00     0.243 S 
ATOM      8  O   UNL d   1       0.293  -0.600  -1.253  0.00  0.00    -0.206 OA
ATOM      9  O   UNL d   1       2.417   0.106  -0.100  0.00  0.00    -0.206 OA
BRANCH   7  10
ATOM     10  N   UNL d   1       0.333  -0.377   1.294  0.00  0.00    -0.202 NA
ATOM     11  C   UNL d   1       0.906   0.250   2.527  0.00  0.00     0.134 C 
ATOM     12  C   UNL d   1       2.218  -0.422   2.958  0.00  0.00     0.183 C 
ATOM     13  O   UNL d   1       2.063  -1.841   3.109  0.00  0.00    -0.389 OA
ATOM     14  C   UNL d   1       1.613  -2.439   1.884  0.00  0.00     0.183 C 
ATOM     15  C   UNL d   1       0.255  -1.863   1.475  0.00  0.00     0.134 C 
ENDBRANCH   7  10
ENDBRANCH   1   7
BRANCH   2  16
ATOM     16  C   UNL d   1      -0.895   5.872  -0.736  0.00  0.00     0.249 C 
ATOM     17  O   UNL d   1      -2.097   6.110  -0.741  0.00  0.00    -0.268 OA
ATOM     18  N   UNL d   1       0.001   6.896  -0.868  0.00  0.00    -0.366 N 
ATOM     19  H   UNL d   1       1.002   6.800  -0.918  0.00  0.00     0.159 HD
ATOM     20  H   UNL d   1      -0.388   7.823  -0.983  0.00  0.00     0.159 HD
ENDBRANCH   2  16
TORSDOF 3
