REMARK  4 active torsions:
REMARK  status: ('A' for Active; 'I' for Inactive)
REMARK    1  A    between atoms: C_8  and  C_1 
REMARK    2  A    between atoms: C_3  and  C_7 
REMARK    3  A    between atoms: C_5  and  C_6 
REMARK       I    between atoms: C_7  and  N_15 
REMARK       I    between atoms: N_16  and  C_8 
REMARK    4  A    between atoms: N_15  and  N_16 
ROOT
ATOM      1  C   UNL d   1      -2.050   0.985  -0.021  0.00  0.00     0.077 A 
ATOM      2  S   UNL d   1      -1.774  -0.706  -0.024  0.00  0.00    -0.083 SA
ATOM      3  C   UNL d   1      -0.855   1.679   0.025  0.00  0.00     0.055 A 
ATOM      4  C   UNL d   1       2.269  -1.075   0.013  0.00  0.00     0.064 A 
ATOM      5  C   UNL d   1      -0.065  -0.517   0.004  0.00  0.00     0.033 A 
ATOM      6  C   UNL d   1       0.287   0.831   0.030  0.00  0.00     0.050 A 
ATOM      7  N   UNL d   1       1.579   1.256   0.051  0.00  0.00    -0.364 N 
ATOM      8  HN  UNL d   1       1.822   2.246   0.075  1.00  0.00     0.165 HD
ATOM      9  C   UNL d   1       0.936  -1.503  -0.001  0.00  0.00     0.038 A 
ATOM     10  C   UNL d   1       2.518   0.288   0.037  0.00  0.00     0.104 A 
ENDROOT
BRANCH   1  11
ATOM     11  C   UNL d   1      -3.384   1.571  -0.060  0.00  0.00     0.277 C 
ATOM     12  N   UNL d   1      -4.450   0.691  -0.117  0.00  0.00    -0.262 N 
ATOM     13  H   UNL d   1      -4.332  -0.317  -0.184  0.00  0.00     0.190 HD
ATOM     14  O   UNL d   1      -3.581   2.788  -0.041  0.00  0.00    -0.265 OA
BRANCH  12  15
ATOM     15  N   UNL d   1      -5.759   1.195  -0.181  0.00  0.00    -0.261 N 
ATOM     16  C   UNL d   1      -6.774   0.390  -0.666  0.00  0.00     0.295 C 
ATOM     17  O   UNL d   1      -6.547  -0.759  -1.054  0.00  0.00    -0.264 OA
ATOM     18  H   UNL d   1      -5.892   2.187   0.022  0.00  0.00     0.190 HD
BRANCH  16  19
ATOM     19  C   UNL d   1      -8.088   0.980  -0.661  0.00  0.00     0.169 A 
ATOM     20  O   UNL d   1      -8.279   2.195  -0.070  0.00  0.00    -0.233 OA
ATOM     21  N   UNL d   1      -9.621   2.538  -0.133  0.00  0.00    -0.272 N 
ATOM     22  C   UNL d   1     -10.216   1.526  -0.769  0.00  0.00     0.117 A 
ATOM     23  HN  UNL d   1     -10.060   3.384   0.230  1.00  0.00     0.194 HD
ATOM     24  C   UNL d   1      -9.301   0.524  -1.132  0.00  0.00     0.064 A 
ENDBRANCH  16  19
ENDBRANCH  12  15
ENDBRANCH   1  11
BRANCH   4  25
ATOM     25  C   UNL d   1       3.426  -2.027  -0.004  0.00  0.00     0.418 C 
ATOM     26  F   UNL d   1       3.053  -3.337  -0.018  0.00  0.00    -0.166 F 
ATOM     27  F   UNL d   1       4.226  -1.855  -1.092  0.00  0.00    -0.166 F 
ATOM     28  F   UNL d   1       4.236  -1.882   1.081  0.00  0.00    -0.166 F 
ENDBRANCH   4  25
TORSDOF 4
