REMARK  7 active torsions:
REMARK  status: ('A' for Active; 'I' for Inactive)
REMARK    1  A    between atoms: C_6  and  C_1 
REMARK    2  A    between atoms: C_2  and  C_7 
REMARK    3  A    between atoms: C_3  and  O_5 
REMARK    4  A    between atoms: C_8  and  C_3 
REMARK    5  A    between atoms: N_4  and  C_6 
REMARK    6  A    between atoms: O_5  and  N_4 
REMARK    7  A    between atoms: C_7  and  N_4 
ROOT
ATOM      1  N   UNL d   1      -0.942   3.162   0.232  0.00  0.00    -0.179 NA
ENDROOT
BRANCH   1   2
ATOM      2  C   UNL d   1       0.402   2.608   0.033  0.00  0.00     0.165 C 
BRANCH   2   3
ATOM      3  C   UNL d   1       0.530   1.172  -0.438  0.00  0.00     0.017 A 
ATOM      4  C   UNL d   1       1.726   0.513  -0.097  0.00  0.00     0.125 A 
ATOM      5  F   UNL d   1       2.607   1.113   0.718  0.00  0.00    -0.205 F 
ATOM      6  C   UNL d   1       2.079  -0.730  -0.620  0.00  0.00     0.043 A 
ATOM      7  C   UNL d   1       1.229  -1.363  -1.514  0.00  0.00     0.005 A 
ATOM      8  C   UNL d   1       0.033  -0.742  -1.871  0.00  0.00     0.024 A 
ATOM      9  C   UNL d   1      -0.312   0.520  -1.352  0.00  0.00     0.044 A 
ATOM     10 CL   UNL d   1      -1.770   1.212  -1.970  0.00  0.00    -0.084 Cl
ENDBRANCH   2   3
ENDBRANCH   1   2
BRANCH   1  11
ATOM     11  O   UNL d   1      -1.565   2.642   1.465  0.00  0.00    -0.220 OA
BRANCH  11  12
ATOM     12  C   UNL d   1      -1.135   3.229   2.628  0.00  0.00     0.310 C 
ATOM     13  O   UNL d   1       0.020   3.517   2.923  0.00  0.00    -0.258 OA
BRANCH  12  14
ATOM     14  C   UNL d   1      -2.298   3.677   3.446  0.00  0.00     0.041 A 
ATOM     15  C   UNL d   1      -2.060   4.651   4.431  0.00  0.00     0.019 A 
ATOM     16  C   UNL d   1      -3.121   5.204   5.153  0.00  0.00     0.025 A 
ATOM     17  C   UNL d   1      -4.423   4.779   4.899  0.00  0.00     0.034 A 
ATOM     18  C   UNL d   1      -4.671   3.801   3.935  0.00  0.00     0.025 A 
ATOM     19 CL   UNL d   1      -5.733   5.480   5.764  0.00  0.00    -0.084 Cl
ATOM     20  C   UNL d   1      -3.611   3.249   3.207  0.00  0.00     0.019 A 
ENDBRANCH  12  14
ENDBRANCH  11  12
ENDBRANCH   1  11
BRANCH   1  21
ATOM     21  C   UNL d   1      -1.009   4.633   0.233  0.00  0.00     0.165 C 
BRANCH  21  22
ATOM     22  C   UNL d   1      -0.858   5.258  -1.134  0.00  0.00     0.017 A 
ATOM     23  C   UNL d   1      -1.971   5.295  -1.985  0.00  0.00     0.125 A 
ATOM     24  F   UNL d   1      -3.150   4.808  -1.569  0.00  0.00    -0.205 F 
ATOM     25  C   UNL d   1      -1.906   5.861  -3.256  0.00  0.00     0.043 A 
ATOM     26  C   UNL d   1      -0.707   6.398  -3.712  0.00  0.00     0.005 A 
ATOM     27  C   UNL d   1       0.415   6.376  -2.885  0.00  0.00     0.024 A 
ATOM     28  C   UNL d   1       0.338   5.819  -1.602  0.00  0.00     0.044 A 
ATOM     29 CL   UNL d   1       1.771   5.888  -0.635  0.00  0.00    -0.084 Cl
ENDBRANCH  21  22
ENDBRANCH   1  21
TORSDOF 7
