REMARK  4 active torsions:
REMARK  status: ('A' for Active; 'I' for Inactive)
REMARK    1  A    between atoms: C_2  and  C_1 
REMARK    2  A    between atoms: C_11  and  C_5 
REMARK    3  A    between atoms: C_12  and  C_23 
REMARK    4  A    between atoms: N_17  and  N_20 
ROOT
ATOM      1  C   UNL d   1      -1.584   2.244  -0.053  0.00  0.00     0.077 A 
ATOM      2  N   UNL d   1      -2.572   2.417   0.889  0.00  0.00    -0.333 N 
ATOM      3  HN  UNL d   1      -2.842   1.717   1.579  1.00  0.00     0.168 HD
ATOM      4  C   UNL d   1      -3.121   3.608   0.780  0.00  0.00     0.163 A 
ATOM      5  S   UNL d   1      -2.524   4.553  -0.535  0.00  0.00    -0.062 SA
ATOM      6  C   UNL d   1      -1.403   3.311  -0.909  0.00  0.00     0.085 A 
ATOM      7  N   UNL d   1      -4.058   4.128   1.620  0.00  0.00    -0.280 N 
ATOM      8  H   UNL d   1      -4.328   5.091   1.442  0.00  0.00     0.189 HD
ENDROOT
BRANCH   1   9
ATOM      9  C   UNL d   1      -0.765   1.002  -0.084  0.00  0.00     0.128 A 
ATOM     10  C   UNL d   1       0.281   0.723  -0.930  0.00  0.00     0.074 A 
ATOM     11  C   UNL d   1       0.821  -0.507  -0.477  0.00  0.00     0.069 A 
ATOM     12  N   UNL d   1       0.060  -1.005   0.511  0.00  0.00    -0.260 N 
ATOM     13  O   UNL d   1      -0.915  -0.054   0.764  0.00  0.00    -0.235 OA
ATOM     14  HN  UNL d   1       0.177  -1.903   0.980  1.00  0.00     0.195 HD
BRANCH  11  15
ATOM     15  C   UNL d   1       2.008  -1.214  -0.965  0.00  0.00     0.014 A 
ATOM     16  C   UNL d   1       3.193  -0.558  -1.347  0.00  0.00     0.048 A 
ATOM     17  C   UNL d   1       4.286  -1.285  -1.838  0.00  0.00     0.048 A 
ATOM     18 CL   UNL d   1       3.433   1.153  -1.202  0.00  0.00    -0.083 Cl
ATOM     19  C   UNL d   1       4.214  -2.670  -1.931  0.00  0.00     0.035 A 
ATOM     20  C   UNL d   1       3.063  -3.342  -1.532  0.00  0.00     0.025 A 
ATOM     21 CL   UNL d   1       5.561  -3.555  -2.531  0.00  0.00    -0.084 Cl
ATOM     22  C   UNL d   1       1.967  -2.618  -1.053  0.00  0.00     0.017 A 
ENDBRANCH  11  15
ENDBRANCH   1   9
BRANCH   7  23
ATOM     23  N   UNL d   1      -4.193   3.626   2.875  0.00  0.00    -0.309 N 
ATOM     24  C   UNL d   1      -4.982   4.254   3.681  0.00  0.00     0.122 C 
ATOM     25  HN  UNL d   1      -3.692   2.788   3.169  1.00  0.00     0.186 HD
BRANCH  24  26
ATOM     26  C   UNL d   1      -5.133   3.792   5.074  0.00  0.00     0.024 A 
ATOM     27  C   UNL d   1      -4.032   3.345   5.825  0.00  0.00     0.047 A 
ATOM     28 CL   UNL d   1      -2.391   3.470   5.292  0.00  0.00    -0.083 Cl
ATOM     29  C   UNL d   1      -4.223   2.834   7.115  0.00  0.00     0.025 A 
ATOM     30  C   UNL d   1      -5.499   2.784   7.671  0.00  0.00     0.003 A 
ATOM     31  C   UNL d   1      -6.588   3.262   6.946  0.00  0.00     0.025 A 
ATOM     32  C   UNL d   1      -6.410   3.769   5.654  0.00  0.00     0.047 A 
ATOM     33 CL   UNL d   1      -7.822   4.325   4.823  0.00  0.00    -0.083 Cl
ENDBRANCH  24  26
ENDBRANCH   7  23
TORSDOF 4
