REMARK  3 active torsions:
REMARK  status: ('A' for Active; 'I' for Inactive)
REMARK    1  A    between atoms: N_8  and  C_2 
REMARK    2  A    between atoms: N_9  and  N_8 
REMARK    3  A    between atoms: C_14  and  C_13 
ROOT
ATOM      1  N   UNL d   1      -2.708  -0.111  -0.181  0.00  0.00    -0.294 N 
ATOM      2  C   UNL d   1      -3.689   0.982  -0.074  0.00  0.00     0.178 C 
ENDROOT
BRANCH   1   3
ATOM      3  C   UNL d   1      -1.327   0.154  -0.164  0.00  0.00     0.094 A 
ATOM      4  C   UNL d   1      -0.324  -0.333  -0.914  0.00  0.00     0.133 A 
ATOM      5  C   UNL d   1       1.098   0.097  -0.726  0.00  0.00     0.285 A 
ATOM      6 CL   UNL d   1      -0.585  -1.441  -2.226  0.00  0.00    -0.076 Cl
ATOM      7  N   UNL d   1       1.312   1.099   0.214  0.00  0.00    -0.261 N 
ATOM      8  O   UNL d   1       2.013  -0.407  -1.375  0.00  0.00    -0.265 OA
ATOM      9  N   UNL d   1       0.337   1.593   1.032  0.00  0.00    -0.305 N 
ATOM     10  C   UNL d   1       2.658   1.594   0.430  0.00  0.00     0.181 C 
ATOM     11  C   UNL d   1      -0.858   1.143   0.852  0.00  0.00     0.140 A 
ATOM     12  HN  UNL d   1       0.544   2.286   1.751  1.00  0.00     0.186 HD
ENDBRANCH   1   3
BRANCH   1  13
ATOM     13  N   UNL d   1      -3.328  -1.302  -0.489  0.00  0.00    -0.309 N 
ATOM     14  C   UNL d   1      -2.778  -2.402  -0.077  0.00  0.00     0.118 C 
ATOM     15  HN  UNL d   1      -4.196  -1.319  -1.025  1.00  0.00     0.186 HD
BRANCH  14  16
ATOM     16  C   UNL d   1      -3.411  -3.724  -0.272  0.00  0.00    -0.019 A 
ATOM     17  C   UNL d   1      -4.729  -3.846  -0.732  0.00  0.00     0.014 A 
ATOM     18  C   UNL d   1      -5.326  -5.109  -0.797  0.00  0.00     0.024 A 
ATOM     19  C   UNL d   1      -4.605  -6.241  -0.415  0.00  0.00     0.034 A 
ATOM     20  C   UNL d   1      -3.283  -6.124   0.015  0.00  0.00     0.024 A 
ATOM     21 CL   UNL d   1      -5.353  -7.790  -0.455  0.00  0.00    -0.084 Cl
ATOM     22  C   UNL d   1      -2.685  -4.864   0.086  0.00  0.00     0.014 A 
ENDBRANCH  14  16
ENDBRANCH   1  13
TORSDOF 3
