REMARK  5 active torsions:
REMARK  status: ('A' for Active; 'I' for Inactive)
REMARK    1  A    between atoms: C_8  and  C_2 
REMARK    2  A    between atoms: C_10  and  C_5 
REMARK    3  A    between atoms: N_7  and  C_11 
REMARK    4  A    between atoms: O_17  and  C_8 
REMARK    5  A    between atoms: C_21  and  O_17 
ROOT
ATOM      1  C   UNL d   1      -0.338  -1.350  -0.058  0.00  0.00     0.116 A 
ATOM      2  C   UNL d   1       0.916  -0.691  -0.089  0.00  0.00     0.153 A 
ATOM      3  N   UNL d   1       0.739   0.642  -0.138  0.00  0.00    -0.253 N 
ATOM      4  HN  UNL d   1       1.467   1.355  -0.180  1.00  0.00     0.195 HD
ATOM      5  C   UNL d   1      -1.278  -0.344  -0.062  0.00  0.00     0.132 A 
ATOM      6  O   UNL d   1      -0.621   0.849  -0.119  0.00  0.00    -0.235 OA
ATOM      7  C   UNL d   1      -0.596  -2.746  -0.015  0.00  0.00     0.105 C 
ATOM      8  N   UNL d   1      -0.863  -3.875   0.029  0.00  0.00    -0.191 NA
ENDROOT
BRANCH   2   9
ATOM      9  C   UNL d   1       2.244  -1.287  -0.004  0.00  0.00     0.313 C 
ATOM     10  O   UNL d   1       2.424  -2.492   0.121  0.00  0.00    -0.257 OA
BRANCH   9  11
ATOM     11  O   UNL d   1       3.237  -0.351   0.033  0.00  0.00    -0.317 OA
BRANCH  11  12
ATOM     12  C   UNL d   1       4.466  -0.769   0.637  0.00  0.00     0.175 C 
ATOM     13  C   UNL d   1       4.345  -0.559   2.136  0.00  0.00     0.034 C 
ENDBRANCH  11  12
ENDBRANCH   9  11
ENDBRANCH   2   9
BRANCH   5  14
ATOM     14  C   UNL d   1      -2.731  -0.247  -0.005  0.00  0.00     0.004 A 
ATOM     15  C   UNL d   1      -3.393   0.819  -0.638  0.00  0.00     0.050 A 
ATOM     16  C   UNL d   1      -4.792   0.909  -0.591  0.00  0.00     0.103 A 
ATOM     17  C   UNL d   1      -5.546  -0.051   0.091  0.00  0.00     0.036 A 
ATOM     18  C   UNL d   1      -4.894  -1.104   0.729  0.00  0.00     0.003 A 
ATOM     19  C   UNL d   1      -3.499  -1.200   0.681  0.00  0.00     0.014 A 
BRANCH  16  20
ATOM     20  N   UNL d   1      -5.471   2.019  -1.273  0.00  0.00    -0.116 N 
ATOM     21  O   UNL d   1      -4.766   2.840  -1.876  0.00  0.00    -0.532 OA
ATOM     22  O   UNL d   1      -6.707   2.065  -1.208  0.00  0.00    -0.532 OA
ENDBRANCH  16  20
ENDBRANCH   5  14
TORSDOF 5
