REMARK  5 active torsions:
REMARK  status: ('A' for Active; 'I' for Inactive)
REMARK    1  A    between atoms: N_3  and  C_18 
REMARK    2  A    between atoms: C_17  and  N_4 
REMARK    3  A    between atoms: C_24  and  C_17 
REMARK    4  A    between atoms: C_18  and  C_23 
REMARK    5  A    between atoms: C_23  and  C_24 
ROOT
ATOM      1  C   UNL d   1       3.321  -4.410   0.035  0.00  0.00     0.023 C 
ENDROOT
BRANCH   1   2
ATOM      2  C   UNL d   1       3.021  -5.908   0.036  0.00  0.00     0.145 C 
BRANCH   2   3
ATOM      3  N   UNL d   1       4.266  -6.665   0.013  0.00  0.00    -0.237 N 
ATOM      4  S   UNL d   1       4.529  -7.762  -1.232  0.00  0.00     0.268 S 
ATOM      5  C   UNL d   1       6.026  -8.320  -0.548  0.00  0.00     0.095 A 
ATOM      6  O   UNL d   1       3.556  -8.824  -1.142  0.00  0.00    -0.200 OA
ATOM      7  O   UNL d   1       4.811  -7.036  -2.447  0.00  0.00    -0.200 OA
ATOM      8  C   UNL d   1       6.874  -9.269  -1.085  0.00  0.00     0.026 A 
ATOM      9  C   UNL d   1       6.284  -7.680   0.657  0.00  0.00     0.056 A 
ATOM     10  C   UNL d   1       8.031  -9.569  -0.364  0.00  0.00     0.002 A 
ATOM     11  C   UNL d   1       8.309  -8.924   0.857  0.00  0.00     0.001 A 
ATOM     12  C   UNL d   1       7.430  -7.969   1.379  0.00  0.00     0.018 A 
ATOM     13  C   UNL d   1       5.238  -6.716   1.036  0.00  0.00     0.269 A 
ATOM     14  O   UNL d   1       5.219  -6.075   2.069  0.00  0.00    -0.266 OA
ENDBRANCH   2   3
ENDBRANCH   1   2
BRANCH   1  15
ATOM     15  C   UNL d   1       2.058  -3.552   0.024  0.00  0.00     0.023 C 
BRANCH  15  16
ATOM     16  C   UNL d   1       1.195  -3.763   1.266  0.00  0.00     0.145 C 
BRANCH  16  17
ATOM     17  N   UNL d   1       0.018  -2.907   1.208  0.00  0.00    -0.237 N 
ATOM     18  S   UNL d   1       0.061  -1.394   1.936  0.00  0.00     0.268 S 
ATOM     19  C   UNL d   1      -1.588  -1.046   1.512  0.00  0.00     0.095 A 
ATOM     20  O   UNL d   1       0.145  -1.559   3.368  0.00  0.00    -0.200 OA
ATOM     21  O   UNL d   1       0.926  -0.522   1.179  0.00  0.00    -0.200 OA
ATOM     22  C   UNL d   1      -2.154  -2.107   0.815  0.00  0.00     0.056 A 
ATOM     23  C   UNL d   1      -2.282   0.113   1.804  0.00  0.00     0.026 A 
ATOM     24  C   UNL d   1      -3.468  -2.043   0.384  0.00  0.00     0.018 A 
ATOM     25  C   UNL d   1      -1.222  -3.230   0.616  0.00  0.00     0.269 A 
ATOM     26  C   UNL d   1      -4.196  -0.883   0.667  0.00  0.00     0.001 A 
ATOM     27  C   UNL d   1      -3.607   0.186   1.370  0.00  0.00     0.002 A 
ATOM     28  O   UNL d   1      -1.481  -4.267   0.038  0.00  0.00    -0.266 OA
ENDBRANCH  16  17
ENDBRANCH  15  16
ENDBRANCH   1  15
TORSDOF 5
