REMARK  4 active torsions:
REMARK  status: ('A' for Active; 'I' for Inactive)
REMARK    1  A    between atoms: C_3  and  C_1 
REMARK    2  A    between atoms: C_4  and  CA_2 
REMARK       I    between atoms: N_7  and  C_3 
REMARK    3  A    between atoms: OXT_21  and  C_4 
REMARK    4  A    between atoms: C_14  and  N_7 
ROOT
ATOM      1  C   UNL d   1      -1.875  -4.521  -0.619  0.00  0.00     0.275 C 
ATOM      2  N   UNL d   1      -0.989  -3.931   0.270  0.00  0.00    -0.322 N 
ATOM      3  O   UNL d   1      -1.638  -5.439  -1.397  0.00  0.00    -0.266 OA
ATOM      4  H   UNL d   1      -1.366  -3.174   0.832  0.00  0.00     0.169 HD
ENDROOT
BRANCH   1   5
ATOM      5  C   UNL d   1      -3.202  -3.864  -0.692  0.00  0.00     0.134 A 
ATOM      6  CA  UNL d   1      -4.351  -4.554  -1.043  0.00  0.00     0.139 A 
ATOM      7  N   UNL d   1      -5.500  -3.915  -1.454  0.00  0.00    -0.357 N 
ATOM      8  C   UNL d   1      -5.438  -2.561  -1.449  0.00  0.00     0.105 A 
ATOM      9  HN  UNL d   1      -6.335  -4.424  -1.742  1.00  0.00     0.165 HD
ATOM     10  C   UNL d   1      -4.311  -1.869  -1.032  0.00  0.00     0.105 A 
ATOM     11  N   UNL d   1      -3.173  -2.494  -0.642  0.00  0.00    -0.358 N 
ATOM     12  HN  UNL d   1      -2.349  -1.978  -0.332  1.00  0.00     0.165 HD
BRANCH   6  13
ATOM     13  C   UNL d   1      -4.496  -6.021  -0.866  0.00  0.00     0.196 C 
ATOM     14  O   UNL d   1      -3.816  -6.718  -0.137  0.00  0.00    -0.645 OA
BRANCH  13  15
ATOM     15  OXT UNL d   1      -5.593  -6.468  -1.530  0.00  0.00    -0.772 OA
ATOM     16  HXT UNL d   1      -6.072  -5.708  -1.935  0.00  0.00     0.167 HD
ENDBRANCH  13  15
ENDBRANCH   6  13
ENDBRANCH   1   5
BRANCH   2  17
ATOM     17  C   UNL d   1       0.402  -4.147   0.352  0.00  0.00     0.035 A 
ATOM     18  C   UNL d   1       1.109  -4.963  -0.532  0.00  0.00     0.043 A 
ATOM     19  C   UNL d   1       2.516  -5.004  -0.507  0.00  0.00    -0.007 A 
ATOM     20  C   UNL d   1       3.239  -5.744  -1.448  0.00  0.00     0.015 A 
ATOM     21  C   UNL d   1       3.237  -4.262   0.447  0.00  0.00     0.042 A 
ATOM     22  C   UNL d   1       4.627  -5.695  -1.445  0.00  0.00     0.025 A 
ATOM     23  C   UNL d   1       5.260  -4.917  -0.486  0.00  0.00     0.005 A 
ATOM     24  N   UNL d   1       4.583  -4.228   0.465  0.00  0.00    -0.359 N 
ATOM     25  C   UNL d   1       6.755  -4.795  -0.491  0.00  0.00     0.068 C 
ATOM     26  HN  UNL d   1       5.081  -3.696   1.178  1.00  0.00     0.166 HD
ATOM     27  C   UNL d   1       2.514  -3.521   1.371  0.00  0.00     0.033 A 
ATOM     28  C   UNL d   1       1.115  -3.444   1.323  0.00  0.00     0.032 A 
ENDBRANCH   2  17
TORSDOF 4
