REMARK  2 active torsions:
REMARK  status: ('A' for Active; 'I' for Inactive)
REMARK    1  A    between atoms: S_12  and  C_3 
REMARK    2  A    between atoms: C_8  and  C_4 
ROOT
ATOM      1  C   UNL d   1       0.080  -0.819   0.024  0.00  0.00     0.041 A 
ATOM      2  C   UNL d   1       0.438   0.593  -0.040  0.00  0.00    -0.021 A 
ATOM      3  C   UNL d   1       1.187  -1.643   0.047  0.00  0.00     0.056 A 
ATOM      4  C   UNL d   1       1.815   0.783  -0.082  0.00  0.00     0.059 A 
ATOM      5  S   UNL d   1       2.627  -0.718  -0.041  0.00  0.00    -0.078 SA
ATOM      6  C   UNL d   1      -1.328  -1.204   0.106  0.00  0.00     0.162 C 
ATOM      7  C   UNL d   1      -0.623   1.687  -0.043  0.00  0.00     0.050 C 
ATOM      8  C   UNL d   1      -2.043   1.172   0.341  0.00  0.00    -0.037 C 
ATOM      9  C   UNL d   1      -2.308  -0.163  -0.378  0.00  0.00     0.093 C 
ATOM     10  O   UNL d   1      -1.728  -2.267   0.582  0.00  0.00    -0.292 OA
ATOM     11  C   UNL d   1      -3.120   2.178  -0.096  0.00  0.00     0.015 C 
ATOM     12  C   UNL d   1      -2.159   0.995   1.872  0.00  0.00     0.015 C 
ENDROOT
BRANCH   4  13
ATOM     13  C   UNL d   1       2.549   2.053  -0.147  0.00  0.00     0.163 C 
ATOM     14  O   UNL d   1       1.961   3.138  -0.207  0.00  0.00    -0.292 OA
ATOM     15  C   UNL d   1       4.064   2.082  -0.145  0.00  0.00     0.097 C 
ENDBRANCH   4  13
BRANCH   3  16
ATOM     16  S   UNL d   1       1.365  -3.391   0.209  0.00  0.00    -0.126 SA
ATOM     17  C   UNL d   1       0.075  -4.109  -0.823  0.00  0.00     0.096 C 
ENDBRANCH   3  16
TORSDOF 2
