REMARK  2 active torsions:
REMARK  status: ('A' for Active; 'I' for Inactive)
REMARK    1  A    between atoms: C_5  and  C_1 
REMARK    2  A    between atoms: C_16  and  C_10 
ROOT
ATOM      1  C   UNL d   1       1.441  -1.447   0.119  0.00  0.00     0.015 A 
ATOM      2  C   UNL d   1       1.343   0.876  -0.686  0.00  0.00     0.113 A 
ATOM      3  C   UNL d   1       2.008  -0.287  -0.564  0.00  0.00     0.044 A 
ATOM      4  N   UNL d   1      -0.485  -0.142   0.543  0.00  0.00    -0.326 N 
ATOM      5  C   UNL d   1      -0.023   0.978  -0.108  0.00  0.00     0.266 A 
ATOM      6  C   UNL d   1       0.211  -1.328   0.670  0.00  0.00     0.021 A 
ATOM      7  C   UNL d   1       1.910   1.997  -1.344  0.00  0.00     0.105 C 
ATOM      8  N   UNL d   1       2.423   2.881  -1.897  0.00  0.00    -0.191 NA
ATOM      9  O   UNL d   1      -0.710   1.989  -0.198  0.00  0.00    -0.267 OA
ATOM     10  C   UNL d   1      -0.477  -2.427   1.432  0.00  0.00     0.069 C 
ATOM     11  H   UNL d   1      -1.413  -0.051   0.943  0.00  0.00     0.169 HD
ENDROOT
BRANCH   1  12
ATOM     12  C   UNL d   1       2.206  -2.658   0.164  0.00  0.00     0.051 A 
ATOM     13  N   UNL d   1       3.070  -2.881   1.215  0.00  0.00    -0.349 N 
ATOM     14  C   UNL d   1       3.694  -4.035   1.048  0.00  0.00     0.084 A 
ATOM     15  HN  UNL d   1       3.208  -2.250   2.005  1.00  0.00     0.166 HD
ATOM     16  S   UNL d   1       3.221  -4.906  -0.373  0.00  0.00    -0.081 SA
ATOM     17  C   UNL d   1       2.148  -3.645  -0.794  0.00  0.00     0.082 A 
BRANCH  14  18
ATOM     18  C   UNL d   1       4.664  -4.621   1.992  0.00  0.00    -0.002 A 
ATOM     19  C   UNL d   1       4.551  -4.343   3.363  0.00  0.00     0.014 A 
ATOM     20  C   UNL d   1       5.419  -4.931   4.290  0.00  0.00     0.001 A 
ATOM     21  C   UNL d   1       6.424  -5.793   3.856  0.00  0.00     0.000 A 
ATOM     22  C   UNL d   1       6.573  -6.055   2.498  0.00  0.00     0.001 A 
ATOM     23  C   UNL d   1       5.704  -5.469   1.573  0.00  0.00     0.014 A 
ENDBRANCH  14  18
ENDBRANCH   1  12
TORSDOF 2
