REMARK  4 active torsions:
REMARK  status: ('A' for Active; 'I' for Inactive)
REMARK    1  A    between atoms: C_10  and  C_1 
REMARK    2  A    between atoms: C_7  and  C_2 
REMARK    3  A    between atoms: O_15  and  C_10 
REMARK    4  A    between atoms: C_16  and  O_15 
ROOT
ATOM      1  C   UNL d   1       1.144  -0.613  -0.058  0.00  0.00     0.125 A 
ATOM      2  C   UNL d   1      -0.286   1.087  -0.002  0.00  0.00     0.067 A 
ATOM      3  C   UNL d   1       1.081   0.764  -0.146  0.00  0.00     0.069 A 
ATOM      4  N   UNL d   1      -1.036  -0.013   0.155  0.00  0.00    -0.299 N 
ATOM      5  HN  UNL d   1      -2.045  -0.071   0.290  1.00  0.00     0.187 HD
ATOM      6  N   UNL d   1      -0.151  -1.019   0.093  0.00  0.00    -0.295 N 
ATOM      7  H   UNL d   1      -0.483  -1.975   0.195  0.00  0.00     0.187 HD
ENDROOT
BRANCH   2   8
ATOM      8  C   UNL d   1      -0.880   2.462  -0.018  0.00  0.00     0.034 A 
ATOM      9  S   UNL d   1       0.015   3.895  -0.293  0.00  0.00    -0.076 SA
ATOM     10  C   UNL d   1      -1.384   4.841  -0.216  0.00  0.00     0.075 A 
ATOM     11 CL   UNL d   1      -1.282   6.535  -0.477  0.00  0.00    -0.076 Cl
ATOM     12  C   UNL d   1      -2.518   4.120   0.056  0.00  0.00     0.033 A 
ATOM     13  C   UNL d   1      -2.223   2.728   0.174  0.00  0.00     0.023 A 
ENDBRANCH   2   8
BRANCH   1  14
ATOM     14  C   UNL d   1       2.244  -1.524  -0.037  0.00  0.00     0.311 C 
ATOM     15  O   UNL d   1       2.136  -2.735   0.117  0.00  0.00    -0.258 OA
BRANCH  14  16
ATOM     16  O   UNL d   1       3.411  -0.829  -0.080  0.00  0.00    -0.317 OA
BRANCH  16  17
ATOM     17  C   UNL d   1       4.537  -1.499   0.500  0.00  0.00     0.175 C 
ATOM     18  C   UNL d   1       4.527  -1.207   1.991  0.00  0.00     0.034 C 
ENDBRANCH  16  17
ENDBRANCH  14  16
ENDBRANCH   1  14
TORSDOF 4
