REMARK  4 active torsions:
REMARK  status: ('A' for Active; 'I' for Inactive)
REMARK    1  A    between atoms: N_2  and  C_1 
REMARK    2  A    between atoms: C_7  and  C_3 
REMARK    3  A    between atoms: C_6  and  C_5 
REMARK    4  A    between atoms: C_13  and  C_7 
ROOT
ATOM      1  C   UNL d   1       0.824  -3.752  -0.034  0.00  0.00     0.092 C 
ATOM      2  C   UNL d   1      -0.223  -2.898  -0.011  0.00  0.00     0.045 C 
ATOM      3  C   UNL d   1       0.669  -5.156  -0.162  0.00  0.00     0.103 C 
ATOM      4  N   UNL d   1       0.531  -6.302  -0.284  0.00  0.00    -0.191 NA
ENDROOT
BRANCH   1   5
ATOM      5  C   UNL d   1       2.199  -3.147   0.094  0.00  0.00     0.177 C 
ATOM      6  O   UNL d   1       2.326  -1.935  -0.119  0.00  0.00    -0.291 OA
BRANCH   5   7
ATOM      7  C   UNL d   1       3.447  -4.010   0.437  0.00  0.00     0.015 C 
ATOM      8  C   UNL d   1       3.926  -4.738  -0.827  0.00  0.00     0.023 C 
ATOM      9  C   UNL d   1       4.579  -3.060   0.895  0.00  0.00     0.023 C 
ATOM     10  C   UNL d   1       3.217  -4.998   1.591  0.00  0.00     0.023 C 
ENDBRANCH   5   7
ENDBRANCH   1   5
BRANCH   2  11
ATOM     11  C   UNL d   1      -1.599  -3.288  -0.090  0.00  0.00     0.009 A 
ATOM     12  S   UNL d   1      -2.771  -2.347   0.770  0.00  0.00    -0.066 SA
ATOM     13  C   UNL d   1      -4.043  -3.375   0.319  0.00  0.00     0.144 A 
ATOM     14  C   UNL d   1      -3.632  -4.396  -0.505  0.00  0.00     0.045 A 
ATOM     15  C   UNL d   1      -2.232  -4.321  -0.768  0.00  0.00     0.022 A 
BRANCH  13  16
ATOM     16  N   UNL d   1      -5.383  -3.143   0.789  0.00  0.00    -0.108 N 
ATOM     17  O   UNL d   1      -6.231  -3.989   0.466  0.00  0.00    -0.531 OA
ATOM     18  O   UNL d   1      -5.602  -2.134   1.469  0.00  0.00    -0.531 OA
ENDBRANCH  13  16
ENDBRANCH   2  11
TORSDOF 4
