REMARK  7 active torsions:
REMARK  status: ('A' for Active; 'I' for Inactive)
REMARK    1  A    between atoms: C_7  and  C_1 
REMARK    2  A    between atoms: C_8  and  C_6 
REMARK    3  A    between atoms: C_16  and  C_10 
REMARK    4  A    between atoms: S_20  and  C_13 
REMARK    5  A    between atoms: C_19  and  C_21 
REMARK    6  A    between atoms: C_26  and  C_19 
REMARK    7  A    between atoms: C_21  and  S_20 
ROOT
ATOM      1  N   UNL d   1       5.766   4.305   1.891  0.00  0.00    -0.336 N 
ATOM      2  HN  UNL d   1       5.651   3.440   2.419  1.00  0.00     0.168 HD
ATOM      3  C   UNL d   1       6.521   5.314   2.354  0.00  0.00     0.144 A 
ATOM      4  C   UNL d   1       5.168   4.488   0.697  0.00  0.00     0.052 A 
ATOM      5  N   UNL d   1       6.761   6.459   1.690  0.00  0.00    -0.347 N 
ATOM      6  HN  UNL d   1       7.361   7.189   2.074  1.00  0.00     0.167 HD
ATOM      7  C   UNL d   1       5.350   5.629  -0.057  0.00  0.00     0.048 A 
ATOM      8  C   UNL d   1       6.166   6.586   0.492  0.00  0.00     0.092 A 
ENDROOT
BRANCH   4   9
ATOM      9  C   UNL d   1       4.343   3.356   0.246  0.00  0.00     0.032 A 
ATOM     10  S   UNL d   1       2.939   3.609  -0.715  0.00  0.00    -0.086 SA
ATOM     11  C   UNL d   1       2.583   1.942  -0.794  0.00  0.00     0.034 A 
ATOM     12  C   UNL d   1       3.511   1.194  -0.103  0.00  0.00     0.023 A 
ATOM     13  C   UNL d   1       4.512   2.008   0.508  0.00  0.00     0.023 A 
BRANCH  11  14
ATOM     14  C   UNL d   1       1.402   1.363  -1.516  0.00  0.00     0.067 A 
ATOM     15  C   UNL d   1       0.450   2.069  -2.278  0.00  0.00     0.068 A 
ATOM     16  C   UNL d   1      -0.450   1.121  -2.737  0.00  0.00     0.136 A 
ATOM     17  N   UNL d   1      -0.023  -0.065  -2.207  0.00  0.00    -0.292 N 
ATOM     18  N   UNL d   1       1.122   0.056  -1.500  0.00  0.00    -0.297 N 
ATOM     19  C   UNL d   1      -0.617  -1.382  -2.244  0.00  0.00     0.178 C 
ATOM     20  HN  UNL d   1       1.657  -0.689  -1.052  1.00  0.00     0.187 HD
BRANCH  16  21
ATOM     21  C   UNL d   1      -1.635   1.321  -3.595  0.00  0.00     0.434 C 
ATOM     22  F   UNL d   1      -2.270   0.181  -3.954  0.00  0.00    -0.165 F 
ATOM     23  F   UNL d   1      -2.559   2.103  -2.982  0.00  0.00    -0.165 F 
ATOM     24  F   UNL d   1      -1.300   1.950  -4.750  0.00  0.00    -0.165 F 
ENDBRANCH  16  21
ENDBRANCH  11  14
ENDBRANCH   4   9
BRANCH   3  25
ATOM     25  S   UNL d   1       7.329   5.067   3.917  0.00  0.00    -0.086 SA
BRANCH  25  26
ATOM     26  C   UNL d   1       7.550   6.802   4.432  0.00  0.00     0.166 C 
BRANCH  26  27
ATOM     27  C   UNL d   1       6.221   7.504   4.660  0.00  0.00     0.169 C 
ATOM     28  O   UNL d   1       5.215   6.913   5.051  0.00  0.00    -0.291 OA
BRANCH  27  29
ATOM     29  C   UNL d   1       6.134   8.988   4.462  0.00  0.00     0.010 A 
ATOM     30  C   UNL d   1       7.253   9.796   4.226  0.00  0.00     0.015 A 
ATOM     31  C   UNL d   1       7.096  11.174   4.032  0.00  0.00     0.001 A 
ATOM     32  C   UNL d   1       5.830  11.753   4.083  0.00  0.00     0.000 A 
ATOM     33  C   UNL d   1       4.714  10.960   4.338  0.00  0.00     0.001 A 
ATOM     34  C   UNL d   1       4.865   9.585   4.527  0.00  0.00     0.015 A 
ENDBRANCH  27  29
ENDBRANCH  26  27
ENDBRANCH  25  26
ENDBRANCH   3  25
TORSDOF 7
