REMARK  7 active torsions:
REMARK  status: ('A' for Active; 'I' for Inactive)
REMARK    1  A    between atoms: S_11  and  C_1 
REMARK    2  A    between atoms: C_9  and  C_8 
REMARK    3  A    between atoms: C_12  and  C_9 
REMARK    4  A    between atoms: C_10  and  S_11 
REMARK    5  A    between atoms: O_22  and  C_17 
REMARK    6  A    between atoms: C_23  and  C_21 
REMARK    7  A    between atoms: C_24  and  O_22 
ROOT
ATOM      1  C   UNL d   1      -2.145  -0.748   0.294  0.00  0.00     0.117 A 
ATOM      2  N   UNL d   1      -2.097   0.301   1.079  0.00  0.00    -0.344 N 
ATOM      3  HN  UNL d   1      -2.905   0.737   1.523  1.00  0.00     0.167 HD
ATOM      4  S   UNL d   1      -0.628  -1.298  -0.303  0.00  0.00    -0.063 SA
ATOM      5  C   UNL d   1       0.172  -0.011   0.528  0.00  0.00     0.036 A 
ATOM      6  C   UNL d   1      -0.790   0.728   1.216  0.00  0.00     0.050 A 
ATOM      7  C   UNL d   1       1.540   0.326   0.579  0.00  0.00     0.058 A 
ATOM      8  C   UNL d   1      -0.375   1.831   1.981  0.00  0.00     0.034 A 
ATOM      9  C   UNL d   1       1.933   1.437   1.344  0.00  0.00     0.070 A 
ATOM     10  C   UNL d   1       0.980   2.176   2.038  0.00  0.00     0.039 A 
ENDROOT
BRANCH   1  11
ATOM     11  S   UNL d   1      -3.655  -1.576  -0.074  0.00  0.00    -0.077 SA
BRANCH  11  12
ATOM     12  C   UNL d   1      -4.795  -0.264   0.086  0.00  0.00     0.056 C 
ATOM     13  C   UNL d   1      -6.106  -0.486  -0.096  0.00  0.00     0.063 C 
BRANCH  13  14
ATOM     14  C   UNL d   1      -7.114   0.617  -0.038  0.00  0.00     0.182 C 
ATOM     15  O   UNL d   1      -6.889   1.682   0.527  0.00  0.00    -0.288 OA
BRANCH  14  16
ATOM     16  C   UNL d   1      -8.441   0.343  -0.676  0.00  0.00     0.014 A 
ATOM     17  C   UNL d   1      -9.600   0.935  -0.157  0.00  0.00     0.016 A 
ATOM     18  C   UNL d   1     -10.856   0.650  -0.716  0.00  0.00     0.008 A 
ATOM     19  C   UNL d   1     -10.970  -0.210  -1.817  0.00  0.00    -0.059 A 
ATOM     20  C   UNL d   1      -9.804  -0.763  -2.361  0.00  0.00     0.008 A 
ATOM     21  C   UNL d   1      -8.552  -0.486  -1.801  0.00  0.00     0.016 A 
BRANCH  19  22
ATOM     22  C   UNL d   1     -12.314  -0.544  -2.421  0.00  0.00     0.034 C 
ATOM     23  C   UNL d   1     -12.945  -1.789  -1.812  0.00  0.00     0.010 C 
ENDBRANCH  19  22
ENDBRANCH  14  16
ENDBRANCH  13  14
ENDBRANCH  11  12
ENDBRANCH   1  11
BRANCH   9  24
ATOM     24  O   UNL d   1       3.281   1.703   1.337  0.00  0.00    -0.351 OA
BRANCH  24  25
ATOM     25  C   UNL d   1       3.716   2.831   2.103  0.00  0.00     0.171 C 
ATOM     26  C   UNL d   1       5.223   2.971   1.975  0.00  0.00     0.034 C 
ENDBRANCH  24  25
ENDBRANCH   9  24
TORSDOF 7
