REMARK  9 active torsions:
REMARK  status: ('A' for Active; 'I' for Inactive)
REMARK    1  A    between atoms: N_2  and  C_1 
REMARK    2  A    between atoms: C_3  and  C_1 
REMARK    3  A    between atoms: C_6  and  C_1 
REMARK    4  A    between atoms: N_7  and  C_1 
REMARK       I    between atoms: C_4  and  N_2 
REMARK    5  A    between atoms: C_5  and  C_4 
REMARK    6  A    between atoms: O_15  and  C_6 
REMARK    7  A    between atoms: C_14  and  N_7 
REMARK    8  A    between atoms: C_25  and  O_15 
REMARK    9  A    between atoms: O_23  and  C_17 
ROOT
ATOM      1  C   UNL d   1       0.815  -0.067  -0.047  0.00  0.00     0.297 C 
ENDROOT
BRANCH   1   2
ATOM      2  N   UNL d   1       0.553   1.363  -0.179  0.00  0.00    -0.314 N 
ATOM      3  C   UNL d   1      -0.694   1.920  -0.224  0.00  0.00     0.255 C 
ATOM      4  O   UNL d   1      -1.699   1.227  -0.225  0.00  0.00    -0.268 OA
ATOM      5  H   UNL d   1       1.385   1.935  -0.181  0.00  0.00     0.166 HD
BRANCH   3   6
ATOM      6  C   UNL d   1      -0.792   3.419  -0.221  0.00  0.00     0.053 A 
ATOM      7  C   UNL d   1       0.266   4.324  -0.413  0.00  0.00     0.049 A 
ATOM      8 CL   UNL d   1       1.877   3.873  -0.854  0.00  0.00    -0.083 Cl
ATOM      9  C   UNL d   1       0.049   5.704  -0.283  0.00  0.00     0.025 A 
ATOM     10  C   UNL d   1      -1.220   6.202   0.002  0.00  0.00     0.002 A 
ATOM     11  C   UNL d   1      -2.287   5.322   0.142  0.00  0.00     0.001 A 
ATOM     12  C   UNL d   1      -2.073   3.945   0.036  0.00  0.00     0.019 A 
ENDBRANCH   3   6
ENDBRANCH   1   2
BRANCH   1  13
ATOM     13  C   UNL d   1       0.018  -1.090  -0.933  0.00  0.00     0.442 C 
ATOM     14  F   UNL d   1      -0.691  -0.503  -1.928  0.00  0.00    -0.166 F 
ATOM     15  F   UNL d   1       0.866  -1.959  -1.558  0.00  0.00    -0.166 F 
ATOM     16  F   UNL d   1      -0.838  -1.872  -0.231  0.00  0.00    -0.166 F 
ENDBRANCH   1  13
BRANCH   1  17
ATOM     17  C   UNL d   1       0.483  -0.487   1.417  0.00  0.00     0.318 C 
ATOM     18  O   UNL d   1      -0.387   0.004   2.131  0.00  0.00    -0.260 OA
BRANCH  17  19
ATOM     19  O   UNL d   1       1.319  -1.494   1.835  0.00  0.00    -0.318 OA
BRANCH  19  20
ATOM     20  C   UNL d   1       1.060  -1.985   3.161  0.00  0.00     0.174 C 
ATOM     21  C   UNL d   1       1.638  -1.053   4.213  0.00  0.00     0.034 C 
ENDBRANCH  19  20
ENDBRANCH  17  19
ENDBRANCH   1  17
BRANCH   1  22
ATOM     22  N   UNL d   1       2.310  -0.101  -0.217  0.00  0.00    -0.348 N 
ATOM     23  H   UNL d   1       2.720  -0.880   0.298  0.00  0.00     0.163 HD
BRANCH  22  24
ATOM     24  C   UNL d   1       2.974   0.137  -1.422  0.00  0.00     0.030 A 
ATOM     25  C   UNL d   1       2.362   0.661  -2.563  0.00  0.00     0.032 A 
ATOM     26  C   UNL d   1       3.102   1.021  -3.698  0.00  0.00     0.039 A 
ATOM     27  C   UNL d   1       4.484   0.875  -3.712  0.00  0.00     0.068 A 
ATOM     28  C   UNL d   1       5.114   0.352  -2.585  0.00  0.00     0.039 A 
ATOM     29  C   UNL d   1       4.368  -0.003  -1.451  0.00  0.00     0.032 A 
BRANCH  27  30
ATOM     30  O   UNL d   1       5.312   1.209  -4.747  0.00  0.00    -0.356 OA
ATOM     31  C   UNL d   1       4.707   1.859  -5.860  0.00  0.00     0.210 C 
ENDBRANCH  27  30
ENDBRANCH  22  24
ENDBRANCH   1  22
TORSDOF 9
