REMARK  4 active torsions:
REMARK  status: ('A' for Active; 'I' for Inactive)
REMARK    1  A    between atoms: C_2  and  S_1 
REMARK    2  A    between atoms: C_5  and  S_1 
REMARK    3  A    between atoms: N_12  and  C_3 
REMARK    4  A    between atoms: C_11  and  N_12 
ROOT
ATOM      1  C   UNL d   1       0.407   0.049   1.649  0.00  0.00     0.155 C 
ATOM      2  C   UNL d   1      -0.380   1.064   2.045  0.00  0.00     0.124 C 
ATOM      3  C   UNL d   1       0.884  -0.072   0.325  0.00  0.00     0.113 C 
ATOM      4  N   UNL d   1       1.271  -0.086  -0.770  0.00  0.00    -0.191 NA
ENDROOT
BRANCH   1   5
ATOM      5  S   UNL d   1       0.738  -1.260   2.750  0.00  0.00     0.194 S 
ATOM      6  O   UNL d   1       0.962  -2.465   1.973  0.00  0.00    -0.221 OA
ATOM      7  O   UNL d   1      -0.292  -1.283   3.777  0.00  0.00    -0.221 OA
BRANCH   5   8
ATOM      8  C   UNL d   1       2.310  -0.853   3.580  0.00  0.00     0.058 C 
ATOM      9  C   UNL d   1       2.188   0.445   4.389  0.00  0.00     0.031 C 
ATOM     10  C   UNL d   1       2.631  -2.006   4.554  0.00  0.00     0.031 C 
ATOM     11  C   UNL d   1       3.457  -0.731   2.569  0.00  0.00     0.031 C 
ENDBRANCH   5   8
ENDBRANCH   1   5
BRANCH   2  12
ATOM     12  N   UNL d   1      -0.907   2.105   1.308  0.00  0.00    -0.350 N 
ATOM     13  H   UNL d   1      -0.656   2.176   0.327  0.00  0.00     0.166 HD
BRANCH  12  14
ATOM     14  C   UNL d   1      -1.502   3.257   1.852  0.00  0.00     0.104 A 
ATOM     15  N   UNL d   1      -1.342   3.541   3.164  0.00  0.00    -0.351 N 
ATOM     16  C   UNL d   1      -2.002   4.616   3.667  0.00  0.00     0.113 A 
ATOM     17  HN  UNL d   1      -0.746   2.965   3.758  1.00  0.00     0.166 HD
ATOM     18  C   UNL d   1      -2.837   5.429   2.921  0.00  0.00     0.049 A 
ATOM     19  C   UNL d   1      -3.002   5.133   1.577  0.00  0.00     0.029 A 
ATOM     20 CL   UNL d   1      -3.654   6.756   3.637  0.00  0.00    -0.083 Cl
ATOM     21  C   UNL d   1      -2.328   4.036   1.037  0.00  0.00     0.050 A 
ENDBRANCH  12  14
ENDBRANCH   2  12
TORSDOF 4
