REMARK  7 active torsions:
REMARK  status: ('A' for Active; 'I' for Inactive)
REMARK    1  A    between atoms: C_6  and  C_1 
REMARK    2  A    between atoms: N_4  and  C_19 
REMARK    3  A    between atoms: O_21  and  C_6 
REMARK    4  A    between atoms: C_28  and  C_15 
REMARK    5  A    between atoms: C_18  and  O_25 
REMARK    6  A    between atoms: C_29  and  O_21 
REMARK    7  A    between atoms: O_25  and  C_28 
ROOT
ATOM      1  C   UNL d   1       1.269   0.724  -0.119  0.00  0.00     0.116 A 
ATOM      2  N   UNL d   1       1.418  -0.632   0.188  0.00  0.00    -0.347 N 
ATOM      3  HN  UNL d   1       2.277  -1.059   0.533  1.00  0.00     0.166 HD
ATOM      4  C   UNL d   1       0.001   1.065  -0.556  0.00  0.00     0.087 A 
ATOM      5  C   UNL d   1       0.288  -1.280  -0.031  0.00  0.00     0.075 A 
ATOM      6  S   UNL d   1      -1.034  -0.297  -0.529  0.00  0.00    -0.084 SA
ENDROOT
BRANCH   5   7
ATOM      7  C   UNL d   1       0.130  -2.776   0.023  0.00  0.00     0.240 C 
BRANCH   7   8
ATOM      8  O   UNL d   1      -0.190  -3.150   1.367  0.00  0.00    -0.345 OA
BRANCH   8   9
ATOM      9  C   UNL d   1      -0.384  -4.500   1.576  0.00  0.00     0.071 A 
ATOM     10  C   UNL d   1      -1.266  -4.798   2.634  0.00  0.00     0.070 A 
ATOM     11  C   UNL d   1      -1.465  -6.169   2.877  0.00  0.00     0.087 A 
ATOM     12  N   UNL d   1      -2.240  -6.771   3.791  0.00  0.00    -0.239 N 
ATOM     13  C   UNL d   1      -0.792  -7.202   2.105  0.00  0.00     0.085 A 
ATOM     14  O   UNL d   1      -2.061  -8.133   3.599  0.00  0.00    -0.156 OA
ATOM     15  HN  UNL d   1      -2.838  -6.321   4.483  1.00  0.00     0.197 HD
ATOM     16  N   UNL d   1      -1.176  -8.397   2.568  0.00  0.00    -0.240 N 
ATOM     17  HN  UNL d   1      -0.878  -9.313   2.231  1.00  0.00     0.197 HD
ATOM     18  C   UNL d   1       0.102  -6.896   1.065  0.00  0.00     0.036 A 
ATOM     19  C   UNL d   1       0.282  -5.516   0.832  0.00  0.00     0.039 A 
ENDBRANCH   8   9
ENDBRANCH   7   8
ENDBRANCH   5   7
BRANCH   1  20
ATOM     20  C   UNL d   1       2.350   1.706   0.012  0.00  0.00     0.315 C 
ATOM     21  O   UNL d   1       2.362   2.763  -0.610  0.00  0.00    -0.257 OA
BRANCH  20  22
ATOM     22  O   UNL d   1       3.286   1.325   0.979  0.00  0.00    -0.274 OA
BRANCH  22  23
ATOM     23  C   UNL d   1       4.292   2.163   1.522  0.00  0.00     0.079 A 
ATOM     24  C   UNL d   1       4.795   1.738   2.756  0.00  0.00     0.040 A 
ATOM     25  C   UNL d   1       5.800   2.469   3.395  0.00  0.00     0.039 A 
ATOM     26  C   UNL d   1       6.303   3.625   2.784  0.00  0.00     0.103 A 
ATOM     27  C   UNL d   1       5.793   4.056   1.550  0.00  0.00     0.039 A 
ATOM     28  C   UNL d   1       4.786   3.318   0.915  0.00  0.00     0.040 A 
BRANCH  26  29
ATOM     29  N   UNL d   1       7.386   4.375   3.433  0.00  0.00    -0.116 N 
ATOM     30  O   UNL d   1       7.810   3.957   4.520  0.00  0.00    -0.532 OA
ATOM     31  O   UNL d   1       7.816   5.384   2.853  0.00  0.00    -0.532 OA
ENDBRANCH  26  29
ENDBRANCH  22  23
ENDBRANCH  20  22
ENDBRANCH   1  20
TORSDOF 7
