REMARK  6 active torsions:
REMARK  status: ('A' for Active; 'I' for Inactive)
REMARK    1  A    between atoms: C_8  and  C_1 
REMARK    2  A    between atoms: S_9  and  C_4 
REMARK    3  A    between atoms: C_10  and  N_5 
REMARK       I    between atoms: N_16  and  C_8 
REMARK    4  A    between atoms: C_18  and  S_9 
REMARK    5  A    between atoms: N_11  and  N_16 
REMARK    6  A    between atoms: N_19  and  C_15 
ROOT
ATOM      1  C   UNL d   1      -0.639   1.165  -0.060  0.00  0.00     0.170 C 
ATOM      2  N   UNL d   1      -1.376   0.088   0.054  0.00  0.00    -0.285 N 
ATOM      3  HN  UNL d   1      -2.386   0.144   0.186  1.00  0.00     0.188 HD
ATOM      4  C   UNL d   1       1.500  -0.193  -0.029  0.00  0.00     0.075 C 
ATOM      5  N   UNL d   1      -0.724  -1.127  -0.011  0.00  0.00    -0.266 N 
ATOM      6  C   UNL d   1       0.848   1.094  -0.337  0.00  0.00     0.224 C 
ATOM      7  C   UNL d   1       0.655  -1.221   0.076  0.00  0.00     0.139 C 
ATOM      8  O   UNL d   1       1.427   2.047  -0.837  0.00  0.00    -0.284 OA
ENDROOT
BRANCH   1   9
ATOM      9  C   UNL d   1      -1.296   2.508   0.140  0.00  0.00     0.292 C 
ATOM     10  N   UNL d   1      -2.512   2.688  -0.506  0.00  0.00    -0.264 N 
ATOM     11  H   UNL d   1      -2.968   1.927  -0.997  0.00  0.00     0.190 HD
ATOM     12  O   UNL d   1      -0.719   3.313   0.865  0.00  0.00    -0.264 OA
BRANCH  10  13
ATOM     13  N   UNL d   1      -3.091   3.921  -0.440  0.00  0.00    -0.293 N 
ATOM     14  C   UNL d   1      -4.262   4.083  -0.968  0.00  0.00     0.194 C 
ATOM     15  HN  UNL d   1      -2.613   4.698   0.016  1.00  0.00     0.187 HD
BRANCH  14  16
ATOM     16  N   UNL d   1      -4.959   5.269  -0.989  0.00  0.00    -0.385 N 
ATOM     17  C   UNL d   1      -4.356   6.506  -0.506  0.00  0.00     0.149 C 
ATOM     18  C   UNL d   1      -6.260   5.412  -1.615  0.00  0.00     0.149 C 
ENDBRANCH  14  16
ENDBRANCH  10  13
ENDBRANCH   1   9
BRANCH   5  19
ATOM     19  C   UNL d   1      -1.558  -2.290  -0.016  0.00  0.00     0.057 A 
ATOM     20  C   UNL d   1      -2.818  -2.284   0.603  0.00  0.00     0.055 A 
ATOM     21  C   UNL d   1      -3.609  -3.435   0.619  0.00  0.00     0.036 A 
ATOM     22 CL   UNL d   1      -5.134  -3.412   1.418  0.00  0.00    -0.084 Cl
ATOM     23  C   UNL d   1      -3.176  -4.607   0.004  0.00  0.00     0.024 A 
ATOM     24  C   UNL d   1      -1.940  -4.630  -0.634  0.00  0.00     0.004 A 
ATOM     25  C   UNL d   1      -1.141  -3.483  -0.642  0.00  0.00     0.031 A 
ENDBRANCH   5  19
BRANCH   4  26
ATOM     26  S   UNL d   1       3.212  -0.340  -0.005  0.00  0.00    -0.085 SA
BRANCH  26  27
ATOM     27  C   UNL d   1       3.532   0.160   1.676  0.00  0.00     0.005 A 
ATOM     28  C   UNL d   1       3.747  -0.806   2.667  0.00  0.00     0.020 A 
ATOM     29  C   UNL d   1       4.029  -0.421   3.981  0.00  0.00     0.025 A 
ATOM     30  C   UNL d   1       4.106   0.932   4.305  0.00  0.00     0.034 A 
ATOM     31  C   UNL d   1       3.909   1.902   3.324  0.00  0.00     0.025 A 
ATOM     32 CL   UNL d   1       4.451   1.406   5.922  0.00  0.00    -0.084 Cl
ATOM     33  C   UNL d   1       3.627   1.516   2.009  0.00  0.00     0.020 A 
ENDBRANCH  26  27
ENDBRANCH   4  26
TORSDOF 6
