REMARK  4 active torsions:
REMARK  status: ('A' for Active; 'I' for Inactive)
REMARK    1  A    between atoms: C_11  and  N_1 
REMARK    2  A    between atoms: C_7  and  C_2 
REMARK    3  A    between atoms: O_8  and  C_7 
REMARK    4  A    between atoms: C_9  and  O_8 
ROOT
ATOM      1  N   UNL d   1       1.048  -0.770  -0.627  0.00  0.00    -0.273 N 
ATOM      2  C   UNL d   1       0.964   0.472  -0.087  0.00  0.00     0.135 A 
ATOM      3  N   UNL d   1      -0.226   0.757   0.385  0.00  0.00    -0.284 N 
ATOM      4  HN  UNL d   1      -0.531   1.635   0.806  1.00  0.00     0.188 HD
ATOM      5  C   UNL d   1      -0.212  -1.333  -0.451  0.00  0.00     0.199 A 
ATOM      6  N   UNL d   1      -0.964  -0.364   0.194  0.00  0.00    -0.274 N 
ATOM      7  S   UNL d   1      -0.869  -2.780  -0.932  0.00  0.00    -0.039 SA
ATOM      8  H   UNL d   1      -1.951  -0.412   0.417  0.00  0.00     0.189 HD
ENDROOT
BRANCH   2   9
ATOM      9  C   UNL d   1       2.089   1.529  -0.004  0.00  0.00     0.194 C 
ATOM     10  C   UNL d   1       3.526   1.027   0.065  0.00  0.00     0.048 C 
BRANCH   9  11
ATOM     11  O   UNL d   1       1.955   2.240   1.246  0.00  0.00    -0.337 OA
BRANCH  11  12
ATOM     12  C   UNL d   1       1.159   3.346   1.314  0.00  0.00     0.091 A 
ATOM     13  C   UNL d   1       0.429   3.544   2.500  0.00  0.00     0.069 A 
ATOM     14  C   UNL d   1      -0.375   4.674   2.664  0.00  0.00     0.050 A 
ATOM     15 CL   UNL d   1       0.500   2.405   3.800  0.00  0.00    -0.081 Cl
ATOM     16  C   UNL d   1      -0.436   5.620   1.647  0.00  0.00     0.035 A 
ATOM     17  C   UNL d   1       0.307   5.452   0.479  0.00  0.00     0.026 A 
ATOM     18 CL   UNL d   1      -1.417   7.020   1.839  0.00  0.00    -0.084 Cl
ATOM     19  C   UNL d   1       1.112   4.320   0.316  0.00  0.00     0.040 A 
ENDBRANCH  11  12
ENDBRANCH   9  11
ENDBRANCH   2   9
BRANCH   1  20
ATOM     20  C   UNL d   1       2.041  -1.321  -1.461  0.00  0.00     0.043 A 
ATOM     21  C   UNL d   1       2.547  -2.602  -1.204  0.00  0.00     0.030 A 
ATOM     22  C   UNL d   1       3.496  -3.173  -2.055  0.00  0.00     0.002 A 
ATOM     23  C   UNL d   1       3.940  -2.470  -3.172  0.00  0.00     0.000 A 
ATOM     24  C   UNL d   1       3.435  -1.199  -3.442  0.00  0.00     0.002 A 
ATOM     25  C   UNL d   1       2.485  -0.627  -2.593  0.00  0.00     0.030 A 
ENDBRANCH   1  20
TORSDOF 4
