REMARK  4 active torsions:
REMARK  status: ('A' for Active; 'I' for Inactive)
REMARK    1  A    between atoms: C_8  and  C_3 
REMARK    2  A    between atoms: C_10  and  C_4 
REMARK    3  A    between atoms: C_7  and  C_8 
REMARK    4  A    between atoms: N_12  and  C_9 
ROOT
ATOM      1  N   UNL d   1       1.420  -0.668  -0.046  0.00  0.00    -0.346 N 
ATOM      2  HN  UNL d   1       2.310  -1.166  -0.067  1.00  0.00     0.167 HD
ATOM      3  C   UNL d   1       1.292   0.727  -0.004  0.00  0.00     0.090 A 
ATOM      4  C   UNL d   1       0.235  -1.252  -0.055  0.00  0.00     0.085 A 
ATOM      5  S   UNL d   1      -1.098  -0.159   0.027  0.00  0.00    -0.081 SA
ATOM      6  C   UNL d   1      -0.020   1.163   0.048  0.00  0.00     0.085 A 
ENDROOT
BRANCH   3   7
ATOM      7  C   UNL d   1       2.433   1.651  -0.008  0.00  0.00     0.200 C 
ATOM      8  O   UNL d   1       2.307   2.872   0.023  0.00  0.00    -0.286 OA
BRANCH   7   9
ATOM      9  C   UNL d   1       3.760   0.976  -0.049  0.00  0.00     0.074 C 
ATOM     10  C   UNL d   1       4.899   1.684  -0.064  0.00  0.00     0.088 C 
BRANCH  10  11
ATOM     11  N   UNL d   1       6.216   1.240  -0.096  0.00  0.00    -0.398 N 
ATOM     12  C   UNL d   1       6.621  -0.165  -0.108  0.00  0.00     0.148 C 
ATOM     13  C   UNL d   1       7.344   2.176  -0.115  0.00  0.00     0.148 C 
ENDBRANCH  10  11
ENDBRANCH   7   9
ENDBRANCH   3   7
BRANCH   4  14
ATOM     14  C   UNL d   1       0.013  -2.711  -0.052  0.00  0.00    -0.002 A 
ATOM     15  C   UNL d   1       0.964  -3.555   0.545  0.00  0.00     0.014 A 
ATOM     16  C   UNL d   1       0.752  -4.935   0.625  0.00  0.00     0.001 A 
ATOM     17  C   UNL d   1      -0.408  -5.496   0.095  0.00  0.00     0.000 A 
ATOM     18  C   UNL d   1      -1.346  -4.681  -0.532  0.00  0.00     0.001 A 
ATOM     19  C   UNL d   1      -1.134  -3.301  -0.611  0.00  0.00     0.014 A 
ENDBRANCH   4  14
TORSDOF 4
