REMARK  4 active torsions:
REMARK  status: ('A' for Active; 'I' for Inactive)
REMARK    1  A    between atoms: C_4  and  C_1 
REMARK    2  A    between atoms: O_11  and  C_3 
REMARK    3  A    between atoms: O_10  and  N_5 
REMARK    4  A    between atoms: O_12  and  C_7 
ROOT
ATOM      1  C   UNL d   1       3.330  -1.854   0.258  0.00  0.00    -0.009 A 
ATOM      2  C   UNL d   1       2.384  -2.891   0.204  0.00  0.00     0.053 A 
ATOM      3  C   UNL d   1       2.778  -4.241   0.218  0.00  0.00     0.102 A 
ATOM      4  C   UNL d   1       4.149  -4.545   0.304  0.00  0.00     0.101 A 
ATOM      5  C   UNL d   1       4.684  -2.164   0.357  0.00  0.00     0.016 A 
ATOM      6  C   UNL d   1       5.083  -3.500   0.376  0.00  0.00     0.040 A 
ENDROOT
BRANCH   1   7
ATOM      7  C   UNL d   1       2.855  -0.437   0.223  0.00  0.00     0.038 C 
ATOM      8  N   UNL d   1       1.677  -0.160   0.705  0.00  0.00    -0.273 N 
ATOM      9  HN  UNL d   1       1.043  -0.852   1.105  1.00  0.00     0.193 HD
ATOM     10  C   UNL d   1       3.758   0.620  -0.384  0.00  0.00     0.071 C 
BRANCH   8  11
ATOM     11  O   UNL d   1       1.389   1.206   0.604  0.00  0.00    -0.290 OA
ATOM     12  H   UNL d   1       0.514   1.268   1.031  0.00  0.00     0.244 HD
ENDBRANCH   8  11
ENDBRANCH   1   7
BRANCH   3  13
ATOM     13  O   UNL d   1       1.887  -5.277   0.142  0.00  0.00    -0.353 OA
ATOM     14  C   UNL d   1       0.499  -4.978   0.075  0.00  0.00     0.210 C 
ENDBRANCH   3  13
BRANCH   4  15
ATOM     15  O   UNL d   1       4.759  -5.772   0.335  0.00  0.00    -0.353 OA
ATOM     16  C   UNL d   1       3.961  -6.944   0.278  0.00  0.00     0.210 C 
ENDBRANCH   4  15
TORSDOF 4
