REMARK  7 active torsions:
REMARK  status: ('A' for Active; 'I' for Inactive)
REMARK    1  A    between atoms: S_9  and  C_1 
REMARK    2  A    between atoms: C_7  and  C_15 
REMARK       I    between atoms: N_11  and  C_7 
REMARK    3  A    between atoms: C_8  and  C_14 
REMARK       I    between atoms: N_10  and  C_8 
REMARK    4  A    between atoms: C_14  and  S_9 
REMARK    5  A    between atoms: C_15  and  N_10 
REMARK    6  A    between atoms: C_16  and  N_11 
REMARK    7  A    between atoms: C_17  and  C_16 
ROOT
ATOM      1  C   UNL d   1      -7.395  -1.778   0.662  0.00  0.00     0.227 C 
ATOM      2  N   UNL d   1      -6.519  -2.163  -0.322  0.00  0.00    -0.352 N 
ATOM      3  O   UNL d   1      -7.589  -2.487   1.651  0.00  0.00    -0.273 OA
ATOM      4  H   UNL d   1      -6.333  -1.493  -1.060  0.00  0.00     0.162 HD
ENDROOT
BRANCH   1   5
ATOM      5  C   UNL d   1      -8.035  -0.397   0.530  0.00  0.00     0.184 C 
BRANCH   5   6
ATOM      6  S   UNL d   1      -7.953   0.328  -1.135  0.00  0.00    -0.096 SA
BRANCH   6   7
ATOM      7  C   UNL d   1      -9.047  -0.724  -2.006  0.00  0.00     0.113 A 
ATOM      8  N   UNL d   1      -9.862  -1.531  -1.379  0.00  0.00    -0.344 N 
ATOM      9  C   UNL d   1     -10.534  -2.310  -2.306  0.00  0.00     0.050 A 
ATOM     10  HN  UNL d   1      -9.985  -1.579  -0.368  1.00  0.00     0.167 HD
ATOM     11  C   UNL d   1     -11.473  -3.309  -2.004  0.00  0.00     0.031 A 
ATOM     12  C   UNL d   1     -10.217  -2.073  -3.644  0.00  0.00     0.034 A 
ATOM     13  C   UNL d   1     -12.012  -4.098  -3.026  0.00  0.00     0.002 A 
ATOM     14  C   UNL d   1     -11.664  -3.865  -4.349  0.00  0.00     0.002 A 
ATOM     15  C   UNL d   1     -10.784  -2.831  -4.684  0.00  0.00     0.021 A 
ATOM     16  S   UNL d   1      -9.084  -0.781  -3.716  0.00  0.00    -0.063 SA
ENDBRANCH   6   7
ENDBRANCH   5   6
ENDBRANCH   1   5
BRANCH   2  17
ATOM     17  C   UNL d   1      -5.529  -3.208  -0.119  0.00  0.00     0.225 C 
BRANCH  17  18
ATOM     18  C   UNL d   1      -5.953  -4.678  -0.266  0.00  0.00     0.235 C 
ATOM     19  N   UNL d   1      -7.163  -5.033   0.284  0.00  0.00    -0.355 N 
ATOM     20  H   UNL d   1      -7.628  -4.328   0.854  0.00  0.00     0.162 HD
ATOM     21  O   UNL d   1      -5.153  -5.509  -0.711  0.00  0.00    -0.272 OA
BRANCH  19  22
ATOM     22  C   UNL d   1      -7.510  -6.428   0.501  0.00  0.00     0.161 C 
BRANCH  22  23
ATOM     23  C   UNL d   1      -8.868  -6.850  -0.012  0.00  0.00    -0.041 A 
ATOM     24  C   UNL d   1      -9.917  -5.947  -0.195  0.00  0.00     0.009 A 
ATOM     25  C   UNL d   1     -11.181  -6.401  -0.587  0.00  0.00     0.001 A 
ATOM     26  C   UNL d   1     -11.410  -7.745  -0.857  0.00  0.00     0.000 A 
ATOM     27  C   UNL d   1     -10.382  -8.659  -0.673  0.00  0.00     0.001 A 
ATOM     28  C   UNL d   1      -9.128  -8.217  -0.233  0.00  0.00     0.009 A 
ENDBRANCH  22  23
ENDBRANCH  19  22
ENDBRANCH  17  18
ENDBRANCH   2  17
TORSDOF 7
