REMARK  4 active torsions:
REMARK  status: ('A' for Active; 'I' for Inactive)
REMARK    1  A    between atoms: N_9  and  C_2 
REMARK    2  A    between atoms: C_7  and  C_3 
REMARK    3  A    between atoms: C_10  and  C_4 
REMARK    4  A    between atoms: O_14  and  C_7 
ROOT
ATOM      1  C   UNL d   1      -0.700  -0.073  -0.044  0.00  0.00     0.090 A 
ATOM      2  C   UNL d   1       0.200   0.994  -0.041  0.00  0.00     0.094 A 
ATOM      3  C   UNL d   1       1.306  -1.274   0.011  0.00  0.00     0.095 A 
ATOM      4  C   UNL d   1      -0.080  -1.388  -0.031  0.00  0.00     0.021 A 
ATOM      5  S   UNL d   1       1.805   0.360  -0.037  0.00  0.00    -0.064 SA
ATOM      6  C   UNL d   1      -2.120   0.125  -0.019  0.00  0.00     0.103 C 
ATOM      7  N   UNL d   1      -3.273   0.273   0.016  0.00  0.00    -0.191 NA
ENDROOT
BRANCH   2   8
ATOM      8  N   UNL d   1      -0.037   2.353  -0.057  0.00  0.00    -0.383 N 
ATOM      9  C   UNL d   1       0.877   3.314   0.559  0.00  0.00     0.149 C 
ATOM     10  C   UNL d   1      -1.217   2.959  -0.668  0.00  0.00     0.149 C 
ENDBRANCH   2   8
BRANCH   4  11
ATOM     11  C   UNL d   1      -0.778  -2.692  -0.066  0.00  0.00    -0.023 A 
ATOM     12  C   UNL d   1      -1.954  -2.899   0.674  0.00  0.00     0.014 A 
ATOM     13  C   UNL d   1      -2.659  -4.106   0.591  0.00  0.00     0.024 A 
ATOM     14  C   UNL d   1      -2.167  -5.144  -0.192  0.00  0.00     0.034 A 
ATOM     15  C   UNL d   1      -0.990  -4.975  -0.911  0.00  0.00     0.024 A 
ATOM     16 CL   UNL d   1      -3.018  -6.636  -0.272  0.00  0.00    -0.084 Cl
ATOM     17  C   UNL d   1      -0.318  -3.747  -0.871  0.00  0.00     0.014 A 
ENDBRANCH   4  11
BRANCH   3  18
ATOM     18  C   UNL d   1       2.315  -2.316   0.141  0.00  0.00     0.300 C 
ATOM     19  O   UNL d   1       2.179  -3.360   0.769  0.00  0.00    -0.259 OA
BRANCH  18  20
ATOM     20  O   UNL d   1       3.423  -2.024  -0.602  0.00  0.00    -0.322 OA
ATOM     21  C   UNL d   1       4.392  -3.077  -0.634  0.00  0.00     0.213 C 
ENDBRANCH  18  20
ENDBRANCH   3  18
TORSDOF 4
