REMARK  1 active torsions:
REMARK  status: ('A' for Active; 'I' for Inactive)
REMARK    1  A    between atoms: C_10  and  C_5 
ROOT
ATOM      1  C   UNL d   1       0.003  -0.745  -0.035  0.00  0.00     0.045 A 
ATOM      2  C   UNL d   1      -1.265  -1.497   0.031  0.00  0.00     0.165 C 
ATOM      3  O   UNL d   1      -1.206   1.367   0.097  0.00  0.00    -0.340 OA
ATOM      4  C   UNL d   1      -0.045   0.648   0.028  0.00  0.00     0.083 A 
ATOM      5  C   UNL d   1      -2.369   0.642  -0.344  0.00  0.00     0.169 C 
ATOM      6  C   UNL d   1      -2.486  -0.692   0.379  0.00  0.00     0.121 C 
ATOM      7  C   UNL d   1       1.226  -1.415  -0.104  0.00  0.00     0.042 A 
ATOM      8  O   UNL d   1      -1.288  -2.711  -0.129  0.00  0.00    -0.292 OA
ATOM      9  C   UNL d   1       1.141   1.381   0.058  0.00  0.00     0.039 A 
ATOM     10  C   UNL d   1       2.406  -0.675  -0.082  0.00  0.00     0.035 A 
ATOM     11  C   UNL d   1       2.369   0.718   0.003  0.00  0.00     0.026 A 
ATOM     12 CL   UNL d   1       3.924  -1.483  -0.139  0.00  0.00    -0.084 Cl
ENDROOT
BRANCH   5  13
ATOM     13  C   UNL d   1      -3.603   1.499  -0.119  0.00  0.00    -0.029 A 
ATOM     14  C   UNL d   1      -4.729   1.330  -0.943  0.00  0.00     0.010 A 
ATOM     15  C   UNL d   1      -5.861   2.131  -0.775  0.00  0.00     0.001 A 
ATOM     16  C   UNL d   1      -5.887   3.104   0.221  0.00  0.00     0.000 A 
ATOM     17  C   UNL d   1      -4.788   3.267   1.061  0.00  0.00     0.001 A 
ATOM     18  C   UNL d   1      -3.657   2.465   0.898  0.00  0.00     0.010 A 
ENDBRANCH   5  13
TORSDOF 1
