REMARK  1 active torsions:
REMARK  status: ('A' for Active; 'I' for Inactive)
REMARK    1  A    between atoms: C_6  and  C_2 
ROOT
ATOM      1  C   UNL d   1       0.561   1.332  -0.149  0.00  0.00     0.235 C 
ATOM      2  C   UNL d   1       1.421   0.153   0.344  0.00  0.00     0.172 C 
ATOM      3  N   UNL d   1      -0.807   1.200  -0.188  0.00  0.00    -0.359 N 
ATOM      4  S   UNL d   1       0.855  -1.410  -0.449  0.00  0.00    -0.148 SA
ATOM      5  O   UNL d   1       1.043   2.442  -0.380  0.00  0.00    -0.272 OA
ATOM      6  C   UNL d   1      -1.514  -0.036  -0.467  0.00  0.00     0.133 C 
ATOM      7  C   UNL d   1      -0.879  -1.313   0.067  0.00  0.00     0.095 C 
ATOM      8  H   UNL d   1      -1.252   2.057  -0.494  0.00  0.00     0.162 HD
ENDROOT
BRANCH   2   9
ATOM      9  C   UNL d   1       1.506   0.041   1.867  0.00  0.00    -0.035 A 
ATOM     10  C   UNL d   1       0.871   0.958   2.725  0.00  0.00     0.009 A 
ATOM     11  C   UNL d   1       0.954   0.826   4.114  0.00  0.00     0.001 A 
ATOM     12  C   UNL d   1       1.683  -0.217   4.673  0.00  0.00     0.000 A 
ATOM     13  C   UNL d   1       2.343  -1.121   3.845  0.00  0.00     0.001 A 
ATOM     14  C   UNL d   1       2.263  -0.988   2.457  0.00  0.00     0.009 A 
ENDBRANCH   2   9
TORSDOF 1
