REMARK  3 active torsions:
REMARK  status: ('A' for Active; 'I' for Inactive)
REMARK    1  A    between atoms: N_2  and  C_1 
REMARK    2  A    between atoms: N_3  and  C_6 
REMARK    3  A    between atoms: N_8  and  C_4 
ROOT
ATOM      1  C   UNL d   1      -1.841  -0.026  -0.014  0.00  0.00     0.131 A 
ATOM      2  C   UNL d   1      -1.166  -1.256   0.017  0.00  0.00     0.064 A 
ATOM      3  C   UNL d   1      -1.168   1.210  -0.040  0.00  0.00     0.075 A 
ATOM      4  C   UNL d   1       0.231   1.222  -0.044  0.00  0.00     0.111 A 
ATOM      5  C   UNL d   1       0.248  -1.173  -0.021  0.00  0.00     0.041 A 
ATOM      6  C   UNL d   1       0.969   0.035  -0.035  0.00  0.00    -0.027 A 
ATOM      7  C   UNL d   1       2.469  -0.057  -0.029  0.00  0.00     0.050 C 
ENDROOT
BRANCH   2   8
ATOM      8  N   UNL d   1      -1.703  -2.536   0.058  0.00  0.00    -0.379 N 
ATOM      9  C   UNL d   1      -2.993  -2.906  -0.534  0.00  0.00     0.123 C 
ATOM     10  C   UNL d   1      -2.906  -4.355  -1.028  0.00  0.00     0.020 C 
ATOM     11  C   UNL d   1      -2.430  -5.312   0.067  0.00  0.00     0.003 C 
ATOM     12  C   UNL d   1      -1.148  -4.811   0.727  0.00  0.00     0.020 C 
ATOM     13  C   UNL d   1      -1.313  -3.372   1.208  0.00  0.00     0.123 C 
ENDBRANCH   2   8
BRANCH   1  14
ATOM     14  N   UNL d   1      -3.286   0.060   0.045  0.00  0.00    -0.113 N 
ATOM     15  O   UNL d   1      -3.839  -0.311   1.091  0.00  0.00    -0.532 OA
ATOM     16  O   UNL d   1      -3.856   0.554  -0.937  0.00  0.00    -0.532 OA
ENDBRANCH   1  14
BRANCH   4  17
ATOM     17  N   UNL d   1       0.883   2.520  -0.037  0.00  0.00    -0.115 N 
ATOM     18  O   UNL d   1       0.619   3.272   0.910  0.00  0.00    -0.532 OA
ATOM     19  O   UNL d   1       1.629   2.786  -0.987  0.00  0.00    -0.532 OA
ENDBRANCH   4  17
TORSDOF 3
