REMARK  4 active torsions:
REMARK  status: ('A' for Active; 'I' for Inactive)
REMARK    1  A    between atoms: C_7  and  C_1 
REMARK    2  A    between atoms: O_13  and  C_7 
REMARK    3  A    between atoms: N_8  and  O_13 
REMARK    4  A    between atoms: C_10  and  C_14 
ROOT
ATOM      1  O   UNL d   1      -4.067   0.357  -0.093  0.00  0.00    -0.194 OA
ENDROOT
BRANCH   1   2
ATOM      2  N   UNL d   1      -5.404  -0.111  -0.077  0.00  0.00    -0.268 N 
ATOM      3  C   UNL d   1      -6.252   0.864  -0.144  0.00  0.00     0.127 C 
ATOM      4  HN  UNL d   1      -5.665  -1.095  -0.020  1.00  0.00     0.194 HD
BRANCH   3   5
ATOM      5  C   UNL d   1      -7.710   0.581  -0.124  0.00  0.00     0.003 A 
ATOM      6  C   UNL d   1      -8.674   1.594  -0.182  0.00  0.00     0.045 A 
ATOM      7 CL   UNL d   1      -8.268   3.267  -0.325  0.00  0.00    -0.083 Cl
ATOM      8  C   UNL d   1     -10.036   1.267  -0.128  0.00  0.00     0.024 A 
ATOM      9  C   UNL d   1     -10.443  -0.065  -0.024  0.00  0.00     0.002 A 
ATOM     10  C   UNL d   1      -9.490  -1.078   0.022  0.00  0.00     0.001 A 
ATOM     11  C   UNL d   1      -8.131  -0.758  -0.027  0.00  0.00     0.014 A 
ENDBRANCH   3   5
ENDBRANCH   1   2
BRANCH   1  12
ATOM     12  C   UNL d   1      -3.219  -0.737  -0.032  0.00  0.00     0.333 C 
ATOM     13  O   UNL d   1      -3.590  -1.912   0.009  0.00  0.00    -0.256 OA
BRANCH  12  14
ATOM     14  C   UNL d   1      -1.788  -0.394  -0.020  0.00  0.00     0.127 A 
ATOM     15  N   UNL d   1      -1.285   0.856  -0.039  0.00  0.00    -0.293 N 
ATOM     16  N   UNL d   1       0.055   0.681  -0.015  0.00  0.00    -0.300 N 
ATOM     17  HN  UNL d   1      -1.799   1.737  -0.066  1.00  0.00     0.187 HD
ATOM     18  C   UNL d   1       0.931   1.830  -0.015  0.00  0.00     0.177 C 
ATOM     19  C   UNL d   1       0.439  -0.634   0.011  0.00  0.00     0.026 A 
ATOM     20  C   UNL d   1      -0.734  -1.351   0.017  0.00  0.00     0.063 A 
ATOM     21  C   UNL d   1       1.849  -1.091   0.028  0.00  0.00     0.070 C 
ENDBRANCH  12  14
ENDBRANCH   1  12
TORSDOF 4
