REMARK  3 active torsions:
REMARK  status: ('A' for Active; 'I' for Inactive)
REMARK    1  A    between atoms: C_6  and  C_1 
REMARK    2  A    between atoms: N_10  and  C_6 
REMARK    3  A    between atoms: O_12  and  N_8 
ROOT
ATOM      1  C   UNL d   1       0.748  -1.244  -0.028  0.00  0.00     0.091 A 
ATOM      2  N   UNL d   1       1.048   0.095  -0.127  0.00  0.00    -0.293 N 
ATOM      3  N   UNL d   1      -0.033   0.902  -0.041  0.00  0.00    -0.303 N 
ATOM      4  HN  UNL d   1      -0.057   1.922  -0.064  1.00  0.00     0.186 HD
ATOM      5  C   UNL d   1      -0.632  -1.280   0.093  0.00  0.00     0.060 A 
ATOM      6  C   UNL d   1      -1.062   0.062   0.080  0.00  0.00     0.024 A 
ATOM      7  C   UNL d   1       2.322   0.710  -0.424  0.00  0.00     0.178 C 
ATOM      8  C   UNL d   1      -2.447   0.584   0.162  0.00  0.00     0.070 C 
ENDROOT
BRANCH   1   9
ATOM      9  C   UNL d   1       1.658  -2.367  -0.129  0.00  0.00     0.126 C 
ATOM     10  N   UNL d   1       2.815  -2.456   0.479  0.00  0.00    -0.256 N 
ATOM     11  HN  UNL d   1       3.461  -3.232   0.331  1.00  0.00     0.195 HD
BRANCH  10  12
ATOM     12  O   UNL d   1       3.085  -1.396   1.347  0.00  0.00    -0.288 OA
ATOM     13  H   UNL d   1       3.953  -1.647   1.715  0.00  0.00     0.244 HD
ENDBRANCH  10  12
BRANCH   9  14
ATOM     14  N   UNL d   1       1.317  -3.467  -0.873  0.00  0.00    -0.285 NA
ATOM     15  H   UNL d   1       0.327  -3.653  -0.956  0.00  0.00     0.125 HD
ATOM     16  H   UNL d   1       1.865  -4.280  -0.619  0.00  0.00     0.125 HD
ENDBRANCH   9  14
ENDBRANCH   1   9
TORSDOF 3
