REMARK  4 active torsions:
REMARK  status: ('A' for Active; 'I' for Inactive)
REMARK    1  A    between atoms: C_3  and  C_1 
REMARK    2  A    between atoms: C_2  and  C_4 
REMARK       I    between atoms: N_7  and  C_3 
REMARK    3  A    between atoms: N_9  and  N_7 
REMARK    4  A    between atoms: C_11  and  N_9 
ROOT
ATOM      1  N   UNL d   1       2.946   3.152  -0.025  0.00  0.00    -0.202 NA
ATOM      2  H   UNL d   1       2.329   3.121   0.804  0.00  0.00     0.153 HD
ENDROOT
BRANCH   1   3
ATOM      3  N   UNL d   1       3.504   1.877  -0.255  0.00  0.00    -0.282 N 
ATOM      4  C   UNL d   1       3.119   0.825   0.570  0.00  0.00     0.274 C 
ATOM      5  O   UNL d   1       2.403   1.034   1.550  0.00  0.00    -0.266 OA
ATOM      6  H   UNL d   1       3.842   1.685  -1.192  0.00  0.00     0.184 HD
BRANCH   4   7
ATOM      7  C   UNL d   1       3.612  -0.491   0.176  0.00  0.00     0.091 A 
ATOM      8  C   UNL d   1       3.259  -1.739   0.650  0.00  0.00     0.034 A 
ATOM      9  C   UNL d   1       3.994  -2.805   0.062  0.00  0.00     0.028 A 
ATOM     10 BR   UNL d   1       1.938  -2.130   1.948  0.00  0.00    -0.049 Br
ATOM     11  C   UNL d   1       4.902  -2.345  -0.864  0.00  0.00     0.052 A 
ATOM     12  S   UNL d   1       4.845  -0.647  -1.024  0.00  0.00    -0.095 SA
ENDBRANCH   4   7
ENDBRANCH   1   3
BRANCH   1  13
ATOM     13  C   UNL d   1       3.912   4.195   0.048  0.00  0.00     0.042 A 
ATOM     14  C   UNL d   1       3.697   5.346   0.833  0.00  0.00     0.070 A 
ATOM     15  C   UNL d   1       4.637   6.403   0.798  0.00  0.00     0.018 A 
ATOM     16  C   UNL d   1       5.761   6.344  -0.020  0.00  0.00     0.001 A 
ATOM     17  C   UNL d   1       5.959   5.232  -0.824  0.00  0.00     0.002 A 
ATOM     18  C   UNL d   1       5.040   4.180  -0.798  0.00  0.00     0.026 A 
BRANCH  14  19
ATOM     19  C   UNL d   1       2.504   5.528   1.739  0.00  0.00     0.419 C 
ATOM     20  F   UNL d   1       1.641   4.473   1.761  0.00  0.00    -0.166 F 
ATOM     21  F   UNL d   1       2.869   5.729   3.037  0.00  0.00    -0.166 F 
ATOM     22  F   UNL d   1       1.754   6.614   1.397  0.00  0.00    -0.166 F 
ENDBRANCH  14  19
ENDBRANCH   1  13
TORSDOF 4
