REMARK  21 active torsions:
REMARK  status: ('A' for Active; 'I' for Inactive)
REMARK    1  A    between atoms: C_9  and  C_4 
REMARK    2  A    between atoms: N_7  and  C_10 
REMARK    3  A    between atoms: N_8  and  C_14 
REMARK       I    between atoms: N_16  and  C_9 
REMARK    4  A    between atoms: C_24  and  N_16 
REMARK    5  A    between atoms: C_25  and  N_16 
REMARK    6  A    between atoms: C_27  and  C_24 
REMARK    7  A    between atoms: C_26  and  C_25 
REMARK    8  A    between atoms: C_38  and  C_26 
REMARK    9  A    between atoms: C_39  and  C_27 
REMARK   10  A    between atoms: C_28  and  C_30 
REMARK   11  A    between atoms: C_29  and  C_31 
REMARK   12  A    between atoms: C_30  and  C_36 
REMARK   13  A    between atoms: C_31  and  C_37 
REMARK   14  A    between atoms: C_32  and  C_40 
REMARK   15  A    between atoms: C_34  and  C_32 
REMARK   16  A    between atoms: C_33  and  C_41 
REMARK   17  A    between atoms: C_35  and  C_33 
REMARK   18  A    between atoms: C_36  and  C_34 
REMARK   19  A    between atoms: C_37  and  C_35 
REMARK   20  A    between atoms: C_40  and  C_38 
REMARK   21  A    between atoms: C_41  and  C_39 
ROOT
ATOM      1  C   UNL d   1      -1.150   3.135   0.118  0.00  0.00     0.254 C 
ATOM      2  N   UNL d   1       0.109   3.679   0.476  0.00  0.00    -0.348 N 
ATOM      3  O   UNL d   1      -1.417   1.966   0.415  0.00  0.00    -0.267 OA
ENDROOT
BRANCH   1   4
ATOM      4  C   UNL d   1      -2.192   3.825  -0.764  0.00  0.00     0.046 C 
ATOM      5  C   UNL d   1      -2.558   5.170  -0.866  0.00  0.00     0.005 C 
ATOM      6  C   UNL d   1      -3.232   5.601  -2.044  0.00  0.00     0.029 C 
ATOM      7  C   UNL d   1      -2.340   6.373  -0.064  0.00  0.00    -0.010 C 
ATOM      8  C   UNL d   1      -3.139   7.064  -2.120  0.00  0.00     0.194 C 
ATOM      9  C   UNL d   1      -3.839   4.765  -2.952  0.00  0.00     0.052 C 
ATOM     10  O   UNL d   1      -3.499   7.767  -3.036  0.00  0.00    -0.287 OA
ATOM     11  C   UNL d   1      -2.530   7.516  -0.870  0.00  0.00     0.028 C 
ATOM     12  C   UNL d   1      -2.193   8.798  -0.474  0.00  0.00     0.052 C 
ATOM     13  C   UNL d   1      -1.733   8.939   0.834  0.00  0.00     0.103 C 
ATOM     14  C   UNL d   1      -1.689   7.831   1.718  0.00  0.00     0.037 C 
ATOM     15  C   UNL d   1      -2.012   6.542   1.263  0.00  0.00     0.016 C 
ATOM     16  C   UNL d   1      -3.716   3.405  -2.696  0.00  0.00     0.104 C 
ATOM     17  C   UNL d   1      -2.852   2.940  -1.668  0.00  0.00     0.054 C 
BRANCH  13  18
ATOM     18  N   UNL d   1      -1.270  10.251   1.301  0.00  0.00    -0.116 N 
ATOM     19  O   UNL d   1      -1.210  11.169   0.471  0.00  0.00    -0.532 OA
ATOM     20  O   UNL d   1      -0.941  10.353   2.492  0.00  0.00    -0.532 OA
ENDBRANCH  13  18
BRANCH  16  21
ATOM     21  N   UNL d   1      -4.503   2.456  -3.493  0.00  0.00    -0.116 N 
ATOM     22  O   UNL d   1      -5.310   2.926  -4.306  0.00  0.00    -0.532 OA
ATOM     23  O   UNL d   1      -4.336   1.250  -3.282  0.00  0.00    -0.532 OA
ENDBRANCH  16  21
ENDBRANCH   1   4
BRANCH   2  24
ATOM     24  C   UNL d   1       0.489   5.058   0.289  0.00  0.00     0.126 C 
BRANCH  24  25
ATOM     25  C   UNL d   1       1.774   5.361  -0.445  0.00  0.00     0.020 C 
BRANCH  25  26
ATOM     26  C   UNL d   1       1.874   6.878  -0.525  0.00  0.00     0.002 C 
BRANCH  26  27
ATOM     27  C   UNL d   1       3.157   7.235  -1.233  0.00  0.00     0.000 C 
BRANCH  27  28
ATOM     28  C   UNL d   1       3.299   8.736  -1.353  0.00  0.00     0.000 C 
BRANCH  28  29
ATOM     29  C   UNL d   1       4.599   9.020  -2.073  0.00  0.00     0.000 C 
BRANCH  29  30
ATOM     30  C   UNL d   1       4.806  10.512  -2.233  0.00  0.00     0.000 C 
BRANCH  30  31
ATOM     31  C   UNL d   1       6.117  10.764  -2.959  0.00  0.00    -0.000 C 
BRANCH  31  32
ATOM     32  C   UNL d   1       6.349  12.257  -3.133  0.00  0.00    -0.005 C 
ATOM     33  C   UNL d   1       7.655  12.512  -3.857  0.00  0.00     0.005 C 
ENDBRANCH  31  32
ENDBRANCH  30  31
ENDBRANCH  29  30
ENDBRANCH  28  29
ENDBRANCH  27  28
ENDBRANCH  26  27
ENDBRANCH  25  26
ENDBRANCH  24  25
ENDBRANCH   2  24
BRANCH   2  34
ATOM     34  C   UNL d   1       1.159   2.766   0.985  0.00  0.00     0.126 C 
BRANCH  34  35
ATOM     35  C   UNL d   1       2.029   3.264   2.159  0.00  0.00     0.020 C 
BRANCH  35  36
ATOM     36  C   UNL d   1       1.284   3.464   3.474  0.00  0.00     0.002 C 
BRANCH  36  37
ATOM     37  C   UNL d   1       2.178   4.008   4.602  0.00  0.00     0.000 C 
BRANCH  37  38
ATOM     38  C   UNL d   1       2.768   5.396   4.317  0.00  0.00     0.000 C 
BRANCH  38  39
ATOM     39  C   UNL d   1       3.595   5.928   5.492  0.00  0.00     0.000 C 
BRANCH  39  40
ATOM     40  C   UNL d   1       4.196   7.302   5.173  0.00  0.00     0.000 C 
BRANCH  40  41
ATOM     41  C   UNL d   1       5.024   7.828   6.346  0.00  0.00    -0.000 C 
BRANCH  41  42
ATOM     42  C   UNL d   1       5.630   9.201   6.052  0.00  0.00    -0.005 C 
ATOM     43  C   UNL d   1       6.444   9.702   7.236  0.00  0.00     0.005 C 
ENDBRANCH  41  42
ENDBRANCH  40  41
ENDBRANCH  39  40
ENDBRANCH  38  39
ENDBRANCH  37  38
ENDBRANCH  36  37
ENDBRANCH  35  36
ENDBRANCH  34  35
ENDBRANCH   2  34
TORSDOF 21
