REMARK  3 active torsions:
REMARK  status: ('A' for Active; 'I' for Inactive)
REMARK    1  A    between atoms: S_8  and  C_1 
REMARK    2  A    between atoms: C_2  and  S_8 
REMARK    3  A    between atoms: N_17  and  C_9 
ROOT
ATOM      1  C   UNL d   1       2.788  -1.220  -0.072  0.00  0.00     0.120 A 
ATOM      2  N   UNL d   1       1.604  -1.790  -0.038  0.00  0.00    -0.344 N 
ATOM      3  HN  UNL d   1       1.437  -2.796  -0.019  1.00  0.00     0.167 HD
ATOM      4  S   UNL d   1       2.802   0.492  -0.064  0.00  0.00    -0.063 SA
ATOM      5  C   UNL d   1       0.618  -0.815  -0.032  0.00  0.00     0.052 A 
ATOM      6  C   UNL d   1       1.080   0.503  -0.047  0.00  0.00     0.034 A 
ATOM      7  C   UNL d   1      -0.771  -1.049  -0.002  0.00  0.00     0.054 A 
ATOM      8  C   UNL d   1       0.202   1.601  -0.038  0.00  0.00     0.023 A 
ATOM      9  C   UNL d   1      -1.649   0.038   0.004  0.00  0.00     0.036 A 
ATOM     10  C   UNL d   1      -1.173   1.345  -0.014  0.00  0.00     0.025 A 
ATOM     11 CL   UNL d   1      -3.347  -0.245   0.036  0.00  0.00    -0.084 Cl
ENDROOT
BRANCH   1  12
ATOM     12  S   UNL d   1       4.248  -2.180   0.030  0.00  0.00    -0.038 SA
BRANCH  12  13
ATOM     13  C   UNL d   1       4.542  -2.368  -1.683  0.00  0.00     0.136 A 
ATOM     14  S   UNL d   1       5.351  -3.743  -2.317  0.00  0.00    -0.026 SA
ATOM     15  C   UNL d   1       5.242  -3.008  -3.865  0.00  0.00     0.159 A 
ATOM     16  N   UNL d   1       4.654  -1.833  -3.853  0.00  0.00    -0.279 N 
ATOM     17  N   UNL d   1       4.253  -1.454  -2.584  0.00  0.00    -0.286 N 
ATOM     18  HN  UNL d   1       4.508  -1.264  -4.687  1.00  0.00     0.189 HD
ATOM     19  HN  UNL d   1       3.789  -0.570  -2.373  1.00  0.00     0.188 HD
BRANCH  15  20
ATOM     20  N   UNL d   1       5.743  -3.604  -4.962  0.00  0.00    -0.379 N 
ATOM     21  H   UNL d   1       6.441  -4.329  -4.848  0.00  0.00     0.158 HD
ATOM     22  H   UNL d   1       5.877  -3.015  -5.777  0.00  0.00     0.158 HD
ENDBRANCH  15  20
ENDBRANCH  12  13
ENDBRANCH   1  12
TORSDOF 3
