REMARK  8 active torsions:
REMARK  status: ('A' for Active; 'I' for Inactive)
REMARK    1  A    between atoms: C_2  and  C_1 
REMARK    2  A    between atoms: O_8  and  C_2 
REMARK    3  A    between atoms: C_12  and  C_5 
REMARK    4  A    between atoms: C_9  and  O_8 
REMARK    5  A    between atoms: O_19  and  C_10 
REMARK    6  A    between atoms: C_16  and  C_20 
REMARK    7  A    between atoms: C_21  and  C_17 
REMARK    8  A    between atoms: C_20  and  C_21 
ROOT
ATOM      1  C   UNL d   1       0.071  -2.850   0.581  0.00  0.00     0.303 C 
ATOM      2  O   UNL d   1      -0.348  -1.805   1.051  0.00  0.00    -0.259 OA
ENDROOT
BRANCH   1   3
ATOM      3  C   UNL d   1       1.418  -3.374   0.796  0.00  0.00     0.100 A 
ATOM      4  C   UNL d   1       2.492  -2.924   1.645  0.00  0.00     0.084 A 
ATOM      5  N   UNL d   1       3.573  -3.708   1.467  0.00  0.00    -0.259 N 
ATOM      6  O   UNL d   1       3.235  -4.665   0.556  0.00  0.00    -0.241 OA
ATOM      7  HN  UNL d   1       4.477  -3.606   1.928  1.00  0.00     0.195 HD
ATOM      8  C   UNL d   1       1.957  -4.483   0.157  0.00  0.00     0.091 A 
ATOM      9  C   UNL d   1       1.477  -5.467  -0.838  0.00  0.00     0.080 C 
BRANCH   4  10
ATOM     10  C   UNL d   1       2.594  -1.837   2.630  0.00  0.00    -0.006 A 
ATOM     11  C   UNL d   1       3.843  -1.233   2.875  0.00  0.00     0.014 A 
ATOM     12  C   UNL d   1       3.997  -0.256   3.864  0.00  0.00     0.001 A 
ATOM     13  C   UNL d   1       2.900   0.138   4.622  0.00  0.00     0.000 A 
ATOM     14  C   UNL d   1       1.657  -0.448   4.394  0.00  0.00     0.001 A 
ATOM     15  C   UNL d   1       1.508  -1.436   3.413  0.00  0.00     0.014 A 
ENDBRANCH   4  10
ENDBRANCH   1   3
BRANCH   1  16
ATOM     16  O   UNL d   1      -0.675  -3.690  -0.257  0.00  0.00    -0.272 OA
BRANCH  16  17
ATOM     17  C   UNL d   1      -2.025  -3.401  -0.528  0.00  0.00     0.112 A 
ATOM     18  C   UNL d   1      -2.438  -2.554  -1.560  0.00  0.00     0.102 A 
ATOM     19  C   UNL d   1      -3.818  -2.401  -1.793  0.00  0.00     0.046 A 
ATOM     20  C   UNL d   1      -4.781  -3.113  -1.061  0.00  0.00    -0.055 A 
ATOM     21  C   UNL d   1      -4.329  -3.982  -0.056  0.00  0.00     0.010 A 
ATOM     22  C   UNL d   1      -2.964  -4.130   0.208  0.00  0.00     0.041 A 
BRANCH  18  23
ATOM     23  O   UNL d   1      -1.666  -1.804  -2.402  0.00  0.00    -0.353 OA
ATOM     24  C   UNL d   1      -0.336  -2.228  -2.650  0.00  0.00     0.210 C 
ENDBRANCH  18  23
BRANCH  20  25
ATOM     25  C   UNL d   1      -6.273  -2.900  -1.223  0.00  0.00     0.046 C 
BRANCH  25  26
ATOM     26  C   UNL d   1      -6.798  -2.536  -2.616  0.00  0.00     0.082 C 
BRANCH  26  27
ATOM     27  C   UNL d   1      -8.294  -2.258  -2.582  0.00  0.00     0.123 C 
ATOM     28  O   UNL d   1      -8.970  -2.388  -1.562  0.00  0.00    -0.298 OA
ATOM     29  C   UNL d   1      -8.929  -1.802  -3.870  0.00  0.00     0.091 C 
ENDBRANCH  26  27
ENDBRANCH  25  26
ENDBRANCH  20  25
ENDBRANCH  16  17
ENDBRANCH   1  16
TORSDOF 8
