REMARK  2 active torsions:
REMARK  status: ('A' for Active; 'I' for Inactive)
REMARK    1  A    between atoms: S_7  and  C_1 
REMARK    2  A    between atoms: C_8  and  S_7 
ROOT
ATOM      1  C   UNL d   1       0.005   1.226   0.018  0.00  0.00     0.046 A 
ATOM      2  C   UNL d   1       0.778   0.032   0.041  0.00  0.00     0.040 A 
ATOM      3  N   UNL d   1      -0.013  -1.056   0.073  0.00  0.00    -0.304 N 
ATOM      4  HN  UNL d   1       0.273  -2.035   0.089  1.00  0.00     0.186 HD
ATOM      5  N   UNL d   1      -1.258  -0.565   0.079  0.00  0.00    -0.310 N 
ATOM      6  C   UNL d   1      -1.302   0.791   0.049  0.00  0.00     0.128 A 
ATOM      7  C   UNL d   1       2.242  -0.211   0.022  0.00  0.00     0.071 C 
ATOM      8  H   UNL d   1      -2.031  -1.220   0.103  0.00  0.00     0.186 HD
ENDROOT
BRANCH   1   9
ATOM      9  S   UNL d   1       0.389   2.926  -0.035  0.00  0.00    -0.087 SA
BRANCH   9  10
ATOM     10  C   UNL d   1       2.150   3.080  -0.090  0.00  0.00     0.005 A 
ATOM     11  C   UNL d   1       2.817   3.132  -1.320  0.00  0.00     0.020 A 
ATOM     12  C   UNL d   1       4.202   3.317  -1.363  0.00  0.00     0.025 A 
ATOM     13  C   UNL d   1       4.919   3.457  -0.176  0.00  0.00     0.034 A 
ATOM     14  C   UNL d   1       4.265   3.414   1.052  0.00  0.00     0.025 A 
ATOM     15 CL   UNL d   1       6.622   3.694  -0.230  0.00  0.00    -0.084 Cl
ATOM     16  C   UNL d   1       2.879   3.235   1.095  0.00  0.00     0.020 A 
ENDBRANCH   9  10
ENDBRANCH   1   9
TORSDOF 2
