REMARK  3 active torsions:
REMARK  status: ('A' for Active; 'I' for Inactive)
REMARK    1  A    between atoms: C_5  and  C_3 
REMARK    2  A    between atoms: C_12  and  N_4 
REMARK    3  A    between atoms: S_16  and  C_11 
ROOT
ATOM      1  N   UNL d   1       1.222  -0.678  -0.034  0.00  0.00    -0.288 N 
ATOM      2  HN  UNL d   1       2.092  -1.210  -0.024  1.00  0.00     0.188 HD
ATOM      3  C   UNL d   1       1.236   0.625  -0.133  0.00  0.00     0.125 C 
ATOM      4  N   UNL d   1       0.005  -1.316   0.057  0.00  0.00    -0.267 N 
ATOM      5  C   UNL d   1      -0.044   1.447  -0.043  0.00  0.00     0.203 C 
ATOM      6  C   UNL d   1      -1.307   0.700  -0.059  0.00  0.00     0.076 C 
ATOM      7  C   UNL d   1      -1.190  -0.626   0.005  0.00  0.00     0.120 C 
ATOM      8  O   UNL d   1      -0.047   2.656   0.120  0.00  0.00    -0.286 OA
ENDROOT
BRANCH   3   9
ATOM      9  C   UNL d   1       2.526   1.332  -0.330  0.00  0.00     0.067 A 
ATOM     10  N   UNL d   1       2.481   2.509  -0.982  0.00  0.00    -0.335 N 
ATOM     11  C   UNL d   1       3.652   3.131  -1.160  0.00  0.00     0.141 A 
ATOM     12  HN  UNL d   1       1.604   2.905  -1.320  1.00  0.00     0.168 HD
ATOM     13  N   UNL d   1       4.844   2.655  -0.773  0.00  0.00    -0.347 N 
ATOM     14  C   UNL d   1       4.841   1.464  -0.149  0.00  0.00     0.092 A 
ATOM     15  HN  UNL d   1       5.708   3.170  -0.942  1.00  0.00     0.167 HD
ATOM     16  C   UNL d   1       3.698   0.748   0.103  0.00  0.00     0.049 A 
BRANCH  11  17
ATOM     17  S   UNL d   1       3.602   4.706  -1.955  0.00  0.00    -0.107 SA
ATOM     18  H   UNL d   1       2.264   4.771  -1.927  0.00  0.00     0.110 HD
ENDBRANCH  11  17
ENDBRANCH   3   9
BRANCH   4  19
ATOM     19  C   UNL d   1       0.081  -2.742   0.173  0.00  0.00     0.056 A 
ATOM     20  C   UNL d   1       1.186  -3.346   0.806  0.00  0.00     0.034 A 
ATOM     21  C   UNL d   1       1.266  -4.732   0.966  0.00  0.00     0.044 A 
ATOM     22  C   UNL d   1       0.246  -5.536   0.478  0.00  0.00     0.116 A 
ATOM     23  C   UNL d   1      -0.847  -4.979  -0.171  0.00  0.00     0.044 A 
ATOM     24  F   UNL d   1       0.318  -6.864   0.631  0.00  0.00    -0.206 F 
ATOM     25  C   UNL d   1      -0.929  -3.590  -0.322  0.00  0.00     0.034 A 
ENDBRANCH   4  19
TORSDOF 3
