REMARK  6 active torsions:
REMARK  status: ('A' for Active; 'I' for Inactive)
REMARK    1  A    between atoms: C_8  and  C_1 
REMARK    2  A    between atoms: N_13  and  C_4 
REMARK    3  A    between atoms: O_15  and  C_8 
REMARK    4  A    between atoms: C_11  and  C_9 
REMARK    5  A    between atoms: O_16  and  C_11 
REMARK    6  A    between atoms: O_17  and  C_11 
ROOT
ATOM      1  C   UNL d   1      -2.184  -0.115   0.062  0.00  0.00     0.109 A 
ATOM      2  C   UNL d   1       0.243  -0.563   0.066  0.00  0.00     0.088 A 
ATOM      3  S   UNL d   1      -1.169  -1.500   0.136  0.00  0.00    -0.063 SA
ATOM      4  C   UNL d   1      -1.427   1.047   0.004  0.00  0.00     0.062 A 
ATOM      5  C   UNL d   1      -0.010   0.799   0.003  0.00  0.00     0.026 A 
ATOM      6  N   UNL d   1       1.447  -1.161   0.079  0.00  0.00    -0.349 N 
ATOM      7  HN  UNL d   1       1.552  -2.174   0.134  1.00  0.00     0.166 HD
ATOM      8  C   UNL d   1       2.513  -0.324   0.016  0.00  0.00     0.065 A 
ATOM      9  C   UNL d   1       1.120   1.644  -0.049  0.00  0.00     0.018 A 
ATOM     10  C   UNL d   1       2.390   1.064  -0.036  0.00  0.00     0.031 A 
ENDROOT
BRANCH   8  11
ATOM     11  C   UNL d   1       3.913  -0.952   0.084  0.00  0.00     0.309 C 
BRANCH  11  12
ATOM     12  O   UNL d   1       4.443  -0.912   1.416  0.00  0.00    -0.360 OA
ATOM     13  C   UNL d   1       3.767  -1.783   2.317  0.00  0.00     0.205 C 
ENDBRANCH  11  12
BRANCH  11  14
ATOM     14  O   UNL d   1       3.915  -2.265  -0.486  0.00  0.00    -0.360 OA
ATOM     15  C   UNL d   1       5.219  -2.794  -0.649  0.00  0.00     0.205 C 
ENDBRANCH  11  14
ENDBRANCH   8  11
BRANCH   1  16
ATOM     16  C   UNL d   1      -3.619  -0.333   0.068  0.00  0.00     0.302 C 
ATOM     17  O   UNL d   1      -4.188  -1.418   0.126  0.00  0.00    -0.259 OA
BRANCH  16  18
ATOM     18  O   UNL d   1      -4.288   0.859  -0.009  0.00  0.00    -0.322 OA
ATOM     19  C   UNL d   1      -5.709   0.726  -0.037  0.00  0.00     0.213 C 
ENDBRANCH  16  18
ENDBRANCH   1  16
BRANCH   4  20
ATOM     20  N   UNL d   1      -1.946   2.292  -0.052  0.00  0.00    -0.397 N 
ATOM     21  H   UNL d   1      -2.953   2.454  -0.026  0.00  0.00     0.156 HD
ATOM     22  H   UNL d   1      -1.385   3.138  -0.045  0.00  0.00     0.156 HD
ENDBRANCH   4  20
TORSDOF 6
