REMARK  2 active torsions:
REMARK  status: ('A' for Active; 'I' for Inactive)
REMARK       I    between atoms: N_2  and  C_1 
REMARK    1  A    between atoms: C_3  and  C_1 
REMARK    2  A    between atoms: C_4  and  N_2 
ROOT
ATOM      1  C   UNL d   1       0.994   0.108  -0.006  0.00  0.00     0.264 C 
ATOM      2  N   UNL d   1       0.450  -0.494  -1.119  0.00  0.00    -0.308 N 
ATOM      3  O   UNL d   1       2.175   0.007   0.321  0.00  0.00    -0.267 OA
ATOM      4  H   UNL d   1      -0.457  -0.187  -1.438  0.00  0.00     0.170 HD
ENDROOT
BRANCH   2   5
ATOM      5  C   UNL d   1       1.089  -1.362  -2.005  0.00  0.00     0.108 A 
ATOM      6  N   UNL d   1       0.463  -1.494  -3.192  0.00  0.00    -0.352 N 
ATOM      7  C   UNL d   1       1.052  -2.285  -4.117  0.00  0.00     0.090 A 
ATOM      8  HN  UNL d   1      -0.418  -1.017  -3.385  1.00  0.00     0.166 HD
ATOM      9  C   UNL d   1       2.220  -2.996  -3.897  0.00  0.00     0.024 A 
ATOM     10  C   UNL d   1       2.822  -2.905  -2.645  0.00  0.00    -0.057 A 
ATOM     11  C   UNL d   1       2.253  -2.055  -1.692  0.00  0.00     0.055 A 
ATOM     12  C   UNL d   1       4.075  -3.668  -2.339  0.00  0.00     0.048 C 
ENDBRANCH   2   5
BRANCH   1  13
ATOM     13  C   UNL d   1       0.079   0.957   0.747  0.00  0.00     0.072 A 
ATOM     14  S   UNL d   1      -1.618   0.721   0.732  0.00  0.00    -0.097 SA
ATOM     15  C   UNL d   1      -1.869   1.971   1.873  0.00  0.00     0.050 A 
ATOM     16  C   UNL d   1      -0.692   2.584   2.236  0.00  0.00     0.009 A 
ATOM     17  C   UNL d   1       0.432   1.995   1.591  0.00  0.00     0.025 A 
ENDBRANCH   1  13
TORSDOF 2
