REMARK  5 active torsions:
REMARK  status: ('A' for Active; 'I' for Inactive)
REMARK    1  A    between atoms: C_2  and  C_1 
REMARK       I    between atoms: N_8  and  C_2 
REMARK    2  A    between atoms: C_11  and  N_8 
REMARK    3  A    between atoms: C_9  and  S_10 
REMARK    4  A    between atoms: S_10  and  C_15 
REMARK    5  A    between atoms: C_15  and  C_11 
ROOT
ATOM      1  C   UNL d   1      -1.069   4.343  -1.740  0.00  0.00     0.258 C 
ATOM      2  O   UNL d   1      -1.142   3.220  -1.248  0.00  0.00    -0.267 OA
ATOM      3  N   UNL d   1      -0.203   5.294  -1.243  0.00  0.00    -0.356 N 
ATOM      4  H   UNL d   1      -0.308   6.244  -1.580  0.00  0.00     0.162 HD
ENDROOT
BRANCH   3   5
ATOM      5  C   UNL d   1       0.577   5.094  -0.039  0.00  0.00     0.133 C 
BRANCH   5   6
ATOM      6  C   UNL d   1       1.843   5.954  -0.022  0.00  0.00     0.094 C 
BRANCH   6   7
ATOM      7  S   UNL d   1       1.432   7.741  -0.078  0.00  0.00    -0.159 SA
BRANCH   7   8
ATOM      8  C   UNL d   1       3.109   8.526  -0.013  0.00  0.00    -0.003 C 
ATOM      9  C   UNL d   1       3.914   8.181  -1.271  0.00  0.00     0.026 C 
ATOM     10  C   UNL d   1       2.882  10.046   0.035  0.00  0.00     0.026 C 
ATOM     11  C   UNL d   1       3.868   8.099   1.249  0.00  0.00     0.026 C 
ENDBRANCH   7   8
ENDBRANCH   6   7
ENDBRANCH   5   6
ENDBRANCH   3   5
BRANCH   1  12
ATOM     12  C   UNL d   1      -1.873   4.761  -2.882  0.00  0.00     0.072 A 
ATOM     13  S   UNL d   1      -1.783   6.346  -3.537  0.00  0.00    -0.097 SA
ATOM     14  C   UNL d   1      -2.935   5.990  -4.747  0.00  0.00     0.050 A 
ATOM     15  C   UNL d   1      -3.391   4.694  -4.660  0.00  0.00     0.009 A 
ATOM     16  C   UNL d   1      -2.782   3.988  -3.582  0.00  0.00     0.025 A 
ENDBRANCH   1  12
TORSDOF 5
