REMARK  4 active torsions:
REMARK  status: ('A' for Active; 'I' for Inactive)
REMARK    1  A    between atoms: S_2  and  N_1 
REMARK    2  A    between atoms: C_12  and  S_2 
REMARK    3  A    between atoms: C_4  and  C_3 
REMARK    4  A    between atoms: C_17  and  C_7 
ROOT
ATOM      1  N   UNL d   1       1.001  -0.681   0.049  0.00  0.00    -0.175 N 
ATOM      2  C   UNL d   1      -0.305  -1.120  -0.057  0.00  0.00     0.097 C 
ATOM      3  N   UNL d   1       1.068   0.686   0.165  0.00  0.00    -0.295 N 
ATOM      4  HN  UNL d   1       1.890   1.259   0.356  1.00  0.00     0.187 HD
ATOM      5  C   UNL d   1      -1.076   0.021  -0.179  0.00  0.00     0.053 C 
ATOM      6  C   UNL d   1      -0.184   1.092  -0.029  0.00  0.00     0.111 C 
ENDROOT
BRANCH   2   7
ATOM      7  C   UNL d   1      -0.834  -2.506  -0.056  0.00  0.00     0.069 A 
ATOM      8  N   UNL d   1      -0.187  -3.537   0.589  0.00  0.00    -0.348 N 
ATOM      9  C   UNL d   1      -0.835  -4.673   0.394  0.00  0.00     0.084 A 
ATOM     10  HN  UNL d   1       0.668  -3.438   1.137  1.00  0.00     0.166 HD
ATOM     11  S   UNL d   1      -2.313  -4.518  -0.486  0.00  0.00    -0.081 SA
ATOM     12  C   UNL d   1      -2.026  -2.845  -0.661  0.00  0.00     0.083 A 
BRANCH   9  13
ATOM     13  C   UNL d   1      -0.413  -5.988   0.906  0.00  0.00    -0.002 A 
ATOM     14  C   UNL d   1       0.284  -6.070   2.120  0.00  0.00     0.014 A 
ATOM     15  C   UNL d   1       0.689  -7.306   2.632  0.00  0.00     0.001 A 
ATOM     16  C   UNL d   1       0.408  -8.479   1.933  0.00  0.00     0.000 A 
ATOM     17  C   UNL d   1      -0.274  -8.417   0.721  0.00  0.00     0.001 A 
ATOM     18  C   UNL d   1      -0.678  -7.181   0.210  0.00  0.00     0.014 A 
ENDBRANCH   9  13
ENDBRANCH   2   7
BRANCH   1  19
ATOM     19  S   UNL d   1       2.404  -1.702   0.065  0.00  0.00     0.282 S 
ATOM     20  O   UNL d   1       2.125  -2.822  -0.809  0.00  0.00    -0.198 OA
ATOM     21  O   UNL d   1       3.534  -0.823  -0.195  0.00  0.00    -0.198 OA
BRANCH  19  22
ATOM     22  C   UNL d   1       2.580  -2.248   1.742  0.00  0.00     0.081 A 
ATOM     23  C   UNL d   1       3.215  -3.471   1.983  0.00  0.00     0.027 A 
ATOM     24  C   UNL d   1       3.404  -3.903   3.298  0.00  0.00     0.025 A 
ATOM     25  C   UNL d   1       2.956  -3.115   4.359  0.00  0.00     0.034 A 
ATOM     26  C   UNL d   1       2.340  -1.887   4.119  0.00  0.00     0.025 A 
ATOM     27 CL   UNL d   1       3.166  -3.660   5.977  0.00  0.00    -0.084 Cl
ATOM     28  C   UNL d   1       2.158  -1.443   2.807  0.00  0.00     0.027 A 
ENDBRANCH  19  22
ENDBRANCH   1  19
TORSDOF 4
