REMARK  5 active torsions:
REMARK  status: ('A' for Active; 'I' for Inactive)
REMARK    1  A    between atoms: C_2  and  N_1 
REMARK    2  A    between atoms: C_9  and  C_4 
REMARK    3  A    between atoms: O_11  and  C_5 
REMARK    4  A    between atoms: C_19  and  O_11 
REMARK    5  A    between atoms: C_17  and  C_19 
ROOT
ATOM      1  C   UNL d   1       0.320   0.265  -1.223  0.00  0.00     0.137 A 
ATOM      2  C   UNL d   1       0.756  -0.354  -2.409  0.00  0.00     0.054 A 
ATOM      3  C   UNL d   1       0.061  -0.106  -3.593  0.00  0.00     0.012 A 
ATOM      4  C   UNL d   1      -0.788   1.124  -1.187  0.00  0.00     0.102 A 
ATOM      5  C   UNL d   1      -1.040   0.757  -3.577  0.00  0.00     0.018 A 
ATOM      6  C   UNL d   1      -1.450   1.378  -2.393  0.00  0.00     0.040 A 
ENDROOT
BRANCH   4   7
ATOM      7  O   UNL d   1      -1.148   1.691   0.007  0.00  0.00    -0.344 OA
BRANCH   7   8
ATOM      8  C   UNL d   1      -2.485   2.197   0.080  0.00  0.00     0.214 C 
BRANCH   8   9
ATOM      9  C   UNL d   1      -2.934   2.476   1.497  0.00  0.00    -0.032 A 
ATOM     10  C   UNL d   1      -4.284   2.804   1.714  0.00  0.00     0.035 A 
ATOM     11  C   UNL d   1      -4.759   3.095   2.997  0.00  0.00     0.056 A 
ATOM     12 CL   UNL d   1      -6.435   3.482   3.162  0.00  0.00    -0.083 Cl
ATOM     13  C   UNL d   1      -3.881   3.067   4.083  0.00  0.00     0.055 A 
ATOM     14  C   UNL d   1      -2.536   2.743   3.877  0.00  0.00     0.026 A 
ATOM     15 CL   UNL d   1      -4.391   3.424   5.694  0.00  0.00    -0.083 Cl
ATOM     16  C   UNL d   1      -2.064   2.451   2.593  0.00  0.00     0.011 A 
ENDBRANCH   8   9
ENDBRANCH   7   8
ENDBRANCH   4   7
BRANCH   1  17
ATOM     17  N   UNL d   1       1.063  -0.021  -0.006  0.00  0.00    -0.113 N 
ATOM     18  O   UNL d   1       2.289   0.151  -0.053  0.00  0.00    -0.532 OA
ATOM     19  O   UNL d   1       0.435  -0.473   0.961  0.00  0.00    -0.532 OA
ENDBRANCH   1  17
BRANCH   3  20
ATOM     20  C   UNL d   1       0.418  -0.741  -4.890  0.00  0.00     0.155 C 
ATOM     21  O   UNL d   1      -0.464  -0.915  -5.729  0.00  0.00    -0.293 OA
ATOM     22  C   UNL d   1       1.844  -1.135  -5.166  0.00  0.00     0.096 C 
ENDBRANCH   3  20
TORSDOF 5
