REMARK  2 active torsions:
REMARK  status: ('A' for Active; 'I' for Inactive)
REMARK    1  A    between atoms: N_13  and  C_7 
REMARK    2  A    between atoms: C_11  and  N_13 
ROOT
ATOM      1  S   UNL d   1       0.950  -1.691  -0.069  0.00  0.00     0.270 S 
ATOM      2  C   UNL d   1       2.120  -0.505  -0.504  0.00  0.00     0.147 C 
ATOM      3  N   UNL d   1       1.331  -2.002   1.575  0.00  0.00    -0.275 N 
ATOM      4  C   UNL d   1       1.657  -0.888   2.377  0.00  0.00     0.066 A 
ATOM      5  C   UNL d   1       2.068   0.322   1.848  0.00  0.00     0.084 A 
ATOM      6  C   UNL d   1       2.312   0.615   0.445  0.00  0.00     0.215 C 
ATOM      7  C   UNL d   1       2.924  -0.714  -1.558  0.00  0.00     0.135 C 
ATOM      8  S   UNL d   1       2.358   1.494   3.053  0.00  0.00    -0.096 SA
ATOM      9  O   UNL d   1      -0.371  -1.096  -0.082  0.00  0.00    -0.200 OA
ATOM     10  O   UNL d   1       1.190  -2.926  -0.791  0.00  0.00    -0.200 OA
ATOM     11  C   UNL d   1       1.647  -0.855   3.803  0.00  0.00     0.039 A 
ATOM     12  C   UNL d   1       2.002   0.380   4.300  0.00  0.00     0.053 A 
ATOM     13  O   UNL d   1       2.743   1.691   0.030  0.00  0.00    -0.285 OA
ATOM     14  C   UNL d   1       0.969  -3.314   2.124  0.00  0.00     0.170 C 
ENDROOT
BRANCH   7  15
ATOM     15  N   UNL d   1       4.006   0.024  -1.967  0.00  0.00    -0.200 N 
ATOM     16  H   UNL d   1       4.256   0.870  -1.462  0.00  0.00     0.183 HD
BRANCH  15  17
ATOM     17  C   UNL d   1       4.979  -0.362  -2.883  0.00  0.00     0.681 A 
ATOM     18  N   UNL d   1       4.811  -1.477  -3.614  0.00  0.00    -0.202 N 
ATOM     19  C   UNL d   1       5.787  -1.801  -4.481  0.00  0.00     0.107 A 
ATOM     20  HN  UNL d   1       3.976  -2.054  -3.515  1.00  0.00     0.183 HD
ATOM     21  C   UNL d   1       6.933  -1.064  -4.635  0.00  0.00     0.035 A 
ATOM     22  C   UNL d   1       7.023   0.048  -3.836  0.00  0.00     0.107 A 
ATOM     23  N   UNL d   1       6.067   0.418  -2.962  0.00  0.00    -0.202 N 
ATOM     24  HN  UNL d   1       6.166   1.254  -2.386  1.00  0.00     0.183 HD
ENDBRANCH  15  17
ENDBRANCH   7  15
TORSDOF 2
