REMARK  2 active torsions:
REMARK  status: ('A' for Active; 'I' for Inactive)
REMARK    1  A    between atoms: C_7  and  N_1 
REMARK    2  A    between atoms: C_11  and  C_8 
ROOT
ATOM      1  N   UNL d   1      -1.190   1.118  -0.012  0.00  0.00    -0.220 N 
ATOM      2  C   UNL d   1       0.043  -0.769   0.069  0.00  0.00     0.058 A 
ATOM      3  C   UNL d   1      -1.352  -0.270   0.110  0.00  0.00     0.279 A 
ATOM      4  N   UNL d   1       0.141   1.526  -0.111  0.00  0.00    -0.294 N 
ATOM      5  HN  UNL d   1       0.480   2.483  -0.210  1.00  0.00     0.187 HD
ATOM      6  C   UNL d   1       0.868   0.442  -0.052  0.00  0.00     0.038 A 
ATOM      7  C   UNL d   1       0.314  -2.079   0.133  0.00  0.00     0.030 C 
ATOM      8  O   UNL d   1      -2.345  -0.967   0.217  0.00  0.00    -0.265 OA
ATOM      9  C   UNL d   1       2.359   0.463  -0.081  0.00  0.00     0.071 C 
ENDROOT
BRANCH   7  10
ATOM     10  C   UNL d   1       1.637  -2.690   0.095  0.00  0.00    -0.035 A 
ATOM     11  C   UNL d   1       2.306  -2.979   1.289  0.00  0.00     0.012 A 
ATOM     12  C   UNL d   1       3.562  -3.590   1.260  0.00  0.00     0.020 A 
ATOM     13  C   UNL d   1       4.146  -3.911   0.036  0.00  0.00     0.011 A 
ATOM     14  C   UNL d   1       3.487  -3.627  -1.159  0.00  0.00     0.020 A 
ATOM     15 BR   UNL d   1       5.840  -4.749  -0.003  0.00  0.00    -0.051 Br
ATOM     16  C   UNL d   1       2.230  -3.018  -1.130  0.00  0.00     0.012 A 
ENDBRANCH   7  10
BRANCH   1  17
ATOM     17  C   UNL d   1      -2.201   2.111  -0.007  0.00  0.00     0.061 A 
ATOM     18  C   UNL d   1      -3.542   1.795   0.252  0.00  0.00     0.055 A 
ATOM     19  C   UNL d   1      -4.516   2.797   0.268  0.00  0.00     0.036 A 
ATOM     20 CL   UNL d   1      -6.153   2.392   0.616  0.00  0.00    -0.084 Cl
ATOM     21  C   UNL d   1      -4.178   4.124   0.014  0.00  0.00     0.024 A 
ATOM     22  C   UNL d   1      -2.852   4.453  -0.253  0.00  0.00     0.004 A 
ATOM     23  C   UNL d   1      -1.874   3.454  -0.257  0.00  0.00     0.032 A 
ENDBRANCH   1  17
TORSDOF 2
