REMARK  5 active torsions:
REMARK  status: ('A' for Active; 'I' for Inactive)
REMARK    1  A    between atoms: C_4  and  C_1 
REMARK       I    between atoms: C_2  and  N_5 
REMARK    2  A    between atoms: O_8  and  C_2 
REMARK    3  A    between atoms: N_3  and  C_4 
REMARK    4  A    between atoms: N_5  and  C_13 
REMARK    5  A    between atoms: C_10  and  O_8 
ROOT
ATOM      1  N   UNL d   1      -0.805   2.804   0.472  0.00  0.00     0.092 N 
ATOM      2  C   UNL d   1      -2.756   3.512  -0.913  0.00  0.00     0.055 C 
ATOM      3  C   UNL d   1      -3.042   3.079   1.563  0.00  0.00     0.055 C 
ATOM      4  C   UNL d   1      -3.732   3.163   0.205  0.00  0.00     0.090 C 
ATOM      5  C   UNL d   1      -1.700   2.350   1.549  0.00  0.00     0.275 C 
ATOM      6  C   UNL d   1      -1.464   2.713  -0.843  0.00  0.00     0.275 C 
ENDROOT
BRANCH   1   7
ATOM      7  C   UNL d   1       0.433   1.993   0.415  0.00  0.00     0.315 C 
BRANCH   7   8
ATOM      8  C   UNL d   1       1.310   2.035   1.639  0.00  0.00     0.030 A 
ATOM      9  C   UNL d   1       1.424   0.887   2.435  0.00  0.00     0.126 A 
ATOM     10  F   UNL d   1       0.714  -0.211   2.126  0.00  0.00    -0.205 F 
ATOM     11  C   UNL d   1       2.265   0.834   3.542  0.00  0.00     0.043 A 
ATOM     12  C   UNL d   1       3.022   1.948   3.880  0.00  0.00     0.005 A 
ATOM     13  C   UNL d   1       2.922   3.109   3.111  0.00  0.00     0.024 A 
ATOM     14  C   UNL d   1       2.073   3.155   1.997  0.00  0.00     0.045 A 
ATOM     15 CL   UNL d   1       2.043   4.618   1.079  0.00  0.00    -0.084 Cl
ENDBRANCH   7   8
ENDBRANCH   1   7
BRANCH   4  16
ATOM     16  N   UNL d   1      -4.667   2.087  -0.132  0.00  0.00    -0.332 N 
ATOM     17  C   UNL d   1      -4.551   0.750  -0.350  0.00  0.00     0.361 C 
ATOM     18  O   UNL d   1      -5.494   0.155  -0.863  0.00  0.00    -0.238 OA
ATOM     19  H   UNL d   1      -5.572   2.395  -0.465  0.00  0.00     0.165 HD
BRANCH  17  20
ATOM     20  O   UNL d   1      -3.384   0.183   0.026  0.00  0.00    -0.294 OA
BRANCH  20  21
ATOM     21  C   UNL d   1      -3.146  -1.228  -0.265  0.00  0.00     0.061 C 
ATOM     22  C   UNL d   1      -3.058  -1.445  -1.782  0.00  0.00     0.046 C 
ATOM     23  C   UNL d   1      -1.782  -1.575   0.353  0.00  0.00     0.046 C 
ATOM     24  C   UNL d   1      -4.189  -2.152   0.381  0.00  0.00     0.046 C 
ENDBRANCH  20  21
ENDBRANCH  17  20
ENDBRANCH   4  16
TORSDOF 5
