REMARK  10 active torsions:
REMARK  status: ('A' for Active; 'I' for Inactive)
REMARK    1  A    between atoms: C_6  and  C_1 
REMARK    2  A    between atoms: C_5  and  C_2 
REMARK    3  A    between atoms: C_3  and  C_13 
REMARK    4  A    between atoms: N_10  and  C_4 
REMARK    5  A    between atoms: C_11  and  C_5 
REMARK    6  A    between atoms: O_26  and  C_6 
REMARK    7  A    between atoms: C_7  and  N_10 
REMARK    8  A    between atoms: S_20  and  C_27 
REMARK    9  A    between atoms: C_24  and  S_20 
REMARK   10  A    between atoms: C_27  and  C_25 
ROOT
ATOM      1  C   UNL d   1       5.331   1.511  -0.622  0.00  0.00     0.110 C 
ATOM      2  C   UNL d   1       4.281   0.871  -1.166  0.00  0.00     0.115 C 
ATOM      3  C   UNL d   1       6.537   0.793  -0.423  0.00  0.00     0.105 C 
ATOM      4  N   UNL d   1       7.529   0.199  -0.302  0.00  0.00    -0.191 NA
ENDROOT
BRANCH   1   5
ATOM      5  C   UNL d   1       5.201   2.947  -0.228  0.00  0.00     0.204 C 
ATOM      6  O   UNL d   1       4.101   3.430   0.043  0.00  0.00    -0.286 OA
BRANCH   5   7
ATOM      7  C   UNL d   1       6.423   3.801  -0.131  0.00  0.00     0.016 A 
ATOM      8  C   UNL d   1       6.422   4.852   0.795  0.00  0.00     0.023 A 
ATOM      9  C   UNL d   1       7.575   5.630   1.022  0.00  0.00    -0.048 A 
ATOM     10  C   UNL d   1       8.716   5.368   0.252  0.00  0.00     0.008 A 
ATOM     11  C   UNL d   1       8.703   4.366  -0.719  0.00  0.00     0.002 A 
ATOM     12  C   UNL d   1       7.555   3.599  -0.924  0.00  0.00     0.015 A 
BRANCH   9  13
ATOM     13  C   UNL d   1       7.593   6.764   2.031  0.00  0.00     0.117 C 
BRANCH  13  14
ATOM     14  S   UNL d   1       6.692   6.328   3.557  0.00  0.00    -0.125 SA
BRANCH  14  15
ATOM     15  C   UNL d   1       6.682   7.819   4.524  0.00  0.00     0.001 A 
ATOM     16  C   UNL d   1       6.537   7.625   5.904  0.00  0.00     0.034 A 
ATOM     17  C   UNL d   1       6.415   8.704   6.790  0.00  0.00     0.049 A 
ATOM     18  C   UNL d   1       6.463  10.004   6.274  0.00  0.00     0.016 A 
ATOM     19  C   UNL d   1       6.607  10.212   4.901  0.00  0.00     0.002 A 
ATOM     20  C   UNL d   1       6.707   9.123   4.027  0.00  0.00     0.018 A 
BRANCH  17  21
ATOM     21  C   UNL d   1       6.201   8.458   8.261  0.00  0.00     0.417 C 
ATOM     22  F   UNL d   1       6.122   7.137   8.588  0.00  0.00    -0.166 F 
ATOM     23  F   UNL d   1       7.200   8.972   9.029  0.00  0.00    -0.166 F 
ATOM     24  F   UNL d   1       5.048   9.021   8.718  0.00  0.00    -0.166 F 
ENDBRANCH  17  21
ENDBRANCH  14  15
ENDBRANCH  13  14
ENDBRANCH   9  13
ENDBRANCH   5   7
ENDBRANCH   1   5
BRANCH   2  25
ATOM     25  N   UNL d   1       3.000   1.328  -1.396  0.00  0.00    -0.363 N 
ATOM     26  H   UNL d   1       2.797   2.176  -0.847  0.00  0.00     0.165 HD
BRANCH  25  27
ATOM     27  C   UNL d   1       1.969   0.647  -1.968  0.00  0.00     0.055 A 
ATOM     28  C   UNL d   1       2.013  -0.229  -3.045  0.00  0.00     0.106 A 
ATOM     29  S   UNL d   1       0.453  -0.904  -3.345  0.00  0.00    -0.094 SA
ATOM     30  C   UNL d   1      -0.269   0.007  -2.100  0.00  0.00     0.053 A 
ATOM     31  C   UNL d   1       0.647   0.800  -1.450  0.00  0.00     0.038 A 
BRANCH  28  32
ATOM     32  C   UNL d   1       3.088  -0.645  -3.931  0.00  0.00     0.302 C 
ATOM     33  O   UNL d   1       3.156  -1.716  -4.525  0.00  0.00    -0.259 OA
BRANCH  32  34
ATOM     34  O   UNL d   1       4.036   0.333  -4.035  0.00  0.00    -0.322 OA
ATOM     35  C   UNL d   1       5.167   0.001  -4.843  0.00  0.00     0.213 C 
ENDBRANCH  32  34
ENDBRANCH  28  32
ENDBRANCH  25  27
ENDBRANCH   2  25
TORSDOF 10
