REMARK  3 active torsions:
REMARK  status: ('A' for Active; 'I' for Inactive)
REMARK       I    between atoms: N_5  and  C_1 
REMARK       I    between atoms: N_7  and  C_1 
REMARK    1  A    between atoms: C_11  and  N_5 
REMARK    2  A    between atoms: C_12  and  N_7 
REMARK    3  A    between atoms: C_8  and  C_12 
ROOT
ATOM      1  C   UNL d   1       1.119  -0.344   1.308  0.00  0.00     0.320 C 
ATOM      2  N   UNL d   1       2.462  -0.074   1.169  0.00  0.00    -0.309 N 
ATOM      3  N   UNL d   1       0.336   0.667   0.804  0.00  0.00    -0.340 N 
ATOM      4  O   UNL d   1       0.624  -1.354   1.796  0.00  0.00    -0.247 OA
ATOM      5  H   UNL d   1       2.709   0.882   0.971  0.00  0.00     0.170 HD
ATOM      6  H   UNL d   1       0.741   1.581   0.670  0.00  0.00     0.164 HD
ENDROOT
BRANCH   3   7
ATOM      7  C   UNL d   1      -1.115   0.607   0.922  0.00  0.00     0.159 C 
BRANCH   7   8
ATOM      8  C   UNL d   1      -1.603   1.181   2.267  0.00  0.00     0.171 C 
ATOM      9  O   UNL d   1      -1.213   2.566   2.378  0.00  0.00    -0.339 OA
ATOM     10  C   UNL d   1      -2.057   3.399   1.688  0.00  0.00     0.102 A 
ATOM     11  C   UNL d   1      -1.588   4.686   1.432  0.00  0.00     0.039 A 
ATOM     12  C   UNL d   1      -3.311   3.000   1.214  0.00  0.00     0.102 A 
ATOM     13  C   UNL d   1      -2.356   5.562   0.666  0.00  0.00     0.003 A 
ATOM     14  C   UNL d   1      -3.594   5.154   0.165  0.00  0.00     0.003 A 
ATOM     15  C   UNL d   1      -4.074   3.873   0.443  0.00  0.00     0.039 A 
ATOM     16  O   UNL d   1      -3.832   1.750   1.430  0.00  0.00    -0.346 OA
ATOM     17  C   UNL d   1      -3.113   1.049   2.451  0.00  0.00     0.209 C 
ENDBRANCH   7   8
ENDBRANCH   3   7
BRANCH   2  18
ATOM     18  C   UNL d   1       3.521  -0.965   1.440  0.00  0.00     0.036 A 
ATOM     19  C   UNL d   1       3.337  -2.341   1.605  0.00  0.00     0.031 A 
ATOM     20  C   UNL d   1       4.422  -3.179   1.882  0.00  0.00     0.026 A 
ATOM     21  C   UNL d   1       5.700  -2.641   1.992  0.00  0.00     0.034 A 
ATOM     22  C   UNL d   1       5.903  -1.276   1.807  0.00  0.00     0.026 A 
ATOM     23 CL   UNL d   1       7.030  -3.668   2.355  0.00  0.00    -0.084 Cl
ATOM     24  C   UNL d   1       4.816  -0.441   1.522  0.00  0.00     0.031 A 
ENDBRANCH   2  18
TORSDOF 3
