REMARK  5 active torsions:
REMARK  status: ('A' for Active; 'I' for Inactive)
REMARK    1  A    between atoms: S_6  and  C_1 
REMARK    2  A    between atoms: C_9  and  S_6 
REMARK    3  A    between atoms: N_10  and  C_12 
REMARK    4  A    between atoms: O_17  and  N_10 
REMARK    5  A    between atoms: N_15  and  C_13 
ROOT
ATOM      1  C   UNL d   1       3.795  -3.814   0.101  0.00  0.00     0.034 A 
ATOM      2  C   UNL d   1       3.148  -4.326  -1.048  0.00  0.00     0.050 A 
ATOM      3  C   UNL d   1       4.290  -4.694   1.082  0.00  0.00     0.021 A 
ATOM      4  C   UNL d   1       2.958  -5.717  -1.129  0.00  0.00     0.031 A 
ATOM      5  C   UNL d   1       4.100  -6.069   0.965  0.00  0.00     0.002 A 
ATOM      6  C   UNL d   1       3.420  -6.578  -0.132  0.00  0.00     0.002 A 
ENDROOT
BRANCH   1   7
ATOM      7  S   UNL d   1       4.038  -2.044   0.324  0.00  0.00    -0.063 SA
BRANCH   7   8
ATOM      8  C   UNL d   1       3.264  -1.870   1.893  0.00  0.00     0.118 A 
ATOM      9  N   UNL d   1       3.976  -1.619   2.969  0.00  0.00    -0.344 N 
ATOM     10  C   UNL d   1       3.142  -1.527   4.072  0.00  0.00     0.052 A 
ATOM     11  HN  UNL d   1       4.990  -1.509   2.990  1.00  0.00     0.167 HD
ATOM     12  C   UNL d   1       3.548  -1.267   5.398  0.00  0.00     0.054 A 
ATOM     13  C   UNL d   1       1.782  -1.714   3.808  0.00  0.00     0.034 A 
ATOM     14  C   UNL d   1       2.586  -1.207   6.409  0.00  0.00     0.036 A 
ATOM     15 CL   UNL d   1       3.077  -0.886   8.028  0.00  0.00    -0.084 Cl
ATOM     16  C   UNL d   1       1.237  -1.402   6.130  0.00  0.00     0.025 A 
ATOM     17  C   UNL d   1       0.812  -1.659   4.822  0.00  0.00     0.023 A 
ATOM     18  S   UNL d   1       1.573  -1.997   2.122  0.00  0.00    -0.063 SA
ENDBRANCH   7   8
ENDBRANCH   1   7
BRANCH   2  19
ATOM     19  N   UNL d   1       2.759  -3.471  -2.099  0.00  0.00    -0.350 N 
ATOM     20  C   UNL d   1       2.493  -3.807  -3.392  0.00  0.00     0.204 C 
ATOM     21  H   UNL d   1       2.787  -2.478  -1.896  0.00  0.00     0.166 HD
BRANCH  20  22
ATOM     22  N   UNL d   1       2.162  -2.973  -4.324  0.00  0.00    -0.265 N 
ATOM     23  HN  UNL d   1       2.049  -1.966  -4.210  1.00  0.00     0.194 HD
BRANCH  22  24
ATOM     24  O   UNL d   1       1.984  -3.688  -5.518  0.00  0.00    -0.289 OA
ATOM     25  H   UNL d   1       1.742  -2.988  -6.150  0.00  0.00     0.244 HD
ENDBRANCH  22  24
ENDBRANCH  20  22
ENDBRANCH   2  19
TORSDOF 5
