REMARK  5 active torsions:
REMARK  status: ('A' for Active; 'I' for Inactive)
REMARK    1  A    between atoms: N_4  and  C_2 
REMARK    2  A    between atoms: S_13  and  C_10 
REMARK    3  A    between atoms: C_16  and  S_13 
REMARK    4  A    between atoms: C_17  and  C_16 
REMARK    5  A    between atoms: O_23  and  C_18 
ROOT
ATOM      1  C   UNL d   1      -1.894  -0.670   1.024  0.00  0.00     0.119 A 
ATOM      2  C   UNL d   1      -1.343  -1.450  -0.011  0.00  0.00     0.133 A 
ATOM      3  C   UNL d   1      -1.786   0.795   0.997  0.00  0.00     0.104 A 
ATOM      4  N   UNL d   1      -2.563  -1.000   2.138  0.00  0.00    -0.237 N 
ATOM      5  HN  UNL d   1      -2.812  -1.941   2.441  1.00  0.00     0.197 HD
ATOM      6  C   UNL d   1      -0.683  -0.753  -1.049  0.00  0.00     0.040 A 
ATOM      7  N   UNL d   1      -2.376   1.271   2.104  0.00  0.00    -0.238 N 
ATOM      8  HN  UNL d   1      -2.458   2.249   2.380  1.00  0.00     0.197 HD
ATOM      9  C   UNL d   1      -1.144   1.485  -0.062  0.00  0.00     0.032 A 
ATOM     10  O   UNL d   1      -2.848   0.177   2.794  0.00  0.00    -0.156 OA
ATOM     11  C   UNL d   1      -0.586   0.661  -1.065  0.00  0.00     0.023 A 
ENDROOT
BRANCH   9  12
ATOM     12  S   UNL d   1      -0.965   3.243  -0.084  0.00  0.00    -0.123 SA
BRANCH  12  13
ATOM     13  C   UNL d   1      -2.716   3.764  -0.034  0.00  0.00     0.118 C 
BRANCH  13  14
ATOM     14  C   UNL d   1      -2.851   5.266  -0.003  0.00  0.00    -0.048 A 
ATOM     15  C   UNL d   1      -2.875   6.009  -1.191  0.00  0.00     0.011 A 
ATOM     16  C   UNL d   1      -3.010   7.402  -1.162  0.00  0.00     0.037 A 
ATOM     17  C   UNL d   1      -3.114   8.073   0.057  0.00  0.00     0.068 A 
ATOM     18  C   UNL d   1      -3.081   7.338   1.243  0.00  0.00     0.037 A 
ATOM     19  C   UNL d   1      -2.947   5.947   1.218  0.00  0.00     0.011 A 
BRANCH  17  20
ATOM     20  O   UNL d   1      -3.243   9.425   0.222  0.00  0.00    -0.356 OA
ATOM     21  C   UNL d   1      -3.284  10.215  -0.959  0.00  0.00     0.210 C 
ENDBRANCH  17  20
ENDBRANCH  13  14
ENDBRANCH  12  13
ENDBRANCH   9  12
BRANCH   2  22
ATOM     22  N   UNL d   1      -1.442  -2.897  -0.007  0.00  0.00    -0.113 N 
ATOM     23  O   UNL d   1      -2.030  -3.459   0.921  0.00  0.00    -0.532 OA
ATOM     24  O   UNL d   1      -0.920  -3.491  -0.963  0.00  0.00    -0.532 OA
ENDBRANCH   2  22
TORSDOF 5
