REMARK  5 active torsions:
REMARK  status: ('A' for Active; 'I' for Inactive)
REMARK    1  A    between atoms: C_2  and  S_1 
REMARK    2  A    between atoms: O_9  and  S_1 
REMARK    3  A    between atoms: N_21  and  C_15 
REMARK    4  A    between atoms: C_16  and  C_17 
REMARK    5  A    between atoms: N_25  and  S_20 
ROOT
ATOM      1  C   UNL d   1       1.136   0.938  -0.915  0.00  0.00     0.084 C 
ATOM      2  C   UNL d   1      -0.364   1.082  -1.889  0.00  0.00    -0.038 C 
ATOM      3  C   UNL d   1       1.789   2.412  -0.125  0.00  0.00    -0.038 C 
ATOM      4  C   UNL d   1       0.854   4.078  -0.507  0.00  0.00     0.015 C 
ATOM      5  C   UNL d   1      -1.238   2.586  -2.060  0.00  0.00     0.015 C 
ATOM      6  C   UNL d   1      -0.673   4.082  -1.404  0.00  0.00    -0.061 C 
ATOM      7  C   UNL d   1       2.848   2.013   0.919  0.00  0.00     0.050 C 
ATOM      8  C   UNL d   1      -0.967  -0.095  -2.603  0.00  0.00     0.050 C 
ATOM      9  C   UNL d   1      -1.290   5.380  -1.805  0.00  0.00     0.048 C 
ENDROOT
BRANCH   1  10
ATOM     10  S   UNL d   1       2.070  -0.564  -1.010  0.00  0.00     0.130 S 
ATOM     11  O   UNL d   1       1.723  -1.266  -2.228  0.00  0.00    -0.598 OA
ATOM     12  O   UNL d   1       2.062  -1.243   0.270  0.00  0.00    -0.598 OA
BRANCH  10  13
ATOM     13  O   UNL d   1       3.594  -0.072  -1.224  0.00  0.00    -0.292 OA
ATOM     14  H   UNL d   1       4.046  -0.082  -0.357  0.00  0.00     0.232 HD
ENDBRANCH  10  13
ENDBRANCH   1  10
TORSDOF 5
