REMARK  3 active torsions:
REMARK  status: ('A' for Active; 'I' for Inactive)
REMARK    1  A    between atoms: C_3  and  C_1 
REMARK    2  A    between atoms: C_8  and  C_3 
REMARK    3  A    between atoms: C_9  and  C_10 
ROOT
ATOM      1  C   UNL d   1       0.965   0.048   0.083  0.00  0.00     0.118 C 
ATOM      2  C   UNL d   1       0.297   0.849  -0.785  0.00  0.00     0.061 C 
ATOM      3  C   UNL d   1       2.397   0.008   0.085  0.00  0.00     0.105 C 
ATOM      4  N   UNL d   1       3.557  -0.018   0.115  0.00  0.00    -0.191 NA
ATOM      5  S   UNL d   1      -1.447   1.033  -0.854  0.00  0.00    -0.121 SA
ATOM      6  S   UNL d   1       1.139   1.851  -1.961  0.00  0.00    -0.121 SA
ATOM      7  C   UNL d   1      -1.018   1.109  -3.598  0.00  0.00     0.021 C 
ATOM      8  C   UNL d   1       0.504   1.071  -3.480  0.00  0.00     0.081 C 
ATOM      9  C   UNL d   1      -1.739   0.326  -2.504  0.00  0.00     0.081 C 
ENDROOT
BRANCH   1  10
ATOM     10  C   UNL d   1       0.230  -0.927   0.964  0.00  0.00     0.204 C 
ATOM     11  O   UNL d   1      -0.881  -1.357   0.654  0.00  0.00    -0.286 OA
BRANCH  10  12
ATOM     12  C   UNL d   1       0.860  -1.540   2.169  0.00  0.00     0.016 A 
ATOM     13  C   UNL d   1       1.878  -0.963   2.924  0.00  0.00     0.016 A 
ATOM     14  C   UNL d   1       2.447  -1.669   3.997  0.00  0.00     0.009 A 
ATOM     15  C   UNL d   1       1.982  -2.945   4.372  0.00  0.00    -0.051 A 
ATOM     16  C   UNL d   1       0.910  -3.474   3.644  0.00  0.00     0.009 A 
ATOM     17  C   UNL d   1       0.360  -2.788   2.561  0.00  0.00     0.016 A 
BRANCH  15  18
ATOM     18  C   UNL d   1       2.643  -3.721   5.524  0.00  0.00    -0.024 C 
ATOM     19  C   UNL d   1       1.971  -5.086   5.795  0.00  0.00     0.019 C 
ATOM     20  C   UNL d   1       4.122  -3.996   5.180  0.00  0.00     0.019 C 
ATOM     21  C   UNL d   1       2.572  -2.908   6.832  0.00  0.00     0.019 C 
ENDBRANCH  15  18
ENDBRANCH  10  12
ENDBRANCH   1  10
TORSDOF 3
