REMARK  4 active torsions:
REMARK  status: ('A' for Active; 'I' for Inactive)
REMARK    1  A    between atoms: C_3  and  C_1 
REMARK    2  A    between atoms: C_2  and  O_5 
REMARK       I    between atoms: N_7  and  C_3 
REMARK    3  A    between atoms: O_5  and  C_4 
REMARK    4  A    between atoms: N_11  and  N_7 
ROOT
ATOM      1  C   UNL d   1       1.486  -0.189  -0.003  0.00  0.00     0.067 A 
ATOM      2  C   UNL d   1       0.640  -1.311  -0.073  0.00  0.00     0.094 A 
ATOM      3  C   UNL d   1       0.921   1.096   0.036  0.00  0.00     0.020 A 
ATOM      4  C   UNL d   1      -0.746  -1.133  -0.109  0.00  0.00     0.038 A 
ATOM      5  C   UNL d   1      -0.464   1.264  -0.007  0.00  0.00     0.001 A 
ATOM      6  C   UNL d   1      -1.296   0.149  -0.087  0.00  0.00     0.003 A 
ENDROOT
BRANCH   1   7
ATOM      7  C   UNL d   1       2.965  -0.341   0.081  0.00  0.00     0.268 C 
ATOM      8  O   UNL d   1       3.473  -1.304   0.646  0.00  0.00    -0.266 OA
ATOM      9  N   UNL d   1       3.709   0.640  -0.564  0.00  0.00    -0.290 N 
ATOM     10  H   UNL d   1       3.264   1.301  -1.197  0.00  0.00     0.183 HD
BRANCH   9  11
ATOM     11  N   UNL d   1       5.114   0.508  -0.624  0.00  0.00    -0.247 NA
ATOM     12  H   UNL d   1       5.312  -0.491  -0.768  0.00  0.00     0.143 HD
ATOM     13  H   UNL d   1       5.472   0.675   0.323  0.00  0.00     0.143 HD
ENDBRANCH   9  11
ENDBRANCH   1   7
BRANCH   2  14
ATOM     14  O   UNL d   1       1.091  -2.596   0.045  0.00  0.00    -0.254 OA
BRANCH  14  15
ATOM     15  C   UNL d   1       1.666  -3.121  -1.147  0.00  0.00     0.530 C 
ATOM     16  F   UNL d   1       2.299  -2.188  -1.890  0.00  0.00    -0.144 F 
ATOM     17  F   UNL d   1       2.548  -4.091  -0.824  0.00  0.00    -0.144 F 
ATOM     18  F   UNL d   1       0.693  -3.677  -1.905  0.00  0.00    -0.144 F 
ENDBRANCH  14  15
ENDBRANCH   2  14
TORSDOF 4
