REMARK  5 active torsions:
REMARK  status: ('A' for Active; 'I' for Inactive)
REMARK    1  A    between atoms: S_2  and  C_1 
REMARK    2  A    between atoms: C_10  and  S_2 
REMARK    3  A    between atoms: C_3  and  C_4 
REMARK       I    between atoms: N_6  and  C_3 
REMARK    4  A    between atoms: S_9  and  N_6 
REMARK    5  A    between atoms: C_14  and  N_6 
ROOT
ATOM      1  C   UNL d   1       0.694   1.300   0.261  0.00  0.00     0.078 C 
ATOM      2  C   UNL d   1       0.253  -1.007   0.192  0.00  0.00     0.081 C 
ATOM      3  C   UNL d   1       1.240  -0.023   0.035  0.00  0.00    -0.017 C 
ATOM      4  S   UNL d   1      -1.184  -0.337   0.846  0.00  0.00    -0.094 SA
ATOM      5  C   UNL d   1      -0.625   1.257   0.658  0.00  0.00     0.075 C 
ATOM      6  C   UNL d   1       2.679  -0.286  -0.306  0.00  0.00     0.051 C 
ENDROOT
BRANCH   2   7
ATOM      7  C   UNL d   1       0.396  -2.466   0.036  0.00  0.00     0.277 C 
ATOM      8  N   UNL d   1      -0.681  -3.275  -0.418  0.00  0.00    -0.226 N 
ATOM      9  O   UNL d   1       1.486  -2.981   0.306  0.00  0.00    -0.266 OA
BRANCH   8  10
ATOM     10  S   UNL d   1      -1.732  -2.781  -1.650  0.00  0.00     0.120 S 
ATOM     11  O   UNL d   1      -2.897  -2.000  -1.129  0.00  0.00    -0.235 OA
ATOM     12  C   UNL d   1      -0.733  -1.709  -2.689  0.00  0.00     0.153 C 
ENDBRANCH   8  10
BRANCH   8  13
ATOM     13  C   UNL d   1      -0.739  -4.681  -0.041  0.00  0.00     0.051 A 
ATOM     14  C   UNL d   1      -0.109  -5.141   1.131  0.00  0.00     0.031 A 
ATOM     15  C   UNL d   1      -0.149  -6.489   1.512  0.00  0.00     0.002 A 
ATOM     16  C   UNL d   1      -0.832  -7.417   0.736  0.00  0.00     0.000 A 
ATOM     17  C   UNL d   1      -1.481  -6.994  -0.416  0.00  0.00     0.002 A 
ATOM     18  C   UNL d   1      -1.442  -5.644  -0.794  0.00  0.00     0.031 A 
ENDBRANCH   8  13
ENDBRANCH   2   7
BRANCH   1  19
ATOM     19  S   UNL d   1       1.558   2.809   0.113  0.00  0.00     0.207 S 
ATOM     20  O   UNL d   1       0.674   3.816   0.659  0.00  0.00    -0.217 OA
ATOM     21  O   UNL d   1       2.867   2.542   0.675  0.00  0.00    -0.217 OA
BRANCH  19  22
ATOM     22  C   UNL d   1       1.729   3.131  -1.624  0.00  0.00     0.064 A 
ATOM     23  C   UNL d   1       0.588   3.399  -2.388  0.00  0.00     0.025 A 
ATOM     24  C   UNL d   1       0.726   3.728  -3.738  0.00  0.00     0.025 A 
ATOM     25  C   UNL d   1       1.996   3.795  -4.313  0.00  0.00     0.034 A 
ATOM     26  C   UNL d   1       3.134   3.534  -3.549  0.00  0.00     0.025 A 
ATOM     27 CL   UNL d   1       2.162   4.217  -5.972  0.00  0.00    -0.084 Cl
ATOM     28  C   UNL d   1       3.004   3.205  -2.197  0.00  0.00     0.025 A 
ENDBRANCH  19  22
ENDBRANCH   1  19
TORSDOF 5
