REMARK  7 active torsions:
REMARK  status: ('A' for Active; 'I' for Inactive)
REMARK    1  A    between atoms: N_2  and  C_1 
REMARK    2  A    between atoms: C_3  and  C_1 
REMARK    3  A    between atoms: C_5  and  C_1 
REMARK    4  A    between atoms: O_8  and  C_1 
REMARK       I    between atoms: C_4  and  N_2 
REMARK    5  A    between atoms: C_6  and  C_4 
REMARK    6  A    between atoms: O_14  and  C_5 
REMARK    7  A    between atoms: C_18  and  O_14 
ROOT
ATOM      1  C   UNL d   1       0.728  -0.037   0.045  0.00  0.00     0.325 C 
ENDROOT
BRANCH   1   2
ATOM      2  N   UNL d   1       0.537   0.349  -1.358  0.00  0.00    -0.309 N 
ATOM      3  C   UNL d   1       1.234   1.390  -1.927  0.00  0.00     0.255 C 
ATOM      4  O   UNL d   1       1.986   2.058  -1.233  0.00  0.00    -0.268 OA
ATOM      5  H   UNL d   1      -0.235  -0.097  -1.830  0.00  0.00     0.166 HD
BRANCH   3   6
ATOM      6  C   UNL d   1       1.004   1.655  -3.401  0.00  0.00     0.037 A 
ATOM      7  C   UNL d   1       1.510   2.804  -4.054  0.00  0.00    -0.046 A 
ATOM      8  C   UNL d   1       2.353   3.871  -3.406  0.00  0.00     0.049 C 
ATOM      9  C   UNL d   1       1.192   3.018  -5.415  0.00  0.00     0.007 A 
ATOM     10  C   UNL d   1       0.447   2.095  -6.144  0.00  0.00     0.001 A 
ATOM     11  C   UNL d   1       0.006   0.936  -5.527  0.00  0.00     0.001 A 
ATOM     12  C   UNL d   1       0.281   0.718  -4.173  0.00  0.00     0.017 A 
ENDBRANCH   3   6
ENDBRANCH   1   2
BRANCH   1  13
ATOM     13  C   UNL d   1       2.169  -0.427   0.491  0.00  0.00     0.448 C 
ATOM     14  F   UNL d   1       3.099  -0.269  -0.481  0.00  0.00    -0.166 F 
ATOM     15  F   UNL d   1       2.559   0.351   1.542  0.00  0.00    -0.166 F 
ATOM     16  F   UNL d   1       2.278  -1.712   0.909  0.00  0.00    -0.166 F 
ENDBRANCH   1  13
BRANCH   1  17
ATOM     17  C   UNL d   1      -0.113  -1.312   0.246  0.00  0.00     0.325 C 
ATOM     18  O   UNL d   1      -0.441  -2.062  -0.673  0.00  0.00    -0.259 OA
BRANCH  17  19
ATOM     19  O   UNL d   1      -0.540  -1.438   1.536  0.00  0.00    -0.318 OA
BRANCH  19  20
ATOM     20  C   UNL d   1      -1.663  -2.311   1.725  0.00  0.00     0.174 C 
ATOM     21  C   UNL d   1      -2.937  -1.538   1.427  0.00  0.00     0.034 C 
ENDBRANCH  19  20
ENDBRANCH  17  19
ENDBRANCH   1  17
BRANCH   1  22
ATOM     22  O   UNL d   1       0.142   1.030   0.805  0.00  0.00    -0.356 OA
ATOM     23  H   UNL d   1       0.891   1.600   1.069  0.00  0.00     0.213 HD
ENDBRANCH   1  22
TORSDOF 7
