REMARK  2 active torsions:
REMARK  status: ('A' for Active; 'I' for Inactive)
REMARK    1  A    between atoms: C_2  and  C_1 
REMARK    2  A    between atoms: O_15  and  C_12 
ROOT
ATOM      1  C   UNL d   1       1.991  -2.440  -0.014  0.00  0.00     0.135 A 
ATOM      2  N   UNL d   1       1.887  -3.291  -1.045  0.00  0.00    -0.321 N 
ATOM      3  HN  UNL d   1       1.221  -3.142  -1.804  1.00  0.00     0.169 HD
ATOM      4  N   UNL d   1       2.851  -2.576   1.018  0.00  0.00    -0.344 N 
ATOM      5  HN  UNL d   1       2.888  -1.894   1.776  1.00  0.00     0.167 HD
ATOM      6  C   UNL d   1       2.709  -4.347  -1.020  0.00  0.00     0.145 A 
ATOM      7  C   UNL d   1       3.621  -4.586  -0.019  0.00  0.00     0.080 A 
ATOM      8  C   UNL d   1       3.658  -3.658   1.000  0.00  0.00     0.011 A 
ATOM      9  C   UNL d   1       4.606  -3.808   2.150  0.00  0.00     0.068 C 
ENDROOT
BRANCH   1  10
ATOM     10  C   UNL d   1       1.088  -1.288  -0.011  0.00  0.00     0.084 A 
ATOM     11  N   UNL d   1       0.134  -1.079  -1.008  0.00  0.00    -0.351 N 
ATOM     12  C   UNL d   1      -0.550   0.015  -0.762  0.00  0.00     0.047 A 
ATOM     13  HN  UNL d   1      -0.012  -1.689  -1.813  1.00  0.00     0.166 HD
ATOM     14  C   UNL d   1      -1.652   0.523  -1.622  0.00  0.00     0.076 C 
ATOM     15  S   UNL d   1      -0.097   0.867   0.659  0.00  0.00    -0.087 SA
ATOM     16  C   UNL d   1       1.100  -0.319   0.976  0.00  0.00     0.084 A 
ENDBRANCH   1  10
BRANCH   6  17
ATOM     17  O   UNL d   1       2.661  -5.274  -2.045  0.00  0.00    -0.341 OA
ATOM     18  C   UNL d   1       1.687  -4.949  -3.035  0.00  0.00     0.211 C 
ENDBRANCH   6  17
TORSDOF 2
