REMARK  1 active torsions:
REMARK  status: ('A' for Active; 'I' for Inactive)
REMARK    1  A    between atoms: O_13  and  C_3 
ROOT
ATOM      1  N   UNL d   1       0.237   0.711   0.002  0.00  0.00    -0.063 N 
ATOM      2  C   UNL d   1       0.245  -0.684   0.002  0.00  0.00     0.706 A 
ATOM      3  C   UNL d   1      -0.958   1.433   0.003  0.00  0.00     0.181 A 
ATOM      4  N   UNL d   1       1.494  -1.098   0.000  0.00  0.00    -0.184 N 
ATOM      5  HN  UNL d   1       1.841  -2.057  -0.001  1.00  0.00     0.185 HD
ATOM      6  N   UNL d   1      -0.915  -1.403   0.003  0.00  0.00    -0.194 N 
ATOM      7  HN  UNL d   1      -0.913  -2.423   0.004  1.00  0.00     0.184 HD
ATOM      8  C   UNL d   1      -2.123   0.773   0.003  0.00  0.00     0.083 A 
ATOM      9  N   UNL d   1       1.507   1.190   0.001  0.00  0.00    -0.273 N 
ATOM     10  HN  UNL d   1       1.833   2.157   0.001  1.00  0.00     0.189 HD
ATOM     11  C   UNL d   1       2.215   0.059  -0.000  0.00  0.00     0.216 A 
ATOM     12  C   UNL d   1      -2.025  -0.722   0.004  0.00  0.00     0.027 A 
ATOM     13  C   UNL d   1      -3.324  -1.490   0.008  0.00  0.00     0.069 C 
ENDROOT
BRANCH   3  14
ATOM     14  O   UNL d   1      -0.922   2.818   0.003  0.00  0.00    -0.344 OA
ATOM     15  H   UNL d   1       0.027   3.066   0.004  0.00  0.00     0.219 HD
ENDBRANCH   3  14
TORSDOF 1
