REMARK  3 active torsions:
REMARK  status: ('A' for Active; 'I' for Inactive)
REMARK    1  A    between atoms: N_9  and  C_1 
REMARK    2  A    between atoms: C_10  and  N_9 
REMARK    3  A    between atoms: S_13  and  C_10 
ROOT
ATOM      1  N   UNL d   1      -3.058   2.374  -1.085  0.00  0.00    -0.274 N 
ATOM      2  HN  UNL d   1      -4.021   2.647  -1.283  1.00  0.00     0.180 HD
ATOM      3  C   UNL d   1      -2.315   3.171  -0.389  0.00  0.00     0.153 C 
ATOM      4  C   UNL d   1      -2.612   1.214  -1.551  0.00  0.00     0.183 C 
ATOM      5  N   UNL d   1      -2.242   0.197  -1.970  0.00  0.00    -0.172 NA
ENDROOT
BRANCH   3   6
ATOM      6  N   UNL d   1      -2.744   4.330   0.214  0.00  0.00    -0.333 N 
ATOM      7  H   UNL d   1      -1.993   4.929   0.534  0.00  0.00     0.168 HD
BRANCH   6   8
ATOM      8  C   UNL d   1      -4.028   4.768   0.238  0.00  0.00     0.082 A 
ATOM      9  C   UNL d   1      -4.373   6.108   0.318  0.00  0.00     0.053 A 
ATOM     10  N   UNL d   1      -5.745   6.134   0.314  0.00  0.00    -0.299 N 
ATOM     11  C   UNL d   1      -3.556   7.347   0.370  0.00  0.00     0.072 C 
ATOM     12  C   UNL d   1      -6.631   7.274   0.332  0.00  0.00     0.177 C 
ATOM     13  N   UNL d   1      -6.306   4.919   0.303  0.00  0.00    -0.301 N 
ATOM     14  C   UNL d   1      -5.273   4.067   0.278  0.00  0.00     0.051 A 
ATOM     15  HN  UNL d   1      -7.300   4.693   0.312  1.00  0.00     0.187 HD
ATOM     16  C   UNL d   1      -5.589   2.618   0.370  0.00  0.00     0.072 C 
ENDBRANCH   6   8
ENDBRANCH   3   6
BRANCH   3  17
ATOM     17  S   UNL d   1      -0.591   2.905  -0.066  0.00  0.00    -0.098 SA
ATOM     18  C   UNL d   1       0.103   2.934  -1.739  0.00  0.00     0.099 C 
ENDBRANCH   3  17
TORSDOF 3
