REMARK  6 active torsions:
REMARK  status: ('A' for Active; 'I' for Inactive)
REMARK    1  A    between atoms: N_2  and  S_1 
REMARK    2  A    between atoms: C_4  and  S_1 
REMARK    3  A    between atoms: C_3  and  N_9 
REMARK    4  A    between atoms: N_8  and  C_3 
REMARK    5  A    between atoms: C_16  and  N_8 
REMARK    6  A    between atoms: N_9  and  C_15 
ROOT
ATOM      1  N   UNL d   1       3.216   3.212  10.462  0.00  0.00    -0.191 NA
ATOM      2  C   UNL d   1       2.509   3.570   9.612  0.00  0.00     0.099 C 
ATOM      3  C   UNL d   1       1.628   4.016   8.571  0.00  0.00     0.044 A 
ATOM      4  C   UNL d   1      -0.131   4.882   6.544  0.00  0.00     0.034 A 
ATOM      5  C   UNL d   1       1.084   5.303   8.612  0.00  0.00     0.025 A 
ATOM      6  C   UNL d   1       1.291   3.164   7.515  0.00  0.00     0.025 A 
ATOM      7  C   UNL d   1       0.197   5.725   7.614  0.00  0.00     0.031 A 
ATOM      8  C   UNL d   1       0.428   3.600   6.498  0.00  0.00     0.031 A 
ENDROOT
BRANCH   4   9
ATOM      9  N   UNL d   1      -1.106   5.331   5.629  0.00  0.00    -0.333 N 
ATOM     10  H   UNL d   1      -1.810   5.950   6.022  0.00  0.00     0.168 HD
BRANCH   9  11
ATOM     11  C   UNL d   1      -1.468   4.761   4.427  0.00  0.00     0.176 C 
ATOM     12  S   UNL d   1      -3.083   4.768   4.002  0.00  0.00    -0.041 SA
BRANCH  11  13
ATOM     13  N   UNL d   1      -0.409   4.413   3.622  0.00  0.00    -0.333 N 
ATOM     14  H   UNL d   1       0.391   5.026   3.727  0.00  0.00     0.168 HD
BRANCH  13  15
ATOM     15  C   UNL d   1      -0.365   3.516   2.535  0.00  0.00     0.034 A 
ATOM     16  C   UNL d   1       0.579   3.752   1.527  0.00  0.00     0.031 A 
ATOM     17  C   UNL d   1       0.856   2.771   0.570  0.00  0.00     0.027 A 
ATOM     18  C   UNL d   1       0.208   1.535   0.643  0.00  0.00     0.074 A 
ATOM     19  C   UNL d   1      -0.790   1.319   1.599  0.00  0.00     0.027 A 
ATOM     20  C   UNL d   1      -1.088   2.320   2.534  0.00  0.00     0.031 A 
BRANCH  18  21
ATOM     21  S   UNL d   1       0.926   0.148  -0.213  0.00  0.00     0.243 S 
ATOM     22  O   UNL d   1       2.363   0.299  -0.089  0.00  0.00    -0.206 OA
ATOM     23  O   UNL d   1       0.273  -1.060   0.249  0.00  0.00    -0.206 OA
BRANCH  21  24
ATOM     24  N   UNL d   1       0.516   0.352  -1.873  0.00  0.00    -0.206 NA
ATOM     25  C   UNL d   1      -0.931   0.128  -2.167  0.00  0.00     0.107 C 
ATOM     26  C   UNL d   1      -1.230   0.356  -3.650  0.00  0.00     0.015 C 
ATOM     27  C   UNL d   1      -0.324  -0.473  -4.554  0.00  0.00     0.002 C 
ATOM     28  C   UNL d   1       1.135  -0.222  -4.207  0.00  0.00     0.015 C 
ATOM     29  C   UNL d   1       1.389  -0.511  -2.734  0.00  0.00     0.107 C 
ENDBRANCH  21  24
ENDBRANCH  18  21
ENDBRANCH  13  15
ENDBRANCH  11  13
ENDBRANCH   9  11
ENDBRANCH   4   9
TORSDOF 6
