REMARK  3 active torsions:
REMARK  status: ('A' for Active; 'I' for Inactive)
REMARK    1  A    between atoms: C_2  and  C_1 
REMARK    2  A    between atoms: C_14  and  C_7 
REMARK    3  A    between atoms: C_15  and  N_13 
ROOT
ATOM      1  C   UNL d   1       0.442  -2.681  -0.055  0.00  0.00     0.056 A 
ATOM      2  N   UNL d   1      -0.324  -3.558  -0.782  0.00  0.00    -0.335 N 
ATOM      3  HN  UNL d   1      -1.129  -3.283  -1.344  1.00  0.00     0.168 HD
ATOM      4  C   UNL d   1       0.104  -4.793  -0.665  0.00  0.00     0.149 A 
ATOM      5  S   UNL d   1       1.522  -4.944   0.314  0.00  0.00    -0.064 SA
ATOM      6  C   UNL d   1       1.536  -3.246   0.563  0.00  0.00     0.083 A 
ATOM      7  N   UNL d   1      -0.468  -5.897  -1.201  0.00  0.00    -0.337 N 
ATOM      8  H   UNL d   1      -0.081  -6.792  -0.934  0.00  0.00     0.168 HD
ENDROOT
BRANCH   1   9
ATOM      9  C   UNL d   1       0.019  -1.285  -0.014  0.00  0.00     0.052 A 
ATOM     10  C   UNL d   1      -1.325  -0.789   0.007  0.00  0.00     0.080 A 
ATOM     11  N   UNL d   1      -1.307   0.558  -0.011  0.00  0.00    -0.259 N 
ATOM     12  O   UNL d   1       0.015   0.938  -0.011  0.00  0.00    -0.241 OA
ATOM     13  HN  UNL d   1      -2.118   1.177  -0.023  1.00  0.00     0.195 HD
ATOM     14  C   UNL d   1       0.811  -0.161  -0.002  0.00  0.00     0.087 A 
ATOM     15  C   UNL d   1       2.264   0.092  -0.008  0.00  0.00     0.080 C 
BRANCH  10  16
ATOM     16  C   UNL d   1      -2.611  -1.502   0.066  0.00  0.00    -0.007 A 
ATOM     17  C   UNL d   1      -3.747  -0.976  -0.571  0.00  0.00     0.014 A 
ATOM     18  C   UNL d   1      -4.970  -1.653  -0.531  0.00  0.00     0.001 A 
ATOM     19  C   UNL d   1      -5.076  -2.867   0.144  0.00  0.00     0.000 A 
ATOM     20  C   UNL d   1      -3.966  -3.393   0.798  0.00  0.00     0.001 A 
ATOM     21  C   UNL d   1      -2.750  -2.705   0.776  0.00  0.00     0.014 A 
ENDBRANCH  10  16
ENDBRANCH   1   9
BRANCH   7  22
ATOM     22  C   UNL d   1      -1.376  -5.956  -2.278  0.00  0.00     0.034 A 
ATOM     23  C   UNL d   1      -1.774  -4.837  -3.026  0.00  0.00     0.031 A 
ATOM     24  C   UNL d   1      -2.670  -4.952  -4.093  0.00  0.00     0.026 A 
ATOM     25  C   UNL d   1      -3.202  -6.194  -4.416  0.00  0.00     0.034 A 
ATOM     26  C   UNL d   1      -2.858  -7.314  -3.669  0.00  0.00     0.026 A 
ATOM     27 CL   UNL d   1      -4.285  -6.342  -5.743  0.00  0.00    -0.084 Cl
ATOM     28  C   UNL d   1      -1.958  -7.193  -2.602  0.00  0.00     0.031 A 
ENDBRANCH   7  22
TORSDOF 3
