REMARK  5 active torsions:
REMARK  status: ('A' for Active; 'I' for Inactive)
REMARK    1  A    between atoms: S_2  and  C_1 
REMARK    2  A    between atoms: C_15  and  S_2 
REMARK    3  A    between atoms: C_5  and  C_4 
REMARK       I    between atoms: N_9  and  C_5 
REMARK    4  A    between atoms: C_8  and  C_11 
REMARK    5  A    between atoms: C_12  and  N_10 
ROOT
ATOM      1  C   UNL d   1       0.372  -2.496   0.042  0.00  0.00     0.261 C 
ATOM      2  N   UNL d   1      -0.708  -3.369  -0.098  0.00  0.00    -0.344 N 
ATOM      3  N   UNL d   1      -3.270  -4.562   0.238  0.00  0.00    -0.364 N 
ATOM      4  O   UNL d   1       1.143  -2.637   0.998  0.00  0.00    -0.267 OA
ATOM      5  C   UNL d   1      -1.618  -3.510  -1.249  0.00  0.00     0.146 C 
ATOM      6  C   UNL d   1      -0.892  -4.433   0.900  0.00  0.00     0.146 C 
ATOM      7  C   UNL d   1      -2.356  -4.543   1.381  0.00  0.00     0.144 C 
ATOM      8  C   UNL d   1      -3.082  -3.518  -0.776  0.00  0.00     0.144 C 
ENDROOT
BRANCH   1   9
ATOM      9  C   UNL d   1       0.626  -1.439  -0.942  0.00  0.00     0.080 C 
ATOM     10  C   UNL d   1       1.874  -1.015  -1.418  0.00  0.00    -0.017 C 
ATOM     11  C   UNL d   1       1.715   0.056  -2.381  0.00  0.00     0.078 C 
ATOM     12  C   UNL d   1       3.159  -1.634  -0.946  0.00  0.00     0.051 C 
ATOM     13  C   UNL d   1       0.392   0.418  -2.538  0.00  0.00     0.075 C 
ATOM     14  S   UNL d   1      -0.626  -0.376  -1.436  0.00  0.00    -0.094 SA
BRANCH  11  15
ATOM     15  S   UNL d   1       2.959   0.947  -3.227  0.00  0.00     0.207 S 
ATOM     16  O   UNL d   1       4.164   0.150  -3.195  0.00  0.00    -0.217 OA
ATOM     17  O   UNL d   1       2.330   1.341  -4.472  0.00  0.00    -0.217 OA
BRANCH  15  18
ATOM     18  C   UNL d   1       3.194   2.392  -2.223  0.00  0.00     0.064 A 
ATOM     19  C   UNL d   1       3.689   2.253  -0.922  0.00  0.00     0.025 A 
ATOM     20  C   UNL d   1       3.815   3.382  -0.111  0.00  0.00     0.025 A 
ATOM     21  C   UNL d   1       3.459   4.637  -0.606  0.00  0.00     0.034 A 
ATOM     22  C   UNL d   1       2.981   4.776  -1.910  0.00  0.00     0.025 A 
ATOM     23 CL   UNL d   1       3.605   6.024   0.401  0.00  0.00    -0.084 Cl
ATOM     24  C   UNL d   1       2.847   3.650  -2.726  0.00  0.00     0.025 A 
ENDBRANCH  15  18
ENDBRANCH  11  15
ENDBRANCH   1   9
BRANCH   3  25
ATOM     25  C   UNL d   1      -4.363  -5.389   0.152  0.00  0.00     0.103 A 
ATOM     26  N   UNL d   1      -4.760  -5.782  -1.078  0.00  0.00    -0.352 N 
ATOM     27  C   UNL d   1      -5.799  -6.645  -1.190  0.00  0.00     0.106 A 
ATOM     28  HN  UNL d   1      -4.285  -5.433  -1.911  1.00  0.00     0.166 HD
ATOM     29  C   UNL d   1      -6.515  -7.135  -0.114  0.00  0.00     0.063 A 
ATOM     30  C   UNL d   1      -6.126  -6.704   1.152  0.00  0.00     0.021 A 
ATOM     31  C   UNL d   1      -5.039  -5.838   1.283  0.00  0.00     0.049 A 
BRANCH  29  32
ATOM     32  C   UNL d   1      -7.658  -8.079  -0.306  0.00  0.00     0.418 C 
ATOM     33  F   UNL d   1      -7.876  -8.421  -1.606  0.00  0.00    -0.166 F 
ATOM     34  F   UNL d   1      -7.480  -9.253   0.362  0.00  0.00    -0.166 F 
ATOM     35  F   UNL d   1      -8.836  -7.569   0.147  0.00  0.00    -0.166 F 
ENDBRANCH  29  32
ENDBRANCH   3  25
TORSDOF 5
