REMARK  3 active torsions:
REMARK  status: ('A' for Active; 'I' for Inactive)
REMARK       I    between atoms: N_5  and  C_1 
REMARK    1  A    between atoms: O_6  and  C_1 
REMARK    2  A    between atoms: N_2  and  O_6 
REMARK    3  A    between atoms: C_10  and  N_5 
ROOT
ATOM      1  C   UNL d   1      -1.320   1.034  -0.443  0.00  0.00     0.387 C 
ATOM      2  N   UNL d   1       0.042   1.118  -0.595  0.00  0.00    -0.301 N 
ATOM      3  O   UNL d   1      -2.149   1.915  -0.619  0.00  0.00    -0.236 OA
ATOM      4  H   UNL d   1       0.509   0.223  -0.560  0.00  0.00     0.171 HD
ENDROOT
BRANCH   1   5
ATOM      5  O   UNL d   1      -1.646  -0.253  -0.071  0.00  0.00    -0.181 OA
BRANCH   5   6
ATOM      6  N   UNL d   1      -2.683  -0.725  -0.898  0.00  0.00    -0.264 N 
ATOM      7  C   UNL d   1      -3.639  -1.281  -0.219  0.00  0.00     0.020 C 
ATOM      8  C   UNL d   1      -3.697  -1.385   1.282  0.00  0.00     0.065 C 
ATOM      9  C   UNL d   1      -4.775  -1.926  -0.960  0.00  0.00     0.128 C 
ATOM     10  C   UNL d   1      -5.092  -1.829   1.693  0.00  0.00     0.080 C 
ATOM     11  S   UNL d   1      -6.131  -2.005   0.223  0.00  0.00    -0.163 SA
ATOM     12  HN  UNL d   1      -2.684  -0.639  -1.914  1.00  0.00     0.194 HD
ENDBRANCH   5   6
ENDBRANCH   1   5
BRANCH   2  13
ATOM     13  C   UNL d   1       0.791   2.234  -1.006  0.00  0.00     0.036 A 
ATOM     14  C   UNL d   1       0.297   3.539  -1.004  0.00  0.00     0.029 A 
ATOM     15  C   UNL d   1       1.101   4.598  -1.440  0.00  0.00     0.002 A 
ATOM     16  C   UNL d   1       2.397   4.358  -1.889  0.00  0.00     0.000 A 
ATOM     17  C   UNL d   1       2.899   3.059  -1.888  0.00  0.00     0.002 A 
ATOM     18  C   UNL d   1       2.104   2.003  -1.436  0.00  0.00     0.029 A 
ENDBRANCH   2  13
TORSDOF 3
