REMARK  3 active torsions:
REMARK  status: ('A' for Active; 'I' for Inactive)
REMARK    1  A    between atoms: C_6  and  C_1 
REMARK    2  A    between atoms: C_5  and  C_2 
REMARK       I    between atoms: N_9  and  C_5 
REMARK    3  A    between atoms: C_16  and  N_9 
ROOT
ATOM      1  C   UNL d   1       0.511  -0.158  -0.939  0.00  0.00     0.086 A 
ATOM      2  C   UNL d   1       0.108  -1.501  -0.612  0.00  0.00     0.092 A 
ATOM      3  N   UNL d   1      -0.498   0.511  -1.517  0.00  0.00    -0.259 N 
ATOM      4  HN  UNL d   1      -0.472   1.468  -1.871  1.00  0.00     0.195 HD
ATOM      5  O   UNL d   1      -1.567  -0.338  -1.541  0.00  0.00    -0.241 OA
ATOM      6  C   UNL d   1      -1.221  -1.540  -1.018  0.00  0.00     0.090 A 
ATOM      7  C   UNL d   1      -2.322  -2.524  -1.035  0.00  0.00     0.080 C 
ENDROOT
BRANCH   2   8
ATOM      8  C   UNL d   1       0.915  -2.578  -0.038  0.00  0.00     0.256 C 
ATOM      9  N   UNL d   1       0.225  -3.676   0.418  0.00  0.00    -0.351 N 
ATOM     10  H   UNL d   1      -0.768  -3.602   0.558  0.00  0.00     0.163 HD
ATOM     11  O   UNL d   1       2.135  -2.530   0.037  0.00  0.00    -0.267 OA
BRANCH   9  12
ATOM     12  C   UNL d   1       0.829  -4.972   0.771  0.00  0.00     0.103 C 
ATOM     13  C   UNL d   1       1.887  -4.877   1.876  0.00  0.00     0.101 C 
ATOM     14  S   UNL d   1       2.152  -6.495   2.668  0.00  0.00    -0.152 SA
ATOM     15  C   UNL d   1       2.797  -7.430   1.244  0.00  0.00     0.104 C 
ATOM     16  S   UNL d   1       1.618  -7.491  -0.144  0.00  0.00    -0.152 SA
ATOM     17  C   UNL d   1       3.062  -8.864   1.707  0.00  0.00     0.033 C 
ATOM     18  C   UNL d   1       1.381  -5.710  -0.458  0.00  0.00     0.101 C 
ENDBRANCH   9  12
ENDBRANCH   2   8
BRANCH   1  19
ATOM     19  C   UNL d   1       1.775   0.546  -0.724  0.00  0.00     0.037 A 
ATOM     20  C   UNL d   1       2.946   0.193  -1.418  0.00  0.00     0.048 A 
ATOM     21 CL   UNL d   1       2.984  -1.059  -2.614  0.00  0.00    -0.083 Cl
ATOM     22  C   UNL d   1       4.141   0.902  -1.214  0.00  0.00     0.025 A 
ATOM     23  C   UNL d   1       4.173   2.008  -0.364  0.00  0.00     0.003 A 
ATOM     24  C   UNL d   1       3.013   2.401   0.292  0.00  0.00     0.025 A 
ATOM     25  C   UNL d   1       1.827   1.672   0.128  0.00  0.00     0.048 A 
ATOM     26 CL   UNL d   1       0.453   2.237   1.026  0.00  0.00    -0.083 Cl
ENDBRANCH   1  19
TORSDOF 3
