REMARK  4 active torsions:
REMARK  status: ('A' for Active; 'I' for Inactive)
REMARK    1  A    between atoms: C_2  and  O_7 
REMARK    2  A    between atoms: C_9  and  C_2 
REMARK    3  A    between atoms: O_7  and  N_3 
REMARK    4  A    between atoms: O_18  and  C_15 
ROOT
ATOM      1  C   UNL d   1       3.073   3.039  -2.316  0.00  0.00     0.315 C 
ATOM      2  O   UNL d   1       4.159   2.885  -2.862  0.00  0.00    -0.257 OA
ENDROOT
BRANCH   1   3
ATOM      3  O   UNL d   1       2.494   2.169  -1.436  0.00  0.00    -0.195 OA
BRANCH   3   4
ATOM      4  N   UNL d   1       2.473   0.882  -2.011  0.00  0.00    -0.264 N 
ATOM      5  C   UNL d   1       2.578  -0.080  -1.141  0.00  0.00     0.029 C 
ATOM      6  C   UNL d   1       2.829   0.091   0.344  0.00  0.00     0.130 C 
ATOM      7  C   UNL d   1       2.349  -1.491  -1.640  0.00  0.00     0.130 C 
ATOM      8  S   UNL d   1       4.396  -0.686   0.836  0.00  0.00    -0.148 SA
ATOM      9  C   UNL d   1       4.115  -2.407   0.307  0.00  0.00     0.105 C 
ATOM     10  S   UNL d   1       3.830  -2.513  -1.484  0.00  0.00    -0.148 SA
ATOM     11  C   UNL d   1       3.033  -3.107   1.125  0.00  0.00     0.033 C 
ATOM     12  HN  UNL d   1       2.383   0.721  -3.014  1.00  0.00     0.194 HD
ENDBRANCH   3   4
ENDBRANCH   1   3
BRANCH   1  13
ATOM     13  C   UNL d   1       2.215   4.240  -2.538  0.00  0.00     0.041 A 
ATOM     14  C   UNL d   1       2.713   5.283  -3.335  0.00  0.00     0.020 A 
ATOM     15  C   UNL d   1       1.923   6.404  -3.628  0.00  0.00     0.038 A 
ATOM     16  C   UNL d   1       0.625   6.489  -3.127  0.00  0.00     0.068 A 
ATOM     17  C   UNL d   1       0.119   5.443  -2.352  0.00  0.00     0.038 A 
ATOM     18  C   UNL d   1       0.907   4.328  -2.049  0.00  0.00     0.020 A 
BRANCH  16  19
ATOM     19  O   UNL d   1      -0.258   7.504  -3.376  0.00  0.00    -0.356 OA
ATOM     20  C   UNL d   1       0.315   8.791  -3.577  0.00  0.00     0.210 C 
ENDBRANCH  16  19
ENDBRANCH   1  13
TORSDOF 4
