REMARK  3 active torsions:
REMARK  status: ('A' for Active; 'I' for Inactive)
REMARK    1  A    between atoms: O_5  and  C_2 
REMARK    2  A    between atoms: C_12  and  O_5 
REMARK    3  A    between atoms: C_7  and  C_8 
ROOT
ATOM      1  C   UNL d   1       2.987   4.597  -0.923  0.00  0.00     0.100 A 
ATOM      2  C   UNL d   1       2.391   3.333  -0.783  0.00  0.00     0.098 A 
ATOM      3  C   UNL d   1       2.537   5.724  -0.162  0.00  0.00     0.104 C 
ATOM      4  N   UNL d   1       2.172   6.641   0.454  0.00  0.00    -0.191 NA
ATOM      5  C   UNL d   1       4.074   4.736  -1.802  0.00  0.00     0.057 A 
ATOM      6 CL   UNL d   1       4.824   6.266  -2.107  0.00  0.00    -0.083 Cl
ATOM      7  C   UNL d   1       2.942   2.219  -1.433  0.00  0.00     0.039 A 
ATOM      8  C   UNL d   1       4.045   2.363  -2.271  0.00  0.00     0.005 A 
ATOM      9  C   UNL d   1       4.599   3.624  -2.470  0.00  0.00     0.025 A 
ENDROOT
BRANCH   2  10
ATOM     10  O   UNL d   1       1.345   3.037   0.064  0.00  0.00    -0.309 OA
BRANCH  10  11
ATOM     11  C   UNL d   1       0.166   3.747  -0.002  0.00  0.00     0.076 A 
ATOM     12  C   UNL d   1      -0.276   4.489  -1.099  0.00  0.00     0.038 A 
ATOM     13  C   UNL d   1      -1.458   5.230  -1.004  0.00  0.00     0.018 A 
ATOM     14  C   UNL d   1      -2.238   5.182   0.159  0.00  0.00     0.009 A 
ATOM     15  C   UNL d   1      -1.826   4.391   1.235  0.00  0.00     0.018 A 
ATOM     16  C   UNL d   1      -0.627   3.677   1.149  0.00  0.00     0.038 A 
BRANCH  14  17
ATOM     17  C   UNL d   1      -3.480   5.998   0.206  0.00  0.00     0.155 C 
ATOM     18  O   UNL d   1      -3.529   7.059  -0.413  0.00  0.00    -0.293 OA
ATOM     19  C   UNL d   1      -4.673   5.489   0.971  0.00  0.00     0.096 C 
ENDBRANCH  14  17
ENDBRANCH  10  11
ENDBRANCH   2  10
TORSDOF 3
