REMARK  7 active torsions:
REMARK  status: ('A' for Active; 'I' for Inactive)
REMARK    1  A    between atoms: C_7  and  C_1 
REMARK    2  A    between atoms: C_10  and  C_3 
REMARK    3  A    between atoms: S_17  and  C_11 
REMARK    4  A    between atoms: C_13  and  C_26 
REMARK       I    between atoms: N_16  and  C_13 
REMARK    5  A    between atoms: C_27  and  N_16 
REMARK    6  A    between atoms: C_26  and  S_17 
REMARK    7  A    between atoms: C_29  and  C_20 
ROOT
ATOM      1  C   UNL d   1       5.055  -7.497   1.164  0.00  0.00     0.054 A 
ATOM      2  N   UNL d   1       4.082  -6.606   1.428  0.00  0.00    -0.336 N 
ATOM      3  HN  UNL d   1       4.250  -5.781   2.004  1.00  0.00     0.168 HD
ATOM      4  C   UNL d   1       2.880  -6.864   0.894  0.00  0.00     0.145 A 
ATOM      5  N   UNL d   1       2.581  -7.915   0.119  0.00  0.00    -0.347 N 
ATOM      6  HN  UNL d   1       1.646  -8.055  -0.264  1.00  0.00     0.167 HD
ATOM      7  C   UNL d   1       4.849  -8.617   0.382  0.00  0.00     0.048 A 
ATOM      8  C   UNL d   1       3.583  -8.775  -0.124  0.00  0.00     0.092 A 
ENDROOT
BRANCH   4   9
ATOM      9  S   UNL d   1       1.556  -5.823   1.445  0.00  0.00    -0.085 SA
BRANCH   9  10
ATOM     10  C   UNL d   1       0.374  -7.116   1.915  0.00  0.00     0.185 C 
BRANCH  10  11
ATOM     11  C   UNL d   1       0.817  -8.062   3.029  0.00  0.00     0.231 C 
ATOM     12  N   UNL d   1       1.974  -7.735   3.709  0.00  0.00    -0.327 N 
ATOM     13  H   UNL d   1       2.391  -6.834   3.494  0.00  0.00     0.169 HD
ATOM     14  O   UNL d   1       0.110  -9.042   3.273  0.00  0.00    -0.272 OA
BRANCH  12  15
ATOM     15  C   UNL d   1       2.698  -8.551   4.607  0.00  0.00     0.034 A 
ATOM     16  C   UNL d   1       2.341  -9.861   4.918  0.00  0.00     0.030 A 
ATOM     17  C   UNL d   1       3.145 -10.644   5.752  0.00  0.00     0.010 A 
ATOM     18  C   UNL d   1       4.330 -10.136   6.298  0.00  0.00    -0.055 A 
ATOM     19  C   UNL d   1       4.675  -8.810   6.008  0.00  0.00     0.010 A 
ATOM     20  C   UNL d   1       3.870  -8.027   5.168  0.00  0.00     0.030 A 
BRANCH  18  21
ATOM     21  C   UNL d   1       5.244 -11.009   7.139  0.00  0.00     0.010 C 
ATOM     22  C   UNL d   1       4.543 -11.551   8.387  0.00  0.00     0.015 C 
ATOM     23  C   UNL d   1       5.813 -12.158   6.298  0.00  0.00     0.015 C 
ENDBRANCH  18  21
ENDBRANCH  12  15
ENDBRANCH  10  11
ENDBRANCH   9  10
ENDBRANCH   4   9
BRANCH   1  24
ATOM     24  C   UNL d   1       6.349  -7.189   1.773  0.00  0.00     0.056 A 
ATOM     25  S   UNL d   1       7.324  -8.454   2.406  0.00  0.00    -0.067 SA
ATOM     26  C   UNL d   1       8.563  -7.329   2.788  0.00  0.00     0.092 A 
ATOM     27  N   UNL d   1       8.256  -6.073   2.550  0.00  0.00    -0.352 N 
ATOM     28  C   UNL d   1       6.991  -5.976   1.980  0.00  0.00     0.025 A 
ATOM     29  HN  UNL d   1       8.863  -5.279   2.754  1.00  0.00     0.166 HD
ATOM     30  C   UNL d   1       6.496  -4.619   1.611  0.00  0.00     0.070 C 
BRANCH  26  31
ATOM     31  C   UNL d   1       9.860  -7.717   3.308  0.00  0.00     0.038 A 
ATOM     32  S   UNL d   1      10.331  -9.348   3.568  0.00  0.00    -0.099 SA
ATOM     33  C   UNL d   1      11.888  -8.899   4.102  0.00  0.00     0.050 A 
ATOM     34  C   UNL d   1      12.057  -7.533   4.098  0.00  0.00     0.008 A 
ATOM     35  C   UNL d   1      10.890  -6.855   3.642  0.00  0.00     0.022 A 
ENDBRANCH  26  31
ENDBRANCH   1  24
TORSDOF 7
