REMARK  4 active torsions:
REMARK  status: ('A' for Active; 'I' for Inactive)
REMARK    1  A    between atoms: S_5  and  C_3 
REMARK    2  A    between atoms: C_11  and  S_5 
REMARK    3  A    between atoms: O_10  and  C_12 
REMARK    4  A    between atoms: C_12  and  C_11 
ROOT
ATOM      1  N   UNL d   1      -1.688   1.170   0.066  0.00  0.00    -0.359 N 
ATOM      2  HN  UNL d   1      -2.190   2.057   0.083  1.00  0.00     0.166 HD
ATOM      3  C   UNL d   1      -2.343  -0.015   0.071  0.00  0.00     0.069 A 
ATOM      4  C   UNL d   1      -0.334   1.124   0.037  0.00  0.00     0.112 A 
ATOM      5  C   UNL d   1       0.401  -0.051   0.008  0.00  0.00     0.049 A 
ATOM      6  C   UNL d   1      -1.683  -1.239   0.055  0.00  0.00     0.038 A 
ATOM      7 CL   UNL d   1       2.114  -0.021  -0.042  0.00  0.00    -0.083 Cl
ATOM      8  C   UNL d   1      -0.289  -1.256   0.017  0.00  0.00     0.028 A 
ENDROOT
BRANCH   3   9
ATOM      9  S   UNL d   1      -4.122   0.009   0.113  0.00  0.00    -0.110 SA
BRANCH   9  10
ATOM     10  C   UNL d   1      -4.457   1.568  -0.786  0.00  0.00     0.107 C 
BRANCH  10  11
ATOM     11  C   UNL d   1      -3.987   1.545  -2.241  0.00  0.00     0.174 C 
BRANCH  11  12
ATOM     12  O   UNL d   1      -4.698   0.565  -2.994  0.00  0.00    -0.400 OA
ATOM     13  H   UNL d   1      -4.269   0.509  -3.864  0.00  0.00     0.209 HD
ENDBRANCH  11  12
ENDBRANCH  10  11
ENDBRANCH   9  10
ENDBRANCH   3   9
TORSDOF 4
