REMARK  6 active torsions:
REMARK  status: ('A' for Active; 'I' for Inactive)
REMARK    1  A    between atoms: C_10  and  C_1 
REMARK    2  A    between atoms: C_9  and  C_15 
REMARK    3  A    between atoms: O_17  and  C_9 
REMARK    4  A    between atoms: O_14  and  C_13 
REMARK    5  A    between atoms: C_15  and  O_14 
REMARK    6  A    between atoms: C_20  and  O_17 
ROOT
ATOM      1  C   UNL d   1      -1.794  -1.548  -0.046  0.00  0.00     0.090 A 
ATOM      2  C   UNL d   1      -2.276  -0.297  -0.040  0.00  0.00     0.093 A 
ATOM      3  C   UNL d   1       0.467  -0.819   0.018  0.00  0.00     0.093 A 
ATOM      4  O   UNL d   1      -0.437  -1.852   0.001  0.00  0.00    -0.309 OA
ATOM      5  C   UNL d   1      -1.347   0.842   0.030  0.00  0.00     0.187 A 
ATOM      6  C   UNL d   1       0.086   0.517   0.034  0.00  0.00     0.048 A 
ATOM      7  C   UNL d   1       1.821  -1.148   0.005  0.00  0.00     0.075 A 
ATOM      8  C   UNL d   1       1.045   1.532   0.035  0.00  0.00     0.021 A 
ATOM      9  O   UNL d   1      -1.757   1.990   0.073  0.00  0.00    -0.287 OA
ATOM     10  C   UNL d   1       2.792  -0.141   0.013  0.00  0.00     0.072 A 
ATOM     11  C   UNL d   1       2.403   1.201   0.021  0.00  0.00     0.038 A 
ENDROOT
BRANCH  10  12
ATOM     12  O   UNL d   1       4.083  -0.581  -0.052  0.00  0.00    -0.341 OA
BRANCH  12  13
ATOM     13  C   UNL d   1       5.069   0.271   0.523  0.00  0.00     0.286 C 
BRANCH  13  14
ATOM     14  C   UNL d   1       6.414  -0.436   0.512  0.00  0.00     0.283 C 
ATOM     15  O   UNL d   1       6.642  -1.542   0.044  0.00  0.00    -0.263 OA
BRANCH  14  16
ATOM     16  O   UNL d   1       7.325   0.334   1.180  0.00  0.00    -0.320 OA
BRANCH  16  17
ATOM     17  C   UNL d   1       8.503  -0.362   1.613  0.00  0.00     0.174 C 
ATOM     18  C   UNL d   1       8.211  -0.960   2.977  0.00  0.00     0.034 C 
ENDBRANCH  16  17
ENDBRANCH  14  16
ENDBRANCH  13  14
ENDBRANCH  12  13
ENDBRANCH  10  12
BRANCH   1  19
ATOM     19  C   UNL d   1      -2.683  -2.731  -0.139  0.00  0.00    -0.002 A 
ATOM     20  C   UNL d   1      -2.234  -3.903  -0.768  0.00  0.00     0.014 A 
ATOM     21  C   UNL d   1      -3.059  -5.028  -0.873  0.00  0.00     0.001 A 
ATOM     22  C   UNL d   1      -4.347  -5.001  -0.346  0.00  0.00     0.000 A 
ATOM     23  C   UNL d   1      -4.808  -3.852   0.291  0.00  0.00     0.001 A 
ATOM     24  C   UNL d   1      -3.981  -2.729   0.399  0.00  0.00     0.014 A 
ENDBRANCH   1  19
TORSDOF 6
