REMARK  4 active torsions:
REMARK  status: ('A' for Active; 'I' for Inactive)
REMARK    1  A    between atoms: C_2  and  N_1 
REMARK    2  A    between atoms: C_3  and  C_5 
REMARK    3  A    between atoms: S_6  and  C_4 
REMARK    4  A    between atoms: C_5  and  S_6 
ROOT
ATOM      1  C   UNL d   1      -1.220   0.465   2.400  0.00  0.00     0.136 A 
ATOM      2  C   UNL d   1      -0.696  -0.192   1.292  0.00  0.00     0.103 A 
ATOM      3  N   UNL d   1       0.369   0.333   0.629  0.00  0.00    -0.359 N 
ATOM      4  HN  UNL d   1       0.763  -0.146  -0.181  1.00  0.00     0.166 HD
ATOM      5  C   UNL d   1      -0.673   1.680   2.836  0.00  0.00     0.040 A 
ATOM      6  C   UNL d   1       0.897   1.500   1.063  0.00  0.00     0.089 A 
ATOM      7  C   UNL d   1       0.413   2.208   2.148  0.00  0.00     0.020 A 
ENDROOT
BRANCH   2   8
ATOM      8  S   UNL d   1      -1.372  -1.697   0.602  0.00  0.00    -0.105 SA
BRANCH   8   9
ATOM      9  C   UNL d   1      -0.207  -1.991  -0.776  0.00  0.00     0.124 C 
BRANCH   9  10
ATOM     10  C   UNL d   1      -0.538  -3.252  -1.533  0.00  0.00     0.012 A 
ATOM     11  C   UNL d   1      -1.399  -3.285  -2.639  0.00  0.00     0.044 A 
ATOM     12 CL   UNL d   1      -2.151  -1.858  -3.259  0.00  0.00    -0.084 Cl
ATOM     13  C   UNL d   1      -1.675  -4.493  -3.297  0.00  0.00     0.024 A 
ATOM     14  C   UNL d   1      -1.100  -5.684  -2.857  0.00  0.00     0.005 A 
ATOM     15  C   UNL d   1      -0.243  -5.668  -1.762  0.00  0.00     0.043 A 
ATOM     16  C   UNL d   1       0.029  -4.463  -1.115  0.00  0.00     0.125 A 
ATOM     17  F   UNL d   1       0.869  -4.481  -0.071  0.00  0.00    -0.205 F 
ENDBRANCH   9  10
ENDBRANCH   8   9
ENDBRANCH   2   8
BRANCH   1  18
ATOM     18  N   UNL d   1      -2.337  -0.068   3.138  0.00  0.00    -0.113 N 
ATOM     19  O   UNL d   1      -2.171  -1.143   3.727  0.00  0.00    -0.532 OA
ATOM     20  O   UNL d   1      -3.352   0.639   3.201  0.00  0.00    -0.532 OA
ENDBRANCH   1  18
TORSDOF 4
