REMARK  6 active torsions:
REMARK  status: ('A' for Active; 'I' for Inactive)
REMARK    1  A    between atoms: C_5  and  C_1 
REMARK    2  A    between atoms: N_9  and  C_2 
REMARK       I    between atoms: C_8  and  N_9 
REMARK       I    between atoms: N_10  and  C_8 
REMARK    3  A    between atoms: C_13  and  N_10 
REMARK    4  A    between atoms: C_15  and  C_13 
REMARK    5  A    between atoms: O_18  and  C_15 
REMARK    6  A    between atoms: O_19  and  C_15 
ROOT
ATOM      1  C   UNL d   1      -0.187  -0.321  -1.985  0.00  0.00     0.097 A 
ATOM      2  C   UNL d   1       0.191  -1.013  -0.792  0.00  0.00     0.097 A 
ATOM      3  N   UNL d   1      -0.289   0.996  -1.753  0.00  0.00    -0.258 N 
ATOM      4  HN  UNL d   1      -0.507   1.723  -2.434  1.00  0.00     0.195 HD
ATOM      5  C   UNL d   1       0.238  -0.029   0.171  0.00  0.00     0.101 A 
ATOM      6  O   UNL d   1      -0.039   1.170  -0.408  0.00  0.00    -0.240 OA
ATOM      7  C   UNL d   1       0.410  -0.005   1.637  0.00  0.00     0.081 C 
ENDROOT
BRANCH   2   8
ATOM      8  N   UNL d   1       0.382  -2.376  -0.642  0.00  0.00    -0.305 N 
ATOM      9  C   UNL d   1       1.372  -3.024   0.039  0.00  0.00     0.321 C 
ATOM     10  N   UNL d   1       2.454  -2.279   0.416  0.00  0.00    -0.334 N 
ATOM     11  O   UNL d   1       1.316  -4.240   0.192  0.00  0.00    -0.247 OA
ATOM     12  H   UNL d   1       2.640  -1.492  -0.192  0.00  0.00     0.164 HD
ATOM     13  H   UNL d   1      -0.126  -2.995  -1.261  0.00  0.00     0.171 HD
BRANCH  10  14
ATOM     14  C   UNL d   1       3.667  -2.951   0.909  0.00  0.00     0.137 C 
ATOM     15  C   UNL d   1       4.581  -1.928   1.585  0.00  0.00     0.037 C 
BRANCH  14  16
ATOM     16  C   UNL d   1       4.422  -3.741  -0.215  0.00  0.00     0.280 C 
BRANCH  16  17
ATOM     17  O   UNL d   1       4.834  -2.798  -1.221  0.00  0.00    -0.364 OA
ATOM     18  C   UNL d   1       5.380  -3.444  -2.364  0.00  0.00     0.204 C 
ENDBRANCH  16  17
BRANCH  16  19
ATOM     19  O   UNL d   1       5.582  -4.412   0.288  0.00  0.00    -0.364 OA
ATOM     20  C   UNL d   1       5.280  -5.551   1.078  0.00  0.00     0.204 C 
ENDBRANCH  16  19
ENDBRANCH  14  16
ENDBRANCH  10  14
ENDBRANCH   2   8
BRANCH   1  21
ATOM     21  C   UNL d   1      -0.352  -0.864  -3.332  0.00  0.00     0.038 A 
ATOM     22  C   UNL d   1      -1.573  -0.753  -4.021  0.00  0.00     0.048 A 
ATOM     23 CL   UNL d   1      -2.974  -0.001  -3.334  0.00  0.00    -0.083 Cl
ATOM     24  C   UNL d   1      -1.719  -1.286  -5.310  0.00  0.00     0.025 A 
ATOM     25  C   UNL d   1      -0.661  -1.953  -5.923  0.00  0.00     0.003 A 
ATOM     26  C   UNL d   1       0.553  -2.071  -5.257  0.00  0.00     0.025 A 
ATOM     27  C   UNL d   1       0.715  -1.517  -3.982  0.00  0.00     0.048 A 
ATOM     28 CL   UNL d   1       2.298  -1.649  -3.292  0.00  0.00    -0.083 Cl
ENDBRANCH   1  21
TORSDOF 6
