REMARK  4 active torsions:
REMARK  status: ('A' for Active; 'I' for Inactive)
REMARK    1  A    between atoms: C_4  and  C_1 
REMARK       I    between atoms: N_8  and  C_4 
REMARK    2  A    between atoms: C_12  and  C_5 
REMARK    3  A    between atoms: C_6  and  C_12 
REMARK    4  A    between atoms: C_10  and  N_8 
ROOT
ATOM      1  C   UNL d   1       1.179   0.832  -0.170  0.00  0.00     0.108 A 
ATOM      2  N   UNL d   1       1.357  -0.501   0.225  0.00  0.00    -0.349 N 
ATOM      3  HN  UNL d   1       2.199  -0.879   0.658  1.00  0.00     0.166 HD
ATOM      4  C   UNL d   1       0.263  -1.194  -0.051  0.00  0.00     0.055 A 
ATOM      5  C   UNL d   1      -0.072   1.116  -0.683  0.00  0.00     0.086 A 
ATOM      6  S   UNL d   1      -1.039  -0.283  -0.719  0.00  0.00    -0.086 SA
ENDROOT
BRANCH   1   7
ATOM      7  C   UNL d   1       2.233   1.853  -0.093  0.00  0.00     0.273 C 
ATOM      8  N   UNL d   1       3.324   1.469   0.667  0.00  0.00    -0.319 N 
ATOM      9  H   UNL d   1       3.331   0.488   0.929  0.00  0.00     0.169 HD
ATOM     10  O   UNL d   1       2.116   2.901  -0.718  0.00  0.00    -0.266 OA
BRANCH   8  11
ATOM     11  C   UNL d   1       4.474   2.255   0.921  0.00  0.00     0.074 A 
ATOM     12  C   UNL d   1       4.531   3.655   0.797  0.00  0.00     0.146 A 
ATOM     13  C   UNL d   1       5.721   4.357   0.975  0.00  0.00     0.086 A 
ATOM     14  F   UNL d   1       3.432   4.392   0.591  0.00  0.00    -0.204 F 
ATOM     15  C   UNL d   1       6.867   3.664   1.318  0.00  0.00     0.119 A 
ATOM     16  C   UNL d   1       6.833   2.287   1.514  0.00  0.00     0.044 A 
ATOM     17  F   UNL d   1       8.018   4.328   1.478  0.00  0.00    -0.206 F 
ATOM     18  C   UNL d   1       5.637   1.583   1.325  0.00  0.00     0.036 A 
ENDBRANCH   8  11
ENDBRANCH   1   7
BRANCH   4  19
ATOM     19  C   UNL d   1       0.111  -2.686   0.095  0.00  0.00     0.107 C 
BRANCH  19  20
ATOM     20  C   UNL d   1      -0.199  -3.141   1.506  0.00  0.00    -0.009 A 
ATOM     21  C   UNL d   1      -1.525  -3.252   1.972  0.00  0.00     0.042 A 
ATOM     22 CL   UNL d   1      -2.894  -2.901   0.974  0.00  0.00    -0.084 Cl
ATOM     23  C   UNL d   1      -1.804  -3.679   3.276  0.00  0.00     0.024 A 
ATOM     24  C   UNL d   1      -0.769  -4.011   4.143  0.00  0.00     0.003 A 
ATOM     25  C   UNL d   1       0.548  -3.908   3.707  0.00  0.00     0.024 A 
ATOM     26  C   UNL d   1       0.833  -3.470   2.407  0.00  0.00     0.042 A 
ATOM     27 CL   UNL d   1       2.505  -3.377   1.972  0.00  0.00    -0.084 Cl
ENDBRANCH  19  20
ENDBRANCH   4  19
TORSDOF 4
