REMARK  4 active torsions:
REMARK  status: ('A' for Active; 'I' for Inactive)
REMARK    1  A    between atoms: S_5  and  C_1 
REMARK    2  A    between atoms: C_7  and  C_2 
REMARK    3  A    between atoms: S_8  and  C_7 
REMARK    4  A    between atoms: C_13  and  S_8 
ROOT
ATOM      1  C   UNL d   1      -1.404   1.988   0.140  0.00  0.00     0.111 A 
ATOM      2  C   UNL d   1      -1.784  -0.486   0.348  0.00  0.00     0.070 A 
ATOM      3  S   UNL d   1      -2.745   0.941   0.323  0.00  0.00    -0.072 SA
ATOM      4  C   UNL d   1      -0.230   1.266   0.116  0.00  0.00    -0.000 A 
ATOM      5  C   UNL d   1      -0.432  -0.160   0.202  0.00  0.00    -0.024 A 
ATOM      6  C   UNL d   1       1.085   1.815   0.027  0.00  0.00     0.010 C 
ATOM      7  C   UNL d   1       2.178   1.037   0.031  0.00  0.00    -0.025 C 
ATOM      8  C   UNL d   1       0.729  -1.122   0.113  0.00  0.00     0.045 C 
ATOM      9  C   UNL d   1       2.128  -0.462   0.115  0.00  0.00     0.032 C 
ENDROOT
BRANCH   2  10
ATOM     10  C   UNL d   1      -2.384  -1.819   0.542  0.00  0.00     0.231 C 
ATOM     11  O   UNL d   1      -1.760  -2.790   0.956  0.00  0.00    -0.279 OA
BRANCH  10  12
ATOM     12  S   UNL d   1      -4.043  -2.005  -0.046  0.00  0.00    -0.047 SA
BRANCH  12  13
ATOM     13  C   UNL d   1      -4.995  -2.843   1.213  0.00  0.00     0.008 A 
ATOM     14  C   UNL d   1      -6.374  -2.563   1.239  0.00  0.00     0.021 A 
ATOM     15  C   UNL d   1      -7.248  -3.262   2.081  0.00  0.00     0.025 A 
ATOM     16  C   UNL d   1      -6.749  -4.256   2.915  0.00  0.00     0.034 A 
ATOM     17  C   UNL d   1      -5.384  -4.534   2.924  0.00  0.00     0.025 A 
ATOM     18 CL   UNL d   1      -7.824  -5.157   3.910  0.00  0.00    -0.084 Cl
ATOM     19  C   UNL d   1      -4.510  -3.832   2.075  0.00  0.00     0.021 A 
ENDBRANCH  12  13
ENDBRANCH  10  12
ENDBRANCH   2  10
BRANCH   1  20
ATOM     20  S   UNL d   1      -1.818   3.723   0.037  0.00  0.00     0.179 S 
ATOM     21  O   UNL d   1      -2.767   3.977   1.109  0.00  0.00    -0.222 OA
ATOM     22  O   UNL d   1      -0.565   4.441  -0.044  0.00  0.00    -0.222 OA
ATOM     23  C   UNL d   1      -2.649   3.884  -1.522  0.00  0.00     0.167 C 
ENDBRANCH   1  20
TORSDOF 4
