REMARK  3 active torsions:
REMARK  status: ('A' for Active; 'I' for Inactive)
REMARK    1  A    between atoms: N_2  and  C_1 
REMARK    2  A    between atoms: O_13  and  C_1 
REMARK       I    between atoms: C_7  and  N_2 
REMARK    3  A    between atoms: C_8  and  C_7 
ROOT
ATOM      1  C   UNL d   1      -2.632   1.003  -1.983  0.00  0.00     0.269 C 
ATOM      2  C   UNL d   1      -2.208   0.632  -3.421  0.00  0.00     0.224 C 
ATOM      3  C   UNL d   1      -3.737   2.056  -2.207  0.00  0.00     0.224 C 
ATOM      4  C   UNL d   1      -3.734   2.400  -3.632  0.00  0.00     0.029 A 
ATOM      5  C   UNL d   1      -2.871   1.567  -4.334  0.00  0.00     0.029 A 
ATOM      6  O   UNL d   1      -1.347  -0.161  -3.763  0.00  0.00    -0.286 OA
ATOM      7  O   UNL d   1      -4.455   2.602  -1.384  0.00  0.00    -0.286 OA
ATOM      8  C   UNL d   1      -2.623   1.748  -5.685  0.00  0.00     0.016 A 
ATOM      9  C   UNL d   1      -4.379   3.458  -4.250  0.00  0.00     0.016 A 
ATOM     10  C   UNL d   1      -4.132   3.664  -5.611  0.00  0.00     0.001 A 
ATOM     11  C   UNL d   1      -3.265   2.813  -6.324  0.00  0.00     0.001 A 
ENDROOT
BRANCH   1  12
ATOM     12  N   UNL d   1      -2.902  -0.082  -1.098  0.00  0.00    -0.312 N 
ATOM     13  C   UNL d   1      -3.886  -1.008  -1.316  0.00  0.00     0.254 C 
ATOM     14  O   UNL d   1      -4.635  -0.956  -2.284  0.00  0.00    -0.268 OA
ATOM     15  H   UNL d   1      -2.196  -0.225  -0.396  0.00  0.00     0.166 HD
BRANCH  13  16
ATOM     16  C   UNL d   1      -3.945  -2.131  -0.324  0.00  0.00     0.032 A 
ATOM     17  C   UNL d   1      -3.420  -2.003   0.971  0.00  0.00     0.024 A 
ATOM     18  C   UNL d   1      -3.370  -3.100   1.849  0.00  0.00    -0.055 A 
ATOM     19  C   UNL d   1      -2.705  -2.938   3.190  0.00  0.00     0.049 C 
ATOM     20  C   UNL d   1      -3.928  -4.330   1.448  0.00  0.00    -0.056 A 
ATOM     21  C   UNL d   1      -4.490  -4.441   0.166  0.00  0.00     0.008 A 
ATOM     22  C   UNL d   1      -3.915  -5.528   2.359  0.00  0.00     0.049 C 
ATOM     23  C   UNL d   1      -4.494  -3.353  -0.715  0.00  0.00     0.017 A 
ENDBRANCH  13  16
ENDBRANCH   1  12
BRANCH   1  24
ATOM     24  O   UNL d   1      -1.524   1.644  -1.347  0.00  0.00    -0.358 OA
ATOM     25  H   UNL d   1      -0.778   1.635  -1.974  0.00  0.00     0.213 HD
ENDBRANCH   1  24
TORSDOF 3
