REMARK  4 active torsions:
REMARK  status: ('A' for Active; 'I' for Inactive)
REMARK    1  A    between atoms: N_3  and  C_2 
REMARK    2  A    between atoms: S_11  and  C_8 
REMARK    3  A    between atoms: C_16  and  S_11 
REMARK    4  A    between atoms: C_18  and  C_16 
ROOT
ATOM      1  N   UNL d   1       1.867   0.034  -0.054  0.00  0.00    -0.289 N 
ATOM      2  C   UNL d   1      -2.635  -0.714   0.003  0.00  0.00     0.120 A 
ATOM      3  C   UNL d   1       1.129  -1.108  -0.037  0.00  0.00     0.259 A 
ATOM      4  C   UNL d   1       1.089   1.152  -0.069  0.00  0.00     0.259 A 
ATOM      5  C   UNL d   1      -0.273  -0.691  -0.043  0.00  0.00     0.050 A 
ATOM      6  C   UNL d   1      -0.299   0.692  -0.063  0.00  0.00     0.049 A 
ATOM      7  C   UNL d   1      -2.697   0.711  -0.006  0.00  0.00     0.035 A 
ATOM      8  C   UNL d   1      -1.428  -1.437  -0.013  0.00  0.00     0.055 A 
ATOM      9  C   UNL d   1      -1.482   1.419  -0.040  0.00  0.00     0.039 A 
ATOM     10  O   UNL d   1       1.437   2.313  -0.081  0.00  0.00    -0.267 OA
ATOM     11  O   UNL d   1       1.515  -2.258  -0.018  0.00  0.00    -0.267 OA
ATOM     12  H   UNL d   1       2.875   0.050  -0.044  0.00  0.00     0.172 HD
ENDROOT
BRANCH   7  13
ATOM     13  S   UNL d   1      -4.255   1.585   0.192  0.00  0.00    -0.123 SA
BRANCH  13  14
ATOM     14  C   UNL d   1      -4.039   3.107  -0.802  0.00  0.00     0.118 C 
BRANCH  14  15
ATOM     15  C   UNL d   1      -5.332   3.888  -0.871  0.00  0.00    -0.049 A 
ATOM     16  C   UNL d   1      -5.669   4.801   0.142  0.00  0.00     0.009 A 
ATOM     17  C   UNL d   1      -6.877   5.502   0.097  0.00  0.00     0.024 A 
ATOM     18  C   UNL d   1      -7.760   5.293  -0.960  0.00  0.00     0.034 A 
ATOM     19  C   UNL d   1      -7.443   4.389  -1.972  0.00  0.00     0.024 A 
ATOM     20 CL   UNL d   1      -9.250   6.152  -1.013  0.00  0.00    -0.084 Cl
ATOM     21  C   UNL d   1      -6.236   3.687  -1.926  0.00  0.00     0.009 A 
ENDBRANCH  14  15
ENDBRANCH  13  14
ENDBRANCH   7  13
BRANCH   2  22
ATOM     22  N   UNL d   1      -3.850  -1.508   0.028  0.00  0.00    -0.114 N 
ATOM     23  O   UNL d   1      -4.554  -1.490  -0.989  0.00  0.00    -0.532 OA
ATOM     24  O   UNL d   1      -4.038  -2.204   1.034  0.00  0.00    -0.532 OA
ENDBRANCH   2  22
TORSDOF 4
