REMARK  4 active torsions:
REMARK  status: ('A' for Active; 'I' for Inactive)
REMARK    1  A    between atoms: C_7  and  C_1 
REMARK    2  A    between atoms: C_8  and  C_6 
REMARK    3  A    between atoms: C_11  and  C_10 
REMARK       I    between atoms: N_14  and  C_11 
REMARK    4  A    between atoms: C_19  and  N_14 
ROOT
ATOM      1  C   UNL d   1       2.392   1.759  -0.314  0.00  0.00     0.034 C 
ATOM      2  S   UNL d   1       2.535   3.212   0.586  0.00  0.00    -0.083 SA
ATOM      3  C   UNL d   1       4.156   3.430   0.102  0.00  0.00     0.073 C 
ATOM      4  C   UNL d   1       3.500   1.539  -1.105  0.00  0.00     0.023 C 
ATOM      5  C   UNL d   1       4.507   2.512  -0.876  0.00  0.00     0.026 C 
ENDROOT
BRANCH   1   6
ATOM      6  C   UNL d   1       1.242   0.802  -0.223  0.00  0.00     0.067 A 
ATOM      7  C   UNL d   1       0.050   0.990   0.497  0.00  0.00     0.068 A 
ATOM      8  C   UNL d   1      -0.668  -0.186   0.356  0.00  0.00     0.136 A 
ATOM      9  N   UNL d   1       0.135  -1.013  -0.383  0.00  0.00    -0.292 N 
ATOM     10  N   UNL d   1       1.268  -0.405  -0.800  0.00  0.00    -0.297 N 
ATOM     11  C   UNL d   1      -0.005  -2.414  -0.712  0.00  0.00     0.178 C 
ATOM     12  HN  UNL d   1       1.986  -0.784  -1.418  1.00  0.00     0.187 HD
BRANCH   8  13
ATOM     13  C   UNL d   1      -1.999  -0.514   0.901  0.00  0.00     0.434 C 
ATOM     14  F   UNL d   1      -2.465  -1.735   0.554  0.00  0.00    -0.165 F 
ATOM     15  F   UNL d   1      -1.994  -0.469   2.257  0.00  0.00    -0.165 F 
ATOM     16  F   UNL d   1      -2.927   0.384   0.485  0.00  0.00    -0.165 F 
ENDBRANCH   8  13
ENDBRANCH   1   6
BRANCH   3  17
ATOM     17  C   UNL d   1       5.065   4.429   0.653  0.00  0.00     0.263 C 
ATOM     18  N   UNL d   1       4.567   5.318   1.595  0.00  0.00    -0.323 N 
ATOM     19  H   UNL d   1       3.627   5.160   1.924  0.00  0.00     0.169 HD
ATOM     20  O   UNL d   1       6.242   4.422   0.284  0.00  0.00    -0.267 OA
BRANCH  18  21
ATOM     21  C   UNL d   1       5.274   6.434   2.127  0.00  0.00     0.035 A 
ATOM     22  C   UNL d   1       6.494   6.880   1.607  0.00  0.00     0.031 A 
ATOM     23  C   UNL d   1       7.109   8.038   2.087  0.00  0.00     0.026 A 
ATOM     24  C   UNL d   1       6.511   8.763   3.107  0.00  0.00     0.034 A 
ATOM     25  C   UNL d   1       5.321   8.312   3.675  0.00  0.00     0.026 A 
ATOM     26 CL   UNL d   1       7.230  10.231   3.641  0.00  0.00    -0.084 Cl
ATOM     27  C   UNL d   1       4.702   7.150   3.184  0.00  0.00     0.031 A 
ENDBRANCH  18  21
ENDBRANCH   3  17
TORSDOF 4
