REMARK  4 active torsions:
REMARK  status: ('A' for Active; 'I' for Inactive)
REMARK    1  A    between atoms: C_2  and  C_1 
REMARK       I    between atoms: N_10  and  C_2 
REMARK    2  A    between atoms: O_9  and  C_5 
REMARK    3  A    between atoms: C_11  and  O_9 
REMARK    4  A    between atoms: N_14  and  N_10 
ROOT
ATOM      1  C   UNL d   1       0.783   1.254  -0.086  0.00  0.00     0.048 A 
ATOM      2  N   UNL d   1      -1.296   0.020  -0.041  0.00  0.00    -0.346 N 
ATOM      3  HN  UNL d   1      -2.316   0.007  -0.033  1.00  0.00     0.167 HD
ATOM      4  C   UNL d   1      -0.574  -1.124  -0.017  0.00  0.00     0.147 A 
ATOM      5  C   UNL d   1      -0.603   1.183  -0.074  0.00  0.00     0.107 A 
ATOM      6  C   UNL d   1       1.504   0.057  -0.110  0.00  0.00     0.022 A 
ATOM      7  C   UNL d   1       0.812  -1.155  -0.082  0.00  0.00     0.057 A 
ENDROOT
BRANCH   4   8
ATOM      8  O   UNL d   1      -1.227  -2.346   0.052  0.00  0.00    -0.294 OA
BRANCH   8   9
ATOM      9  C   UNL d   1      -2.403  -2.405   0.767  0.00  0.00     0.077 A 
ATOM     10  C   UNL d   1      -3.377  -3.288   0.300  0.00  0.00     0.039 A 
ATOM     11  C   UNL d   1      -4.588  -3.426   0.986  0.00  0.00     0.026 A 
ATOM     12  C   UNL d   1      -4.814  -2.683   2.145  0.00  0.00     0.034 A 
ATOM     13  C   UNL d   1      -3.838  -1.818   2.632  0.00  0.00     0.026 A 
ATOM     14 CL   UNL d   1      -6.308  -2.839   2.984  0.00  0.00    -0.084 Cl
ATOM     15  C   UNL d   1      -2.625  -1.692   1.953  0.00  0.00     0.039 A 
ENDBRANCH   8   9
ENDBRANCH   4   8
BRANCH   1  16
ATOM     16  C   UNL d   1       1.419   2.588  -0.105  0.00  0.00     0.267 C 
ATOM     17  O   UNL d   1       0.826   3.553  -0.580  0.00  0.00    -0.266 OA
ATOM     18  N   UNL d   1       2.683   2.681   0.466  0.00  0.00    -0.290 N 
ATOM     19  H   UNL d   1       3.033   1.939   1.068  0.00  0.00     0.183 HD
BRANCH  18  20
ATOM     20  N   UNL d   1       3.282   3.957   0.574  0.00  0.00    -0.247 NA
ATOM     21  H   UNL d   1       2.564   4.645   0.297  0.00  0.00     0.143 HD
ATOM     22  H   UNL d   1       3.987   4.037  -0.164  0.00  0.00     0.143 HD
ENDBRANCH  18  20
ENDBRANCH   1  16
TORSDOF 4
