REMARK  0 active torsions:
REMARK  status: ('A' for Active; 'I' for Inactive)
ROOT
ATOM      1  N   UNL d   1       0.911   0.479   0.000  0.00  0.00    -0.138 N 
ATOM      2  C   UNL d   1       1.657  -0.674   0.001  0.00  0.00     0.719 A 
ATOM      3  N   UNL d   1       1.051  -1.892   0.001  0.00  0.00    -0.130 N 
ATOM      4  HN  UNL d   1       1.630  -2.732   0.002  1.00  0.00     0.205 HD
ATOM      5  N   UNL d   1      -0.204  -2.016   0.001  0.00  0.00    -0.284 N 
ATOM      6  HN  UNL d   1      -0.631  -2.942   0.001  1.00  0.00     0.187 HD
ATOM      7  N   UNL d   1       2.934  -0.335   0.001  0.00  0.00    -0.129 N 
ATOM      8  HN  UNL d   1       3.723  -0.982   0.002  1.00  0.00     0.205 HD
ATOM      9  C   UNL d   1      -0.480   0.442  -0.000  0.00  0.00     0.086 A 
ATOM     10  N   UNL d   1       3.020   1.043   0.001  0.00  0.00    -0.281 N 
ATOM     11  HN  UNL d   1       3.878   1.594   0.001  1.00  0.00     0.188 HD
ATOM     12  C   UNL d   1       1.793   1.514  -0.000  0.00  0.00     0.224 A 
ATOM     13  C   UNL d   1      -1.013  -0.854   0.000  0.00  0.00     0.076 A 
ATOM     14  C   UNL d   1      -1.282   1.583  -0.001  0.00  0.00     0.033 A 
ATOM     15  C   UNL d   1      -2.402  -0.990   0.000  0.00  0.00     0.033 A 
ATOM     16  C   UNL d   1      -2.667   1.421  -0.001  0.00  0.00     0.002 A 
ATOM     17  C   UNL d   1      -3.226   0.140  -0.000  0.00  0.00     0.002 A 
ENDROOT
TORSDOF 0
