REMARK  4 active torsions:
REMARK  status: ('A' for Active; 'I' for Inactive)
REMARK    1  A    between atoms: C_2  and  N_1 
REMARK    2  A    between atoms: C_12  and  C_5 
REMARK    3  A    between atoms: S_8  and  C_12 
REMARK    4  A    between atoms: C_10  and  S_8 
ROOT
ATOM      1  C   UNL d   1       0.685  -1.020   1.184  0.00  0.00     0.104 A 
ATOM      2  C   UNL d   1      -0.551  -0.539   1.628  0.00  0.00     0.060 A 
ATOM      3  C   UNL d   1      -1.339  -1.332   2.468  0.00  0.00     0.043 A 
ATOM      4  C   UNL d   1      -0.909  -2.611   2.864  0.00  0.00    -0.027 A 
ATOM      5  C   UNL d   1       1.142  -2.281   1.581  0.00  0.00     0.037 A 
ATOM      6  C   UNL d   1       0.348  -3.066   2.419  0.00  0.00     0.012 A 
ATOM      7 CL   UNL d   1      -2.856  -0.682   2.979  0.00  0.00    -0.084 Cl
ENDROOT
BRANCH   4   8
ATOM      8  C   UNL d   1      -1.738  -3.525   3.736  0.00  0.00     0.119 C 
BRANCH   8   9
ATOM      9  S   UNL d   1      -1.390  -3.302   5.512  0.00  0.00    -0.122 SA
BRANCH   9  10
ATOM     10  C   UNL d   1      -2.423  -4.613   6.154  0.00  0.00     0.039 A 
ATOM     11  C   UNL d   1      -2.153  -5.963   5.886  0.00  0.00     0.136 A 
ATOM     12  C   UNL d   1      -2.998  -6.972   6.337  0.00  0.00     0.086 A 
ATOM     13  F   UNL d   1      -1.076  -6.310   5.166  0.00  0.00    -0.205 F 
ATOM     14  C   UNL d   1      -4.120  -6.628   7.074  0.00  0.00     0.119 A 
ATOM     15  C   UNL d   1      -4.397  -5.299   7.382  0.00  0.00     0.044 A 
ATOM     16  F   UNL d   1      -4.956  -7.588   7.490  0.00  0.00    -0.206 F 
ATOM     17  C   UNL d   1      -3.543  -4.289   6.928  0.00  0.00     0.025 A 
ENDBRANCH   9  10
ENDBRANCH   8   9
ENDBRANCH   4   8
BRANCH   1  18
ATOM     18  N   UNL d   1       1.509  -0.197   0.291  0.00  0.00    -0.116 N 
ATOM     19  O   UNL d   1       1.061   0.908  -0.051  0.00  0.00    -0.532 OA
ATOM     20  O   UNL d   1       2.602  -0.656  -0.073  0.00  0.00    -0.532 OA
ENDBRANCH   1  18
TORSDOF 4
