REMARK  3 active torsions:
REMARK  status: ('A' for Active; 'I' for Inactive)
REMARK    1  A    between atoms: C_7  and  C_1 
REMARK    2  A    between atoms: C_8  and  C_6 
REMARK    3  A    between atoms: O_10  and  C_7 
ROOT
ATOM      1  C   UNL d   1       0.115  -1.245  -0.086  0.00  0.00     0.125 A 
ATOM      2  N   UNL d   1      -0.660  -0.112  -0.067  0.00  0.00    -0.290 N 
ATOM      3  C   UNL d   1       1.415  -0.783  -0.046  0.00  0.00     0.065 A 
ATOM      4  N   UNL d   1       0.065   1.026  -0.083  0.00  0.00    -0.302 N 
ATOM      5  HN  UNL d   1      -0.285   1.983  -0.117  1.00  0.00     0.187 HD
ATOM      6  C   UNL d   1       1.337   0.628  -0.046  0.00  0.00     0.036 A 
ATOM      7  C   UNL d   1      -2.097   0.033  -0.128  0.00  0.00     0.178 C 
ENDROOT
BRANCH   1   8
ATOM      8  C   UNL d   1      -0.360  -2.606  -0.100  0.00  0.00     0.195 C 
ATOM      9  O   UNL d   1      -1.431  -2.999   0.339  0.00  0.00    -0.645 OA
BRANCH   8  10
ATOM     10  O   UNL d   1       0.533  -3.447  -0.681  0.00  0.00    -0.772 OA
ATOM     11  H   UNL d   1       1.277  -2.987  -1.109  0.00  0.00     0.167 HD
ENDBRANCH   8  10
ENDBRANCH   1   8
BRANCH   6  12
ATOM     12  C   UNL d   1       2.478   1.627  -0.066  0.00  0.00    -0.007 C 
ATOM     13  C   UNL d   1       2.838   1.951  -1.528  0.00  0.00     0.021 C 
ATOM     14  C   UNL d   1       2.092   2.934   0.657  0.00  0.00     0.021 C 
ATOM     15  C   UNL d   1       3.731   1.056   0.631  0.00  0.00     0.021 C 
ENDBRANCH   6  12
TORSDOF 3
