REMARK  3 active torsions:
REMARK  status: ('A' for Active; 'I' for Inactive)
REMARK    1  A    between atoms: N_13  and  N_6 
REMARK    2  A    between atoms: C_9  and  C_10 
REMARK    3  A    between atoms: C_14  and  N_13 
ROOT
ATOM      1  S   UNL d   1      -1.098  -1.534   0.035  0.00  0.00     0.285 S 
ATOM      2  C   UNL d   1      -2.470  -0.539   0.480  0.00  0.00     0.215 C 
ATOM      3  N   UNL d   1      -1.558  -1.931  -1.546  0.00  0.00    -0.274 N 
ATOM      4  C   UNL d   1      -2.647   0.609  -0.453  0.00  0.00     0.225 C 
ATOM      5  C   UNL d   1      -2.417   0.388  -1.905  0.00  0.00     0.045 A 
ATOM      6  N   UNL d   1      -3.298  -0.902   1.416  0.00  0.00    -0.285 N 
ATOM      7  HN  UNL d   1      -3.121  -1.731   1.983  1.00  0.00     0.188 HD
ATOM      8  C   UNL d   1      -1.922  -0.834  -2.414  0.00  0.00     0.059 A 
ATOM      9  O   UNL d   1       0.052  -0.658  -0.031  0.00  0.00    -0.198 OA
ATOM     10  O   UNL d   1      -1.103  -2.732   0.850  0.00  0.00    -0.198 OA
ATOM     11  O   UNL d   1      -3.016   1.688   0.000  0.00  0.00    -0.284 OA
ATOM     12  C   UNL d   1      -1.368  -3.303  -2.021  0.00  0.00     0.170 C 
ATOM     13  C   UNL d   1      -2.749   1.439  -2.773  0.00  0.00     0.018 A 
ATOM     14  C   UNL d   1      -1.825  -0.982  -3.804  0.00  0.00     0.031 A 
ATOM     15  C   UNL d   1      -2.627   1.275  -4.151  0.00  0.00     0.001 A 
ATOM     16  C   UNL d   1      -2.175   0.063  -4.664  0.00  0.00     0.002 A 
ENDROOT
BRANCH   6  17
ATOM     17  N   UNL d   1      -4.411  -0.139   1.616  0.00  0.00    -0.299 N 
ATOM     18  H   UNL d   1      -4.344   0.879   1.466  0.00  0.00     0.187 HD
BRANCH  17  19
ATOM     19  C   UNL d   1      -5.275  -0.561   2.654  0.00  0.00     0.063 A 
ATOM     20  C   UNL d   1      -6.157   0.319   3.307  0.00  0.00     0.075 A 
ATOM     21  C   UNL d   1      -6.989  -0.173   4.339  0.00  0.00     0.018 A 
ATOM     22  C   UNL d   1      -6.974  -1.518   4.702  0.00  0.00     0.001 A 
ATOM     23  C   UNL d   1      -6.137  -2.398   4.033  0.00  0.00     0.002 A 
ATOM     24  C   UNL d   1      -5.306  -1.923   3.018  0.00  0.00     0.032 A 
BRANCH  20  25
ATOM     25  C   UNL d   1      -6.240   1.788   2.990  0.00  0.00     0.419 C 
ATOM     26  F   UNL d   1      -5.480   2.182   1.930  0.00  0.00    -0.166 F 
ATOM     27  F   UNL d   1      -7.511   2.187   2.697  0.00  0.00    -0.166 F 
ATOM     28  F   UNL d   1      -5.844   2.568   4.036  0.00  0.00    -0.166 F 
ENDBRANCH  20  25
ENDBRANCH  17  19
ENDBRANCH   6  17
TORSDOF 3
