REMARK  3 active torsions:
REMARK  status: ('A' for Active; 'I' for Inactive)
REMARK    1  A    between atoms: C_7  and  C_1 
REMARK    2  A    between atoms: C_8  and  N_2 
REMARK    3  A    between atoms: O_10  and  C_7 
ROOT
ATOM      1  C   UNL d   1      -0.354   1.230   0.020  0.00  0.00     0.078 C 
ATOM      2  N   UNL d   1       0.983  -0.563  -0.049  0.00  0.00    -0.260 N 
ATOM      3  C   UNL d   1       0.982   0.827   0.005  0.00  0.00     0.049 C 
ATOM      4  N   UNL d   1      -0.274  -1.036  -0.262  0.00  0.00    -0.304 N 
ATOM      5  HN  UNL d   1      -0.551  -1.995  -0.469  1.00  0.00     0.186 HD
ATOM      6  C   UNL d   1      -1.064   0.027  -0.141  0.00  0.00     0.128 C 
ATOM      7  C   UNL d   1       2.194   1.694  -0.041  0.00  0.00     0.071 C 
ENDROOT
BRANCH   2   8
ATOM      8  C   UNL d   1       2.056  -1.491   0.087  0.00  0.00     0.056 A 
ATOM      9  C   UNL d   1       3.211  -1.180   0.814  0.00  0.00     0.031 A 
ATOM     10  C   UNL d   1       4.248  -2.112   0.919  0.00  0.00     0.002 A 
ATOM     11  C   UNL d   1       4.134  -3.361   0.311  0.00  0.00     0.000 A 
ATOM     12  C   UNL d   1       2.974  -3.691  -0.387  0.00  0.00     0.002 A 
ATOM     13  C   UNL d   1       1.932  -2.766  -0.489  0.00  0.00     0.031 A 
ENDBRANCH   2   8
BRANCH   1  14
ATOM     14  C   UNL d   1      -0.833   2.602   0.132  0.00  0.00     0.179 C 
ATOM     15  O   UNL d   1      -0.091   3.569   0.258  0.00  0.00    -0.646 OA
BRANCH  14  16
ATOM     16  O   UNL d   1      -2.178   2.765   0.093  0.00  0.00    -0.773 OA
ATOM     17  H   UNL d   1      -2.690   1.944  -0.009  0.00  0.00     0.167 HD
ENDBRANCH  14  16
ENDBRANCH   1  14
TORSDOF 3
