REMARK  5 active torsions:
REMARK  status: ('A' for Active; 'I' for Inactive)
REMARK    1  A    between atoms: O_9  and  C_1 
REMARK    2  A    between atoms: C_7  and  C_3 
REMARK    3  A    between atoms: O_20  and  C_7 
REMARK    4  A    between atoms: C_14  and  O_9 
REMARK    5  A    between atoms: C_26  and  O_20 
ROOT
ATOM      1  C   UNL d   1       1.395  -1.409  -0.054  0.00  0.00     0.109 C 
ATOM      2  C   UNL d   1       0.133  -0.750   0.040  0.00  0.00     0.067 A 
ATOM      3  C   UNL d   1       2.553  -0.641  -0.227  0.00  0.00     0.089 C 
ATOM      4  N   UNL d   1       1.266   1.378   0.050  0.00  0.00    -0.362 N 
ATOM      5  HN  UNL d   1       1.242   2.393   0.151  1.00  0.00     0.165 HD
ATOM      6  C   UNL d   1       0.127   0.660   0.072  0.00  0.00     0.087 A 
ATOM      7  C   UNL d   1       2.439   0.731  -0.106  0.00  0.00     0.109 C 
ATOM      8  C   UNL d   1      -1.119  -1.416   0.065  0.00  0.00     0.131 A 
ATOM      9  C   UNL d   1      -1.104   1.325   0.100  0.00  0.00     0.144 A 
ATOM     10  C   UNL d   1      -2.328  -0.732   0.080  0.00  0.00     0.046 A 
ATOM     11  C   UNL d   1      -2.323   0.652   0.091  0.00  0.00     0.048 A 
ATOM     12  F   UNL d   1      -1.176  -2.757   0.042  0.00  0.00    -0.205 F 
ATOM     13  F   UNL d   1      -1.136   2.668   0.106  0.00  0.00    -0.204 F 
ENDROOT
BRANCH   1  14
ATOM     14  O   UNL d   1       1.342  -2.788  -0.068  0.00  0.00    -0.307 OA
BRANCH  14  15
ATOM     15  C   UNL d   1       2.314  -3.556   0.520  0.00  0.00     0.093 A 
ATOM     16  C   UNL d   1       2.514  -4.813  -0.051  0.00  0.00     0.064 A 
ATOM     17  C   UNL d   1       3.571  -5.601   0.386  0.00  0.00     0.052 A 
ATOM     18 CL   UNL d   1       3.893  -7.117  -0.350  0.00  0.00    -0.083 Cl
ATOM     19  C   UNL d   1       4.375  -5.118   1.407  0.00  0.00     0.111 A 
ATOM     20  N   UNL d   1       4.155  -3.941   2.042  0.00  0.00    -0.371 N 
ATOM     21  C   UNL d   1       3.114  -3.195   1.599  0.00  0.00     0.124 A 
ATOM     22  HN  UNL d   1       4.743  -3.632   2.816  1.00  0.00     0.164 HD
ENDBRANCH  14  15
ENDBRANCH   1  14
BRANCH   3  23
ATOM     23  C   UNL d   1       3.893  -1.132  -0.579  0.00  0.00     0.297 C 
ATOM     24  O   UNL d   1       4.918  -0.631  -0.140  0.00  0.00    -0.259 OA
BRANCH  23  25
ATOM     25  O   UNL d   1       3.799  -2.112  -1.504  0.00  0.00    -0.318 OA
BRANCH  25  26
ATOM     26  C   UNL d   1       5.049  -2.677  -1.927  0.00  0.00     0.174 C 
ATOM     27  C   UNL d   1       5.613  -1.864  -3.075  0.00  0.00     0.034 C 
ENDBRANCH  25  26
ENDBRANCH  23  25
ENDBRANCH   3  23
TORSDOF 5
