REMARK  7 active torsions:
REMARK  status: ('A' for Active; 'I' for Inactive)
REMARK    1  A    between atoms: C_9  and  N_1 
REMARK    2  A    between atoms: S_8  and  C_2 
REMARK    3  A    between atoms: C_7  and  C_10 
REMARK    4  A    between atoms: C_23  and  S_8 
REMARK    5  A    between atoms: C_11  and  C_23 
REMARK       I    between atoms: N_12  and  C_11 
REMARK    6  A    between atoms: C_26  and  N_12 
REMARK    7  A    between atoms: N_14  and  C_13 
ROOT
ATOM      1  S   UNL d   1       2.183  -1.669  -1.364  0.00  0.00    -0.082 SA
ENDROOT
BRANCH   1   2
ATOM      2  C   UNL d   1       0.960  -0.844  -0.450  0.00  0.00     0.177 C 
ATOM      3  N   UNL d   1      -0.264  -1.399  -0.110  0.00  0.00    -0.219 N 
ATOM      4  N   UNL d   1      -1.121  -0.374   0.128  0.00  0.00     0.001 NA
ATOM      5  N   UNL d   1      -0.385   0.729   0.107  0.00  0.00    -0.006 NA
ATOM      6  N   UNL d   1       0.902   0.460  -0.272  0.00  0.00    -0.264 N 
ATOM      7  HN  UNL d   1       1.660   1.131  -0.393  1.00  0.00     0.186 HD
BRANCH   3   8
ATOM      8  C   UNL d   1      -0.672  -2.750  -0.074  0.00  0.00     0.057 A 
ATOM      9  C   UNL d   1       0.236  -3.753   0.261  0.00  0.00     0.033 A 
ATOM     10  C   UNL d   1      -0.151  -5.093   0.194  0.00  0.00     0.031 A 
ATOM     11  C   UNL d   1      -1.432  -5.487  -0.226  0.00  0.00     0.029 A 
ATOM     12  C   UNL d   1      -2.345  -4.451  -0.489  0.00  0.00     0.031 A 
ATOM     13  C   UNL d   1      -1.985  -3.096  -0.395  0.00  0.00     0.033 A 
BRANCH  11  14
ATOM     14  N   UNL d   1      -1.756  -6.834  -0.309  0.00  0.00    -0.390 N 
ATOM     15  C   UNL d   1      -0.769  -7.777  -0.842  0.00  0.00     0.149 C 
ATOM     16  C   UNL d   1      -3.141  -7.280  -0.407  0.00  0.00     0.149 C 
ENDBRANCH  11  14
ENDBRANCH   3   8
ENDBRANCH   1   2
BRANCH   1  17
ATOM     17  C   UNL d   1       3.547  -0.489  -1.391  0.00  0.00     0.185 C 
BRANCH  17  18
ATOM     18  C   UNL d   1       3.377   0.745  -2.266  0.00  0.00     0.231 C 
ATOM     19  N   UNL d   1       2.229   0.817  -3.027  0.00  0.00    -0.327 N 
ATOM     20  H   UNL d   1       1.458   0.235  -2.727  0.00  0.00     0.169 HD
ATOM     21  O   UNL d   1       4.269   1.597  -2.266  0.00  0.00    -0.272 OA
BRANCH  19  22
ATOM     22  C   UNL d   1       1.927   1.819  -3.965  0.00  0.00     0.034 A 
ATOM     23  C   UNL d   1       2.912   2.513  -4.668  0.00  0.00     0.030 A 
ATOM     24  C   UNL d   1       2.557   3.470  -5.620  0.00  0.00     0.018 A 
ATOM     25  C   UNL d   1       1.210   3.760  -5.873  0.00  0.00     0.048 A 
ATOM     26  C   UNL d   1       0.224   3.073  -5.148  0.00  0.00     0.018 A 
ATOM     27  C   UNL d   1       0.580   2.094  -4.218  0.00  0.00     0.030 A 
BRANCH  25  28
ATOM     28  C   UNL d   1       0.811   4.783  -6.907  0.00  0.00     0.417 C 
ATOM     29  F   UNL d   1       1.862   5.290  -7.610  0.00  0.00    -0.166 F 
ATOM     30  F   UNL d   1      -0.044   4.271  -7.836  0.00  0.00    -0.166 F 
ATOM     31  F   UNL d   1       0.171   5.855  -6.364  0.00  0.00    -0.166 F 
ENDBRANCH  25  28
ENDBRANCH  19  22
ENDBRANCH  17  18
ENDBRANCH   1  17
TORSDOF 7
