REMARK  7 active torsions:
REMARK  status: ('A' for Active; 'I' for Inactive)
REMARK    1  A    between atoms: C_18  and  C_4 
REMARK    2  A    between atoms: C_14  and  C_6 
REMARK    3  A    between atoms: O_17  and  C_9 
REMARK    4  A    between atoms: C_10  and  C_15 
REMARK    5  A    between atoms: O_16  and  C_10 
REMARK    6  A    between atoms: C_15  and  C_14 
REMARK    7  A    between atoms: C_21  and  C_18 
ROOT
ATOM      1  C   UNL d   1       0.032   0.589   0.139  0.00  0.00     0.092 A 
ATOM      2  C   UNL d   1       0.036  -0.812   0.197  0.00  0.00     0.044 A 
ATOM      3  C   UNL d   1      -1.244  -1.534   0.305  0.00  0.00     0.165 C 
ATOM      4  C   UNL d   1       1.245   1.313   0.150  0.00  0.00     0.009 A 
ATOM      5  O   UNL d   1      -1.133   1.313   0.044  0.00  0.00    -0.339 OA
ATOM      6  C   UNL d   1      -2.311   0.589  -0.377  0.00  0.00     0.071 C 
ATOM      7  C   UNL d   1      -2.467  -0.683   0.459  0.00  0.00     0.122 C 
ATOM      8  C   UNL d   1       1.233  -1.525   0.166  0.00  0.00     0.021 A 
ATOM      9  C   UNL d   1       2.438   0.569   0.113  0.00  0.00     0.074 A 
ATOM     10  O   UNL d   1      -1.290  -2.760   0.333  0.00  0.00    -0.292 OA
ATOM     11  C   UNL d   1       2.433  -0.829   0.097  0.00  0.00     0.038 A 
ATOM     12  C   UNL d   1      -3.487   1.524  -0.042  0.00  0.00     0.047 C 
ENDROOT
BRANCH   6  13
ATOM     13  C   UNL d   1      -2.253   0.354  -1.916  0.00  0.00     0.048 C 
BRANCH  13  14
ATOM     14  C   UNL d   1      -3.450  -0.405  -2.489  0.00  0.00     0.114 C 
BRANCH  14  15
ATOM     15  C   UNL d   1      -3.392  -0.577  -3.990  0.00  0.00     0.258 C 
ATOM     16  O   UNL d   1      -2.512  -0.164  -4.726  0.00  0.00    -0.265 OA
BRANCH  15  17
ATOM     17  O   UNL d   1      -4.501  -1.269  -4.383  0.00  0.00    -0.326 OA
ATOM     18  C   UNL d   1      -4.587  -1.515  -5.787  0.00  0.00     0.213 C 
ENDBRANCH  15  17
ENDBRANCH  14  15
ENDBRANCH  13  14
ENDBRANCH   6  13
BRANCH   4  19
ATOM     19  C   UNL d   1       1.228   2.830   0.119  0.00  0.00     0.044 C 
BRANCH  19  20
ATOM     20  C   UNL d   1       0.575   3.525   1.325  0.00  0.00     0.000 C 
ATOM     21  C   UNL d   1       1.279   3.268   2.649  0.00  0.00     0.005 C 
ENDBRANCH  19  20
ENDBRANCH   4  19
BRANCH   9  22
ATOM     22  O   UNL d   1       3.686   1.126   0.069  0.00  0.00    -0.360 OA
ATOM     23  H   UNL d   1       3.655   2.032   0.408  0.00  0.00     0.217 HD
ENDBRANCH   9  22
TORSDOF 7
