REMARK  4 active torsions:
REMARK  status: ('A' for Active; 'I' for Inactive)
REMARK    1  A    between atoms: N_4  and  C_2 
REMARK    2  A    between atoms: S_13  and  C_10 
REMARK    3  A    between atoms: C_16  and  S_13 
REMARK    4  A    between atoms: C_17  and  C_16 
ROOT
ATOM      1  C   UNL d   1      -0.093  -0.748   0.727  0.00  0.00     0.119 A 
ATOM      2  C   UNL d   1      -1.157  -1.472   0.154  0.00  0.00     0.133 A 
ATOM      3  C   UNL d   1      -0.061   0.720   0.650  0.00  0.00     0.104 A 
ATOM      4  N   UNL d   1       1.004  -1.139   1.388  0.00  0.00    -0.237 N 
ATOM      5  HN  UNL d   1       1.273  -2.099   1.607  1.00  0.00     0.197 HD
ATOM      6  C   UNL d   1      -2.167  -0.718  -0.481  0.00  0.00     0.040 A 
ATOM      7  N   UNL d   1       1.053   1.136   1.269  0.00  0.00    -0.238 N 
ATOM      8  HN  UNL d   1       1.362   2.101   1.386  1.00  0.00     0.197 HD
ATOM      9  C   UNL d   1      -1.082   1.472   0.005  0.00  0.00     0.032 A 
ATOM     10  O   UNL d   1       1.699   0.004   1.714  0.00  0.00    -0.156 OA
ATOM     11  C   UNL d   1      -2.123   0.698  -0.553  0.00  0.00     0.023 A 
ENDROOT
BRANCH   9  12
ATOM     12  S   UNL d   1      -0.925   3.228  -0.109  0.00  0.00    -0.123 SA
BRANCH  12  13
ATOM     13  C   UNL d   1      -2.656   3.793  -0.006  0.00  0.00     0.118 C 
BRANCH  13  14
ATOM     14  C   UNL d   1      -2.740   5.299   0.029  0.00  0.00    -0.049 A 
ATOM     15  C   UNL d   1      -2.761   6.039  -1.162  0.00  0.00     0.008 A 
ATOM     16  C   UNL d   1      -2.831   7.434  -1.131  0.00  0.00     0.007 A 
ATOM     17  C   UNL d   1      -2.877   8.117   0.090  0.00  0.00    -0.062 A 
ATOM     18  C   UNL d   1      -2.846   7.381   1.280  0.00  0.00     0.007 A 
ATOM     19  C   UNL d   1      -2.951   9.614   0.108  0.00  0.00     0.048 C 
ATOM     20  C   UNL d   1      -2.775   5.986   1.250  0.00  0.00     0.008 A 
ENDBRANCH  13  14
ENDBRANCH  12  13
ENDBRANCH   9  12
BRANCH   2  21
ATOM     21  N   UNL d   1      -1.205  -2.920   0.198  0.00  0.00    -0.113 N 
ATOM     22  O   UNL d   1      -0.300  -3.539   0.766  0.00  0.00    -0.532 OA
ATOM     23  O   UNL d   1      -2.177  -3.460  -0.352  0.00  0.00    -0.532 OA
ENDBRANCH   2  21
TORSDOF 4
