REMARK  8 active torsions:
REMARK  status: ('A' for Active; 'I' for Inactive)
REMARK    1  A    between atoms: C_4  and  C_1 
REMARK    2  A    between atoms: C_5  and  C_1 
REMARK    3  A    between atoms: N_3  and  C_2 
REMARK    4  A    between atoms: S_10  and  C_2 
REMARK    5  A    between atoms: C_9  and  N_3 
REMARK    6  A    between atoms: O_13  and  C_4 
REMARK    7  A    between atoms: N_6  and  C_5 
REMARK    8  A    between atoms: C_18  and  O_13 
ROOT
ATOM      1  C   UNL d   1       0.929  -0.043  -0.056  0.00  0.00     0.135 C 
ATOM      2  C   UNL d   1       0.157   0.891  -0.669  0.00  0.00     0.096 C 
ENDROOT
BRANCH   2   3
ATOM      3  N   UNL d   1      -1.234   0.858  -0.662  0.00  0.00    -0.348 N 
ATOM      4  H   UNL d   1      -1.652   1.784  -0.588  0.00  0.00     0.166 HD
BRANCH   3   5
ATOM      5  C   UNL d   1      -2.094  -0.015  -1.381  0.00  0.00     0.054 A 
ATOM      6  C   UNL d   1      -3.493   0.168  -1.294  0.00  0.00     0.060 A 
ATOM      7 CL   UNL d   1      -4.150   1.505  -0.410  0.00  0.00    -0.082 Cl
ATOM      8  C   UNL d   1      -4.386  -0.701  -1.926  0.00  0.00     0.026 A 
ATOM      9  C   UNL d   1      -3.899  -1.786  -2.650  0.00  0.00     0.002 A 
ATOM     10  C   UNL d   1      -2.526  -1.996  -2.738  0.00  0.00     0.002 A 
ATOM     11  C   UNL d   1      -1.630  -1.122  -2.106  0.00  0.00     0.031 A 
ENDBRANCH   3   5
ENDBRANCH   2   3
BRANCH   2  12
ATOM     12  S   UNL d   1       0.986   2.287  -1.395  0.00  0.00    -0.115 SA
ATOM     13  C   UNL d   1      -0.270   2.978  -2.497  0.00  0.00     0.097 C 
ENDBRANCH   2  12
BRANCH   1  14
ATOM     14  C   UNL d   1       0.350  -1.235   0.604  0.00  0.00     0.305 C 
ATOM     15  O   UNL d   1       0.767  -2.366   0.405  0.00  0.00    -0.258 OA
BRANCH  14  16
ATOM     16  O   UNL d   1      -0.653  -0.902   1.456  0.00  0.00    -0.317 OA
BRANCH  16  17
ATOM     17  C   UNL d   1      -1.378  -2.007   2.018  0.00  0.00     0.174 C 
ATOM     18  C   UNL d   1      -0.762  -2.418   3.340  0.00  0.00     0.034 C 
ENDBRANCH  16  17
ENDBRANCH  14  16
ENDBRANCH   1  14
BRANCH   1  19
ATOM     19  C   UNL d   1       2.449  -0.043  -0.056  0.00  0.00    -0.028 C 
BRANCH  19  20
ATOM     20  N   UNL d   1       3.710  -0.043  -0.056  0.00  0.00    -0.365 N 
ATOM     21  HN2 UNL d   1       2.690  -0.043  -0.056  1.00  0.00     0.165 HD
ATOM     22  HN1 UNL d   1       4.730  -0.043  -0.056  1.00  0.00     0.165 HD
ENDBRANCH  19  20
ENDBRANCH   1  19
TORSDOF 8
