REMARK  5 active torsions:
REMARK  status: ('A' for Active; 'I' for Inactive)
REMARK    1  A    between atoms: N_6  and  C_1 
REMARK    2  A    between atoms: C_2  and  C_3 
REMARK       I    between atoms: C_8  and  N_11 
REMARK       I    between atoms: N_20  and  C_8 
REMARK    3  A    between atoms: N_11  and  C_21 
REMARK    4  A    between atoms: C_23  and  N_20 
REMARK    5  A    between atoms: C_24  and  C_23 
ROOT
ATOM      1  N   UNL d   1       0.125   2.527  -0.002  0.00  0.00    -0.366 N 
ATOM      2  C   UNL d   1       0.186   3.088   1.350  0.00  0.00     0.126 C 
ATOM      3  C   UNL d   1       1.224   2.985  -0.860  0.00  0.00     0.126 C 
ATOM      4  C   UNL d   1      -0.031   4.593   1.240  0.00  0.00     0.045 C 
ATOM      5  C   UNL d   1       1.072   4.496  -1.058  0.00  0.00     0.045 C 
ATOM      6  C   UNL d   1       0.957   5.254   0.275  0.00  0.00     0.089 C 
ENDROOT
BRANCH   1   7
ATOM      7  C   UNL d   1      -0.196   1.167  -0.059  0.00  0.00     0.125 A 
ATOM      8  N   UNL d   1      -0.031   0.430   1.071  0.00  0.00    -0.350 N 
ATOM      9  C   UNL d   1      -0.472  -0.851   1.094  0.00  0.00     0.106 A 
ATOM     10  HN  UNL d   1       0.420   0.836   1.891  1.00  0.00     0.166 HD
ATOM     11  C   UNL d   1      -1.077  -1.482   0.022  0.00  0.00     0.065 A 
ATOM     12  C   UNL d   1      -1.224  -0.742  -1.151  0.00  0.00     0.045 A 
ATOM     13  C   UNL d   1      -0.794   0.588  -1.196  0.00  0.00     0.078 A 
ATOM     14 CL   UNL d   1      -1.155   1.474  -2.639  0.00  0.00    -0.080 Cl
BRANCH  11  15
ATOM     15  C   UNL d   1      -1.569  -2.887   0.165  0.00  0.00     0.418 C 
ATOM     16  F   UNL d   1      -2.152  -3.375  -0.964  0.00  0.00    -0.166 F 
ATOM     17  F   UNL d   1      -0.571  -3.758   0.477  0.00  0.00    -0.166 F 
ATOM     18  F   UNL d   1      -2.498  -3.015   1.151  0.00  0.00    -0.166 F 
ENDBRANCH  11  15
ENDBRANCH   1   7
BRANCH   6  19
ATOM     19  N   UNL d   1       2.261   5.438   0.910  0.00  0.00    -0.338 N 
ATOM     20  C   UNL d   1       3.037   6.532   0.621  0.00  0.00     0.316 C 
ATOM     21  O   UNL d   1       2.703   7.437  -0.133  0.00  0.00    -0.247 OA
ATOM     22  N   UNL d   1       4.226   6.497   1.303  0.00  0.00    -0.343 N 
ATOM     23  H   UNL d   1       4.254   5.911   2.121  0.00  0.00     0.164 HD
ATOM     24  H   UNL d   1       2.760   4.618   1.218  0.00  0.00     0.164 HD
BRANCH  22  25
ATOM     25  C   UNL d   1       5.139   7.620   1.258  0.00  0.00     0.124 C 
BRANCH  25  26
ATOM     26  C   UNL d   1       4.775   8.717   2.259  0.00  0.00     0.015 C 
ATOM     27  C   UNL d   1       4.915   8.262   3.705  0.00  0.00     0.006 C 
ENDBRANCH  25  26
ENDBRANCH  22  25
ENDBRANCH   6  19
TORSDOF 5
