REMARK  2 active torsions:
REMARK  status: ('A' for Active; 'I' for Inactive)
REMARK    1  A    between atoms: C_2  and  C_1 
REMARK       I    between atoms: N_3  and  C_1 
REMARK    2  A    between atoms: C_6  and  N_3 
ROOT
ATOM      1  C   UNL d   1       0.992  -0.115   0.059  0.00  0.00     0.257 C 
ATOM      2  N   UNL d   1       0.219  -0.385  -1.057  0.00  0.00    -0.323 N 
ATOM      3  O   UNL d   1       2.215  -0.215   0.110  0.00  0.00    -0.267 OA
ATOM      4  H   UNL d   1      -0.750  -0.101  -1.030  0.00  0.00     0.169 HD
ENDROOT
BRANCH   1   5
ATOM      5  C   UNL d   1       0.283   0.291   1.311  0.00  0.00     0.054 A 
ATOM      6  C   UNL d   1      -0.982   0.887   1.393  0.00  0.00     0.049 A 
ATOM      7 CL   UNL d   1      -1.925   1.343   0.016  0.00  0.00    -0.083 Cl
ATOM      8  C   UNL d   1      -1.543   1.176   2.647  0.00  0.00     0.025 A 
ATOM      9  C   UNL d   1      -0.852   0.881   3.822  0.00  0.00     0.002 A 
ATOM     10  C   UNL d   1       0.410   0.305   3.756  0.00  0.00     0.001 A 
ATOM     11  C   UNL d   1       0.972   0.015   2.512  0.00  0.00     0.019 A 
ENDBRANCH   1   5
BRANCH   2  12
ATOM     12  C   UNL d   1       0.652  -1.012  -2.244  0.00  0.00     0.035 A 
ATOM     13  C   UNL d   1       1.885  -1.656  -2.365  0.00  0.00     0.031 A 
ATOM     14  C   UNL d   1       2.227  -2.332  -3.540  0.00  0.00     0.026 A 
ATOM     15  C   UNL d   1       1.337  -2.358  -4.607  0.00  0.00     0.034 A 
ATOM     16  C   UNL d   1       0.112  -1.702  -4.514  0.00  0.00     0.026 A 
ATOM     17 CL   UNL d   1       1.745  -3.220  -6.038  0.00  0.00    -0.084 Cl
ATOM     18  C   UNL d   1      -0.233  -1.034  -3.332  0.00  0.00     0.031 A 
ENDBRANCH   2  12
TORSDOF 2
