REMARK  2 active torsions:
REMARK  status: ('A' for Active; 'I' for Inactive)
REMARK    1  A    between atoms: C_9  and  C_3 
REMARK    2  A    between atoms: O_12  and  C_7 
ROOT
ATOM      1  N   UNL d   1       2.301  -0.734  -0.029  0.00  0.00    -0.297 N 
ATOM      2  HN  UNL d   1       3.177  -1.256  -0.052  1.00  0.00     0.187 HD
ATOM      3  C   UNL d   1       1.118  -1.409   0.005  0.00  0.00     0.069 A 
ATOM      4  N   UNL d   1       2.333   0.624  -0.034  0.00  0.00    -0.279 N 
ATOM      5  HN  UNL d   1       3.222   1.123  -0.038  1.00  0.00     0.189 HD
ATOM      6  C   UNL d   1      -0.123  -0.718   0.061  0.00  0.00     0.007 A 
ATOM      7  C   UNL d   1       1.171   1.295  -0.034  0.00  0.00     0.166 A 
ATOM      8  C   UNL d   1      -0.082   0.691   0.001  0.00  0.00     0.029 A 
ATOM      9  C   UNL d   1      -1.406  -1.318   0.188  0.00  0.00     0.015 A 
ATOM     10  C   UNL d   1      -1.279   1.441  -0.016  0.00  0.00     0.017 A 
ATOM     11  C   UNL d   1      -2.585  -0.565   0.164  0.00  0.00     0.001 A 
ATOM     12  C   UNL d   1      -2.521   0.815   0.046  0.00  0.00     0.001 A 
ENDROOT
BRANCH   3  13
ATOM     13  C   UNL d   1       1.287  -2.882  -0.052  0.00  0.00    -0.007 A 
ATOM     14  C   UNL d   1       2.344  -3.507   0.644  0.00  0.00     0.015 A 
ATOM     15  C   UNL d   1       2.532  -4.893   0.604  0.00  0.00     0.024 A 
ATOM     16  C   UNL d   1       1.658  -5.687  -0.131  0.00  0.00     0.034 A 
ATOM     17  C   UNL d   1       0.624  -5.102  -0.852  0.00  0.00     0.024 A 
ATOM     18 CL   UNL d   1       1.863  -7.394  -0.159  0.00  0.00    -0.084 Cl
ATOM     19  C   UNL d   1       0.459  -3.712  -0.831  0.00  0.00     0.015 A 
ENDBRANCH   3  13
BRANCH   7  20
ATOM     20  O   UNL d   1       1.312   2.650  -0.048  0.00  0.00    -0.344 OA
ATOM     21  H   UNL d   1       2.282   2.737  -0.033  0.00  0.00     0.219 HD
ENDBRANCH   7  20
TORSDOF 2
