REMARK  2 active torsions:
REMARK  status: ('A' for Active; 'I' for Inactive)
REMARK    1  A    between atoms: C_7  and  C_3 
REMARK    2  A    between atoms: C_8  and  C_4 
ROOT
ATOM      1  N   UNL d   1       1.417  -0.597   0.004  0.00  0.00    -0.347 N 
ATOM      2  HN  UNL d   1       2.292  -1.120   0.040  1.00  0.00     0.167 HD
ATOM      3  C   UNL d   1       1.325   0.794  -0.001  0.00  0.00     0.085 A 
ATOM      4  C   UNL d   1       0.217  -1.146  -0.045  0.00  0.00     0.085 A 
ATOM      5  S   UNL d   1      -1.087  -0.016  -0.043  0.00  0.00    -0.081 SA
ATOM      6  C   UNL d   1       0.029   1.275  -0.018  0.00  0.00     0.085 A 
ENDROOT
BRANCH   4   7
ATOM      7  C   UNL d   1      -0.041  -2.597  -0.046  0.00  0.00    -0.002 A 
ATOM      8  C   UNL d   1       0.854  -3.458   0.608  0.00  0.00     0.014 A 
ATOM      9  C   UNL d   1       0.630  -4.838   0.643  0.00  0.00     0.001 A 
ATOM     10  C   UNL d   1      -0.487  -5.380   0.013  0.00  0.00     0.000 A 
ATOM     11  C   UNL d   1      -1.376  -4.545  -0.659  0.00  0.00     0.001 A 
ATOM     12  C   UNL d   1      -1.154  -3.165  -0.690  0.00  0.00     0.014 A 
ENDBRANCH   4   7
BRANCH   3  13
ATOM     13  C   UNL d   1       2.503   1.666   0.013  0.00  0.00     0.172 C 
ATOM     14  O   UNL d   1       2.390   2.893   0.020  0.00  0.00    -0.291 OA
ATOM     15  C   UNL d   1       3.875   1.041   0.006  0.00  0.00     0.098 C 
ENDBRANCH   3  13
TORSDOF 2
