REMARK  5 active torsions:
REMARK  status: ('A' for Active; 'I' for Inactive)
REMARK    1  A    between atoms: S_2  and  N_8 
REMARK    2  A    between atoms: C_17  and  S_2 
REMARK    3  A    between atoms: S_16  and  C_6 
REMARK    4  A    between atoms: C_12  and  C_7 
REMARK       I    between atoms: N_8  and  C_12 
REMARK    5  A    between atoms: C_28  and  S_16 
ROOT
ATOM      1  C   UNL d   1       0.163  -0.695   0.099  0.00  0.00     0.029 C 
ATOM      2  C   UNL d   1       0.054   0.602   0.603  0.00  0.00     0.131 C 
ATOM      3  N   UNL d   1       2.217   0.310  -0.034  0.00  0.00    -0.301 N 
ATOM      4  HN  UNL d   1       3.208   0.488  -0.196  1.00  0.00     0.187 HD
ATOM      5  C   UNL d   1      -1.007  -1.484   0.093  0.00  0.00     0.126 C 
ATOM      6  C   UNL d   1      -1.934  -1.107   1.078  0.00  0.00     0.044 C 
ATOM      7  N   UNL d   1       1.246   1.195   0.287  0.00  0.00    -0.280 N 
ATOM      8  C   UNL d   1       1.561  -0.862  -0.088  0.00  0.00     0.033 C 
ATOM      9  N   UNL d   1      -1.001   1.135   1.259  0.00  0.00    -0.350 N 
ATOM     10  HN  UNL d   1      -1.085   2.123   1.497  1.00  0.00     0.166 HD
ATOM     11  C   UNL d   1      -1.938   0.196   1.563  0.00  0.00     0.104 C 
ATOM     12  C   UNL d   1       1.540   2.605   0.295  0.00  0.00     0.179 C 
ATOM     13  C   UNL d   1       2.328  -2.132  -0.201  0.00  0.00     0.070 C 
ENDROOT
BRANCH   6  14
ATOM     14  C   UNL d   1      -2.857  -2.117   1.635  0.00  0.00     0.261 C 
ATOM     15  N   UNL d   1      -2.301  -3.254   2.246  0.00  0.00    -0.279 N 
ATOM     16  HN  UNL d   1      -1.680  -3.128   3.045  1.00  0.00     0.179 HD
ATOM     17  O   UNL d   1      -4.050  -1.847   1.678  0.00  0.00    -0.267 OA
BRANCH  15  18
ATOM     18  S   UNL d   1      -2.594  -4.680   1.754  0.00  0.00     0.055 S 
ATOM     19  O   UNL d   1      -3.119  -5.021   0.447  0.00  0.00    -0.245 OA
ATOM     20  C   UNL d   1      -1.013  -5.500   1.898  0.00  0.00     0.142 C 
BRANCH  18  21
ATOM     21  C   UNL d   1      -3.628  -5.489   2.966  0.00  0.00     0.038 A 
ATOM     22  C   UNL d   1      -4.745  -4.816   3.466  0.00  0.00     0.022 A 
ATOM     23  C   UNL d   1      -5.503  -5.392   4.492  0.00  0.00     0.008 A 
ATOM     24  C   UNL d   1      -5.145  -6.635   5.032  0.00  0.00    -0.062 A 
ATOM     25  C   UNL d   1      -4.063  -7.329   4.480  0.00  0.00     0.008 A 
ATOM     26  C   UNL d   1      -5.923  -7.237   6.165  0.00  0.00     0.048 C 
ATOM     27  C   UNL d   1      -3.308  -6.762   3.450  0.00  0.00     0.022 A 
ENDBRANCH  18  21
ENDBRANCH  15  18
ENDBRANCH   6  14
BRANCH   5  28
ATOM     28  S   UNL d   1      -1.902  -1.301  -1.567  0.00  0.00    -0.150 SA
BRANCH  28  29
ATOM     29  C   UNL d   1      -1.286  -2.682  -2.582  0.00  0.00     0.040 C 
ATOM     30  C   UNL d   1      -2.397  -2.988  -3.591  0.00  0.00     0.021 C 
ATOM     31  C   UNL d   1      -0.025  -2.280  -3.340  0.00  0.00     0.021 C 
ENDBRANCH  28  29
ENDBRANCH   5  28
TORSDOF 5
