REMARK  6 active torsions:
REMARK  status: ('A' for Active; 'I' for Inactive)
REMARK    1  A    between atoms: C_8  and  C_1 
REMARK    2  A    between atoms: N_3  and  C_2 
REMARK    3  A    between atoms: C_7  and  C_9 
REMARK    4  A    between atoms: O_17  and  C_8 
REMARK    5  A    between atoms: N_21  and  C_9 
REMARK    6  A    between atoms: N_11  and  O_17 
ROOT
ATOM      1  C   UNL d   1      -5.140   1.044  -0.021  0.00  0.00     0.153 C 
ATOM      2  N   UNL d   1      -3.997   0.454   0.170  0.00  0.00    -0.239 N 
ATOM      3  HN  UNL d   1      -3.911  -0.535   0.405  1.00  0.00     0.196 HD
ENDROOT
BRANCH   1   4
ATOM      4  C   UNL d   1      -6.306   0.175   0.102  0.00  0.00     0.123 A 
ATOM      5  O   UNL d   1      -7.558   0.707  -0.098  0.00  0.00    -0.285 OA
ATOM      6  C   UNL d   1      -8.437  -0.325   0.051  0.00  0.00     0.215 A 
ATOM      7  C   UNL d   1      -7.798  -1.500   0.362  0.00  0.00     0.066 A 
ATOM      8  C   UNL d   1      -6.420  -1.176   0.397  0.00  0.00     0.046 A 
BRANCH   6   9
ATOM      9  N   UNL d   1      -9.821  -0.025  -0.140  0.00  0.00    -0.090 N 
ATOM     10  O   UNL d   1     -10.610  -0.973  -0.024  0.00  0.00    -0.530 OA
ATOM     11  O   UNL d   1     -10.128   1.146  -0.400  0.00  0.00    -0.530 OA
ENDBRANCH   6   9
ENDBRANCH   1   4
BRANCH   1  12
ATOM     12  N   UNL d   1      -5.264   2.380  -0.306  0.00  0.00    -0.382 N 
ATOM     13  H   UNL d   1      -6.160   2.796  -0.071  0.00  0.00     0.157 HD
ATOM     14  H   UNL d   1      -4.458   2.940  -0.055  0.00  0.00     0.157 HD
ENDBRANCH   1  12
BRANCH   2  15
ATOM     15  O   UNL d   1      -2.882   1.319   0.022  0.00  0.00    -0.192 OA
BRANCH  15  16
ATOM     16  C   UNL d   1      -1.729   0.582   0.223  0.00  0.00     0.333 C 
ATOM     17  O   UNL d   1      -1.702  -0.618   0.502  0.00  0.00    -0.256 OA
BRANCH  16  18
ATOM     18  C   UNL d   1      -0.488   1.343   0.092  0.00  0.00     0.134 A 
ATOM     19  N   UNL d   1      -0.426   2.647  -0.231  0.00  0.00    -0.255 N 
ATOM     20  O   UNL d   1       0.925   2.971  -0.246  0.00  0.00    -0.242 OA
ATOM     21  HN  UNL d   1      -1.210   3.269  -0.425  1.00  0.00     0.195 HD
ATOM     22  C   UNL d   1       1.665   1.874   0.072  0.00  0.00     0.075 A 
ATOM     23  C   UNL d   1       0.820   0.818   0.291  0.00  0.00     0.072 A 
ATOM     24  C   UNL d   1       3.131   2.031   0.118  0.00  0.00     0.079 C 
ENDBRANCH  16  18
ENDBRANCH  15  16
ENDBRANCH   2  15
TORSDOF 6
