REMARK  7 active torsions:
REMARK  status: ('A' for Active; 'I' for Inactive)
REMARK    1  A    between atoms: N_4  and  C_1 
REMARK    2  A    between atoms: N_10  and  C_1 
REMARK    3  A    between atoms: C_2  and  C_7 
REMARK    4  A    between atoms: C_3  and  C_6 
REMARK       I    between atoms: C_5  and  N_4 
REMARK    5  A    between atoms: O_14  and  C_5 
REMARK    6  A    between atoms: C_9  and  N_10 
REMARK    7  A    between atoms: C_22  and  O_14 
ROOT
ATOM      1  N   UNL d   1       0.036  -0.871   0.850  0.00  0.00    -0.333 N 
ATOM      2  H   UNL d   1       0.637  -1.687   0.935  0.00  0.00     0.168 HD
ENDROOT
BRANCH   1   3
ATOM      3  C   UNL d   1      -1.327  -1.121   0.561  0.00  0.00     0.035 A 
ATOM      4  C   UNL d   1      -2.064  -0.267  -0.269  0.00  0.00     0.045 A 
ATOM      5  C   UNL d   1      -3.403  -0.530  -0.586  0.00  0.00     0.050 A 
ATOM      6  C   UNL d   1      -4.009  -1.671  -0.050  0.00  0.00     0.032 A 
ATOM      7  C   UNL d   1      -3.282  -2.556   0.768  0.00  0.00     0.050 A 
ATOM      8  C   UNL d   1      -1.931  -2.278   1.053  0.00  0.00     0.045 A 
BRANCH   5   9
ATOM      9  C   UNL d   1      -4.136   0.414  -1.508  0.00  0.00     0.417 C 
ATOM     10  F   UNL d   1      -5.411   0.029  -1.780  0.00  0.00    -0.166 F 
ATOM     11  F   UNL d   1      -4.221   1.672  -0.994  0.00  0.00    -0.166 F 
ATOM     12  F   UNL d   1      -3.514   0.542  -2.712  0.00  0.00    -0.166 F 
ENDBRANCH   5   9
BRANCH   7  13
ATOM     13  C   UNL d   1      -3.936  -3.792   1.343  0.00  0.00     0.417 C 
ATOM     14  F   UNL d   1      -5.228  -3.955   0.947  0.00  0.00    -0.166 F 
ATOM     15  F   UNL d   1      -3.286  -4.933   0.988  0.00  0.00    -0.166 F 
ATOM     16  F   UNL d   1      -3.959  -3.777   2.704  0.00  0.00    -0.166 F 
ENDBRANCH   7  13
ENDBRANCH   1   3
BRANCH   1  17
ATOM     17  C   UNL d   1       0.678   0.343   0.673  0.00  0.00     0.180 C 
ATOM     18  S   UNL d   1       2.250   0.389   0.135  0.00  0.00    -0.040 SA
BRANCH  17  19
ATOM     19  N   UNL d   1      -0.092   1.428   1.068  0.00  0.00    -0.279 N 
ATOM     20  C   UNL d   1      -0.092   2.777   0.772  0.00  0.00     0.372 C 
ATOM     21  O   UNL d   1      -0.667   3.554   1.527  0.00  0.00    -0.238 OA
ATOM     22  H   UNL d   1      -0.700   1.233   1.853  0.00  0.00     0.173 HD
BRANCH  20  23
ATOM     23  O   UNL d   1       0.470   3.078  -0.461  0.00  0.00    -0.261 OA
BRANCH  23  24
ATOM     24  C   UNL d   1       0.132   4.314  -1.042  0.00  0.00     0.081 A 
ATOM     25  C   UNL d   1       0.177   5.520  -0.346  0.00  0.00     0.037 A 
ATOM     26  C   UNL d   1      -0.205   6.700  -0.986  0.00  0.00     0.003 A 
ATOM     27  C   UNL d   1      -0.598   6.676  -2.325  0.00  0.00     0.000 A 
ATOM     28  C   UNL d   1      -0.605   5.471  -3.029  0.00  0.00     0.003 A 
ATOM     29  C   UNL d   1      -0.237   4.286  -2.390  0.00  0.00     0.037 A 
ENDBRANCH  23  24
ENDBRANCH  20  23
ENDBRANCH  17  19
ENDBRANCH   1  17
TORSDOF 7
