REMARK  3 active torsions:
REMARK  status: ('A' for Active; 'I' for Inactive)
REMARK    1  A    between atoms: C_12  and  C_3 
REMARK    2  A    between atoms: C_5  and  C_4 
REMARK    3  A    between atoms: N_7  and  C_6 
ROOT
ATOM      1  N   UNL d   1       1.221   0.156   0.066  0.00  0.00    -0.316 N 
ATOM      2  HN  UNL d   1       2.234   0.261   0.123  1.00  0.00     0.169 HD
ATOM      3  C   UNL d   1       0.257   1.133   0.014  0.00  0.00     0.162 A 
ATOM      4  C   UNL d   1       0.508  -0.955   0.024  0.00  0.00     0.201 A 
ATOM      5  N   UNL d   1      -0.999   0.678  -0.046  0.00  0.00    -0.240 N 
ATOM      6  HN  UNL d   1      -1.866   1.215  -0.074  1.00  0.00     0.196 HD
ATOM      7  O   UNL d   1      -0.838  -0.709  -0.059  0.00  0.00    -0.215 OA
ENDROOT
BRANCH   3   8
ATOM      8  C   UNL d   1       0.595   2.586   0.017  0.00  0.00     0.123 A 
ATOM      9  O   UNL d   1      -0.313   3.613   0.054  0.00  0.00    -0.285 OA
ATOM     10  C   UNL d   1       0.409   4.764   0.046  0.00  0.00     0.215 A 
ATOM     11  C   UNL d   1       1.759   4.519  -0.014  0.00  0.00     0.066 A 
ATOM     12  C   UNL d   1       1.880   3.106  -0.022  0.00  0.00     0.046 A 
BRANCH  10  13
ATOM     13  N   UNL d   1      -0.329   5.987   0.106  0.00  0.00    -0.090 N 
ATOM     14  O   UNL d   1       0.342   7.027   0.120  0.00  0.00    -0.530 OA
ATOM     15  O   UNL d   1      -1.564   5.919   0.142  0.00  0.00    -0.530 OA
ENDBRANCH  10  13
ENDBRANCH   3   8
BRANCH   4  16
ATOM     16  C   UNL d   1       1.101  -2.322   0.080  0.00  0.00     0.110 A 
ATOM     17  N   UNL d   1       0.373  -3.439  -0.036  0.00  0.00    -0.257 N 
ATOM     18  O   UNL d   1       1.272  -4.485   0.093  0.00  0.00    -0.242 OA
ATOM     19  HN  UNL d   1      -0.633  -3.506  -0.188  1.00  0.00     0.195 HD
ATOM     20  C   UNL d   1       2.521  -3.987   0.299  0.00  0.00     0.075 A 
ATOM     21  C   UNL d   1       2.470  -2.616   0.279  0.00  0.00     0.070 A 
ATOM     22  C   UNL d   1       3.597  -4.973   0.499  0.00  0.00     0.079 C 
ENDBRANCH   4  16
TORSDOF 3
