REMARK  6 active torsions:
REMARK  status: ('A' for Active; 'I' for Inactive)
REMARK       I    between atoms: N_8  and  C_1 
REMARK       I    between atoms: N_9  and  C_1 
REMARK    1  A    between atoms: C_2  and  S_10 
REMARK    2  A    between atoms: C_3  and  O_6 
REMARK    3  A    between atoms: O_6  and  C_7 
REMARK    4  A    between atoms: C_19  and  N_8 
REMARK    5  A    between atoms: C_18  and  N_9 
REMARK    6  A    between atoms: S_10  and  C_20 
ROOT
ATOM      1  C   UNL d   1       1.021   0.670  -1.911  0.00  0.00     0.325 C 
ATOM      2  N   UNL d   1       2.331   0.349  -1.600  0.00  0.00    -0.309 N 
ATOM      3  N   UNL d   1       0.193   0.643  -0.797  0.00  0.00    -0.307 N 
ATOM      4  O   UNL d   1       0.629   0.919  -3.045  0.00  0.00    -0.247 OA
ATOM      5  H   UNL d   1       2.508  -0.017  -0.678  0.00  0.00     0.170 HD
ATOM      6  H   UNL d   1       0.618   0.502   0.105  0.00  0.00     0.170 HD
ENDROOT
BRANCH   3   7
ATOM      7  C   UNL d   1      -1.216   0.806  -0.825  0.00  0.00     0.051 A 
ATOM      8  C   UNL d   1      -1.956   1.037  -1.980  0.00  0.00     0.119 A 
ATOM      9  N   UNL d   1      -3.303   1.140  -2.022  0.00  0.00    -0.344 N 
ATOM     10  C   UNL d   1      -3.974   0.956  -0.870  0.00  0.00     0.148 A 
ATOM     11  HN  UNL d   1      -3.792   1.350  -2.893  1.00  0.00     0.167 HD
ATOM     12  C   UNL d   1      -3.340   0.776   0.349  0.00  0.00     0.059 A 
ATOM     13  C   UNL d   1      -1.939   0.706   0.368  0.00  0.00     0.035 A 
BRANCH  10  14
ATOM     14  O   UNL d   1      -5.363   0.892  -0.909  0.00  0.00    -0.293 OA
BRANCH  14  15
ATOM     15  C   UNL d   1      -5.925   0.363  -2.062  0.00  0.00     0.084 A 
ATOM     16  C   UNL d   1      -7.098   0.936  -2.575  0.00  0.00    -0.028 A 
ATOM     17  C   UNL d   1      -7.667   0.384  -3.737  0.00  0.00     0.010 A 
ATOM     18  C   UNL d   1      -7.778   2.115  -1.943  0.00  0.00     0.051 C 
ATOM     19  C   UNL d   1      -7.065  -0.694  -4.393  0.00  0.00     0.007 A 
ATOM     20  C   UNL d   1      -5.896  -1.262  -3.887  0.00  0.00    -0.059 A 
ATOM     21  C   UNL d   1      -5.362  -0.757  -2.699  0.00  0.00     0.044 A 
ATOM     22  C   UNL d   1      -5.208  -2.377  -4.616  0.00  0.00     0.048 C 
ENDBRANCH  14  15
ENDBRANCH  10  14
ENDBRANCH   3   7
BRANCH   2  23
ATOM     23  C   UNL d   1       3.402   0.268  -2.525  0.00  0.00     0.036 A 
ATOM     24  C   UNL d   1       3.342   0.757  -3.834  0.00  0.00     0.031 A 
ATOM     25  C   UNL d   1       4.423   0.609  -4.711  0.00  0.00     0.021 A 
ATOM     26  C   UNL d   1       5.585  -0.039  -4.297  0.00  0.00     0.009 A 
ATOM     27  C   UNL d   1       5.669  -0.491  -2.977  0.00  0.00     0.021 A 
ATOM     28  C   UNL d   1       4.587  -0.338  -2.098  0.00  0.00     0.031 A 
BRANCH  26  29
ATOM     29  S   UNL d   1       6.988  -0.215  -5.376  0.00  0.00    -0.016 SA
BRANCH  29  30
ATOM     30  C   UNL d   1       6.321  -1.274  -6.672  0.00  0.00     0.448 C 
ATOM     31  F   UNL d   1       5.001  -1.539  -6.545  0.00  0.00    -0.160 F 
ATOM     32  F   UNL d   1       6.498  -0.706  -7.891  0.00  0.00    -0.160 F 
ATOM     33  F   UNL d   1       6.967  -2.466  -6.693  0.00  0.00    -0.160 F 
ENDBRANCH  29  30
ENDBRANCH  26  29
ENDBRANCH   2  23
TORSDOF 6
