REMARK  7 active torsions:
REMARK  status: ('A' for Active; 'I' for Inactive)
REMARK    1  A    between atoms: C_7  and  C_1 
REMARK       I    between atoms: C_6  and  N_8 
REMARK    2  A    between atoms: C_19  and  C_6 
REMARK    3  A    between atoms: N_8  and  C_7 
REMARK    4  A    between atoms: C_9  and  C_20 
REMARK    5  A    between atoms: O_16  and  C_9 
REMARK    6  A    between atoms: O_15  and  C_19 
REMARK    7  A    between atoms: C_20  and  O_15 
ROOT
ATOM      1  C   UNL d   1       2.129  -2.495  -0.005  0.00  0.00     0.162 C 
ENDROOT
BRANCH   1   2
ATOM      2  C   UNL d   1       1.724  -1.052  -0.015  0.00  0.00    -0.022 A 
ATOM      3  C   UNL d   1       1.485  -0.265  -1.211  0.00  0.00    -0.009 A 
ATOM      4  C   UNL d   1       1.071   1.035  -0.899  0.00  0.00     0.015 A 
ATOM      5  C   UNL d   1       1.593  -0.611  -2.584  0.00  0.00     0.037 A 
ATOM      6  C   UNL d   1       0.757   1.977  -1.901  0.00  0.00     0.021 A 
ATOM      7  S   UNL d   1       1.006   1.286   0.799  0.00  0.00    -0.101 SA
ATOM      8  C   UNL d   1       0.867   1.604  -3.242  0.00  0.00     0.025 A 
ATOM      9  C   UNL d   1       1.284   0.324  -3.576  0.00  0.00     0.035 A 
ATOM     10 CL   UNL d   1       1.415  -0.122  -5.233  0.00  0.00    -0.084 Cl
ATOM     11  C   UNL d   1       1.502  -0.307   1.129  0.00  0.00     0.060 A 
ENDBRANCH   1   2
BRANCH   1  12
ATOM     12  N   UNL d   1       3.571  -2.576  -0.029  0.00  0.00    -0.355 N 
ATOM     13  C   UNL d   1       4.244  -3.270  -1.010  0.00  0.00     0.241 C 
ATOM     14  O   UNL d   1       3.675  -3.865  -1.923  0.00  0.00    -0.271 OA
ATOM     15  H   UNL d   1       4.083  -2.060   0.673  0.00  0.00     0.162 HD
BRANCH  13  16
ATOM     16  C   UNL d   1       5.779  -3.226  -0.881  0.00  0.00     0.271 C 
BRANCH  16  17
ATOM     17  O   UNL d   1       6.533  -3.205  -2.092  0.00  0.00    -0.372 OA
BRANCH  17  18
ATOM     18  C   UNL d   1       6.200  -2.099  -2.930  0.00  0.00     0.277 C 
BRANCH  18  19
ATOM     19  C   UNL d   1       6.675  -0.783  -2.337  0.00  0.00     0.164 C 
ATOM     20  O   UNL d   1       5.962   0.194  -2.147  0.00  0.00    -0.648 OA
BRANCH  19  21
ATOM     21  O   UNL d   1       7.981  -0.822  -1.981  0.00  0.00    -0.775 OA
ATOM     22  H   UNL d   1       8.362  -1.708  -2.156  0.00  0.00     0.167 HD
ENDBRANCH  19  21
ENDBRANCH  18  19
ENDBRANCH  17  18
ENDBRANCH  16  17
ENDBRANCH  13  16
ENDBRANCH   1  12
TORSDOF 7
