REMARK  3 active torsions:
REMARK  status: ('A' for Active; 'I' for Inactive)
REMARK    1  A    between atoms: C_3  and  N_1 
REMARK    2  A    between atoms: C_5  and  C_3 
REMARK    3  A    between atoms: O_14  and  C_9 
ROOT
ATOM      1  N   UNL d   1      -2.241  -2.147  -3.147  0.00  0.00    -0.195 NA
ATOM      2  C   UNL d   1      -1.602   0.045  -1.800  0.00  0.00     0.361 C 
ATOM      3  C   UNL d   1      -1.964  -1.193  -2.547  0.00  0.00     0.100 C 
ENDROOT
BRANCH   2   4
ATOM      4  N   UNL d   1      -1.569  -0.087  -0.313  0.00  0.00     0.115 N 
ATOM      5  C   UNL d   1      -0.617  -1.110   0.176  0.00  0.00     0.300 C 
ATOM      6  C   UNL d   1      -1.167  -2.549   0.231  0.00  0.00     0.198 C 
ATOM      7  O   UNL d   1      -2.406  -2.611   0.943  0.00  0.00    -0.388 OA
ATOM      8  C   UNL d   1      -3.381  -1.729   0.376  0.00  0.00     0.198 C 
ATOM      9  C   UNL d   1      -2.870  -0.280   0.354  0.00  0.00     0.300 C 
ENDBRANCH   2   4
BRANCH   2  10
ATOM     10  C   UNL d   1      -2.378   1.284  -2.295  0.00  0.00    -0.011 A 
ATOM     11  C   UNL d   1      -2.283   2.510  -1.608  0.00  0.00     0.013 A 
ATOM     12  C   UNL d   1      -2.922   3.659  -2.091  0.00  0.00     0.037 A 
ATOM     13  C   UNL d   1      -3.648   3.602  -3.274  0.00  0.00     0.065 A 
ATOM     14  C   UNL d   1      -3.755   2.414  -3.978  0.00  0.00     0.037 A 
ATOM     15  C   UNL d   1      -3.123   1.266  -3.495  0.00  0.00     0.013 A 
BRANCH  13  16
ATOM     16  O   UNL d   1      -4.236   4.747  -3.722  0.00  0.00    -0.361 OA
ATOM     17  H   UNL d   1      -4.660   4.564  -4.577  0.00  0.00     0.217 HD
ENDBRANCH  13  16
ENDBRANCH   2  10
TORSDOF 3
