REMARK  3 active torsions:
REMARK  status: ('A' for Active; 'I' for Inactive)
REMARK    1  A    between atoms: C_2  and  N_1 
REMARK    2  A    between atoms: C_3  and  O_7 
REMARK    3  A    between atoms: O_7  and  C_8 
ROOT
ATOM      1  C   UNL d   1      -4.201   2.900   5.860  0.00  0.00     0.118 A 
ATOM      2  N   UNL d   1      -3.880   4.433   4.033  0.00  0.00    -0.344 N 
ATOM      3  HN  UNL d   1      -4.135   5.288   3.539  1.00  0.00     0.167 HD
ATOM      4  C   UNL d   1      -2.902   3.617   3.569  0.00  0.00     0.148 A 
ATOM      5  C   UNL d   1      -4.504   4.068   5.176  0.00  0.00     0.126 A 
ATOM      6  C   UNL d   1      -3.220   2.047   5.346  0.00  0.00     0.041 A 
ATOM      7  C   UNL d   1      -2.560   2.412   4.171  0.00  0.00     0.059 A 
ENDROOT
BRANCH   4   8
ATOM      8  O   UNL d   1      -2.189   3.979   2.433  0.00  0.00    -0.293 OA
BRANCH   8   9
ATOM      9  C   UNL d   1      -1.964   5.328   2.224  0.00  0.00     0.084 A 
ATOM     10  C   UNL d   1      -2.006   5.820   0.902  0.00  0.00    -0.022 A 
ATOM     11  C   UNL d   1      -1.723   7.188   0.676  0.00  0.00    -0.053 A 
ATOM     12  C   UNL d   1      -2.335   4.905  -0.248  0.00  0.00     0.052 C 
ATOM     13  C   UNL d   1      -1.708   7.819  -0.691  0.00  0.00     0.049 C 
ATOM     14  C   UNL d   1      -1.439   8.029   1.767  0.00  0.00     0.007 A 
ATOM     15  C   UNL d   1      -1.383   7.527   3.063  0.00  0.00     0.003 A 
ATOM     16  C   UNL d   1      -1.616   6.176   3.285  0.00  0.00     0.038 A 
ENDBRANCH   8   9
ENDBRANCH   4   8
BRANCH   1  17
ATOM     17  N   UNL d   1      -4.898   2.592   7.101  0.00  0.00    -0.114 N 
ATOM     18  O   UNL d   1      -5.720   3.415   7.522  0.00  0.00    -0.532 OA
ATOM     19  O   UNL d   1      -4.618   1.523   7.662  0.00  0.00    -0.532 OA
ENDBRANCH   1  17
TORSDOF 3
