REMARK  6 active torsions:
REMARK  status: ('A' for Active; 'I' for Inactive)
REMARK    1  A    between atoms: S_3  and  C_1 
REMARK    2  A    between atoms: C_2  and  S_3 
REMARK    3  A    between atoms: C_17  and  C_7 
REMARK    4  A    between atoms: S_16  and  C_10 
REMARK    5  A    between atoms: C_18  and  S_16 
REMARK    6  A    between atoms: C_20  and  C_18 
ROOT
ATOM      1  C   UNL d   1       2.205   2.784   0.157  0.00  0.00     0.051 A 
ATOM      2  N   UNL d   1       4.289   2.485  -1.001  0.00  0.00    -0.335 N 
ATOM      3  HN  UNL d   1       4.809   2.196  -1.830  1.00  0.00     0.168 HD
ATOM      4  C   UNL d   1       2.930   2.407  -0.972  0.00  0.00     0.063 A 
ATOM      5  C   UNL d   1       4.931   2.950   0.080  0.00  0.00     0.144 A 
ATOM      6  N   UNL d   1       4.328   3.366   1.197  0.00  0.00    -0.345 N 
ATOM      7  HN  UNL d   1       4.849   3.737   1.991  1.00  0.00     0.167 HD
ATOM      8  C   UNL d   1       2.979   3.264   1.204  0.00  0.00     0.111 A 
ENDROOT
BRANCH   5   9
ATOM      9  S   UNL d   1       6.693   3.072  -0.057  0.00  0.00    -0.089 SA
BRANCH   9  10
ATOM     10  C   UNL d   1       7.171   2.828   1.681  0.00  0.00     0.121 C 
BRANCH  10  11
ATOM     11  C   UNL d   1       8.679   2.768   1.806  0.00  0.00    -0.048 A 
ATOM     12  C   UNL d   1       9.425   3.942   2.001  0.00  0.00     0.009 A 
ATOM     13  C   UNL d   1      10.821   3.897   2.050  0.00  0.00     0.024 A 
ATOM     14  C   UNL d   1      11.481   2.680   1.902  0.00  0.00     0.034 A 
ATOM     15  C   UNL d   1      10.757   1.504   1.716  0.00  0.00     0.024 A 
ATOM     16 CL   UNL d   1      13.201   2.629   1.935  0.00  0.00    -0.084 Cl
ATOM     17  C   UNL d   1       9.361   1.548   1.667  0.00  0.00     0.009 A 
ENDBRANCH  10  11
ENDBRANCH   9  10
ENDBRANCH   5   9
BRANCH   4  18
ATOM     18  C   UNL d   1       2.364   1.903  -2.252  0.00  0.00    -0.008 A 
ATOM     19  C   UNL d   1       3.034   0.887  -2.966  0.00  0.00     0.014 A 
ATOM     20  C   UNL d   1       2.566   0.420  -4.199  0.00  0.00     0.001 A 
ATOM     21  C   UNL d   1       1.405   0.951  -4.747  0.00  0.00     0.000 A 
ATOM     22  C   UNL d   1       0.725   1.960  -4.072  0.00  0.00     0.001 A 
ATOM     23  C   UNL d   1       1.211   2.441  -2.850  0.00  0.00     0.014 A 
ENDBRANCH   4  18
BRANCH   1  24
ATOM     24  S   UNL d   1       0.438   2.711   0.363  0.00  0.00    -0.050 SA
BRANCH  24  25
ATOM     25  C   UNL d   1       0.305   1.137   1.073  0.00  0.00     0.151 A 
ATOM     26  N   UNL d   1      -0.822   0.360   0.988  0.00  0.00    -0.341 N 
ATOM     27  C   UNL d   1      -0.577  -0.786   1.705  0.00  0.00     0.109 A 
ATOM     28  C   UNL d   1      -2.063   0.616   0.297  0.00  0.00     0.158 C 
ATOM     29  C   UNL d   1       0.700  -0.642   2.189  0.00  0.00     0.107 A 
ATOM     30  N   UNL d   1       1.234   0.554   1.797  0.00  0.00    -0.345 N 
ATOM     31  HN  UNL d   1       2.161   0.918   2.019  1.00  0.00     0.167 HD
ENDBRANCH  24  25
ENDBRANCH   1  24
TORSDOF 6
