REMARK  1 active torsions:
REMARK  status: ('A' for Active; 'I' for Inactive)
REMARK    1  A    between atoms: C_8  and  C_7 
ROOT
ATOM      1  C   UNL d   1       1.208   0.162  -0.051  0.00  0.00     0.102 C 
ATOM      2  N   UNL d   1      -0.762  -1.233  -0.005  0.00  0.00    -0.275 N 
ATOM      3  N   UNL d   1      -1.023   1.063   0.078  0.00  0.00    -0.275 N 
ATOM      4  C   UNL d   1       0.602  -1.197  -0.064  0.00  0.00     0.265 C 
ATOM      5  C   UNL d   1       0.307   1.346  -0.068  0.00  0.00     0.265 C 
ATOM      6  C   UNL d   1      -1.601  -0.166   0.040  0.00  0.00     0.329 C 
ATOM      7  C   UNL d   1       2.555   0.208  -0.011  0.00  0.00     0.052 C 
ATOM      8  O   UNL d   1       0.666   2.502  -0.254  0.00  0.00    -0.267 OA
ATOM      9  O   UNL d   1       1.255  -2.232  -0.129  0.00  0.00    -0.267 OA
ATOM     10  O   UNL d   1      -2.820  -0.304   0.020  0.00  0.00    -0.246 OA
ATOM     11  H   UNL d   1      -1.193  -2.146  -0.033  0.00  0.00     0.173 HD
ATOM     12  H   UNL d   1      -1.649   1.856   0.046  0.00  0.00     0.173 HD
ENDROOT
BRANCH   7  13
ATOM     13  C   UNL d   1       3.301   1.401   0.096  0.00  0.00     0.033 A 
ATOM     14  N   UNL d   1       3.658   2.078  -1.046  0.00  0.00    -0.366 N 
ATOM     15  C   UNL d   1       4.363   3.205  -0.709  0.00  0.00     0.088 A 
ATOM     16  H   UNL d   1       3.413   1.809  -1.989  0.00  0.00     0.165 HD
ATOM     17  C   UNL d   1       4.477   3.241   0.663  0.00  0.00     0.019 A 
ATOM     18  C   UNL d   1       3.820   2.094   1.171  0.00  0.00     0.031 A 
ENDBRANCH   7  13
TORSDOF 1
