REMARK  5 active torsions:
REMARK  status: ('A' for Active; 'I' for Inactive)
REMARK    1  A    between atoms: C_8  and  C_1 
REMARK    2  A    between atoms: C_5  and  C_2 
REMARK    3  A    between atoms: O_15  and  C_8 
REMARK    4  A    between atoms: O_19  and  C_9 
REMARK    5  A    between atoms: C_20  and  O_15 
ROOT
ATOM      1  C   UNL d   1       1.459   0.959   0.157  0.00  0.00     0.067 C 
ATOM      2  C   UNL d   1       0.173   1.756   0.026  0.00  0.00     0.164 C 
ATOM      3  C   UNL d   1       1.412  -0.393   0.094  0.00  0.00     0.024 C 
ATOM      4  C   UNL d   1      -1.027  -0.387   0.163  0.00  0.00     0.321 C 
ATOM      5  N   UNL d   1       0.176  -1.004   0.001  0.00  0.00    -0.312 N 
ATOM      6  N   UNL d   1      -0.974   0.946   0.402  0.00  0.00    -0.330 N 
ATOM      7  O   UNL d   1      -2.086  -1.001   0.136  0.00  0.00    -0.247 OA
ATOM      8  C   UNL d   1       2.557  -1.371   0.078  0.00  0.00     0.069 C 
ATOM      9  H   UNL d   1       0.118  -2.012  -0.091  0.00  0.00     0.170 HD
ATOM     10  H   UNL d   1      -1.883   1.386   0.458  0.00  0.00     0.165 HD
ENDROOT
BRANCH   2  11
ATOM     11  C   UNL d   1       0.092   3.072   0.779  0.00  0.00     0.004 A 
ATOM     12  C   UNL d   1      -0.160   4.341   0.221  0.00  0.00     0.076 A 
ATOM     13  C   UNL d   1      -0.117   5.472   1.062  0.00  0.00     0.039 A 
ATOM     14  C   UNL d   1       0.164   5.379   2.424  0.00  0.00     0.022 A 
ATOM     15  C   UNL d   1       0.380   4.133   2.981  0.00  0.00     0.011 A 
ATOM     16  C   UNL d   1       0.329   2.995   2.180  0.00  0.00     0.031 A 
ATOM     17 BR   UNL d   1       0.784   3.975   4.819  0.00  0.00    -0.051 Br
BRANCH  12  18
ATOM     18  O   UNL d   1      -0.443   4.736  -1.054  0.00  0.00    -0.355 OA
ATOM     19  C   UNL d   1      -0.550   3.845  -2.144  0.00  0.00     0.210 C 
ENDBRANCH  12  18
ENDBRANCH   2  11
BRANCH   1  20
ATOM     20  C   UNL d   1       2.759   1.672   0.282  0.00  0.00     0.293 C 
ATOM     21  O   UNL d   1       3.757   1.185   0.799  0.00  0.00    -0.259 OA
BRANCH  20  22
ATOM     22  O   UNL d   1       2.701   2.925  -0.229  0.00  0.00    -0.318 OA
BRANCH  22  23
ATOM     23  C   UNL d   1       3.906   3.708  -0.108  0.00  0.00     0.174 C 
ATOM     24  C   UNL d   1       4.175   4.165   1.319  0.00  0.00     0.034 C 
ENDBRANCH  22  23
ENDBRANCH  20  22
ENDBRANCH   1  20
TORSDOF 5
