REMARK  8 active torsions:
REMARK  status: ('A' for Active; 'I' for Inactive)
REMARK    1  A    between atoms: C_2  and  N_1 
REMARK    2  A    between atoms: C_5  and  C_10 
REMARK    3  A    between atoms: C_8  and  C_5 
REMARK    4  A    between atoms: C_10  and  O_17 
REMARK    5  A    between atoms: O_17  and  C_21 
REMARK    6  A    between atoms: O_18  and  C_22 
REMARK    7  A    between atoms: C_24  and  O_18 
REMARK    8  A    between atoms: C_19  and  C_24 
ROOT
ATOM      1  C   UNL d   1      -3.455  -7.060  -0.982  0.00  0.00     0.012 A 
ATOM      2  C   UNL d   1      -3.282  -6.344  -2.170  0.00  0.00     0.018 A 
ATOM      3  C   UNL d   1      -4.681  -7.673  -0.714  0.00  0.00     0.018 A 
ATOM      4  C   UNL d   1      -5.601  -6.732  -2.748  0.00  0.00     0.069 A 
ATOM      5  C   UNL d   1      -5.745  -7.519  -1.603  0.00  0.00     0.038 A 
ATOM      6  C   UNL d   1      -4.355  -6.178  -3.051  0.00  0.00     0.038 A 
ENDROOT
BRANCH   1   7
ATOM      7  C   UNL d   1      -2.340  -7.120   0.003  0.00  0.00     0.183 C 
ATOM      8  O   UNL d   1      -1.180  -7.019  -0.389  0.00  0.00    -0.290 OA
BRANCH   7   9
ATOM      9  C   UNL d   1      -2.697  -7.207   1.483  0.00  0.00     0.259 C 
BRANCH   9  10
ATOM     10  O   UNL d   1      -2.956  -8.550   1.866  0.00  0.00    -0.344 OA
BRANCH  10  11
ATOM     11  C   UNL d   1      -3.246  -8.771   3.186  0.00  0.00     0.069 A 
ATOM     12  C   UNL d   1      -3.385 -10.119   3.538  0.00  0.00     0.039 A 
ATOM     13  C   UNL d   1      -3.674 -10.491   4.855  0.00  0.00     0.039 A 
ATOM     14  C   UNL d   1      -3.830  -9.498   5.828  0.00  0.00     0.103 A 
ATOM     15  C   UNL d   1      -3.703  -8.146   5.487  0.00  0.00     0.039 A 
ATOM     16  C   UNL d   1      -3.411  -7.787   4.165  0.00  0.00     0.039 A 
BRANCH  14  17
ATOM     17  N   UNL d   1      -4.126  -9.874   7.217  0.00  0.00    -0.116 N 
ATOM     18  O   UNL d   1      -4.259  -8.961   8.044  0.00  0.00    -0.532 OA
ATOM     19  O   UNL d   1      -4.229 -11.081   7.479  0.00  0.00    -0.532 OA
ENDBRANCH  14  17
ENDBRANCH  10  11
ENDBRANCH   9  10
ENDBRANCH   7   9
ENDBRANCH   1   7
BRANCH   4  20
ATOM     20  O   UNL d   1      -6.617  -6.441  -3.620  0.00  0.00    -0.347 OA
BRANCH  20  21
ATOM     21  C   UNL d   1      -7.928  -6.566  -3.068  0.00  0.00     0.214 C 
BRANCH  21  22
ATOM     22  C   UNL d   1      -8.894  -5.757  -3.893  0.00  0.00    -0.032 A 
ATOM     23  C   UNL d   1      -9.058  -4.387  -3.637  0.00  0.00     0.035 A 
ATOM     24  C   UNL d   1      -9.965  -3.628  -4.381  0.00  0.00     0.056 A 
ATOM     25 CL   UNL d   1     -10.124  -1.954  -3.983  0.00  0.00    -0.083 Cl
ATOM     26  C   UNL d   1     -10.709  -4.234  -5.398  0.00  0.00     0.055 A 
ATOM     27  C   UNL d   1     -10.539  -5.596  -5.666  0.00  0.00     0.026 A 
ATOM     28 CL   UNL d   1     -11.849  -3.362  -6.357  0.00  0.00    -0.083 Cl
ATOM     29  C   UNL d   1      -9.634  -6.354  -4.920  0.00  0.00     0.011 A 
ENDBRANCH  21  22
ENDBRANCH  20  21
ENDBRANCH   4  20
TORSDOF 8
