REMARK  22 active torsions:
REMARK  status: ('A' for Active; 'I' for Inactive)
REMARK    1  A    between atoms: C_7  and  S_1 
REMARK    2  A    between atoms: N_18  and  S_1 
REMARK    3  A    between atoms: S_2  and  C_8 
REMARK    4  A    between atoms: N_19  and  S_2 
REMARK    5  A    between atoms: C_22  and  N_18 
REMARK    6  A    between atoms: C_23  and  N_19 
REMARK    7  A    between atoms: C_24  and  C_22 
REMARK    8  A    between atoms: C_25  and  C_23 
REMARK    9  A    between atoms: C_36  and  C_24 
REMARK   10  A    between atoms: C_37  and  C_25 
REMARK   11  A    between atoms: C_26  and  C_28 
REMARK   12  A    between atoms: C_27  and  C_29 
REMARK   13  A    between atoms: C_28  and  C_34 
REMARK   14  A    between atoms: C_29  and  C_35 
REMARK   15  A    between atoms: C_30  and  C_38 
REMARK   16  A    between atoms: C_32  and  C_30 
REMARK   17  A    between atoms: C_31  and  C_39 
REMARK   18  A    between atoms: C_33  and  C_31 
REMARK   19  A    between atoms: C_34  and  C_32 
REMARK   20  A    between atoms: C_35  and  C_33 
REMARK   21  A    between atoms: C_38  and  C_36 
REMARK   22  A    between atoms: C_39  and  C_37 
ROOT
ATOM      1  C   UNL d   1      -0.343  -0.698   3.828  0.00  0.00    -0.041 A 
ATOM      2  C   UNL d   1      -0.918  -1.376   6.030  0.00  0.00    -0.041 A 
ATOM      3  C   UNL d   1      -0.165  -2.097   3.939  0.00  0.00    -0.019 A 
ATOM      4  C   UNL d   1      -0.517  -2.512   5.284  0.00  0.00    -0.019 A 
ATOM      5  C   UNL d   1       0.452  -0.751   1.575  0.00  0.00     0.075 A 
ATOM      6  C   UNL d   1      -1.266  -2.743   7.962  0.00  0.00     0.075 A 
ATOM      7  C   UNL d   1      -0.862  -0.139   5.147  0.00  0.00     0.078 A 
ATOM      8  C   UNL d   1      -0.045  -0.007   2.658  0.00  0.00     0.033 A 
ATOM      9  C   UNL d   1      -1.296  -1.473   7.370  0.00  0.00     0.033 A 
ATOM     10  C   UNL d   1      -0.499  -3.763   5.875  0.00  0.00     0.014 A 
ATOM     11  C   UNL d   1       0.311  -2.828   2.856  0.00  0.00     0.014 A 
ATOM     12  C   UNL d   1       0.622  -2.145   1.673  0.00  0.00     0.026 A 
ATOM     13  C   UNL d   1      -0.882  -3.877   7.216  0.00  0.00     0.026 A 
ENDROOT
BRANCH   5  14
ATOM     14  S   UNL d   1       0.960   0.065   0.077  0.00  0.00     0.241 S 
ATOM     15  O   UNL d   1       1.347  -0.940  -0.891  0.00  0.00    -0.206 OA
ATOM     16  O   UNL d   1       1.853   1.142   0.448  0.00  0.00    -0.206 OA
BRANCH  14  17
ATOM     17  N   UNL d   1      -0.454   0.800  -0.491  0.00  0.00    -0.216 NA
ATOM     18  H   UNL d   1      -0.234   1.736  -0.835  0.00  0.00     0.139 HD
BRANCH  17  19
ATOM     19  C   UNL d   1      -1.295  -0.036  -1.355  0.00  0.00     0.104 C 
BRANCH  19  20
ATOM     20  C   UNL d   1      -2.542   0.721  -1.790  0.00  0.00     0.015 C 
BRANCH  20  21
ATOM     21  C   UNL d   1      -3.367  -0.173  -2.712  0.00  0.00     0.001 C 
BRANCH  21  22
ATOM     22  C   UNL d   1      -4.633   0.524  -3.183  0.00  0.00     0.000 C 
BRANCH  22  23
ATOM     23  C   UNL d   1      -5.432  -0.399  -4.097  0.00  0.00     0.000 C 
BRANCH  23  24
ATOM     24  C   UNL d   1      -6.700   0.294  -4.572  0.00  0.00     0.000 C 
BRANCH  24  25
ATOM     25  C   UNL d   1      -7.502  -0.626  -5.483  0.00  0.00     0.000 C 
BRANCH  25  26
ATOM     26  C   UNL d   1      -8.771   0.072  -5.954  0.00  0.00    -0.000 C 
BRANCH  26  27
ATOM     27  C   UNL d   1      -9.583  -0.838  -6.867  0.00  0.00    -0.005 C 
ATOM     28  C   UNL d   1     -10.846  -0.139  -7.333  0.00  0.00     0.005 C 
ENDBRANCH  26  27
ENDBRANCH  25  26
ENDBRANCH  24  25
ENDBRANCH  23  24
ENDBRANCH  22  23
ENDBRANCH  21  22
ENDBRANCH  20  21
ENDBRANCH  19  20
ENDBRANCH  17  19
ENDBRANCH  14  17
ENDBRANCH   5  14
BRANCH   6  29
ATOM     29  S   UNL d   1      -1.822  -2.998   9.639  0.00  0.00     0.241 S 
ATOM     30  O   UNL d   1      -3.109  -2.345   9.768  0.00  0.00    -0.206 OA
ATOM     31  O   UNL d   1      -1.652  -4.393   9.972  0.00  0.00    -0.206 OA
BRANCH  29  32
ATOM     32  N   UNL d   1      -0.743  -2.112  10.605  0.00  0.00    -0.216 NA
ATOM     33  H   UNL d   1      -1.266  -1.676  11.364  0.00  0.00     0.139 HD
BRANCH  32  34
ATOM     34  C   UNL d   1       0.467  -2.849  11.008  0.00  0.00     0.104 C 
BRANCH  34  35
ATOM     35  C   UNL d   1       1.379  -1.981  11.869  0.00  0.00     0.015 C 
BRANCH  35  36
ATOM     36  C   UNL d   1       2.605  -2.797  12.277  0.00  0.00     0.001 C 
BRANCH  36  37
ATOM     37  C   UNL d   1       3.556  -1.981  13.140  0.00  0.00     0.000 C 
BRANCH  37  38
ATOM     38  C   UNL d   1       4.771  -2.818  13.530  0.00  0.00     0.000 C 
BRANCH  38  39
ATOM     39  C   UNL d   1       5.723  -2.001  14.392  0.00  0.00     0.000 C 
BRANCH  39  40
ATOM     40  C   UNL d   1       6.938  -2.832  14.783  0.00  0.00     0.000 C 
BRANCH  40  41
ATOM     41  C   UNL d   1       7.886  -2.009  15.646  0.00  0.00    -0.000 C 
BRANCH  41  42
ATOM     42  C   UNL d   1       9.108  -2.829  16.042  0.00  0.00    -0.005 C 
ATOM     43  C   UNL d   1      10.049  -2.006  16.903  0.00  0.00     0.005 C 
ENDBRANCH  41  42
ENDBRANCH  40  41
ENDBRANCH  39  40
ENDBRANCH  38  39
ENDBRANCH  37  38
ENDBRANCH  36  37
ENDBRANCH  35  36
ENDBRANCH  34  35
ENDBRANCH  32  34
ENDBRANCH  29  32
ENDBRANCH   6  29
TORSDOF 22
