REMARK  5 active torsions:
REMARK  status: ('A' for Active; 'I' for Inactive)
REMARK    1  A    between atoms: C_2  and  S_1 
REMARK    2  A    between atoms: O_7  and  S_1 
REMARK    3  A    between atoms: C_3  and  C_6 
REMARK    4  A    between atoms: C_4  and  C_5 
REMARK    5  A    between atoms: C_8  and  O_7 
ROOT
ATOM      1  C   UNL d   1       0.405  -1.668  -0.104  0.00  0.00     0.088 A 
ATOM      2  C   UNL d   1       0.923  -4.040  -0.137  0.00  0.00     0.050 A 
ATOM      3  C   UNL d   1      -1.410  -3.279  -0.110  0.00  0.00     0.050 A 
ATOM      4  C   UNL d   1       1.349  -2.703  -0.117  0.00  0.00     0.042 A 
ATOM      5  C   UNL d   1      -0.965  -1.948  -0.099  0.00  0.00     0.042 A 
ATOM      6  C   UNL d   1      -0.458  -4.314  -0.141  0.00  0.00     0.032 A 
ENDROOT
BRANCH   1   7
ATOM      7  S   UNL d   1       0.954   0.029   0.020  0.00  0.00     0.303 S 
ATOM      8  O   UNL d   1       2.272  -0.003   0.622  0.00  0.00    -0.193 OA
ATOM      9  O   UNL d   1      -0.129   0.774   0.637  0.00  0.00    -0.193 OA
BRANCH   7  10
ATOM     10  O   UNL d   1       1.090   0.486  -1.538  0.00  0.00    -0.229 OA
BRANCH  10  11
ATOM     11  C   UNL d   1       1.570   1.718  -1.907  0.00  0.00     0.092 A 
ATOM     12  C   UNL d   1       1.848   2.775  -1.039  0.00  0.00     0.062 A 
ATOM     13  C   UNL d   1       2.338   3.980  -1.550  0.00  0.00     0.038 A 
ATOM     14 CL   UNL d   1       2.683   5.281  -0.477  0.00  0.00    -0.084 Cl
ATOM     15  C   UNL d   1       2.551   4.145  -2.916  0.00  0.00     0.048 A 
ATOM     16  C   UNL d   1       2.266   3.090  -3.776  0.00  0.00     0.038 A 
ATOM     17  C   UNL d   1       1.775   1.882  -3.281  0.00  0.00     0.062 A 
ATOM     18 CL   UNL d   1       2.523   3.273  -5.468  0.00  0.00    -0.084 Cl
ENDBRANCH  10  11
ENDBRANCH   7  10
ENDBRANCH   1   7
BRANCH   2  19
ATOM     19  C   UNL d   1       1.918  -5.181  -0.123  0.00  0.00     0.417 C 
ATOM     20  F   UNL d   1       3.214  -4.770  -0.073  0.00  0.00    -0.166 F 
ATOM     21  F   UNL d   1       1.742  -6.005   0.945  0.00  0.00    -0.166 F 
ATOM     22  F   UNL d   1       1.815  -5.968  -1.228  0.00  0.00    -0.166 F 
ENDBRANCH   2  19
BRANCH   3  23
ATOM     23  C   UNL d   1      -2.886  -3.608  -0.052  0.00  0.00     0.417 C 
ATOM     24  F   UNL d   1      -3.683  -2.507   0.022  0.00  0.00    -0.166 F 
ATOM     25  F   UNL d   1      -3.304  -4.302  -1.144  0.00  0.00    -0.166 F 
ATOM     26  F   UNL d   1      -3.200  -4.373   1.027  0.00  0.00    -0.166 F 
ENDBRANCH   3  23
TORSDOF 5
