REMARK  4 active torsions:
REMARK  status: ('A' for Active; 'I' for Inactive)
REMARK    1  A    between atoms: C_5  and  C_1 
REMARK    2  A    between atoms: C_14  and  N_2 
REMARK       I    between atoms: N_9  and  C_5 
REMARK    3  A    between atoms: C_8  and  N_10 
REMARK    4  A    between atoms: N_10  and  N_9 
ROOT
ATOM      1  C   UNL d   1      -0.514  -2.704   0.231  0.00  0.00     0.288 C 
ATOM      2  N   UNL d   1      -1.829  -3.113   0.107  0.00  0.00    -0.262 N 
ATOM      3  O   UNL d   1       0.393  -3.520   0.398  0.00  0.00    -0.264 OA
ATOM      4  H   UNL d   1      -2.572  -2.487  -0.188  0.00  0.00     0.190 HD
ENDROOT
BRANCH   1   5
ATOM      5  C   UNL d   1      -0.321  -1.273   0.139  0.00  0.00     0.122 A 
ATOM      6  N   UNL d   1       0.872  -0.626  -0.105  0.00  0.00    -0.287 N 
ATOM      7  N   UNL d   1       0.756   0.721  -0.127  0.00  0.00    -0.302 N 
ATOM      8  C   UNL d   1      -0.535   0.954   0.108  0.00  0.00     0.024 A 
ATOM      9  HN  UNL d   1       1.493   1.407  -0.287  1.00  0.00     0.186 HD
ATOM     10  C   UNL d   1      -1.248  -0.249   0.278  0.00  0.00     0.063 A 
ATOM     11  C   UNL d   1      -1.050   2.342   0.155  0.00  0.00     0.070 C 
BRANCH   6  12
ATOM     12  C   UNL d   1       2.163  -1.186  -0.466  0.00  0.00     0.145 C 
ATOM     13  C   UNL d   1       3.250  -0.896   0.557  0.00  0.00     0.028 C 
ENDBRANCH   6  12
ENDBRANCH   1   5
BRANCH   2  14
ATOM     14  N   UNL d   1      -2.137  -4.485   0.125  0.00  0.00    -0.274 N 
ATOM     15  H   UNL d   1      -1.328  -5.097   0.199  0.00  0.00     0.189 HD
BRANCH  14  16
ATOM     16  C   UNL d   1      -3.330  -4.936  -0.371  0.00  0.00     0.186 C 
ATOM     17  S   UNL d   1      -4.558  -3.951  -0.947  0.00  0.00    -0.040 SA
ATOM     18  N   UNL d   1      -3.548  -6.279  -0.358  0.00  0.00    -0.370 N 
ATOM     19  C   UNL d   1      -2.781  -7.330   0.276  0.00  0.00     0.148 C 
ATOM     20  H   UNL d   1      -4.468  -6.540  -0.698  0.00  0.00     0.161 HD
ENDBRANCH  14  16
ENDBRANCH   2  14
TORSDOF 4
