REMARK  6 active torsions:
REMARK  status: ('A' for Active; 'I' for Inactive)
REMARK    1  A    between atoms: N_2  and  C_1 
REMARK    2  A    between atoms: C_3  and  C_1 
REMARK    3  A    between atoms: C_4  and  C_1 
REMARK    4  A    between atoms: N_5  and  C_1 
REMARK       I    between atoms: C_7  and  N_2 
REMARK    5  A    between atoms: C_9  and  N_5 
REMARK    6  A    between atoms: C_12  and  C_7 
ROOT
ATOM      1  C   UNL d   1       0.886  -0.024   0.029  0.00  0.00     0.306 C 
ENDROOT
BRANCH   1   2
ATOM      2  N   UNL d   1       0.306  -1.214   0.705  0.00  0.00    -0.315 N 
ATOM      3  C   UNL d   1       0.201  -1.349   2.056  0.00  0.00     0.254 C 
ATOM      4  O   UNL d   1       0.519  -0.480   2.849  0.00  0.00    -0.268 OA
ATOM      5  H   UNL d   1       0.052  -1.981   0.089  0.00  0.00     0.165 HD
BRANCH   3   6
ATOM      6  C   UNL d   1      -0.374  -2.632   2.542  0.00  0.00     0.032 A 
ATOM      7  C   UNL d   1      -0.002  -3.861   1.988  0.00  0.00     0.017 A 
ATOM      8  C   UNL d   1      -0.519  -5.046   2.516  0.00  0.00     0.001 A 
ATOM      9  C   UNL d   1      -1.412  -5.001   3.590  0.00  0.00     0.000 A 
ATOM     10  C   UNL d   1      -1.795  -3.777   4.134  0.00  0.00     0.001 A 
ATOM     11  C   UNL d   1      -1.274  -2.592   3.616  0.00  0.00     0.017 A 
ENDBRANCH   3   6
ENDBRANCH   1   2
BRANCH   1  12
ATOM     12  C   UNL d   1       0.441   1.359   0.644  0.00  0.00     0.441 C 
ATOM     13  F   UNL d   1      -0.830   1.326   1.112  0.00  0.00    -0.166 F 
ATOM     14  F   UNL d   1       1.251   1.715   1.681  0.00  0.00    -0.166 F 
ATOM     15  F   UNL d   1       0.522   2.392  -0.227  0.00  0.00    -0.166 F 
ENDBRANCH   1  12
BRANCH   1  16
ATOM     16  C   UNL d   1       0.408   0.065  -1.465  0.00  0.00     0.441 C 
ATOM     17  F   UNL d   1      -0.197  -1.099  -1.842  0.00  0.00    -0.166 F 
ATOM     18  F   UNL d   1      -0.506   1.025  -1.719  0.00  0.00    -0.166 F 
ATOM     19  F   UNL d   1       1.438   0.253  -2.327  0.00  0.00    -0.166 F 
ENDBRANCH   1  16
BRANCH   1  20
ATOM     20  N   UNL d   1       2.377  -0.182   0.207  0.00  0.00    -0.346 N 
ATOM     21  H   UNL d   1       2.660   0.204   1.113  0.00  0.00     0.163 HD
BRANCH  20  22
ATOM     22  C   UNL d   1       3.205  -1.205  -0.229  0.00  0.00     0.072 A 
ATOM     23  C   UNL d   1       2.818  -2.312  -0.998  0.00  0.00     0.184 A 
ATOM     24  C   UNL d   1       3.747  -3.236  -1.477  0.00  0.00     0.195 A 
ATOM     25  F   UNL d   1       1.525  -2.547  -1.253  0.00  0.00    -0.200 F 
ATOM     26  F   UNL d   1       3.328  -4.289  -2.195  0.00  0.00    -0.199 F 
ATOM     27  C   UNL d   1       5.088  -3.070  -1.206  0.00  0.00     0.158 A 
ATOM     28  C   UNL d   1       5.522  -1.986  -0.454  0.00  0.00     0.048 A 
ATOM     29  F   UNL d   1       5.991  -3.951  -1.662  0.00  0.00    -0.203 F 
ATOM     30  C   UNL d   1       4.584  -1.062   0.023  0.00  0.00     0.036 A 
ENDBRANCH  20  22
ENDBRANCH   1  20
TORSDOF 6
