REMARK  4 active torsions:
REMARK  status: ('A' for Active; 'I' for Inactive)
REMARK    1  A    between atoms: C_2  and  C_1 
REMARK    2  A    between atoms: C_3  and  S_6 
REMARK    3  A    between atoms: S_6  and  C_12 
REMARK    4  A    between atoms: C_12  and  C_13 
ROOT
ATOM      1  C   UNL d   1       0.540  -1.443  -0.398  0.00  0.00     0.047 A 
ATOM      2  C   UNL d   1      -0.604  -2.085   0.097  0.00  0.00     0.017 A 
ATOM      3  C   UNL d   1       1.320  -2.103  -1.359  0.00  0.00     0.017 A 
ATOM      4  C   UNL d   1      -0.162  -4.034  -1.291  0.00  0.00    -0.049 A 
ATOM      5  C   UNL d   1       0.968  -3.379  -1.806  0.00  0.00     0.009 A 
ATOM      6  C   UNL d   1      -0.950  -3.367  -0.344  0.00  0.00     0.009 A 
ENDROOT
BRANCH   4   7
ATOM      7  C   UNL d   1      -0.503  -5.443  -1.736  0.00  0.00     0.119 C 
BRANCH   7   8
ATOM      8  S   UNL d   1       0.755  -6.627  -1.142  0.00  0.00    -0.108 SA
BRANCH   8   9
ATOM      9  C   UNL d   1       0.256  -8.122  -1.975  0.00  0.00     0.069 A 
ATOM     10  N   UNL d   1      -0.950  -8.175  -2.579  0.00  0.00    -0.361 N 
ATOM     11  C   UNL d   1      -1.288  -9.345  -3.172  0.00  0.00     0.089 A 
ATOM     12  HN  UNL d   1      -1.578  -7.370  -2.589  1.00  0.00     0.165 HD
ATOM     13  C   UNL d   1      -0.478 -10.468  -3.193  0.00  0.00     0.017 A 
ATOM     14  C   UNL d   1       0.759 -10.393  -2.571  0.00  0.00     0.004 A 
ATOM     15  C   UNL d   1       1.135  -9.204  -1.950  0.00  0.00     0.037 A 
ENDBRANCH   8   9
ENDBRANCH   7   8
ENDBRANCH   4   7
BRANCH   1  16
ATOM     16  C   UNL d   1       0.950  -0.078   0.095  0.00  0.00     0.417 C 
ATOM     17  F   UNL d   1       0.084   0.462   0.998  0.00  0.00    -0.166 F 
ATOM     18  F   UNL d   1       1.051   0.834  -0.913  0.00  0.00    -0.166 F 
ATOM     19  F   UNL d   1       2.167  -0.088   0.709  0.00  0.00    -0.166 F 
ENDBRANCH   1  16
TORSDOF 4
