REMARK  4 active torsions:
REMARK  status: ('A' for Active; 'I' for Inactive)
REMARK    1  A    between atoms: C_4  and  C_1 
REMARK    2  A    between atoms: N_6  and  N_2 
REMARK    3  A    between atoms: C_11  and  C_4 
REMARK    4  A    between atoms: C_8  and  N_6 
ROOT
ATOM      1  C   UNL d   1       1.049   0.107  -0.095  0.00  0.00     0.175 C 
ATOM      2  N   UNL d   1       0.407   1.089  -0.664  0.00  0.00    -0.304 N 
ATOM      3  HN  UNL d   1      -0.607   1.156  -0.578  1.00  0.00     0.182 HD
ATOM      4  C   UNL d   1       2.485   0.029  -0.223  0.00  0.00     0.123 C 
ATOM      5  N   UNL d   1       3.636  -0.046  -0.361  0.00  0.00    -0.190 NA
ENDROOT
BRANCH   1   6
ATOM      6  C   UNL d   1       0.265  -0.894   0.703  0.00  0.00     0.220 C 
ATOM      7  O   UNL d   1       0.739  -1.292   1.760  0.00  0.00    -0.284 OA
BRANCH   6   8
ATOM      8  C   UNL d   1      -1.062  -1.363   0.229  0.00  0.00     0.017 A 
ATOM      9  C   UNL d   1      -1.422  -1.323  -1.124  0.00  0.00     0.017 A 
ATOM     10  C   UNL d   1      -2.672  -1.797  -1.532  0.00  0.00     0.025 A 
ATOM     11  C   UNL d   1      -3.561  -2.314  -0.592  0.00  0.00     0.034 A 
ATOM     12  C   UNL d   1      -3.216  -2.353   0.758  0.00  0.00     0.025 A 
ATOM     13 CL   UNL d   1      -5.086  -2.920  -1.105  0.00  0.00    -0.084 Cl
ATOM     14  C   UNL d   1      -1.966  -1.881   1.169  0.00  0.00     0.017 A 
ENDBRANCH   6   8
ENDBRANCH   1   6
BRANCH   2  15
ATOM     15  N   UNL d   1       1.099   2.027  -1.377  0.00  0.00    -0.203 NA
ATOM     16  H   UNL d   1       1.458   1.750  -2.300  0.00  0.00     0.153 HD
BRANCH  15  17
ATOM     17  C   UNL d   1       0.452   3.292  -1.471  0.00  0.00     0.049 A 
ATOM     18  C   UNL d   1       0.650   4.144  -2.574  0.00  0.00     0.058 A 
ATOM     19  C   UNL d   1       0.058   5.409  -2.623  0.00  0.00     0.049 A 
ATOM     20 CL   UNL d   1       1.603   3.629  -3.922  0.00  0.00    -0.082 Cl
ATOM     21  C   UNL d   1      -0.724   5.843  -1.555  0.00  0.00     0.035 A 
ATOM     22  C   UNL d   1      -0.917   5.029  -0.443  0.00  0.00     0.026 A 
ATOM     23 CL   UNL d   1      -1.456   7.398  -1.603  0.00  0.00    -0.084 Cl
ATOM     24  C   UNL d   1      -0.325   3.766  -0.400  0.00  0.00     0.028 A 
ENDBRANCH  15  17
ENDBRANCH   2  15
TORSDOF 4
