REMARK  3 active torsions:
REMARK  status: ('A' for Active; 'I' for Inactive)
REMARK    1  A    between atoms: S_2  and  N_1 
REMARK    2  A    between atoms: C_6  and  S_2 
REMARK    3  A    between atoms: C_15  and  C_10 
ROOT
ATOM      1  C   UNL d   1      -1.405  -3.298   1.226  0.00  0.00     0.122 A 
ATOM      2  S   UNL d   1      -0.563  -4.344   2.281  0.00  0.00    -0.074 SA
ATOM      3  C   UNL d   1      -1.915  -4.531   3.325  0.00  0.00     0.033 A 
ATOM      4  C   UNL d   1      -2.690  -3.062   1.673  0.00  0.00     0.034 A 
ATOM      5  C   UNL d   1      -2.985  -3.779   2.869  0.00  0.00     0.023 A 
ENDROOT
BRANCH   1   6
ATOM      6  S   UNL d   1      -0.517  -2.721  -0.198  0.00  0.00     0.289 S 
ATOM      7  O   UNL d   1      -1.527  -2.246  -1.129  0.00  0.00    -0.198 OA
ATOM      8  O   UNL d   1       0.458  -3.733  -0.559  0.00  0.00    -0.198 OA
BRANCH   6   9
ATOM      9  N   UNL d   1       0.396  -1.314   0.228  0.00  0.00    -0.180 N 
ATOM     10  C   UNL d   1       1.210  -0.636  -0.666  0.00  0.00     0.062 A 
ATOM     11  C   UNL d   1       1.637   0.472   0.030  0.00  0.00     0.059 A 
ATOM     12  C   UNL d   1       1.501  -1.051  -2.063  0.00  0.00     0.072 C 
ATOM     13 BR   UNL d   1       2.752   1.846  -0.585  0.00  0.00    -0.047 Br
ATOM     14  C   UNL d   1       1.059   0.404   1.312  0.00  0.00     0.042 A 
ATOM     15  N   UNL d   1       0.299  -0.691   1.440  0.00  0.00    -0.287 N 
ATOM     16  C   UNL d   1       1.187   1.360   2.440  0.00  0.00     0.071 C 
ATOM     17  HN  UNL d   1      -0.232  -0.991   2.257  1.00  0.00     0.188 HD
ENDBRANCH   6   9
ENDBRANCH   1   6
BRANCH   3  18
ATOM     18  C   UNL d   1      -1.860  -5.420   4.496  0.00  0.00     0.049 A 
ATOM     19  N   UNL d   1      -3.060  -5.945   4.853  0.00  0.00    -0.365 N 
ATOM     20  C   UNL d   1      -3.079  -6.792   5.907  0.00  0.00     0.088 A 
ATOM     21  HN  UNL d   1      -3.913  -5.710   4.346  1.00  0.00     0.165 HD
ATOM     22  C   UNL d   1      -1.959  -7.134   6.643  0.00  0.00     0.017 A 
ATOM     23  C   UNL d   1      -0.742  -6.574   6.280  0.00  0.00     0.004 A 
ATOM     24  C   UNL d   1      -0.687  -5.705   5.192  0.00  0.00     0.031 A 
ENDBRANCH   3  18
TORSDOF 3
