REMARK  6 active torsions:
REMARK  status: ('A' for Active; 'I' for Inactive)
REMARK    1  A    between atoms: N_2  and  S_1 
REMARK    2  A    between atoms: C_4  and  S_1 
REMARK    3  A    between atoms: C_3  and  C_6 
REMARK       I    between atoms: C_5  and  N_10 
REMARK    4  A    between atoms: C_19  and  C_5 
REMARK    5  A    between atoms: N_10  and  C_20 
REMARK    6  A    between atoms: C_21  and  C_19 
ROOT
ATOM      1  N   UNL d   1       0.574  -1.415  -0.698  0.00  0.00    -0.206 NA
ATOM      2  C   UNL d   1       1.091  -2.618   0.018  0.00  0.00     0.109 C 
ATOM      3  C   UNL d   1       0.963  -1.439  -2.149  0.00  0.00     0.109 C 
ATOM      4  C   UNL d   1       0.512  -2.721  -2.839  0.00  0.00     0.041 C 
ATOM      5  C   UNL d   1       0.533  -3.877  -0.637  0.00  0.00     0.041 C 
ATOM      6  C   UNL d   1       0.989  -3.971  -2.099  0.00  0.00     0.086 C 
ENDROOT
BRANCH   1   7
ATOM      7  S   UNL d   1       1.053   0.084   0.008  0.00  0.00     0.243 S 
ATOM      8  O   UNL d   1       0.470   1.148  -0.786  0.00  0.00    -0.206 OA
ATOM      9  O   UNL d   1       2.485   0.013   0.204  0.00  0.00    -0.206 OA
BRANCH   7  10
ATOM     10  C   UNL d   1       0.278   0.170   1.608  0.00  0.00     0.075 A 
ATOM     11  C   UNL d   1       1.076   0.398   2.736  0.00  0.00     0.041 A 
ATOM     12  C   UNL d   1       0.487   0.754   3.959  0.00  0.00     0.049 A 
ATOM     13  C   UNL d   1      -0.914   0.827   4.041  0.00  0.00     0.016 A 
ATOM     14  C   UNL d   1      -1.709   0.561   2.921  0.00  0.00     0.002 A 
ATOM     15  C   UNL d   1      -1.114   0.243   1.698  0.00  0.00     0.025 A 
BRANCH  12  16
ATOM     16  C   UNL d   1       1.335   1.133   5.151  0.00  0.00     0.417 C 
ATOM     17  F   UNL d   1       2.673   1.036   4.917  0.00  0.00    -0.166 F 
ATOM     18  F   UNL d   1       1.120   2.417   5.551  0.00  0.00    -0.166 F 
ATOM     19  F   UNL d   1       1.088   0.355   6.240  0.00  0.00    -0.166 F 
ENDBRANCH  12  16
ENDBRANCH   7  10
ENDBRANCH   1   7
BRANCH   6  20
ATOM     20  N   UNL d   1       2.438  -4.143  -2.210  0.00  0.00    -0.356 N 
ATOM     21  C   UNL d   1       3.081  -5.266  -1.726  0.00  0.00     0.222 C 
ATOM     22  O   UNL d   1       2.498  -6.181  -1.150  0.00  0.00    -0.273 OA
ATOM     23  H   UNL d   1       2.967  -3.523  -2.812  0.00  0.00     0.162 HD
BRANCH  21  24
ATOM     24  C   UNL d   1       4.580  -5.283  -1.964  0.00  0.00     0.141 C 
BRANCH  24  25
ATOM     25  C   UNL d   1       4.935  -5.975  -3.253  0.00  0.00    -0.050 A 
ATOM     26  C   UNL d   1       5.646  -5.304  -4.257  0.00  0.00     0.007 A 
ATOM     27  C   UNL d   1       5.940  -5.948  -5.460  0.00  0.00     0.001 A 
ATOM     28  C   UNL d   1       5.531  -7.264  -5.670  0.00  0.00     0.000 A 
ATOM     29  C   UNL d   1       4.839  -7.944  -4.671  0.00  0.00     0.001 A 
ATOM     30  C   UNL d   1       4.550  -7.308  -3.468  0.00  0.00     0.007 A 
ENDBRANCH  24  25
ENDBRANCH  21  24
ENDBRANCH   6  20
TORSDOF 6
