REMARK  5 active torsions:
REMARK  status: ('A' for Active; 'I' for Inactive)
REMARK    1  A    between atoms: C_3  and  C_1 
REMARK    2  A    between atoms: S_6  and  C_2 
REMARK    3  A    between atoms: O_12  and  C_3 
REMARK    4  A    between atoms: C_11  and  S_6 
REMARK    5  A    between atoms: C_14  and  C_11 
ROOT
ATOM      1  C   UNL d   1      -0.898  -1.084  -0.020  0.00  0.00     0.117 A 
ATOM      2  C   UNL d   1       0.496  -1.204   0.078  0.00  0.00     0.101 A 
ATOM      3  N   UNL d   1      -1.524   0.136   0.010  0.00  0.00    -0.359 N 
ATOM      4  HN  UNL d   1      -2.539   0.221  -0.046  1.00  0.00     0.165 HD
ATOM      5  N   UNL d   1       1.277  -0.090   0.181  0.00  0.00    -0.357 N 
ATOM      6  HN  UNL d   1       2.293  -0.157   0.246  1.00  0.00     0.166 HD
ATOM      7  C   UNL d   1      -0.726   1.217   0.119  0.00  0.00     0.105 A 
ATOM      8  C   UNL d   1       0.646   1.106   0.193  0.00  0.00     0.106 A 
ENDROOT
BRANCH   2   9
ATOM      9  S   UNL d   1       1.382  -2.764   0.089  0.00  0.00    -0.105 SA
BRANCH   9  10
ATOM     10  C   UNL d   1       3.096  -2.183   0.293  0.00  0.00     0.119 C 
BRANCH  10  11
ATOM     11  C   UNL d   1       4.193  -3.228   0.410  0.00  0.00    -0.048 A 
ATOM     12  C   UNL d   1       3.996  -4.617   0.365  0.00  0.00     0.011 A 
ATOM     13  C   UNL d   1       5.077  -5.496   0.501  0.00  0.00     0.043 A 
ATOM     14  C   UNL d   1       6.361  -4.995   0.679  0.00  0.00     0.116 A 
ATOM     15  C   UNL d   1       6.588  -3.627   0.717  0.00  0.00     0.043 A 
ATOM     16  F   UNL d   1       7.390  -5.840   0.816  0.00  0.00    -0.206 F 
ATOM     17  C   UNL d   1       5.510  -2.750   0.583  0.00  0.00     0.011 A 
ENDBRANCH  10  11
ENDBRANCH   9  10
ENDBRANCH   2   9
BRANCH   1  18
ATOM     18  C   UNL d   1      -1.809  -2.244  -0.249  0.00  0.00     0.165 C 
ATOM     19  N   UNL d   1      -1.546  -3.342  -0.880  0.00  0.00    -0.378 N 
ATOM     20  H   UNL d   1      -0.580  -3.340  -1.223  0.00  0.00     0.158 HD
ATOM     21  HN  UNL d   1      -2.209  -4.105  -1.018  1.00  0.00     0.158 HD
BRANCH  18  22
ATOM     22  O   UNL d   1      -3.031  -2.006   0.291  0.00  0.00    -0.339 OA
ATOM     23  C   UNL d   1      -4.058  -2.973   0.035  0.00  0.00     0.211 C 
ENDBRANCH  18  22
ENDBRANCH   1  18
TORSDOF 5
