REMARK  5 active torsions:
REMARK  status: ('A' for Active; 'I' for Inactive)
REMARK    1  A    between atoms: O_3  and  S_1 
REMARK    2  A    between atoms: C_4  and  S_1 
REMARK    3  A    between atoms: C_2  and  O_3 
REMARK    4  A    between atoms: O_21  and  C_6 
REMARK    5  A    between atoms: C_8  and  C_7 
ROOT
ATOM      1  C   UNL d   1       0.904  -0.844  -2.434  0.00  0.00     0.140 A 
ATOM      2  C   UNL d   1       2.226  -0.628  -2.849  0.00  0.00     0.049 A 
ATOM      3  C   UNL d   1      -0.116  -0.806  -3.399  0.00  0.00     0.104 A 
ATOM      4  C   UNL d   1       1.507  -0.222  -5.142  0.00  0.00    -0.030 A 
ATOM      5  C   UNL d   1       2.526  -0.315  -4.183  0.00  0.00     0.031 A 
ATOM      6  C   UNL d   1       0.192  -0.494  -4.732  0.00  0.00     0.049 A 
ATOM      7 BR   UNL d   1       3.680  -0.754  -1.630  0.00  0.00    -0.048 Br
ENDROOT
BRANCH   1   8
ATOM      8  O   UNL d   1       0.702  -1.107  -1.093  0.00  0.00    -0.225 OA
BRANCH   8   9
ATOM      9  S   UNL d   1      -0.654  -0.631  -0.318  0.00  0.00     0.303 S 
ATOM     10  O   UNL d   1      -1.569  -1.756  -0.246  0.00  0.00    -0.193 OA
ATOM     11  O   UNL d   1      -1.073   0.678  -0.788  0.00  0.00    -0.193 OA
BRANCH   9  12
ATOM     12  C   UNL d   1      -0.165  -0.337   1.373  0.00  0.00     0.090 A 
ATOM     13  C   UNL d   1       1.137   0.044   1.696  0.00  0.00     0.049 A 
ATOM     14  C   UNL d   1       1.438   0.338   3.027  0.00  0.00     0.037 A 
ATOM     15 CL   UNL d   1       3.029   0.840   3.447  0.00  0.00    -0.084 Cl
ATOM     16  C   UNL d   1       0.464   0.248   4.023  0.00  0.00     0.047 A 
ATOM     17  C   UNL d   1      -0.827  -0.148   3.684  0.00  0.00     0.037 A 
ATOM     18  C   UNL d   1      -1.151  -0.446   2.364  0.00  0.00     0.049 A 
ATOM     19 CL   UNL d   1      -2.039  -0.248   4.900  0.00  0.00    -0.084 Cl
ENDBRANCH   9  12
ENDBRANCH   8   9
ENDBRANCH   1   8
BRANCH   3  20
ATOM     20  O   UNL d   1      -1.380  -1.173  -3.023  0.00  0.00    -0.353 OA
ATOM     21  C   UNL d   1      -2.450  -0.516  -3.698  0.00  0.00     0.210 C 
ENDBRANCH   3  20
BRANCH   4  22
ATOM     22  C   UNL d   1       1.834   0.135  -6.580  0.00  0.00     0.141 C 
ATOM     23  S   UNL d   1       0.934   1.617  -7.147  0.00  0.00    -0.148 SA
ATOM     24  C   UNL d   1       0.652   1.046  -8.839  0.00  0.00     0.085 C 
ATOM     25  C   UNL d   1       0.298  -0.425  -8.769  0.00  0.00     0.085 C 
ATOM     26  S   UNL d   1       1.525  -1.255  -7.722  0.00  0.00    -0.148 SA
ENDBRANCH   4  22
TORSDOF 5
