REMARK  7 active torsions:
REMARK  status: ('A' for Active; 'I' for Inactive)
REMARK    1  A    between atoms: N_2  and  S_1 
REMARK    2  A    between atoms: C_8  and  S_1 
REMARK    3  A    between atoms: C_3  and  N_2 
REMARK    4  A    between atoms: C_9  and  C_6 
REMARK    5  A    between atoms: C_13  and  C_9 
REMARK    6  A    between atoms: O_20  and  C_13 
REMARK    7  A    between atoms: C_22  and  O_20 
ROOT
ATOM      1  C   UNL d   1       0.844   0.743  -2.589  0.00  0.00     0.137 C 
ATOM      2  N   UNL d   1       1.981   1.391  -2.579  0.00  0.00    -0.343 N 
ATOM      3  HN  UNL d   1       2.686   1.335  -1.844  1.00  0.00     0.167 HD
ATOM      4  C   UNL d   1       2.074   2.166  -3.729  0.00  0.00     0.026 C 
ATOM      5  S   UNL d   1      -0.259   1.149  -3.821  0.00  0.00    -0.069 SA
ATOM      6  C   UNL d   1       0.919   2.201  -4.492  0.00  0.00     0.078 C 
ENDROOT
BRANCH   1   7
ATOM      7  N   UNL d   1       0.596  -0.174  -1.545  0.00  0.00    -0.160 NA
ATOM      8  H   UNL d   1       1.242   0.028  -0.784  0.00  0.00     0.148 HD
BRANCH   7   9
ATOM      9  S   UNL d   1       0.857  -1.776  -2.039  0.00  0.00     0.247 S 
ATOM     10  O   UNL d   1       0.187  -2.042  -3.290  0.00  0.00    -0.205 OA
ATOM     11  O   UNL d   1       0.620  -2.607  -0.875  0.00  0.00    -0.205 OA
BRANCH   9  12
ATOM     12  C   UNL d   1       2.622  -1.817  -2.333  0.00  0.00     0.075 A 
ATOM     13  C   UNL d   1       3.490  -2.082  -1.267  0.00  0.00     0.026 A 
ATOM     14  C   UNL d   1       4.868  -2.135  -1.497  0.00  0.00     0.025 A 
ATOM     15  C   UNL d   1       5.364  -1.936  -2.786  0.00  0.00     0.034 A 
ATOM     16  C   UNL d   1       4.495  -1.688  -3.851  0.00  0.00     0.025 A 
ATOM     17 CL   UNL d   1       7.060  -2.003  -3.066  0.00  0.00    -0.084 Cl
ATOM     18  C   UNL d   1       3.118  -1.632  -3.628  0.00  0.00     0.026 A 
ENDBRANCH   9  12
ENDBRANCH   7   9
ENDBRANCH   1   7
BRANCH   4  19
ATOM     19  C   UNL d   1       3.368   2.848  -4.031  0.00  0.00     0.168 C 
BRANCH  19  20
ATOM     20  C   UNL d   1       4.027   2.273  -5.267  0.00  0.00     0.264 C 
ATOM     21  O   UNL d   1       3.577   1.385  -5.977  0.00  0.00    -0.265 OA
BRANCH  20  22
ATOM     22  O   UNL d   1       5.239   2.876  -5.452  0.00  0.00    -0.322 OA
BRANCH  22  23
ATOM     23  C   UNL d   1       6.091   2.254  -6.426  0.00  0.00     0.174 C 
ATOM     24  C   UNL d   1       6.903   1.174  -5.736  0.00  0.00     0.034 C 
ENDBRANCH  22  23
ENDBRANCH  20  22
ENDBRANCH  19  20
ENDBRANCH   4  19
TORSDOF 7
