REMARK  3 active torsions:
REMARK  status: ('A' for Active; 'I' for Inactive)
REMARK    1  A    between atoms: C_6  and  N_1 
REMARK    2  A    between atoms: C_4  and  C_7 
REMARK    3  A    between atoms: O_15  and  C_4 
ROOT
ATOM      1  C   UNL d   1      -0.739   2.463   0.034  0.00  0.00     0.039 A 
ATOM      2  C   UNL d   1      -1.487   5.179   0.184  0.00  0.00     0.037 A 
ATOM      3  C   UNL d   1      -1.609   2.910   1.042  0.00  0.00     0.031 A 
ATOM      4  C   UNL d   1      -0.260   3.387  -0.906  0.00  0.00     0.031 A 
ATOM      5  C   UNL d   1      -1.972   4.263   1.124  0.00  0.00     0.020 A 
ATOM      6  C   UNL d   1      -0.631   4.733  -0.828  0.00  0.00     0.020 A 
ENDROOT
BRANCH   1   7
ATOM      7  N   UNL d   1      -0.313   1.103  -0.012  0.00  0.00    -0.317 N 
ATOM      8  C   UNL d   1      -0.709   0.069   0.812  0.00  0.00     0.188 A 
ATOM      9  N   UNL d   1      -0.087  -1.060   0.549  0.00  0.00    -0.360 N 
ATOM     10  C   UNL d   1       0.741  -0.772  -0.495  0.00  0.00     0.106 A 
ATOM     11  HN  UNL d   1      -0.201  -1.956   1.024  1.00  0.00     0.166 HD
ATOM     12  C   UNL d   1       0.607   0.542  -0.875  0.00  0.00     0.115 A 
ENDBRANCH   1   7
BRANCH   2  13
ATOM     13  C   UNL d   1      -1.783   6.636   0.245  0.00  0.00     0.176 C 
ATOM     14  O   UNL d   1      -1.019   7.477  -0.191  0.00  0.00    -0.646 OA
BRANCH  13  15
ATOM     15  O   UNL d   1      -2.978   6.941   0.791  0.00  0.00    -0.773 OA
ATOM     16  H   UNL d   1      -3.577   6.189   0.948  0.00  0.00     0.167 HD
ENDBRANCH  13  15
ENDBRANCH   2  13
TORSDOF 3
