REMARK  3 active torsions:
REMARK  status: ('A' for Active; 'I' for Inactive)
REMARK    1  A    between atoms: C_2  and  C_1 
REMARK       I    between atoms: C_3  and  N_5 
REMARK    2  A    between atoms: C_4  and  C_3 
REMARK    3  A    between atoms: N_5  and  C_9 
ROOT
ATOM      1  C   UNL d   1       0.769  -1.060   0.105  0.00  0.00     0.067 A 
ATOM      2  C   UNL d   1       0.237   0.226  -0.033  0.00  0.00     0.026 A 
ATOM      3  C   UNL d   1       2.175  -1.194   0.207  0.00  0.00     0.047 A 
ATOM      4  C   UNL d   1       3.033  -0.095   0.134  0.00  0.00     0.035 A 
ATOM      5  C   UNL d   1       1.091   1.335  -0.096  0.00  0.00     0.022 A 
ATOM      6  C   UNL d   1       2.476   1.174  -0.018  0.00  0.00     0.031 A 
ATOM      7 BR   UNL d   1      -1.620   0.601  -0.136  0.00  0.00    -0.050 Br
ENDROOT
BRANCH   4   8
ATOM      8  N   UNL d   1       4.436  -0.182   0.193  0.00  0.00    -0.322 N 
ATOM      9  C   UNL d   1       5.221  -1.317   0.318  0.00  0.00     0.263 C 
ATOM     10  O   UNL d   1       4.781  -2.458   0.424  0.00  0.00    -0.267 OA
ATOM     11  H   UNL d   1       4.949   0.689   0.121  0.00  0.00     0.169 HD
BRANCH   9  12
ATOM     12  C   UNL d   1       6.665  -1.065   0.327  0.00  0.00     0.072 A 
ATOM     13  S   UNL d   1       7.337   0.504   0.137  0.00  0.00    -0.097 SA
ATOM     14  C   UNL d   1       8.936  -0.083   0.276  0.00  0.00     0.050 A 
ATOM     15  C   UNL d   1       8.971  -1.447   0.455  0.00  0.00     0.009 A 
ATOM     16  C   UNL d   1       7.664  -2.012   0.476  0.00  0.00     0.025 A 
ENDBRANCH   9  12
ENDBRANCH   4   8
BRANCH   1  17
ATOM     17  C   UNL d   1      -0.032  -2.338   0.164  0.00  0.00     0.418 C 
ATOM     18  F   UNL d   1      -1.350  -2.238  -0.149  0.00  0.00    -0.166 F 
ATOM     19  F   UNL d   1       0.461  -3.282  -0.690  0.00  0.00    -0.166 F 
ATOM     20  F   UNL d   1       0.010  -2.909   1.401  0.00  0.00    -0.166 F 
ENDBRANCH   1  17
TORSDOF 3
