REMARK  9 active torsions:
REMARK  status: ('A' for Active; 'I' for Inactive)
REMARK    1  A    between atoms: S_4  and  C_1 
REMARK    2  A    between atoms: N_9  and  C_2 
REMARK    3  A    between atoms: C_12  and  C_3 
REMARK    4  A    between atoms: C_20  and  S_4 
REMARK    5  A    between atoms: S_21  and  C_5 
REMARK    6  A    between atoms: S_7  and  C_8 
REMARK    7  A    between atoms: C_19  and  S_7 
REMARK    8  A    between atoms: N_10  and  N_9 
REMARK    9  A    between atoms: O_23  and  C_12 
ROOT
ATOM      1  C   UNL d   1       2.581   5.074   1.232  0.00  0.00     0.229 C 
ATOM      2  N   UNL d   1       1.544   4.730   0.508  0.00  0.00    -0.281 N 
ATOM      3  HN  UNL d   1       0.949   5.453   0.104  1.00  0.00     0.188 HD
ATOM      4  C   UNL d   1       3.391   4.062   1.843  0.00  0.00     0.132 C 
ATOM      5  N   UNL d   1       4.028   3.200   2.307  0.00  0.00    -0.189 NA
ENDROOT
BRANCH   1   6
ATOM      6  S   UNL d   1       3.061   6.745   1.502  0.00  0.00     0.233 S 
ATOM      7  O   UNL d   1       4.511   6.748   1.608  0.00  0.00    -0.215 OA
ATOM      8  O   UNL d   1       2.403   7.566   0.500  0.00  0.00    -0.215 OA
BRANCH   6   9
ATOM      9  C   UNL d   1       2.407   7.172   3.095  0.00  0.00     0.066 A 
ATOM     10  C   UNL d   1       3.189   7.009   4.245  0.00  0.00     0.024 A 
ATOM     11  C   UNL d   1       2.640   7.301   5.495  0.00  0.00     0.002 A 
ATOM     12  C   UNL d   1       1.330   7.774   5.591  0.00  0.00     0.000 A 
ATOM     13  C   UNL d   1       0.578   7.993   4.436  0.00  0.00     0.002 A 
ATOM     14  C   UNL d   1       1.119   7.704   3.184  0.00  0.00     0.024 A 
ENDBRANCH   6   9
ENDBRANCH   1   6
BRANCH   2  15
ATOM     15  N   UNL d   1       1.250   3.412   0.288  0.00  0.00    -0.296 N 
ATOM     16  H   UNL d   1       2.036   2.745   0.240  0.00  0.00     0.187 HD
BRANCH  15  17
ATOM     17  C   UNL d   1      -0.009   2.879   0.141  0.00  0.00     0.094 C 
ATOM     18  C   UNL d   1      -1.305   3.566   0.104  0.00  0.00     0.112 C 
ATOM     19  C   UNL d   1      -2.359   2.659   0.043  0.00  0.00     0.065 C 
ATOM     20  S   UNL d   1      -1.810   1.048   0.071  0.00  0.00    -0.073 SA
ATOM     21  C   UNL d   1      -0.166   1.501  -0.009  0.00  0.00     0.111 C 
BRANCH  18  22
ATOM     22  S   UNL d   1      -1.520   5.303   0.126  0.00  0.00     0.183 S 
ATOM     23  O   UNL d   1      -2.945   5.552   0.017  0.00  0.00    -0.222 OA
ATOM     24  O   UNL d   1      -0.823   5.741   1.322  0.00  0.00    -0.222 OA
BRANCH  22  25
ATOM     25  C   UNL d   1      -0.747   5.973  -1.355  0.00  0.00     0.105 C 
ATOM     26  C   UNL d   1      -1.302   5.365  -2.640  0.00  0.00     0.026 C 
ATOM     27  C   UNL d   1      -0.957   7.490  -1.372  0.00  0.00     0.026 C 
ENDBRANCH  22  25
ENDBRANCH  18  22
BRANCH  19  28
ATOM     28  S   UNL d   1      -4.102   2.871  -0.151  0.00  0.00    -0.126 SA
ATOM     29  C   UNL d   1      -4.679   2.822   1.561  0.00  0.00     0.096 C 
ENDBRANCH  19  28
BRANCH  21  30
ATOM     30  C   UNL d   1       0.769   0.397  -0.202  0.00  0.00     0.302 C 
ATOM     31  O   UNL d   1       0.463  -0.788  -0.275  0.00  0.00    -0.259 OA
BRANCH  30  32
ATOM     32  O   UNL d   1       2.049   0.854  -0.360  0.00  0.00    -0.322 OA
ATOM     33  C   UNL d   1       3.013  -0.158  -0.697  0.00  0.00     0.213 C 
ENDBRANCH  30  32
ENDBRANCH  21  30
ENDBRANCH  15  17
ENDBRANCH   2  15
TORSDOF 9
