REMARK  7 active torsions:
REMARK  status: ('A' for Active; 'I' for Inactive)
REMARK    1  A    between atoms: S_8  and  C_1 
REMARK    2  A    between atoms: C_6  and  C_3 
REMARK    3  A    between atoms: C_10  and  C_5 
REMARK    4  A    between atoms: O_14  and  C_6 
REMARK    5  A    between atoms: C_19  and  S_8 
REMARK    6  A    between atoms: C_20  and  O_14 
REMARK    7  A    between atoms: C_21  and  C_19 
ROOT
ATOM      1  C   UNL d   1       0.218   0.921  -0.125  0.00  0.00     0.064 C 
ATOM      2  C   UNL d   1      -0.676  -0.098  -0.392  0.00  0.00     0.081 C 
ATOM      3  C   UNL d   1       1.305  -1.311  -0.100  0.00  0.00     0.094 C 
ATOM      4  S   UNL d   1       1.795   0.313   0.131  0.00  0.00    -0.075 SA
ATOM      5  C   UNL d   1      -0.079  -1.413  -0.246  0.00  0.00     0.020 C 
ATOM      6  C   UNL d   1      -2.043   0.148  -0.760  0.00  0.00     0.102 C 
ATOM      7  N   UNL d   1      -3.138   0.343  -1.087  0.00  0.00    -0.191 NA
ENDROOT
BRANCH   1   8
ATOM      8  S   UNL d   1      -0.034   2.668  -0.094  0.00  0.00    -0.117 SA
BRANCH   8   9
ATOM      9  C   UNL d   1      -1.393   2.898   1.115  0.00  0.00     0.048 C 
ATOM     10  C   UNL d   1      -1.744   4.388   1.150  0.00  0.00     0.021 C 
BRANCH   9  11
ATOM     11  C   UNL d   1      -1.099   2.347   2.522  0.00  0.00     0.010 C 
ATOM     12  C   UNL d   1       0.085   2.967   3.253  0.00  0.00     0.006 C 
ENDBRANCH   9  11
ENDBRANCH   8   9
ENDBRANCH   1   8
BRANCH   5  13
ATOM     13  C   UNL d   1      -0.764  -2.722  -0.240  0.00  0.00    -0.023 A 
ATOM     14  C   UNL d   1      -1.817  -3.012  -1.117  0.00  0.00     0.014 A 
ATOM     15  C   UNL d   1      -2.481  -4.245  -1.056  0.00  0.00     0.024 A 
ATOM     16  C   UNL d   1      -2.073  -5.214  -0.144  0.00  0.00     0.034 A 
ATOM     17  C   UNL d   1      -1.026  -4.952   0.730  0.00  0.00     0.024 A 
ATOM     18 CL   UNL d   1      -2.869  -6.737  -0.091  0.00  0.00    -0.084 Cl
ATOM     19  C   UNL d   1      -0.396  -3.704   0.700  0.00  0.00     0.014 A 
ENDBRANCH   5  13
BRANCH   3  20
ATOM     20  C   UNL d   1       2.308  -2.365  -0.172  0.00  0.00     0.301 C 
ATOM     21  O   UNL d   1       2.225  -3.362  -0.875  0.00  0.00    -0.259 OA
BRANCH  20  22
ATOM     22  O   UNL d   1       3.337  -2.127   0.694  0.00  0.00    -0.317 OA
BRANCH  22  23
ATOM     23  C   UNL d   1       4.345  -3.154   0.748  0.00  0.00     0.174 C 
ATOM     24  C   UNL d   1       3.949  -4.227   1.747  0.00  0.00     0.034 C 
ENDBRANCH  22  23
ENDBRANCH  20  22
ENDBRANCH   3  20
TORSDOF 7
