REMARK  5 active torsions:
REMARK  status: ('A' for Active; 'I' for Inactive)
REMARK    1  A    between atoms: C_2  and  C_1 
REMARK    2  A    between atoms: O_6  and  C_1 
REMARK    3  A    between atoms: C_5  and  C_2 
REMARK    4  A    between atoms: S_4  and  C_5 
REMARK    5  A    between atoms: C_7  and  S_4 
ROOT
ATOM      1  S   UNL d   1       0.187  -3.903  -0.638  0.00  0.00    -0.130 SA
ENDROOT
BRANCH   1   2
ATOM      2  C   UNL d   1       0.941  -2.533  -1.583  0.00  0.00     0.090 C 
BRANCH   2   3
ATOM      3  C   UNL d   1      -0.045  -1.373  -1.649  0.00  0.00     0.120 C 
BRANCH   3   4
ATOM      4  C   UNL d   1       0.555  -0.210  -2.395  0.00  0.00     0.140 C 
ATOM      5  O   UNL d   1       1.661  -0.200  -2.912  0.00  0.00    -0.650 OA
BRANCH   4   6
ATOM      6  O   UNL d   1      -0.274   0.859  -2.440  0.00  0.00    -0.776 OA
ATOM      7  H   UNL d   1      -1.127   0.719  -1.986  0.00  0.00     0.167 HD
ENDBRANCH   4   6
ENDBRANCH   3   4
ENDBRANCH   2   3
ENDBRANCH   1   2
BRANCH   1   8
ATOM      8  C   UNL d   1       1.418  -5.192  -0.779  0.00  0.00     0.000 A 
ATOM      9  C   UNL d   1       2.794  -4.949  -0.835  0.00  0.00     0.018 A 
ATOM     10  C   UNL d   1       3.701  -6.012  -0.901  0.00  0.00     0.001 A 
ATOM     11  C   UNL d   1       3.243  -7.327  -0.902  0.00  0.00     0.000 A 
ATOM     12  C   UNL d   1       1.875  -7.581  -0.838  0.00  0.00     0.001 A 
ATOM     13  C   UNL d   1       0.969  -6.519  -0.774  0.00  0.00     0.018 A 
ENDBRANCH   1   8
TORSDOF 5
