REMARK  5 active torsions:
REMARK  status: ('A' for Active; 'I' for Inactive)
REMARK    1  A    between atoms: C_3  and  S_1 
REMARK    2  A    between atoms: N_7  and  S_1 
REMARK    3  A    between atoms: C_2  and  C_8 
REMARK    4  A    between atoms: C_6  and  C_9 
REMARK    5  A    between atoms: N_11  and  N_7 
REMARK       I    between atoms: C_8  and  N_11 
ROOT
ATOM      1  C   UNL d   1       0.672   3.889  -0.601  0.00  0.00     0.277 C 
ATOM      2  N   UNL d   1       0.959   2.571  -0.285  0.00  0.00    -0.256 N 
ATOM      3  O   UNL d   1       1.157   4.808   0.064  0.00  0.00    -0.265 OA
ATOM      4  H   UNL d   1       0.574   1.786  -0.807  0.00  0.00     0.191 HD
ENDROOT
BRANCH   1   5
ATOM      5  C   UNL d   1      -0.216   4.114  -1.733  0.00  0.00     0.077 A 
ATOM      6  S   UNL d   1      -0.852   2.841  -2.687  0.00  0.00    -0.083 SA
ATOM      7  C   UNL d   1      -1.695   3.922  -3.724  0.00  0.00     0.033 A 
ATOM      8  C   UNL d   1      -2.499   3.634  -4.839  0.00  0.00     0.038 A 
ATOM      9  C   UNL d   1      -1.497   5.245  -3.334  0.00  0.00     0.050 A 
ATOM     10  C   UNL d   1      -3.073   4.713  -5.521  0.00  0.00     0.064 A 
ATOM     11  C   UNL d   1      -2.817   5.993  -5.055  0.00  0.00     0.104 A 
ATOM     12  N   UNL d   1      -2.053   6.299  -3.987  0.00  0.00    -0.364 N 
ATOM     13  HN  UNL d   1      -1.902   7.263  -3.688  1.00  0.00     0.165 HD
ATOM     14  C   UNL d   1      -0.654   5.342  -2.192  0.00  0.00     0.055 A 
BRANCH  10  15
ATOM     15  C   UNL d   1      -3.945   4.537  -6.727  0.00  0.00     0.418 C 
ATOM     16  F   UNL d   1      -4.124   3.235  -7.083  0.00  0.00    -0.166 F 
ATOM     17  F   UNL d   1      -5.193   5.049  -6.546  0.00  0.00    -0.166 F 
ATOM     18  F   UNL d   1      -3.442   5.159  -7.828  0.00  0.00    -0.166 F 
ENDBRANCH  10  15
ENDBRANCH   1   5
BRANCH   2  19
ATOM     19  N   UNL d   1       1.855   2.296   0.822  0.00  0.00    -0.220 N 
ATOM     20  H   UNL d   1       2.283   3.089   1.310  0.00  0.00     0.200 HD
BRANCH  19  21
ATOM     21  S   UNL d   1       2.245   0.708   1.207  0.00  0.00     0.278 S 
ATOM     22  O   UNL d   1       1.038   0.117   1.751  0.00  0.00    -0.199 OA
ATOM     23  O   UNL d   1       2.897   0.101   0.068  0.00  0.00    -0.199 OA
BRANCH  21  24
ATOM     24  C   UNL d   1       3.423   0.857   2.520  0.00  0.00     0.102 A 
ATOM     25  C   UNL d   1       4.664   1.472   2.331  0.00  0.00     0.059 A 
ATOM     26  C   UNL d   1       5.579   1.527   3.391  0.00  0.00     0.049 A 
ATOM     27 CL   UNL d   1       5.148   2.218   0.853  0.00  0.00    -0.083 Cl
ATOM     28  C   UNL d   1       5.254   0.969   4.627  0.00  0.00     0.035 A 
ATOM     29  C   UNL d   1       4.020   0.354   4.820  0.00  0.00     0.025 A 
ATOM     30 CL   UNL d   1       6.383   1.042   5.922  0.00  0.00    -0.084 Cl
ATOM     31  C   UNL d   1       3.104   0.294   3.768  0.00  0.00     0.029 A 
ENDBRANCH  21  24
ENDBRANCH  19  21
ENDBRANCH   2  19
TORSDOF 5
