REMARK  10 active torsions:
REMARK  status: ('A' for Active; 'I' for Inactive)
REMARK    1  A    between atoms: S_2  and  C_1 
REMARK    2  A    between atoms: C_19  and  S_2 
REMARK    3  A    between atoms: N_5  and  C_3 
REMARK    4  A    between atoms: S_4  and  C_11 
REMARK    5  A    between atoms: C_8  and  S_4 
REMARK       I    between atoms: C_10  and  N_5 
REMARK    6  A    between atoms: C_25  and  C_10 
REMARK    7  A    between atoms: C_11  and  C_26 
REMARK    8  A    between atoms: C_27  and  C_19 
REMARK    9  A    between atoms: S_23  and  C_25 
REMARK   10  A    between atoms: C_26  and  S_23 
ROOT
ATOM      1  N   UNL d   1       3.640  -0.234  -0.949  0.00  0.00    -0.325 N 
ATOM      2  C   UNL d   1       4.031  -0.997   0.145  0.00  0.00     0.231 C 
ATOM      3  O   UNL d   1       3.385  -1.091   1.189  0.00  0.00    -0.272 OA
ATOM      4  H   UNL d   1       3.978  -0.467  -1.883  0.00  0.00     0.169 HD
ENDROOT
BRANCH   2   5
ATOM      5  C   UNL d   1       5.291  -1.816  -0.060  0.00  0.00     0.177 C 
BRANCH   5   6
ATOM      6  S   UNL d   1       6.747  -0.721  -0.093  0.00  0.00    -0.159 SA
BRANCH   6   7
ATOM      7  C   UNL d   1       8.087  -1.962  -0.209  0.00  0.00     0.089 C 
BRANCH   7   8
ATOM      8  C   UNL d   1       7.988  -2.756  -1.497  0.00  0.00     0.156 C 
BRANCH   8   9
ATOM      9  S   UNL d   1       9.393  -3.823  -1.690  0.00  0.00     0.176 S 
ATOM     10  O   UNL d   1      10.560  -3.008  -1.940  0.00  0.00    -0.223 OA
ATOM     11  O   UNL d   1       9.368  -4.794  -0.611  0.00  0.00    -0.223 OA
BRANCH   9  12
ATOM     12  C   UNL d   1       9.020  -4.702  -3.193  0.00  0.00     0.059 A 
ATOM     13  C   UNL d   1       9.468  -4.197  -4.417  0.00  0.00     0.025 A 
ATOM     14  C   UNL d   1       9.221  -4.919  -5.587  0.00  0.00     0.025 A 
ATOM     15  C   UNL d   1       8.539  -6.135  -5.524  0.00  0.00     0.034 A 
ATOM     16  C   UNL d   1       8.090  -6.634  -4.301  0.00  0.00     0.025 A 
ATOM     17 CL   UNL d   1       8.266  -7.036  -6.964  0.00  0.00    -0.084 Cl
ATOM     18  C   UNL d   1       8.333  -5.919  -3.127  0.00  0.00     0.025 A 
ENDBRANCH   9  12
ENDBRANCH   8   9
ENDBRANCH   7   8
ENDBRANCH   6   7
ENDBRANCH   5   6
ENDBRANCH   2   5
BRANCH   1  19
ATOM     19  C   UNL d   1       2.581   0.669  -0.864  0.00  0.00     0.063 A 
ATOM     20  C   UNL d   1       1.606   0.954  -1.876  0.00  0.00     0.092 A 
ATOM     21  C   UNL d   1       0.690   1.901  -1.460  0.00  0.00     0.075 A 
ATOM     22  S   UNL d   1       1.049   2.514   0.093  0.00  0.00    -0.110 SA
ATOM     23  C   UNL d   1       2.395   1.478   0.243  0.00  0.00     0.080 A 
BRANCH  20  24
ATOM     24  S   UNL d   1       1.538   0.242  -3.454  0.00  0.00     0.178 S 
ATOM     25  O   UNL d   1       0.909   1.249  -4.276  0.00  0.00    -0.223 OA
ATOM     26  O   UNL d   1       2.903  -0.202  -3.685  0.00  0.00    -0.223 OA
BRANCH  24  27
ATOM     27  C   UNL d   1       0.475  -1.200  -3.365  0.00  0.00     0.145 C 
BRANCH  27  28
ATOM     28  C   UNL d   1       0.344  -1.802  -4.770  0.00  0.00     0.011 C 
ATOM     29  C   UNL d   1      -0.487  -3.071  -4.838  0.00  0.00     0.006 C 
ENDBRANCH  27  28
ENDBRANCH  24  27
ENDBRANCH  20  24
ENDBRANCH   1  19
TORSDOF 10
