REMARK  3 active torsions:
REMARK  status: ('A' for Active; 'I' for Inactive)
REMARK    1  A    between atoms: C_3  and  C_1 
REMARK    2  A    between atoms: C_2  and  C_3 
REMARK    3  A    between atoms: C_8  and  C_5 
ROOT
ATOM      1  C   UNL d   1       0.868   0.073  -0.105  0.00  0.00     0.098 C 
ATOM      2  C   UNL d   1       0.222  -0.737   0.763  0.00  0.00     0.045 C 
ATOM      3  C   UNL d   1       0.188   1.019  -0.915  0.00  0.00     0.103 C 
ATOM      4  N   UNL d   1      -0.389   1.768  -1.592  0.00  0.00    -0.191 NA
ENDROOT
BRANCH   1   5
ATOM      5  C   UNL d   1       2.371  -0.007  -0.146  0.00  0.00     0.219 C 
ATOM      6  O   UNL d   1       2.953  -0.290   0.902  0.00  0.00    -0.284 OA
BRANCH   5   7
ATOM      7  C   UNL d   1       3.095   0.228  -1.407  0.00  0.00     0.086 A 
ATOM      8  N   UNL d   1       4.478   0.229  -1.559  0.00  0.00    -0.358 N 
ATOM      9  C   UNL d   1       4.816   0.584  -2.845  0.00  0.00     0.091 A 
ATOM     10  C   UNL d   1       5.498  -0.093  -0.582  0.00  0.00     0.156 C 
ATOM     11  C   UNL d   1       3.664   0.725  -3.571  0.00  0.00     0.020 A 
ATOM     12  C   UNL d   1       2.595   0.457  -2.689  0.00  0.00     0.035 A 
ENDBRANCH   5   7
ENDBRANCH   1   5
BRANCH   2  13
ATOM     13  C   UNL d   1      -1.203  -0.822   0.831  0.00  0.00     0.006 A 
ATOM     14  S   UNL d   1      -1.998  -0.839   2.357  0.00  0.00    -0.102 SA
ATOM     15  C   UNL d   1      -3.549  -0.889   1.637  0.00  0.00     0.050 A 
ATOM     16  C   UNL d   1      -3.477  -0.942   0.265  0.00  0.00     0.008 A 
ATOM     17  C   UNL d   1      -2.131  -0.932  -0.194  0.00  0.00     0.019 A 
ENDBRANCH   2  13
TORSDOF 3
