REMARK  1 active torsions:
REMARK  status: ('A' for Active; 'I' for Inactive)
REMARK    1  A    between atoms: C_7  and  C_1 
ROOT
ATOM      1  C   UNL d   1      -2.021  -0.860  -0.034  0.00  0.00     0.085 A 
ATOM      2  N   UNL d   1      -0.948  -1.623   0.022  0.00  0.00    -0.349 N 
ATOM      3  HN  UNL d   1      -0.959  -2.642   0.063  1.00  0.00     0.166 HD
ATOM      4  S   UNL d   1      -1.710   0.833  -0.009  0.00  0.00    -0.070 SA
ATOM      5  C   UNL d   1       0.197  -0.844   0.018  0.00  0.00     0.050 A 
ATOM      6  C   UNL d   1      -0.018   0.534   0.003  0.00  0.00     0.033 A 
ATOM      7  C   UNL d   1       1.523  -1.321   0.022  0.00  0.00     0.031 A 
ATOM      8  C   UNL d   1       1.043   1.455  -0.003  0.00  0.00     0.021 A 
ATOM      9  C   UNL d   1       2.349   0.956  -0.002  0.00  0.00     0.002 A 
ATOM     10  C   UNL d   1       2.589  -0.414   0.009  0.00  0.00     0.002 A 
ENDROOT
BRANCH   1  11
ATOM     11  C   UNL d   1      -3.399  -1.379  -0.074  0.00  0.00    -0.002 A 
ATOM     12  C   UNL d   1      -3.693  -2.600   0.556  0.00  0.00     0.016 A 
ATOM     13  C   UNL d   1      -4.988  -3.130   0.531  0.00  0.00     0.024 A 
ATOM     14  C   UNL d   1      -6.000  -2.446  -0.135  0.00  0.00     0.034 A 
ATOM     15  C   UNL d   1      -5.729  -1.242  -0.779  0.00  0.00     0.024 A 
ATOM     16 CL   UNL d   1      -7.594  -3.093  -0.171  0.00  0.00    -0.084 Cl
ATOM     17  C   UNL d   1      -4.434  -0.712  -0.750  0.00  0.00     0.016 A 
ENDBRANCH   1  11
TORSDOF 1
