REMARK  7 active torsions:
REMARK  status: ('A' for Active; 'I' for Inactive)
REMARK    1  A    between atoms: O_5  and  S_1 
REMARK    2  A    between atoms: C_7  and  S_1 
REMARK    3  A    between atoms: C_4  and  C_2 
REMARK    4  A    between atoms: C_3  and  N_6 
REMARK    5  A    between atoms: O_18  and  C_4 
REMARK    6  A    between atoms: C_17  and  O_5 
REMARK    7  A    between atoms: N_6  and  C_15 
ROOT
ATOM      1  C   UNL d   1       1.846  -3.746   3.535  0.00  0.00     0.012 A 
ATOM      2  C   UNL d   1       0.811  -1.469   2.239  0.00  0.00     0.089 A 
ATOM      3  C   UNL d   1       0.479  -3.458   3.579  0.00  0.00     0.026 A 
ATOM      4  C   UNL d   1       2.682  -2.905   2.788  0.00  0.00     0.026 A 
ATOM      5  C   UNL d   1      -0.036  -2.320   2.949  0.00  0.00     0.040 A 
ATOM      6  C   UNL d   1       2.168  -1.775   2.144  0.00  0.00     0.040 A 
ENDROOT
BRANCH   1   7
ATOM      7  N   UNL d   1       2.296  -4.986   4.077  0.00  0.00    -0.262 NA
ATOM      8  H   UNL d   1       2.217  -5.651   3.296  0.00  0.00     0.133 HD
BRANCH   7   9
ATOM      9  C   UNL d   1       3.570  -5.086   4.628  0.00  0.00     0.012 C 
ATOM     10  C   UNL d   1       4.678  -5.608   4.067  0.00  0.00     0.044 C 
ATOM     11  C   UNL d   1       5.936  -5.555   4.866  0.00  0.00     0.120 C 
ATOM     12  S   UNL d   1       5.443  -5.032   6.531  0.00  0.00    -0.159 SA
ATOM     13  C   UNL d   1       3.753  -4.582   6.041  0.00  0.00     0.126 C 
BRANCH  10  14
ATOM     14  C   UNL d   1       4.807  -6.160   2.704  0.00  0.00     0.291 C 
ATOM     15  O   UNL d   1       5.887  -6.323   2.155  0.00  0.00    -0.260 OA
BRANCH  14  16
ATOM     16  O   UNL d   1       3.595  -6.465   2.172  0.00  0.00    -0.323 OA
ATOM     17  C   UNL d   1       3.663  -6.997   0.848  0.00  0.00     0.213 C 
ENDBRANCH  14  16
ENDBRANCH  10  14
ENDBRANCH   7   9
ENDBRANCH   1   7
BRANCH   2  18
ATOM     18  O   UNL d   1       0.398  -0.351   1.559  0.00  0.00    -0.229 OA
BRANCH  18  19
ATOM     19  S   UNL d   1      -0.881   0.524   2.076  0.00  0.00     0.303 S 
ATOM     20  O   UNL d   1      -0.579   1.053   3.391  0.00  0.00    -0.193 OA
ATOM     21  O   UNL d   1      -2.107  -0.208   1.816  0.00  0.00    -0.193 OA
BRANCH  19  22
ATOM     22  C   UNL d   1      -0.930   1.917   0.962  0.00  0.00     0.086 A 
ATOM     23  C   UNL d   1      -0.631   1.736  -0.392  0.00  0.00     0.027 A 
ATOM     24  C   UNL d   1      -0.701   2.829  -1.259  0.00  0.00     0.025 A 
ATOM     25  C   UNL d   1      -1.064   4.085  -0.768  0.00  0.00     0.034 A 
ATOM     26  C   UNL d   1      -1.355   4.263   0.585  0.00  0.00     0.025 A 
ATOM     27 CL   UNL d   1      -1.159   5.426  -1.842  0.00  0.00    -0.084 Cl
ATOM     28  C   UNL d   1      -1.287   3.176   1.458  0.00  0.00     0.027 A 
ENDBRANCH  19  22
ENDBRANCH  18  19
ENDBRANCH   2  18
TORSDOF 7
