REMARK  2 active torsions:
REMARK  status: ('A' for Active; 'I' for Inactive)
REMARK    1  A    between atoms: C_11  and  N_3 
REMARK    2  A    between atoms: C_12  and  C_6 
ROOT
ATOM      1  C   UNL d   1       0.158  -0.603   0.004  0.00  0.00     0.186 A 
ATOM      2  C   UNL d   1       0.153   0.774  -0.015  0.00  0.00     0.052 A 
ATOM      3  N   UNL d   1       1.471  -0.999   0.141  0.00  0.00    -0.233 N 
ATOM      4  N   UNL d   1       2.282   0.073   0.344  0.00  0.00    -0.290 N 
ATOM      5  HN  UNL d   1       3.275   0.057   0.578  1.00  0.00     0.187 HD
ATOM      6  C   UNL d   1       1.506   1.161   0.174  0.00  0.00     0.074 A 
ATOM      7  C   UNL d   1      -1.119   1.381  -0.232  0.00  0.00    -0.039 A 
ATOM      8  O   UNL d   1      -0.871  -1.435  -0.072  0.00  0.00    -0.255 OA
ATOM      9  C   UNL d   1      -2.104  -0.884  -0.210  0.00  0.00     0.290 A 
ATOM     10  C   UNL d   1      -2.207   0.591  -0.321  0.00  0.00     0.090 A 
ATOM     11  O   UNL d   1      -3.123  -1.568  -0.266  0.00  0.00    -0.260 OA
ATOM     12  C   UNL d   1      -1.221   2.860  -0.412  0.00  0.00     0.049 C 
ENDROOT
BRANCH   3  13
ATOM     13  C   UNL d   1       2.018  -2.312   0.057  0.00  0.00     0.059 A 
ATOM     14  C   UNL d   1       1.326  -3.345  -0.592  0.00  0.00     0.031 A 
ATOM     15  C   UNL d   1       1.884  -4.623  -0.671  0.00  0.00     0.002 A 
ATOM     16  C   UNL d   1       3.124  -4.884  -0.092  0.00  0.00     0.000 A 
ATOM     17  C   UNL d   1       3.821  -3.860   0.550  0.00  0.00     0.002 A 
ATOM     18  C   UNL d   1       3.280  -2.573   0.611  0.00  0.00     0.031 A 
ENDBRANCH   3  13
BRANCH   6  19
ATOM     19  C   UNL d   1       2.134   2.484   0.168  0.00  0.00    -0.007 A 
ATOM     20  C   UNL d   1       1.629   3.550   0.920  0.00  0.00     0.014 A 
ATOM     21  C   UNL d   1       2.200   4.823   0.820  0.00  0.00     0.001 A 
ATOM     22  C   UNL d   1       3.312   5.030   0.005  0.00  0.00     0.000 A 
ATOM     23  C   UNL d   1       3.865   3.963  -0.698  0.00  0.00     0.001 A 
ATOM     24  C   UNL d   1       3.278   2.698  -0.618  0.00  0.00     0.014 A 
ENDBRANCH   6  19
TORSDOF 2
