REMARK  3 active torsions:
REMARK  status: ('A' for Active; 'I' for Inactive)
REMARK    1  A    between atoms: C_7  and  C_1 
REMARK    2  A    between atoms: C_9  and  C_5 
REMARK       I    between atoms: N_8  and  C_7 
REMARK    3  A    between atoms: C_11  and  N_8 
ROOT
ATOM      1  C   UNL d   1      -0.222  -1.079  -0.238  0.00  0.00     0.097 A 
ATOM      2  S   UNL d   1       1.298  -0.315  -0.434  0.00  0.00    -0.064 SA
ATOM      3  N   UNL d   1      -0.734   1.190  -0.016  0.00  0.00    -0.352 N 
ATOM      4  HN  UNL d   1      -1.324   2.009   0.127  1.00  0.00     0.166 HD
ATOM      5  C   UNL d   1       0.570   1.233  -0.206  0.00  0.00     0.085 A 
ATOM      6  C   UNL d   1      -1.197  -0.114  -0.035  0.00  0.00     0.029 A 
ATOM      7  C   UNL d   1      -2.655  -0.343   0.168  0.00  0.00     0.070 C 
ENDROOT
BRANCH   1   8
ATOM      8  C   UNL d   1      -0.416  -2.524  -0.258  0.00  0.00     0.265 C 
ATOM      9  N   UNL d   1       0.701  -3.287  -0.570  0.00  0.00    -0.322 N 
ATOM     10  H   UNL d   1       1.571  -2.784  -0.688  0.00  0.00     0.169 HD
ATOM     11  O   UNL d   1      -1.512  -3.007   0.019  0.00  0.00    -0.267 OA
BRANCH   9  12
ATOM     12  C   UNL d   1       0.773  -4.700  -0.571  0.00  0.00     0.035 A 
ATOM     13  C   UNL d   1      -0.348  -5.530  -0.508  0.00  0.00     0.030 A 
ATOM     14  C   UNL d   1      -0.211  -6.915  -0.389  0.00  0.00     0.009 A 
ATOM     15  C   UNL d   1       1.055  -7.501  -0.343  0.00  0.00    -0.062 A 
ATOM     16  C   UNL d   1       2.180  -6.682  -0.474  0.00  0.00     0.009 A 
ATOM     17  C   UNL d   1       1.177  -8.975  -0.099  0.00  0.00     0.048 C 
ATOM     18  C   UNL d   1       2.041  -5.293  -0.601  0.00  0.00     0.030 A 
ENDBRANCH   9  12
ENDBRANCH   1   8
BRANCH   5  19
ATOM     19  C   UNL d   1       1.349   2.489  -0.200  0.00  0.00    -0.002 A 
ATOM     20  C   UNL d   1       2.681   2.581  -0.636  0.00  0.00     0.014 A 
ATOM     21  C   UNL d   1       3.364   3.802  -0.612  0.00  0.00     0.001 A 
ATOM     22  C   UNL d   1       2.729   4.954  -0.153  0.00  0.00     0.000 A 
ATOM     23  C   UNL d   1       1.409   4.888   0.281  0.00  0.00     0.001 A 
ATOM     24  C   UNL d   1       0.728   3.668   0.256  0.00  0.00     0.014 A 
ENDBRANCH   5  19
TORSDOF 3
