REMARK  7 active torsions:
REMARK  status: ('A' for Active; 'I' for Inactive)
REMARK    1  A    between atoms: C_2  and  S_1 
REMARK    2  A    between atoms: O_9  and  S_1 
REMARK    3  A    between atoms: C_17  and  N_15 
REMARK    4  A    between atoms: S_16  and  C_20 
REMARK    5  A    between atoms: N_21  and  S_16 
REMARK    6  A    between atoms: O_29  and  C_24 
REMARK    7  A    between atoms: C_32  and  O_29 
ROOT
ATOM      1  C   UNL d   1       1.030   0.040   2.242  0.00  0.00     0.084 C 
ATOM      2  C   UNL d   1       0.453   1.183   2.847  0.00  0.00    -0.038 C 
ATOM      3  C   UNL d   1       0.698  -1.250   2.712  0.00  0.00    -0.038 C 
ATOM      4  C   UNL d   1      -0.029  -1.357   3.914  0.00  0.00     0.015 C 
ATOM      5  C   UNL d   1      -0.271   1.029   4.041  0.00  0.00     0.015 C 
ATOM      6  C   UNL d   1      -0.470  -0.230   4.608  0.00  0.00    -0.061 C 
ATOM      7  C   UNL d   1       0.576   2.583   2.304  0.00  0.00     0.050 C 
ATOM      8  C   UNL d   1       1.053  -2.549   2.044  0.00  0.00     0.050 C 
ATOM      9  C   UNL d   1      -1.127  -0.356   5.949  0.00  0.00     0.048 C 
ENDROOT
BRANCH   1  10
ATOM     10  S   UNL d   1       2.292   0.307   1.003  0.00  0.00     0.130 S 
ATOM     11  O   UNL d   1       3.253   1.244   1.538  0.00  0.00    -0.598 OA
ATOM     12  O   UNL d   1       1.630   0.549  -0.262  0.00  0.00    -0.598 OA
BRANCH  10  13
ATOM     13  O   UNL d   1       3.128  -1.060   0.836  0.00  0.00    -0.292 OA
ATOM     14  H   UNL d   1       4.011  -0.822   0.485  0.00  0.00     0.232 HD
ENDBRANCH  10  13
ENDBRANCH   1  10
TORSDOF 7
