REMARK  14 active torsions:
REMARK  status: ('A' for Active; 'I' for Inactive)
REMARK    1  A    between atoms: N_2  and  C_1 
REMARK    2  A    between atoms: C_4  and  C_1 
REMARK    3  A    between atoms: C_5  and  C_1 
REMARK    4  A    between atoms: N_7  and  C_1 
REMARK       I    between atoms: C_6  and  N_2 
REMARK    5  A    between atoms: C_3  and  C_9 
REMARK    6  A    between atoms: C_8  and  C_3 
REMARK    7  A    between atoms: C_11  and  C_3 
REMARK    8  A    between atoms: O_29  and  C_3 
REMARK    9  A    between atoms: C_10  and  C_6 
REMARK   10  A    between atoms: C_12  and  N_7 
REMARK   11  A    between atoms: O_30  and  C_11 
REMARK   12  A    between atoms: O_32  and  C_16 
REMARK   13  A    between atoms: C_35  and  O_30 
REMARK   14  A    between atoms: C_36  and  O_32 
ROOT
ATOM      1  C   UNL d   1       1.060   0.394  -0.110  0.00  0.00     0.306 C 
ENDROOT
BRANCH   1   2
ATOM      2  N   UNL d   1       0.275   0.303   1.138  0.00  0.00    -0.315 N 
ATOM      3  C   UNL d   1      -1.101   0.448   1.133  0.00  0.00     0.256 C 
ATOM      4  O   UNL d   1      -1.683   0.710   0.090  0.00  0.00    -0.267 OA
ATOM      5  H   UNL d   1       0.797   0.024   1.955  0.00  0.00     0.165 HD
BRANCH   3   6
ATOM      6  C   UNL d   1      -1.824   0.263   2.435  0.00  0.00     0.065 A 
ATOM      7  C   UNL d   1      -3.028   0.945   2.720  0.00  0.00     0.084 A 
ATOM      8  C   UNL d   1      -3.600   0.814   3.991  0.00  0.00     0.038 A 
ATOM      9  C   UNL d   1      -3.038  -0.038   4.944  0.00  0.00     0.003 A 
ATOM     10  C   UNL d   1      -1.901  -0.774   4.637  0.00  0.00     0.001 A 
ATOM     11  C   UNL d   1      -1.288  -0.618   3.393  0.00  0.00     0.020 A 
BRANCH   7  12
ATOM     12  O   UNL d   1      -3.638   1.631   1.705  0.00  0.00    -0.350 OA
BRANCH  12  13
ATOM     13  C   UNL d   1      -4.510   2.727   1.978  0.00  0.00     0.171 C 
ATOM     14  C   UNL d   1      -5.960   2.319   2.207  0.00  0.00     0.034 C 
ENDBRANCH  12  13
ENDBRANCH   7  12
ENDBRANCH   3   6
ENDBRANCH   1   2
BRANCH   1  15
ATOM     15  C   UNL d   1       1.078   1.824  -0.775  0.00  0.00     0.441 C 
ATOM     16  F   UNL d   1      -0.094   2.477  -0.824  0.00  0.00    -0.166 F 
ATOM     17  F   UNL d   1       1.922   2.628  -0.047  0.00  0.00    -0.166 F 
ATOM     18  F   UNL d   1       1.605   1.808  -2.023  0.00  0.00    -0.166 F 
ENDBRANCH   1  15
BRANCH   1  19
ATOM     19  C   UNL d   1       0.561  -0.530  -1.260  0.00  0.00     0.441 C 
ATOM     20  F   UNL d   1      -0.119  -1.606  -0.777  0.00  0.00    -0.166 F 
ATOM     21  F   UNL d   1      -0.250   0.084  -2.149  0.00  0.00    -0.166 F 
ATOM     22  F   UNL d   1       1.595  -1.041  -1.978  0.00  0.00    -0.166 F 
ENDBRANCH   1  19
BRANCH   1  23
ATOM     23  N   UNL d   1       2.454   0.165   0.423  0.00  0.00    -0.348 N 
ATOM     24  H   UNL d   1       2.970   1.046   0.386  0.00  0.00     0.162 HD
BRANCH  23  25
ATOM     25  C   UNL d   1       3.256  -0.901   0.746  0.00  0.00     0.036 A 
ATOM     26  C   UNL d   1       4.522  -0.635   1.334  0.00  0.00    -0.035 A 
ATOM     27  C   UNL d   1       5.356  -1.682   1.772  0.00  0.00     0.020 A 
ATOM     28  C   UNL d   1       5.035   0.774   1.523  0.00  0.00     0.050 C 
ATOM     29  C   UNL d   1       4.979  -3.028   1.668  0.00  0.00    -0.004 A 
ATOM     30  C   UNL d   1       3.745  -3.285   1.044  0.00  0.00     0.013 A 
ATOM     31  C   UNL d   1       2.896  -2.241   0.613  0.00  0.00     0.030 A 
BRANCH  29  32
ATOM     32  C   UNL d   1       5.866  -4.134   2.263  0.00  0.00     0.271 C 
BRANCH  32  33
ATOM     33  C   UNL d   1       5.083  -5.152   3.120  0.00  0.00     0.432 C 
ATOM     34  F   UNL d   1       3.984  -4.618   3.708  0.00  0.00    -0.167 F 
ATOM     35  F   UNL d   1       4.673  -6.243   2.434  0.00  0.00    -0.167 F 
ATOM     36  F   UNL d   1       5.873  -5.600   4.134  0.00  0.00    -0.167 F 
ENDBRANCH  32  33
BRANCH  32  37
ATOM     37  C   UNL d   1       6.538  -4.996   1.196  0.00  0.00     0.308 C 
ATOM     38  O   UNL d   1       6.223  -5.068   0.023  0.00  0.00    -0.261 OA
BRANCH  37  39
ATOM     39  O   UNL d   1       7.550  -5.754   1.758  0.00  0.00    -0.319 OA
BRANCH  39  40
ATOM     40  C   UNL d   1       8.194  -6.698   0.890  0.00  0.00     0.174 C 
ATOM     41  C   UNL d   1       7.390  -7.984   0.815  0.00  0.00     0.034 C 
ENDBRANCH  39  40
ENDBRANCH  37  39
ENDBRANCH  32  37
BRANCH  32  42
ATOM     42  O   UNL d   1       6.904  -3.506   3.068  0.00  0.00    -0.368 OA
ATOM     43  H   UNL d   1       7.318  -4.226   3.592  0.00  0.00     0.212 HD
ENDBRANCH  32  42
ENDBRANCH  29  32
ENDBRANCH  23  25
ENDBRANCH   1  23
TORSDOF 14
