REMARK  3 active torsions:
REMARK  status: ('A' for Active; 'I' for Inactive)
REMARK    1  A    between atoms: C_9  and  C_3 
REMARK    2  A    between atoms: C_11  and  C_7 
REMARK       I    between atoms: N_10  and  C_9 
REMARK    3  A    between atoms: C_13  and  N_10 
ROOT
ATOM      1  C   UNL d   1       0.088  -1.008  -0.022  0.00  0.00     0.030 A 
ATOM      2  C   UNL d   1      -0.105   0.330   0.129  0.00  0.00     0.024 A 
ATOM      3  C   UNL d   1      -2.236  -0.945   0.107  0.00  0.00     0.081 A 
ATOM      4  C   UNL d   1      -1.123  -1.768  -0.014  0.00  0.00    -0.021 A 
ATOM      5  S   UNL d   1      -1.805   0.721   0.230  0.00  0.00    -0.083 SA
ATOM      6  S   UNL d   1       1.774  -1.408  -0.180  0.00  0.00    -0.092 SA
ATOM      7  C   UNL d   1       2.232   0.238   0.043  0.00  0.00    -0.008 A 
ATOM      8  C   UNL d   1       1.124   1.066   0.168  0.00  0.00     0.035 A 
ATOM      9  C   UNL d   1      -1.036  -3.251  -0.126  0.00  0.00     0.051 C 
ENDROOT
BRANCH   3  10
ATOM     10  C   UNL d   1      -3.640  -1.386   0.150  0.00  0.00     0.263 C 
ATOM     11  N   UNL d   1      -4.611  -0.396   0.234  0.00  0.00    -0.323 N 
ATOM     12  H   UNL d   1      -4.288   0.558   0.128  0.00  0.00     0.169 HD
ATOM     13  O   UNL d   1      -3.925  -2.580   0.088  0.00  0.00    -0.267 OA
BRANCH  11  14
ATOM     14  C   UNL d   1      -6.005  -0.605   0.376  0.00  0.00     0.035 A 
ATOM     15  C   UNL d   1      -6.571  -1.848   0.696  0.00  0.00     0.032 A 
ATOM     16  C   UNL d   1      -7.954  -2.001   0.820  0.00  0.00     0.044 A 
ATOM     17  C   UNL d   1      -8.781  -0.905   0.629  0.00  0.00     0.116 A 
ATOM     18  C   UNL d   1      -8.246   0.340   0.323  0.00  0.00     0.044 A 
ATOM     19  F   UNL d   1     -10.107  -1.050   0.745  0.00  0.00    -0.206 F 
ATOM     20  C   UNL d   1      -6.858   0.493   0.204  0.00  0.00     0.032 A 
ENDBRANCH  11  14
ENDBRANCH   3  10
BRANCH   7  21
ATOM     21  C   UNL d   1       3.724   0.628   0.013  0.00  0.00    -0.018 C 
ATOM     22  C   UNL d   1       4.129   0.951  -1.438  0.00  0.00     0.020 C 
ATOM     23  C   UNL d   1       3.983   1.869   0.891  0.00  0.00     0.020 C 
ATOM     24  C   UNL d   1       4.644  -0.496   0.545  0.00  0.00     0.020 C 
ENDBRANCH   7  21
TORSDOF 3
