REMARK  1 active torsions:
REMARK  status: ('A' for Active; 'I' for Inactive)
REMARK    1  A    between atoms: C_11  and  C_1 
ROOT
ATOM      1  C   UNL d   1      -2.394   0.620  -0.435  0.00  0.00     0.275 C 
ATOM      2  C   UNL d   1      -2.374  -0.787   0.226  0.00  0.00     0.275 C 
ATOM      3  C   UNL d   1      -1.193   1.429   0.075  0.00  0.00     0.215 C 
ATOM      4  C   UNL d   1       0.092   0.697   0.178  0.00  0.00     0.043 A 
ATOM      5  N   UNL d   1      -1.141  -1.384   0.356  0.00  0.00    -0.323 N 
ATOM      6  C   UNL d   1       0.070  -0.698   0.235  0.00  0.00     0.050 A 
ATOM      7  C   UNL d   1       1.306   1.389   0.153  0.00  0.00     0.043 A 
ATOM      8  C   UNL d   1       1.266  -1.413   0.209  0.00  0.00     0.056 A 
ATOM      9  C   UNL d   1       2.506   0.675   0.123  0.00  0.00     0.056 A 
ATOM     10  C   UNL d   1       2.485  -0.727   0.131  0.00  0.00     0.058 A 
ATOM     11  O   UNL d   1      -3.383  -1.424   0.531  0.00  0.00    -0.269 OA
ATOM     12  O   UNL d   1      -1.207   2.635   0.297  0.00  0.00    -0.288 OA
ATOM     13  F   UNL d   1      -3.556   1.270  -0.094  0.00  0.00    -0.218 F 
ATOM     14 CL   UNL d   1       3.975   1.578   0.051  0.00  0.00    -0.083 Cl
ATOM     15 CL   UNL d   1       3.927  -1.672   0.027  0.00  0.00    -0.082 Cl
ATOM     16  H   UNL d   1      -1.157  -2.369   0.601  0.00  0.00     0.169 HD
ENDROOT
BRANCH   1  17
ATOM     17  C   UNL d   1      -2.349   0.396  -1.967  0.00  0.00    -0.001 A 
ATOM     18  C   UNL d   1      -3.378  -0.361  -2.559  0.00  0.00     0.011 A 
ATOM     19  C   UNL d   1      -3.304  -0.751  -3.897  0.00  0.00     0.001 A 
ATOM     20  C   UNL d   1      -2.212  -0.373  -4.673  0.00  0.00     0.000 A 
ATOM     21  C   UNL d   1      -1.219   0.432  -4.126  0.00  0.00     0.001 A 
ATOM     22  C   UNL d   1      -1.294   0.831  -2.789  0.00  0.00     0.011 A 
ENDBRANCH   1  17
TORSDOF 1
