REMARK  6 active torsions:
REMARK  status: ('A' for Active; 'I' for Inactive)
REMARK    1  A    between atoms: C_8  and  C_1 
REMARK       I    between atoms: C_6  and  N_9 
REMARK    2  A    between atoms: C_15  and  C_6 
REMARK    3  A    between atoms: C_7  and  C_16 
REMARK    4  A    between atoms: O_17  and  C_7 
REMARK    5  A    between atoms: N_9  and  C_8 
REMARK    6  A    between atoms: C_16  and  C_15 
ROOT
ATOM      1  C   UNL d   1       2.157  -2.501  -0.015  0.00  0.00     0.162 C 
ENDROOT
BRANCH   1   2
ATOM      2  C   UNL d   1       1.746  -1.060   0.021  0.00  0.00    -0.022 A 
ATOM      3  C   UNL d   1       1.500  -0.278   1.219  0.00  0.00    -0.009 A 
ATOM      4  C   UNL d   1       1.085   1.022   0.910  0.00  0.00     0.015 A 
ATOM      5  C   UNL d   1       1.602  -0.625   2.592  0.00  0.00     0.037 A 
ATOM      6  C   UNL d   1       0.770   1.964   1.912  0.00  0.00     0.021 A 
ATOM      7  S   UNL d   1       1.017   1.278  -0.789  0.00  0.00    -0.101 SA
ATOM      8  C   UNL d   1       0.881   1.591   3.253  0.00  0.00     0.025 A 
ATOM      9  C   UNL d   1       1.294   0.310   3.584  0.00  0.00     0.035 A 
ATOM     10 CL   UNL d   1       1.430  -0.139   5.241  0.00  0.00    -0.084 Cl
ATOM     11  C   UNL d   1       1.522  -0.310  -1.120  0.00  0.00     0.060 A 
ENDBRANCH   1   2
BRANCH   1  12
ATOM     12  N   UNL d   1       3.599  -2.598  -0.007  0.00  0.00    -0.357 N 
ATOM     13  C   UNL d   1       4.336  -2.617  -1.167  0.00  0.00     0.218 C 
ATOM     14  O   UNL d   1       3.842  -2.571  -2.290  0.00  0.00    -0.274 OA
ATOM     15  H   UNL d   1       4.074  -2.548   0.884  0.00  0.00     0.162 HD
BRANCH  13  16
ATOM     16  C   UNL d   1       5.824  -2.764  -0.937  0.00  0.00     0.113 C 
BRANCH  16  17
ATOM     17  C   UNL d   1       6.617  -2.167  -2.094  0.00  0.00     0.119 C 
BRANCH  17  18
ATOM     18  C   UNL d   1       8.097  -2.287  -1.858  0.00  0.00     0.139 C 
ATOM     19  O   UNL d   1       8.615  -2.813  -0.884  0.00  0.00    -0.650 OA
BRANCH  18  20
ATOM     20  O   UNL d   1       8.825  -1.736  -2.857  0.00  0.00    -0.776 OA
ATOM     21  H   UNL d   1       8.284  -1.355  -3.574  0.00  0.00     0.167 HD
ENDBRANCH  18  20
ENDBRANCH  17  18
ENDBRANCH  16  17
ENDBRANCH  13  16
ENDBRANCH   1  12
TORSDOF 6
