REMARK  5 active torsions:
REMARK  status: ('A' for Active; 'I' for Inactive)
REMARK    1  A    between atoms: C_8  and  C_1 
REMARK    2  A    between atoms: C_14  and  C_7 
REMARK    3  A    between atoms: C_9  and  C_13 
REMARK       I    between atoms: C_10  and  N_11 
REMARK    4  A    between atoms: C_15  and  C_10 
REMARK    5  A    between atoms: N_11  and  C_12 
ROOT
ATOM      1  C   UNL d   1      -0.281  -2.861   0.230  0.00  0.00     0.043 A 
ATOM      2  C   UNL d   1      -1.304  -2.957  -0.729  0.00  0.00     0.049 A 
ATOM      3  C   UNL d   1       0.019  -4.039   0.982  0.00  0.00     0.018 A 
ATOM      4  C   UNL d   1      -1.902  -4.231  -0.943  0.00  0.00     0.030 A 
ATOM      5  C   UNL d   1      -0.605  -5.267   0.773  0.00  0.00     0.001 A 
ATOM      6  C   UNL d   1      -1.558  -5.367  -0.215  0.00  0.00     0.002 A 
ENDROOT
BRANCH   1   7
ATOM      7  C   UNL d   1       0.499  -1.693   0.647  0.00  0.00     0.177 A 
ATOM      8  O   UNL d   1       1.805  -1.996   0.986  0.00  0.00    -0.273 OA
ATOM      9  C   UNL d   1       2.184  -0.916   1.732  0.00  0.00     0.174 A 
ATOM     10  N   UNL d   1       1.257   0.018   1.759  0.00  0.00    -0.277 N 
ATOM     11  N   UNL d   1       0.150  -0.501   1.091  0.00  0.00    -0.277 N 
ATOM     12  HN  UNL d   1       1.333   0.942   2.186  1.00  0.00     0.189 HD
ATOM     13  HN  UNL d   1      -0.756  -0.048   0.968  1.00  0.00     0.189 HD
BRANCH   9  14
ATOM     14  C   UNL d   1       3.433  -1.048   2.493  0.00  0.00     0.017 A 
ATOM     15  C   UNL d   1       4.101  -2.283   2.604  0.00  0.00     0.017 A 
ATOM     16  C   UNL d   1       5.226  -2.422   3.429  0.00  0.00     0.025 A 
ATOM     17  C   UNL d   1       5.702  -1.326   4.143  0.00  0.00     0.034 A 
ATOM     18  C   UNL d   1       5.067  -0.091   4.029  0.00  0.00     0.025 A 
ATOM     19 CL   UNL d   1       7.062  -1.504   5.179  0.00  0.00    -0.084 Cl
ATOM     20  C   UNL d   1       3.938   0.043   3.213  0.00  0.00     0.017 A 
ENDBRANCH   9  14
ENDBRANCH   1   7
BRANCH   2  21
ATOM     21  N   UNL d   1      -1.925  -1.972  -1.536  0.00  0.00    -0.322 N 
ATOM     22  C   UNL d   1      -1.623  -0.667  -1.847  0.00  0.00     0.256 C 
ATOM     23  O   UNL d   1      -0.601  -0.062  -1.570  0.00  0.00    -0.267 OA
ATOM     24  H   UNL d   1      -2.792  -2.297  -1.937  0.00  0.00     0.169 HD
BRANCH  22  25
ATOM     25  C   UNL d   1      -2.710   0.026  -2.636  0.00  0.00     0.032 A 
ATOM     26  C   UNL d   1      -3.530  -0.661  -3.551  0.00  0.00     0.018 A 
ATOM     27  C   UNL d   1      -4.590  -0.011  -4.196  0.00  0.00     0.017 A 
ATOM     28  C   UNL d   1      -4.838   1.349  -3.968  0.00  0.00     0.048 A 
ATOM     29  C   UNL d   1      -3.993   2.045  -3.084  0.00  0.00     0.017 A 
ATOM     30  C   UNL d   1      -2.941   1.391  -2.429  0.00  0.00     0.018 A 
BRANCH  28  31
ATOM     31  C   UNL d   1      -5.995   2.050  -4.645  0.00  0.00     0.417 C 
ATOM     32  F   UNL d   1      -6.604   1.291  -5.598  0.00  0.00    -0.166 F 
ATOM     33  F   UNL d   1      -6.976   2.398  -3.767  0.00  0.00    -0.166 F 
ATOM     34  F   UNL d   1      -5.623   3.201  -5.269  0.00  0.00    -0.166 F 
ENDBRANCH  28  31
ENDBRANCH  22  25
ENDBRANCH   2  21
TORSDOF 5
