REMARK  10 active torsions:
REMARK  status: ('A' for Active; 'I' for Inactive)
REMARK    1  A    between atoms: N_6  and  S_1 
REMARK    2  A    between atoms: C_10  and  S_1 
REMARK    3  A    between atoms: S_2  and  N_5 
REMARK    4  A    between atoms: C_9  and  S_2 
REMARK    5  A    between atoms: C_3  and  C_7 
REMARK    6  A    between atoms: C_4  and  C_8 
REMARK    7  A    between atoms: N_5  and  C_11 
REMARK    8  A    between atoms: C_12  and  N_6 
REMARK    9  A    between atoms: C_17  and  C_23 
REMARK   10  A    between atoms: C_23  and  C_18 
ROOT
ATOM      1  C   UNL d   1      -0.820  -3.107   4.658  0.00  0.00     0.077 C 
ENDROOT
BRANCH   1   2
ATOM      2  C   UNL d   1      -2.242  -2.700   4.346  0.00  0.00    -0.051 A 
ATOM      3  C   UNL d   1      -2.758  -1.452   4.731  0.00  0.00     0.023 A 
ATOM      4  C   UNL d   1      -4.125  -1.148   4.577  0.00  0.00     0.050 A 
ATOM      5  C   UNL d   1      -4.973  -2.101   3.998  0.00  0.00     0.046 A 
ATOM      6  C   UNL d   1      -4.472  -3.344   3.627  0.00  0.00     0.043 A 
ATOM      7  C   UNL d   1      -3.122  -3.647   3.798  0.00  0.00     0.037 A 
BRANCH   4   8
ATOM      8  C   UNL d   1      -4.675   0.161   5.089  0.00  0.00     0.417 C 
ATOM      9  F   UNL d   1      -6.031   0.257   5.006  0.00  0.00    -0.166 F 
ATOM     10  F   UNL d   1      -4.373   0.360   6.404  0.00  0.00    -0.166 F 
ATOM     11  F   UNL d   1      -4.177   1.238   4.425  0.00  0.00    -0.166 F 
ENDBRANCH   4   8
BRANCH   6  12
ATOM     12  N   UNL d   1      -5.363  -4.323   3.136  0.00  0.00    -0.281 N 
ATOM     13  H   UNL d   1      -5.497  -5.192   3.649  0.00  0.00     0.179 HD
BRANCH  12  14
ATOM     14  S   UNL d   1      -5.740  -4.385   1.508  0.00  0.00     0.263 S 
ATOM     15  O   UNL d   1      -6.622  -5.519   1.338  0.00  0.00    -0.200 OA
ATOM     16  O   UNL d   1      -6.113  -3.063   1.049  0.00  0.00    -0.200 OA
BRANCH  14  17
ATOM     17  C   UNL d   1      -4.187  -4.815   0.747  0.00  0.00     0.080 A 
ATOM     18  C   UNL d   1      -3.841  -6.168   0.647  0.00  0.00     0.027 A 
ATOM     19  C   UNL d   1      -2.709  -6.535  -0.073  0.00  0.00     0.025 A 
ATOM     20  C   UNL d   1      -1.939  -5.553  -0.695  0.00  0.00     0.034 A 
ATOM     21  C   UNL d   1      -2.251  -4.200  -0.556  0.00  0.00     0.025 A 
ATOM     22 CL   UNL d   1      -0.645  -6.049  -1.701  0.00  0.00    -0.084 Cl
ATOM     23  C   UNL d   1      -3.388  -3.826   0.164  0.00  0.00     0.027 A 
ENDBRANCH  14  17
ENDBRANCH  12  14
ENDBRANCH   6  12
ENDBRANCH   1   2
BRANCH   1  24
ATOM     24  C   UNL d   1       0.300  -2.254   4.106  0.00  0.00    -0.051 A 
ATOM     25  C   UNL d   1       0.896  -2.562   2.874  0.00  0.00     0.032 A 
ATOM     26  C   UNL d   1       2.058  -1.897   2.470  0.00  0.00     0.024 A 
ATOM     27  C   UNL d   1       2.589  -0.862   3.238  0.00  0.00     0.040 A 
ATOM     28  C   UNL d   1       1.990  -0.517   4.459  0.00  0.00     0.050 A 
ATOM     29  C   UNL d   1       0.846  -1.219   4.881  0.00  0.00     0.023 A 
BRANCH  26  30
ATOM     30  N   UNL d   1       2.729  -2.330   1.280  0.00  0.00    -0.181 NA
ATOM     31  H   UNL d   1       3.743  -2.270   1.402  0.00  0.00     0.146 HD
BRANCH  30  32
ATOM     32  S   UNL d   1       2.368  -1.432  -0.123  0.00  0.00     0.245 S 
ATOM     33  O   UNL d   1       3.321  -0.345  -0.156  0.00  0.00    -0.206 OA
ATOM     34  O   UNL d   1       0.941  -1.228  -0.229  0.00  0.00    -0.206 OA
BRANCH  32  35
ATOM     35  C   UNL d   1       2.824  -2.607  -1.379  0.00  0.00     0.074 A 
ATOM     36  C   UNL d   1       2.183  -3.848  -1.394  0.00  0.00     0.026 A 
ATOM     37  C   UNL d   1       2.534  -4.794  -2.359  0.00  0.00     0.025 A 
ATOM     38  C   UNL d   1       3.506  -4.491  -3.310  0.00  0.00     0.034 A 
ATOM     39  C   UNL d   1       4.146  -3.254  -3.293  0.00  0.00     0.025 A 
ATOM     40 CL   UNL d   1       3.907  -5.657  -4.511  0.00  0.00    -0.084 Cl
ATOM     41  C   UNL d   1       3.812  -2.304  -2.321  0.00  0.00     0.026 A 
ENDBRANCH  32  35
ENDBRANCH  30  32
ENDBRANCH  26  30
BRANCH  28  42
ATOM     42  C   UNL d   1       2.584   0.548   5.347  0.00  0.00     0.417 C 
ATOM     43  F   UNL d   1       3.753   1.063   4.876  0.00  0.00    -0.166 F 
ATOM     44  F   UNL d   1       1.748   1.605   5.530  0.00  0.00    -0.166 F 
ATOM     45  F   UNL d   1       2.865   0.074   6.594  0.00  0.00    -0.166 F 
ENDBRANCH  28  42
ENDBRANCH   1  24
TORSDOF 10
