REMARK  4 active torsions:
REMARK  status: ('A' for Active; 'I' for Inactive)
REMARK    1  A    between atoms: C_15  and  C_7 
REMARK    2  A    between atoms: N_14  and  C_13 
REMARK    3  A    between atoms: C_21  and  N_14 
REMARK    4  A    between atoms: C_18  and  C_21 
ROOT
ATOM      1  N   UNL d   1       9.171  -5.723  -3.074  0.00  0.00    -0.197 NA
ATOM      2  C   UNL d   1       8.615  -5.105  -2.260  0.00  0.00     0.060 C 
ATOM      3  C   UNL d   1       7.920  -4.319  -1.231  0.00  0.00     0.143 C 
ENDROOT
BRANCH   3   4
ATOM      4  C   UNL d   1       6.872  -5.160  -0.500  0.00  0.00     0.136 C 
BRANCH   4   5
ATOM      5  N   UNL d   1       6.260  -4.416   0.618  0.00  0.00    -0.384 N 
ATOM      6  C   UNL d   1       6.639  -4.854   1.960  0.00  0.00     0.149 C 
BRANCH   5   7
ATOM      7  C   UNL d   1       5.434  -3.317   0.419  0.00  0.00     0.029 A 
ATOM      8  C   UNL d   1       4.692  -3.142  -0.762  0.00  0.00     0.030 A 
ATOM      9  C   UNL d   1       3.831  -2.047  -0.953  0.00  0.00     0.013 A 
ATOM     10  C   UNL d   1       3.688  -1.081   0.040  0.00  0.00    -0.035 A 
ATOM     11  C   UNL d   1       4.421  -1.218   1.215  0.00  0.00     0.013 A 
ATOM     12  C   UNL d   1       5.280  -2.313   1.391  0.00  0.00     0.030 A 
BRANCH  10  13
ATOM     13  C   UNL d   1       2.772   0.050  -0.121  0.00  0.00     0.034 C 
ATOM     14  C   UNL d   1       3.079   1.284  -0.566  0.00  0.00     0.101 A 
ATOM     15  C   UNL d   1       1.970   2.280  -0.579  0.00  0.00     0.263 A 
ATOM     16  C   UNL d   1       4.431   1.700  -1.024  0.00  0.00     0.263 A 
ATOM     17  N   UNL d   1       2.307   3.529  -1.032  0.00  0.00    -0.299 N 
ATOM     18  O   UNL d   1       0.828   2.034  -0.209  0.00  0.00    -0.267 OA
ATOM     19  C   UNL d   1       3.531   3.924  -1.470  0.00  0.00     0.181 A 
ATOM     20  H   UNL d   1       1.556   4.210  -1.036  0.00  0.00     0.171 HD
ATOM     21  N   UNL d   1       4.527   3.001  -1.447  0.00  0.00    -0.299 N 
ATOM     22  S   UNL d   1       3.797   5.472  -2.009  0.00  0.00    -0.040 SA
ATOM     23  H   UNL d   1       5.444   3.284  -1.768  0.00  0.00     0.171 HD
ATOM     24  O   UNL d   1       5.418   0.975  -1.048  0.00  0.00    -0.267 OA
ENDBRANCH  10  13
ENDBRANCH   5   7
ENDBRANCH   4   5
ENDBRANCH   3   4
TORSDOF 4
