REMARK  4 active torsions:
REMARK  status: ('A' for Active; 'I' for Inactive)
REMARK    1  A    between atoms: C_3  and  C_1 
REMARK    2  A    between atoms: C_6  and  C_1 
REMARK    3  A    between atoms: C_4  and  C_2 
REMARK       I    between atoms: N_5  and  C_3 
REMARK    4  A    between atoms: N_7  and  C_6 
ROOT
ATOM      1  C   UNL d   1       1.069  -0.032   0.065  0.00  0.00     0.095 C 
ATOM      2  C   UNL d   1       0.378  -1.023   0.660  0.00  0.00     0.042 C 
ENDROOT
BRANCH   1   3
ATOM      3  C   UNL d   1       0.306   1.144  -0.476  0.00  0.00     0.263 C 
ATOM      4  N   UNL d   1       0.872   2.029  -1.379  0.00  0.00    -0.343 N 
ATOM      5  C   UNL d   1       2.097   1.905  -2.181  0.00  0.00     0.152 C 
ATOM      6  C   UNL d   1       0.201   3.315  -1.620  0.00  0.00     0.152 C 
ATOM      7  C   UNL d   1       3.038   3.070  -1.855  0.00  0.00     0.187 C 
ATOM      8  O   UNL d   1       2.387   4.322  -2.143  0.00  0.00    -0.388 OA
ATOM      9  C   UNL d   1       1.181   4.472  -1.374  0.00  0.00     0.187 C 
ATOM     10  O   UNL d   1      -0.841   1.329  -0.054  0.00  0.00    -0.267 OA
ENDBRANCH   1   3
BRANCH   1  11
ATOM     11  C   UNL d   1       2.590  -0.032   0.065  0.00  0.00    -0.031 C 
BRANCH  11  12
ATOM     12  N   UNL d   1       3.850  -0.032   0.065  0.00  0.00    -0.365 N 
ATOM     13  HN2 UNL d   1       2.830  -0.032   0.065  1.00  0.00     0.165 HD
ATOM     14  HN1 UNL d   1       4.870  -0.032   0.065  1.00  0.00     0.165 HD
ENDBRANCH  11  12
ENDBRANCH   1  11
BRANCH   2  15
ATOM     15  C   UNL d   1       0.987  -2.187   1.334  0.00  0.00     0.009 A 
ATOM     16  C   UNL d   1       1.378  -2.120   2.685  0.00  0.00     0.046 A 
ATOM     17 CL   UNL d   1       1.179  -0.676   3.621  0.00  0.00    -0.083 Cl
ATOM     18  C   UNL d   1       1.948  -3.226   3.325  0.00  0.00     0.025 A 
ATOM     19  C   UNL d   1       2.137  -4.417   2.629  0.00  0.00     0.003 A 
ATOM     20  C   UNL d   1       1.760  -4.502   1.289  0.00  0.00     0.025 A 
ATOM     21  C   UNL d   1       1.191  -3.397   0.646  0.00  0.00     0.046 A 
ATOM     22 CL   UNL d   1       0.757  -3.579  -1.020  0.00  0.00    -0.083 Cl
ENDBRANCH   2  15
TORSDOF 4
