REMARK  5 active torsions:
REMARK  status: ('A' for Active; 'I' for Inactive)
REMARK    1  A    between atoms: C_3  and  C_1 
REMARK    2  A    between atoms: O_9  and  C_2 
REMARK    3  A    between atoms: S_6  and  C_3 
REMARK    4  A    between atoms: C_16  and  S_6 
REMARK    5  A    between atoms: C_8  and  O_9 
ROOT
ATOM      1  C   UNL d   1      -0.059   1.211   0.067  0.00  0.00     0.135 A 
ATOM      2  C   UNL d   1       0.065  -0.997   0.162  0.00  0.00     0.191 A 
ATOM      3  O   UNL d   1      -0.794   0.057   0.186  0.00  0.00    -0.283 OA
ATOM      4  C   UNL d   1       1.279   0.870  -0.061  0.00  0.00     0.047 A 
ATOM      5  C   UNL d   1       1.353  -0.545  -0.032  0.00  0.00     0.067 A 
ENDROOT
BRANCH   1   6
ATOM      6  C   UNL d   1      -0.785   2.468   0.080  0.00  0.00     0.247 C 
ATOM      7  O   UNL d   1      -1.980   2.574  -0.165  0.00  0.00    -0.277 OA
BRANCH   6   8
ATOM      8  S   UNL d   1       0.237   3.859   0.435  0.00  0.00    -0.046 SA
BRANCH   8   9
ATOM      9  C   UNL d   1      -0.771   5.118   1.202  0.00  0.00     0.008 A 
ATOM     10  C   UNL d   1      -2.139   5.032   1.479  0.00  0.00     0.021 A 
ATOM     11  C   UNL d   1      -2.824   6.099   2.079  0.00  0.00     0.025 A 
ATOM     12  C   UNL d   1      -2.142   7.262   2.422  0.00  0.00     0.034 A 
ATOM     13  C   UNL d   1      -0.780   7.368   2.169  0.00  0.00     0.025 A 
ATOM     14 CL   UNL d   1      -2.984   8.566   3.162  0.00  0.00    -0.084 Cl
ATOM     15  C   UNL d   1      -0.103   6.303   1.562  0.00  0.00     0.021 A 
ENDBRANCH   8   9
ENDBRANCH   6   8
ENDBRANCH   1   6
BRANCH   2  16
ATOM     16  O   UNL d   1      -0.534  -2.175   0.307  0.00  0.00    -0.288 OA
BRANCH  16  17
ATOM     17  C   UNL d   1       0.178  -3.308   0.622  0.00  0.00     0.081 A 
ATOM     18  C   UNL d   1       1.182  -3.328   1.592  0.00  0.00     0.061 A 
ATOM     19  C   UNL d   1       1.846  -4.521   1.872  0.00  0.00     0.038 A 
ATOM     20 CL   UNL d   1       3.114  -4.534   3.036  0.00  0.00    -0.084 Cl
ATOM     21  C   UNL d   1       1.495  -5.700   1.220  0.00  0.00     0.048 A 
ATOM     22  C   UNL d   1       0.463  -5.679   0.284  0.00  0.00     0.038 A 
ATOM     23  C   UNL d   1      -0.201  -4.490  -0.016  0.00  0.00     0.061 A 
ATOM     24 CL   UNL d   1       0.001  -7.137  -0.505  0.00  0.00    -0.084 Cl
ENDBRANCH  16  17
ENDBRANCH   2  16
TORSDOF 5
