REMARK  11 active torsions:
REMARK  status: ('A' for Active; 'I' for Inactive)
REMARK    1  A    between atoms: N_2  and  S_1 
REMARK    2  A    between atoms: C_3  and  S_1 
REMARK    3  A    between atoms: C_7  and  N_2 
REMARK    4  A    between atoms: C_4  and  C_9 
REMARK    5  A    between atoms: C_5  and  C_8 
REMARK    6  A    between atoms: C_6  and  C_7 
REMARK       I    between atoms: N_11  and  C_6 
REMARK    7  A    between atoms: C_26  and  C_7 
REMARK       I    between atoms: C_10  and  N_12 
REMARK    8  A    between atoms: C_27  and  C_10 
REMARK    9  A    between atoms: N_12  and  N_11 
REMARK   10  A    between atoms: C_29  and  C_26 
REMARK   11  A    between atoms: S_28  and  C_29 
ROOT
ATOM      1  N   UNL d   1       0.508   0.905  -1.434  0.00  0.00    -0.301 N 
ATOM      2  H   UNL d   1       0.938   0.228  -2.070  0.00  0.00     0.173 HD
ENDROOT
BRANCH   1   3
ATOM      3  S   UNL d   1      -1.105   0.480  -1.191  0.00  0.00     0.259 S 
ATOM      4  O   UNL d   1      -1.149  -0.930  -1.515  0.00  0.00    -0.201 OA
ATOM      5  O   UNL d   1      -1.973   1.415  -1.861  0.00  0.00    -0.201 OA
BRANCH   3   6
ATOM      6  C   UNL d   1      -1.420   0.631   0.557  0.00  0.00     0.081 A 
ATOM      7  C   UNL d   1      -1.627   1.900   1.117  0.00  0.00     0.041 A 
ATOM      8  C   UNL d   1      -2.085   2.024   2.441  0.00  0.00     0.050 A 
ATOM      9  C   UNL d   1      -2.356   0.856   3.180  0.00  0.00     0.032 A 
ATOM     10  C   UNL d   1      -2.185  -0.421   2.615  0.00  0.00     0.050 A 
ATOM     11  C   UNL d   1      -1.699  -0.521   1.302  0.00  0.00     0.041 A 
BRANCH   8  12
ATOM     12  C   UNL d   1      -2.347   3.377   3.067  0.00  0.00     0.417 C 
ATOM     13  F   UNL d   1      -2.078   4.418   2.233  0.00  0.00    -0.166 F 
ATOM     14  F   UNL d   1      -3.643   3.525   3.454  0.00  0.00    -0.166 F 
ATOM     15  F   UNL d   1      -1.595   3.582   4.181  0.00  0.00    -0.166 F 
ENDBRANCH   8  12
BRANCH  10  16
ATOM     16  C   UNL d   1      -2.584  -1.651   3.402  0.00  0.00     0.417 C 
ATOM     17  F   UNL d   1      -2.450  -2.811   2.705  0.00  0.00    -0.166 F 
ATOM     18  F   UNL d   1      -1.849  -1.802   4.535  0.00  0.00    -0.166 F 
ATOM     19  F   UNL d   1      -3.885  -1.602   3.802  0.00  0.00    -0.166 F 
ENDBRANCH  10  16
ENDBRANCH   3   6
ENDBRANCH   1   3
BRANCH   1  20
ATOM     20  C   UNL d   1       0.973   2.310  -1.528  0.00  0.00     0.187 C 
BRANCH  20  21
ATOM     21  C   UNL d   1       2.488   2.438  -1.797  0.00  0.00     0.259 C 
ATOM     22  N   UNL d   1       3.243   1.284  -1.735  0.00  0.00    -0.266 N 
ATOM     23  H   UNL d   1       2.959   0.474  -1.183  0.00  0.00     0.190 HD
ATOM     24  O   UNL d   1       3.014   3.516  -2.088  0.00  0.00    -0.269 OA
BRANCH  22  25
ATOM     25  N   UNL d   1       4.627   1.413  -1.991  0.00  0.00    -0.267 N 
ATOM     26  C   UNL d   1       5.494   0.485  -1.446  0.00  0.00     0.239 C 
ATOM     27  O   UNL d   1       5.078  -0.505  -0.846  0.00  0.00    -0.271 OA
ATOM     28  H   UNL d   1       4.940   2.334  -2.295  0.00  0.00     0.190 HD
BRANCH  26  29
ATOM     29  C   UNL d   1       6.976   0.826  -1.621  0.00  0.00     0.071 C 
ATOM     30  C   UNL d   1       7.861  -0.206  -0.920  0.00  0.00     0.019 C 
ATOM     31  C   UNL d   1       7.370   0.925  -3.095  0.00  0.00     0.019 C 
ENDBRANCH  26  29
ENDBRANCH  22  25
ENDBRANCH  20  21
BRANCH  20  32
ATOM     32  C   UNL d   1       0.249   3.147  -2.605  0.00  0.00     0.045 C 
BRANCH  32  33
ATOM     33  C   UNL d   1       0.394   2.572  -4.017  0.00  0.00     0.076 C 
BRANCH  33  34
ATOM     34  S   UNL d   1      -0.667   3.377  -5.264  0.00  0.00    -0.173 SA
ATOM     35  C   UNL d   1      -0.234   5.113  -4.999  0.00  0.00     0.089 C 
ENDBRANCH  33  34
ENDBRANCH  32  33
ENDBRANCH  20  32
ENDBRANCH   1  20
TORSDOF 11
