REMARK  4 active torsions:
REMARK  status: ('A' for Active; 'I' for Inactive)
REMARK    1  A    between atoms: C_2  and  S_1 
REMARK    2  A    between atoms: O_11  and  S_1 
REMARK    3  A    between atoms: C_4  and  C_12 
REMARK    4  A    between atoms: C_12  and  O_11 
ROOT
ATOM      1  C   UNL d   1       1.032  -1.163   2.237  0.00  0.00     0.206 C 
ATOM      2  C   UNL d   1       0.335  -1.056   3.591  0.00  0.00     0.049 C 
ENDROOT
BRANCH   1   3
ATOM      3  C   UNL d   1       2.514  -1.128   2.422  0.00  0.00     0.113 A 
ATOM      4  N   UNL d   1       3.359  -2.107   2.170  0.00  0.00    -0.342 N 
ATOM      5  C   UNL d   1       4.595  -1.632   2.539  0.00  0.00     0.060 A 
ATOM      6  HN  UNL d   1       3.141  -3.025   1.783  1.00  0.00     0.167 HD
ATOM      7  C   UNL d   1       5.847  -2.261   2.506  0.00  0.00     0.032 A 
ATOM      8  C   UNL d   1       4.503  -0.332   3.021  0.00  0.00     0.060 A 
ATOM      9  C   UNL d   1       6.963  -1.559   2.980  0.00  0.00     0.002 A 
ATOM     10  C   UNL d   1       6.836  -0.256   3.468  0.00  0.00     0.002 A 
ATOM     11  C   UNL d   1       5.596   0.394   3.494  0.00  0.00     0.032 A 
ATOM     12  N   UNL d   1       3.175  -0.022   2.903  0.00  0.00    -0.342 N 
ATOM     13  H   UNL d   1       2.749   0.861   3.146  0.00  0.00     0.167 HD
ENDBRANCH   1   3
BRANCH   1  14
ATOM     14  O   UNL d   1       0.636  -0.046   1.454  0.00  0.00    -0.259 OA
BRANCH  14  15
ATOM     15  S   UNL d   1       1.022  -0.030  -0.121  0.00  0.00     0.301 S 
ATOM     16  O   UNL d   1       2.396   0.375  -0.301  0.00  0.00    -0.193 OA
ATOM     17  O   UNL d   1       0.409  -1.157  -0.792  0.00  0.00    -0.193 OA
BRANCH  15  18
ATOM     18  C   UNL d   1       0.150   1.333  -0.721  0.00  0.00     0.117 A 
ATOM     19  C   UNL d   1      -0.230   2.445  -0.006  0.00  0.00     0.100 A 
ATOM     20  S   UNL d   1      -1.025   3.607  -0.965  0.00  0.00    -0.064 SA
ATOM     21 CL   UNL d   1       0.003   2.826   1.656  0.00  0.00    -0.074 Cl
ATOM     22  C   UNL d   1      -0.817   2.663  -2.353  0.00  0.00     0.077 A 
ATOM     23  C   UNL d   1      -0.183   1.472  -2.112  0.00  0.00     0.059 A 
ATOM     24 CL   UNL d   1      -1.371   3.243  -3.869  0.00  0.00    -0.076 Cl
ENDBRANCH  15  18
ENDBRANCH  14  15
ENDBRANCH   1  14
TORSDOF 4
