REMARK  6 active torsions:
REMARK  status: ('A' for Active; 'I' for Inactive)
REMARK    1  A    between atoms: C_8  and  C_1 
REMARK    2  A    between atoms: C_14  and  C_7 
REMARK    3  A    between atoms: N_10  and  C_9 
REMARK       I    between atoms: C_11  and  N_10 
REMARK    4  A    between atoms: C_12  and  C_11 
REMARK    5  A    between atoms: C_13  and  C_15 
REMARK    6  A    between atoms: O_21  and  C_13 
ROOT
ATOM      1  C   UNL d   1      -0.589  -2.535  -0.265  0.00  0.00     0.043 A 
ATOM      2  C   UNL d   1      -1.302  -2.858  -1.447  0.00  0.00     0.049 A 
ATOM      3  C   UNL d   1      -0.322  -3.549   0.670  0.00  0.00     0.018 A 
ATOM      4  C   UNL d   1      -1.744  -4.172  -1.647  0.00  0.00     0.030 A 
ATOM      5  C   UNL d   1      -0.774  -4.852   0.458  0.00  0.00     0.001 A 
ATOM      6  C   UNL d   1      -1.488  -5.161  -0.697  0.00  0.00     0.002 A 
ENDROOT
BRANCH   1   7
ATOM      7  C   UNL d   1      -0.095  -1.178  -0.053  0.00  0.00     0.177 A 
ATOM      8  O   UNL d   1       1.086  -1.006   0.626  0.00  0.00    -0.273 OA
ATOM      9  C   UNL d   1       1.297   0.343   0.460  0.00  0.00     0.174 A 
ATOM     10  N   UNL d   1       0.331   0.929  -0.218  0.00  0.00    -0.277 N 
ATOM     11  N   UNL d   1      -0.566  -0.051  -0.552  0.00  0.00    -0.277 N 
ATOM     12  HN  UNL d   1       0.263   1.920  -0.449  1.00  0.00     0.189 HD
ATOM     13  HN  UNL d   1      -1.429   0.067  -1.083  1.00  0.00     0.189 HD
BRANCH   9  14
ATOM     14  C   UNL d   1       2.530   0.931   0.975  0.00  0.00     0.017 A 
ATOM     15  C   UNL d   1       3.443   0.220   1.769  0.00  0.00     0.017 A 
ATOM     16  C   UNL d   1       4.614   0.835   2.231  0.00  0.00     0.025 A 
ATOM     17  C   UNL d   1       4.886   2.163   1.896  0.00  0.00     0.034 A 
ATOM     18  C   UNL d   1       3.998   2.880   1.103  0.00  0.00     0.025 A 
ATOM     19 CL   UNL d   1       6.323   2.917   2.465  0.00  0.00    -0.084 Cl
ATOM     20  C   UNL d   1       2.827   2.264   0.645  0.00  0.00     0.017 A 
ENDBRANCH   9  14
ENDBRANCH   1   7
BRANCH   2  21
ATOM     21  N   UNL d   1      -1.568  -1.844  -2.407  0.00  0.00    -0.323 N 
ATOM     22  C   UNL d   1      -1.694  -2.041  -3.763  0.00  0.00     0.245 C 
ATOM     23  O   UNL d   1      -1.568  -3.100  -4.365  0.00  0.00    -0.268 OA
ATOM     24  H   UNL d   1      -1.432  -0.887  -2.087  0.00  0.00     0.169 HD
BRANCH  22  25
ATOM     25  C   UNL d   1      -1.937  -0.766  -4.494  0.00  0.00     0.081 C 
ATOM     26  C   UNL d   1      -1.562  -0.697  -5.780  0.00  0.00     0.086 C 
BRANCH  26  27
ATOM     27  C   UNL d   1      -1.723   0.424  -6.724  0.00  0.00     0.165 C 
ATOM     28  O   UNL d   1      -1.310   0.347  -7.871  0.00  0.00    -0.647 OA
BRANCH  27  29
ATOM     29  O   UNL d   1      -2.342   1.519  -6.252  0.00  0.00    -0.773 OA
ATOM     30  H   UNL d   1      -2.646   1.494  -5.332  0.00  0.00     0.167 HD
ENDBRANCH  27  29
ENDBRANCH  26  27
ENDBRANCH  22  25
ENDBRANCH   2  21
TORSDOF 6
