REMARK  6 active torsions:
REMARK  status: ('A' for Active; 'I' for Inactive)
REMARK    1  A    between atoms: C_4  and  C_1 
REMARK    2  A    between atoms: C_15  and  C_5 
REMARK    3  A    between atoms: S_21  and  C_13 
REMARK    4  A    between atoms: C_17  and  C_23 
REMARK       I    between atoms: N_20  and  C_17 
REMARK    5  A    between atoms: C_24  and  N_20 
REMARK    6  A    between atoms: C_23  and  S_21 
ROOT
ATOM      1  N   UNL d   1       3.344  -6.715  -1.444  0.00  0.00    -0.335 N 
ATOM      2  HN  UNL d   1       3.289  -6.966  -0.456  1.00  0.00     0.168 HD
ATOM      3  C   UNL d   1       3.580  -7.626  -2.394  0.00  0.00     0.145 A 
ATOM      4  C   UNL d   1       3.183  -5.444  -1.867  0.00  0.00     0.062 A 
ATOM      5  N   UNL d   1       3.677  -7.377  -3.707  0.00  0.00    -0.347 N 
ATOM      6  HN  UNL d   1       3.865  -8.117  -4.384  1.00  0.00     0.167 HD
ATOM      7  C   UNL d   1       3.264  -5.080  -3.196  0.00  0.00     0.049 A 
ATOM      8  C   UNL d   1       3.513  -6.097  -4.082  0.00  0.00     0.092 A 
ENDROOT
BRANCH   3   9
ATOM      9  S   UNL d   1       4.015  -9.238  -1.803  0.00  0.00    -0.085 SA
BRANCH   9  10
ATOM     10  C   UNL d   1       5.572  -9.438  -2.706  0.00  0.00     0.185 C 
BRANCH  10  11
ATOM     11  C   UNL d   1       6.696  -8.473  -2.352  0.00  0.00     0.231 C 
ATOM     12  N   UNL d   1       6.482  -7.591  -1.305  0.00  0.00    -0.327 N 
ATOM     13  H   UNL d   1       5.645  -7.740  -0.751  0.00  0.00     0.169 HD
ATOM     14  O   UNL d   1       7.741  -8.540  -2.999  0.00  0.00    -0.272 OA
BRANCH  12  15
ATOM     15  C   UNL d   1       7.285  -6.481  -0.953  0.00  0.00     0.034 A 
ATOM     16  C   UNL d   1       8.391  -6.060  -1.695  0.00  0.00     0.031 A 
ATOM     17  C   UNL d   1       9.114  -4.921  -1.327  0.00  0.00     0.026 A 
ATOM     18  C   UNL d   1       8.732  -4.193  -0.205  0.00  0.00     0.034 A 
ATOM     19  C   UNL d   1       7.639  -4.601   0.553  0.00  0.00     0.026 A 
ATOM     20 CL   UNL d   1       9.609  -2.779   0.233  0.00  0.00    -0.084 Cl
ATOM     21  C   UNL d   1       6.915  -5.740   0.180  0.00  0.00     0.031 A 
ENDBRANCH  12  15
ENDBRANCH  10  11
ENDBRANCH   9  10
ENDBRANCH   3   9
BRANCH   4  22
ATOM     22  C   UNL d   1       2.989  -4.428  -0.840  0.00  0.00     0.066 A 
ATOM     23  N   UNL d   1       2.847  -3.088  -1.168  0.00  0.00    -0.346 N 
ATOM     24  C   UNL d   1       2.796  -2.359  -0.070  0.00  0.00     0.102 A 
ATOM     25  HN  UNL d   1       2.791  -2.720  -2.118  1.00  0.00     0.167 HD
ATOM     26  S   UNL d   1       2.854  -3.240   1.403  0.00  0.00    -0.080 SA
ATOM     27  C   UNL d   1       2.966  -4.701   0.515  0.00  0.00     0.083 A 
BRANCH  24  28
ATOM     28  C   UNL d   1       2.721  -0.860  -0.124  0.00  0.00     0.073 A 
ATOM     29  N   UNL d   1       2.809  -0.065   1.006  0.00  0.00    -0.352 N 
ATOM     30  C   UNL d   1       2.776   1.204   0.660  0.00  0.00     0.047 A 
ATOM     31  HN  UNL d   1       2.888  -0.411   1.963  1.00  0.00     0.166 HD
ATOM     32  C   UNL d   1       2.906   2.337   1.614  0.00  0.00     0.076 C 
ATOM     33  S   UNL d   1       2.574   1.512  -1.020  0.00  0.00    -0.087 SA
ATOM     34  C   UNL d   1       2.583  -0.175  -1.315  0.00  0.00     0.083 A 
ENDBRANCH  24  28
ENDBRANCH   4  22
TORSDOF 6
