REMARK  4 active torsions:
REMARK  status: ('A' for Active; 'I' for Inactive)
REMARK    1  A    between atoms: C_9  and  C_1 
REMARK    2  A    between atoms: C_8  and  C_11 
REMARK    3  A    between atoms: O_18  and  C_8 
REMARK    4  A    between atoms: C_20  and  O_18 
ROOT
ATOM      1  N   UNL d   1      -4.956 -10.054  -1.483  0.00  0.00    -0.195 NA
ATOM      2  C   UNL d   1      -5.415  -9.274  -0.756  0.00  0.00     0.085 C 
ATOM      3  C   UNL d   1      -5.986  -8.305   0.195  0.00  0.00     0.302 C 
ENDROOT
BRANCH   3   4
ATOM      4  O   UNL d   1      -5.165  -7.127   0.314  0.00  0.00    -0.303 OA
BRANCH   4   5
ATOM      5  C   UNL d   1      -5.360  -6.200  -0.656  0.00  0.00     0.294 C 
ATOM      6  O   UNL d   1      -6.170  -6.287  -1.563  0.00  0.00    -0.259 OA
BRANCH   5   7
ATOM      7  C   UNL d   1      -4.444  -5.039  -0.469  0.00  0.00     0.039 A 
ATOM      8  C   UNL d   1      -3.569  -4.945   0.618  0.00  0.00     0.018 A 
ATOM      9  C   UNL d   1      -2.732  -3.830   0.760  0.00  0.00     0.015 A 
ATOM     10  C   UNL d   1      -2.753  -2.779  -0.172  0.00  0.00    -0.002 A 
ATOM     11  C   UNL d   1      -3.625  -2.893  -1.267  0.00  0.00     0.015 A 
ATOM     12  C   UNL d   1      -4.464  -4.008  -1.414  0.00  0.00     0.018 A 
BRANCH  10  13
ATOM     13  C   UNL d   1      -1.884  -1.584  -0.024  0.00  0.00     0.090 A 
ATOM     14  C   UNL d   1      -1.522  -1.112   1.179  0.00  0.00     0.093 A 
ATOM     15  C   UNL d   1      -0.691   0.099   1.268  0.00  0.00     0.187 A 
ATOM     16  O   UNL d   1      -0.324   0.531   2.353  0.00  0.00    -0.287 OA
ATOM     17  C   UNL d   1      -0.349   0.754  -0.000  0.00  0.00     0.048 A 
ATOM     18  C   UNL d   1      -0.776   0.166  -1.188  0.00  0.00     0.090 A 
ATOM     19  C   UNL d   1       0.381   1.946  -0.016  0.00  0.00     0.018 A 
ATOM     20  O   UNL d   1      -1.514  -0.991  -1.226  0.00  0.00    -0.309 OA
ATOM     21  C   UNL d   1      -0.459   0.765  -2.407  0.00  0.00     0.038 A 
ATOM     22  C   UNL d   1       0.270   1.957  -2.430  0.00  0.00     0.003 A 
ATOM     23  C   UNL d   1       0.686   2.550  -1.236  0.00  0.00     0.001 A 
ENDBRANCH  10  13
ENDBRANCH   5   7
ENDBRANCH   4   5
ENDBRANCH   3   4
TORSDOF 4
