REMARK  2 active torsions:
REMARK  status: ('A' for Active; 'I' for Inactive)
REMARK    1  A    between atoms: C_4  and  C_3 
REMARK    2  A    between atoms: O_15  and  C_7 
ROOT
ATOM      1  N   UNL d   1       1.138   1.337  -0.052  0.00  0.00    -0.352 N 
ATOM      2  HN  UNL d   1       1.106   2.356  -0.075  1.00  0.00     0.166 HD
ATOM      3  C   UNL d   1       2.337   0.688  -0.045  0.00  0.00     0.119 A 
ATOM      4  C   UNL d   1      -0.023  -0.787   0.002  0.00  0.00     0.025 A 
ATOM      5  C   UNL d   1       0.001   0.624  -0.029  0.00  0.00     0.045 A 
ATOM      6  C   UNL d   1       1.233  -1.428   0.007  0.00  0.00     0.080 A 
ATOM      7  C   UNL d   1       2.413  -0.697  -0.011  0.00  0.00     0.071 A 
ATOM      8  C   UNL d   1      -1.275  -1.451   0.029  0.00  0.00     0.035 A 
ATOM      9  C   UNL d   1      -1.201   1.318  -0.043  0.00  0.00     0.032 A 
ATOM     10  C   UNL d   1      -2.464  -0.723   0.007  0.00  0.00     0.012 A 
ATOM     11  C   UNL d   1      -2.433   0.662  -0.030  0.00  0.00     0.021 A 
ATOM     12 BR   UNL d   1      -4.123  -1.628   0.021  0.00  0.00    -0.051 Br
ENDROOT
BRANCH   3  13
ATOM     13  C   UNL d   1       3.628   1.492  -0.089  0.00  0.00     0.432 C 
ATOM     14  F   UNL d   1       3.449   2.843  -0.106  0.00  0.00    -0.165 F 
ATOM     15  F   UNL d   1       4.439   1.239   0.980  0.00  0.00    -0.165 F 
ATOM     16  F   UNL d   1       4.381   1.205  -1.192  0.00  0.00    -0.165 F 
ENDBRANCH   3  13
BRANCH   6  17
ATOM     17  O   UNL d   1       1.397  -2.787   0.021  0.00  0.00    -0.360 OA
ATOM     18  H   UNL d   1       0.547  -3.231  -0.114  0.00  0.00     0.217 HD
ENDBRANCH   6  17
TORSDOF 2
