REMARK  4 active torsions:
REMARK  status: ('A' for Active; 'I' for Inactive)
REMARK    1  A    between atoms: N_2  and  C_1 
REMARK    2  A    between atoms: S_9  and  C_3 
REMARK    3  A    between atoms: N_7  and  C_5 
REMARK    4  A    between atoms: C_16  and  S_9 
ROOT
ATOM      1  C   UNL d   1       1.778  -1.218   0.092  0.00  0.00     0.121 A 
ATOM      2  C   UNL d   1       2.467  -0.006   0.015  0.00  0.00     0.041 A 
ATOM      3  C   UNL d   1       0.379  -1.276   0.126  0.00  0.00     0.063 A 
ATOM      4  C   UNL d   1       0.286   1.147  -0.006  0.00  0.00     0.061 A 
ATOM      5  C   UNL d   1       1.700   1.170  -0.049  0.00  0.00     0.053 A 
ATOM      6  C   UNL d   1      -0.371  -0.096   0.072  0.00  0.00     0.063 A 
ATOM      7 CL   UNL d   1      -2.080  -0.320  -0.065  0.00  0.00    -0.082 Cl
ENDROOT
BRANCH   2   8
ATOM      8  S   UNL d   1       4.244   0.160  -0.045  0.00  0.00    -0.088 SA
BRANCH   8   9
ATOM      9  C   UNL d   1       4.681   0.174   1.684  0.00  0.00     0.005 A 
ATOM     10  C   UNL d   1       5.523  -0.826   2.186  0.00  0.00     0.020 A 
ATOM     11  C   UNL d   1       5.944  -0.794   3.519  0.00  0.00     0.025 A 
ATOM     12  C   UNL d   1       5.527   0.241   4.353  0.00  0.00     0.034 A 
ATOM     13  C   UNL d   1       4.689   1.241   3.865  0.00  0.00     0.025 A 
ATOM     14 CL   UNL d   1       6.063   0.296   5.986  0.00  0.00    -0.084 Cl
ATOM     15  C   UNL d   1       4.271   1.210   2.531  0.00  0.00     0.020 A 
ENDBRANCH   8   9
ENDBRANCH   2   8
BRANCH   1  16
ATOM     16  N   UNL d   1       2.486  -2.481   0.098  0.00  0.00    -0.114 N 
ATOM     17  O   UNL d   1       3.105  -2.792  -0.927  0.00  0.00    -0.532 OA
ATOM     18  O   UNL d   1       2.366  -3.181   1.111  0.00  0.00    -0.532 OA
ENDBRANCH   1  16
BRANCH   4  19
ATOM     19  N   UNL d   1      -0.399   2.398  -0.039  0.00  0.00    -0.331 N 
ATOM     20  C   UNL d   1      -1.589   2.725   0.580  0.00  0.00     0.096 A 
ATOM     21  C   UNL d   1      -1.903   4.038   0.306  0.00  0.00     0.019 A 
ATOM     22  C   UNL d   1      -0.858   4.561  -0.478  0.00  0.00     0.019 A 
ATOM     23  C   UNL d   1       0.061   3.550  -0.655  0.00  0.00     0.096 A 
ENDBRANCH   4  19
TORSDOF 4
