REMARK  3 active torsions:
REMARK  status: ('A' for Active; 'I' for Inactive)
REMARK       I    between atoms: N_2  and  C_1 
REMARK    1  A    between atoms: C_7  and  C_1 
REMARK    2  A    between atoms: C_4  and  N_2 
REMARK    3  A    between atoms: C_10  and  C_11 
ROOT
ATOM      1  C   UNL d   1       1.034  -0.032  -0.170  0.00  0.00     0.256 C 
ATOM      2  N   UNL d   1       2.388   0.057   0.104  0.00  0.00    -0.322 N 
ATOM      3  O   UNL d   1       0.503  -0.791  -0.966  0.00  0.00    -0.267 OA
ATOM      4  H   UNL d   1       2.637   0.395   1.024  0.00  0.00     0.169 HD
ENDROOT
BRANCH   1   5
ATOM      5  C   UNL d   1       0.188   0.835   0.689  0.00  0.00     0.032 A 
ATOM      6  C   UNL d   1       0.560   2.152   0.960  0.00  0.00     0.017 A 
ATOM      7  C   UNL d   1      -0.263   2.958   1.752  0.00  0.00     0.009 A 
ATOM      8  C   UNL d   1      -1.468   2.471   2.299  0.00  0.00    -0.051 A 
ATOM      9  C   UNL d   1      -1.818   1.139   2.011  0.00  0.00     0.009 A 
ATOM     10  C   UNL d   1      -1.004   0.330   1.208  0.00  0.00     0.017 A 
BRANCH   8  11
ATOM     11  C   UNL d   1      -2.344   3.389   3.172  0.00  0.00    -0.024 C 
ATOM     12  C   UNL d   1      -3.626   2.707   3.698  0.00  0.00     0.019 C 
ATOM     13  C   UNL d   1      -1.535   3.858   4.401  0.00  0.00     0.019 C 
ATOM     14  C   UNL d   1      -2.786   4.626   2.359  0.00  0.00     0.019 C 
ENDBRANCH   8  11
ENDBRANCH   1   5
BRANCH   2  15
ATOM     15  C   UNL d   1       3.364  -0.713  -0.556  0.00  0.00     0.047 A 
ATOM     16  C   UNL d   1       4.400  -1.296   0.204  0.00  0.00     0.019 A 
ATOM     17  C   UNL d   1       5.355  -2.080  -0.451  0.00  0.00     0.044 A 
ATOM     18  C   UNL d   1       4.708  -1.349   1.596  0.00  0.00     0.033 A 
ATOM     19  N   UNL d   1       6.194  -2.590   0.514  0.00  0.00    -0.365 N 
ATOM     20  C   UNL d   1       5.354  -2.268  -1.839  0.00  0.00     0.030 A 
ATOM     21  C   UNL d   1       5.805  -2.164   1.756  0.00  0.00     0.089 A 
ATOM     22  H   UNL d   1       6.960  -3.221   0.328  0.00  0.00     0.165 HD
ATOM     23  C   UNL d   1       4.331  -1.661  -2.574  0.00  0.00     0.005 A 
ATOM     24  C   UNL d   1       3.341  -0.908  -1.944  0.00  0.00     0.030 A 
ENDBRANCH   2  15
TORSDOF 3
