REMARK  7 active torsions:
REMARK  status: ('A' for Active; 'I' for Inactive)
REMARK       I    between atoms: N_6  and  C1_1 
REMARK    1  A    between atoms: O4_3  and  C1_1 
REMARK    2  A    between atoms: C6_4  and  O4_3 
REMARK    3  A    between atoms: CA_7  and  N_6 
REMARK    4  A    between atoms: CB_9  and  CA_7 
REMARK    5  A    between atoms: CA_7  and  C_8 
REMARK    6  A    between atoms: OXT_11  and  C_8 
REMARK    7  A    between atoms: CG_12  and  CB_9 
ROOT
ATOM      1  CA  PHE d   1       0.892   1.045  -2.315  0.00  0.00     0.188 C 
ENDROOT
BRANCH   1   2
ATOM      2  CB  PHE d   1       1.912   0.029  -2.872  0.00  0.00     0.074 C 
BRANCH   2   3
ATOM      3  CG  PHE d   1       2.774  -0.764  -1.913  0.00  0.00    -0.056 A 
ATOM      4  CD1 PHE d   1       3.230  -2.032  -2.313  0.00  0.00     0.007 A 
ATOM      5  CE1 PHE d   1       4.190  -2.718  -1.566  0.00  0.00     0.001 A 
ATOM      6  CZ  PHE d   1       4.700  -2.151  -0.402  0.00  0.00     0.000 A 
ATOM      7  CE2 PHE d   1       4.218  -0.921   0.036  0.00  0.00     0.001 A 
ATOM      8  CD2 PHE d   1       3.261  -0.232  -0.712  0.00  0.00     0.007 A 
ENDBRANCH   2   3
ENDBRANCH   1   2
BRANCH   1   9
ATOM      9  C   PHE d   1      -0.074   0.470  -1.266  0.00  0.00     0.163 C 
ATOM     10  O   PHE d   1      -0.568   1.162  -0.378  0.00  0.00    -0.648 OA
BRANCH   9  11
ATOM     11  OXT PHE d   1      -0.436  -0.821  -1.418  0.00  0.00    -0.775 OA
ATOM     12  HXT PHE d   1       0.033  -1.339  -2.098  0.00  0.00     0.167 HD
ENDBRANCH   9  11
ENDBRANCH   1   9
BRANCH   1  13
ATOM     13  N   PHE d   1       1.523   2.270  -1.812  0.00  0.00    -0.322 N 
ATOM     14  C1  <1> d   1       2.150   3.156  -2.638  0.00  0.00     0.361 C 
ATOM     15  O1  <1> d   1       2.280   2.991  -3.846  0.00  0.00    -0.239 OA
ATOM     16  H   PHE d   1       1.286   2.601  -0.882  0.00  0.00     0.165 HD
BRANCH  14  17
ATOM     17  O4  <1> d   1       2.599   4.221  -1.937  0.00  0.00    -0.304 OA
BRANCH  17  18
ATOM     18  C6  <1> d   1       3.298   5.215  -2.713  0.00  0.00     0.176 C 
ATOM     19  C9  <1> d   1       4.754   4.827  -2.910  0.00  0.00     0.034 C 
ENDBRANCH  17  18
ENDBRANCH  14  17
ENDBRANCH   1  13
TORSDOF 7
