REMARK  2 active torsions:
REMARK  status: ('A' for Active; 'I' for Inactive)
REMARK    1  A    between atoms: C_7  and  N_2 
REMARK    2  A    between atoms: O_13  and  C_10 
ROOT
ATOM      1  C   UNL d   1       0.809   1.119  -0.355  0.00  0.00     0.181 C 
ATOM      2  N   UNL d   1       1.372  -0.024   0.218  0.00  0.00    -0.320 N 
ATOM      3  N   UNL d   1      -0.552   1.038  -0.578  0.00  0.00    -0.303 N 
ATOM      4  C   UNL d   1      -1.397  -0.002  -0.305  0.00  0.00     0.233 C 
ATOM      5  C   UNL d   1      -0.769  -1.263   0.276  0.00  0.00     0.051 C 
ATOM      6  C   UNL d   1       0.712  -1.289  -0.106  0.00  0.00     0.150 C 
ATOM      7  S   UNL d   1       1.606   2.489  -0.910  0.00  0.00    -0.040 SA
ATOM      8  O   UNL d   1      -2.607   0.109  -0.497  0.00  0.00    -0.272 OA
ATOM      9  C   UNL d   1      -1.468  -2.493  -0.320  0.00  0.00     0.027 C 
ATOM     10  C   UNL d   1      -0.935  -1.268   1.801  0.00  0.00     0.027 C 
ATOM     11  H   UNL d   1      -0.990   1.862  -0.968  0.00  0.00     0.171 HD
ENDROOT
BRANCH   2  12
ATOM     12  C   UNL d   1       2.552  -0.027   1.044  0.00  0.00     0.070 A 
ATOM     13  C   UNL d   1       2.827   0.994   1.989  0.00  0.00     0.095 A 
ATOM     14  C   UNL d   1       3.991   0.927   2.770  0.00  0.00     0.039 A 
ATOM     15  C   UNL d   1       4.854  -0.164   2.676  0.00  0.00     0.003 A 
ATOM     16  C   UNL d   1       4.570  -1.195   1.793  0.00  0.00     0.002 A 
ATOM     17  C   UNL d   1       3.438  -1.123   0.978  0.00  0.00     0.033 A 
BRANCH  13  18
ATOM     18  O   UNL d   1       1.865   1.957   2.173  0.00  0.00    -0.354 OA
ATOM     19  C   UNL d   1       2.160   3.037   3.051  0.00  0.00     0.210 C 
ENDBRANCH  13  18
ENDBRANCH   2  12
TORSDOF 2
