REMARK  3 active torsions:
REMARK  status: ('A' for Active; 'I' for Inactive)
REMARK    1  A    between atoms: N_2  and  S_1 
REMARK    2  A    between atoms: C_20  and  S_1 
REMARK    3  A    between atoms: C_9  and  C_3 
ROOT
ATOM      1  N   UNL d   1       0.402  -0.852  -1.419  0.00  0.00    -0.257 N 
ATOM      2  C   UNL d   1      -0.077  -2.370  -2.980  0.00  0.00     0.010 A 
ATOM      3  C   UNL d   1       0.623  -2.151  -1.803  0.00  0.00     0.122 A 
ATOM      4  C   UNL d   1      -0.476  -0.240  -2.271  0.00  0.00     0.110 A 
ATOM      5  C   UNL d   1      -0.783  -1.156  -3.257  0.00  0.00     0.033 A 
ENDROOT
BRANCH   2   6
ATOM      6  C   UNL d   1      -0.037  -3.597  -3.769  0.00  0.00     0.060 A 
ATOM      7  N   UNL d   1      -0.804  -3.615  -4.888  0.00  0.00    -0.353 N 
ATOM      8  C   UNL d   1      -0.732  -4.713  -5.667  0.00  0.00     0.061 A 
ATOM      9  HN  UNL d   1      -1.410  -2.831  -5.129  1.00  0.00     0.166 HD
ATOM     10  C   UNL d   1      -1.485  -4.782  -6.830  0.00  0.00     0.057 A 
ATOM     11  C   UNL d   1       0.108  -5.805  -5.330  0.00  0.00     0.060 A 
ATOM     12  C   UNL d   1      -1.414  -5.893  -7.674  0.00  0.00     0.058 A 
ATOM     13 CL   UNL d   1      -2.386  -5.887  -9.102  0.00  0.00    -0.082 Cl
ATOM     14  C   UNL d   1      -0.573  -6.956  -7.347  0.00  0.00     0.058 A 
ATOM     15  C   UNL d   1       0.177  -6.903  -6.173  0.00  0.00     0.057 A 
ATOM     16 CL   UNL d   1      -0.409  -8.355  -8.345  0.00  0.00    -0.082 Cl
ATOM     17  N   UNL d   1       0.850  -5.796  -4.212  0.00  0.00    -0.362 N 
ATOM     18  C   UNL d   1       0.765  -4.680  -3.443  0.00  0.00     0.119 A 
ATOM     19  HN  UNL d   1       1.444  -6.584  -3.953  1.00  0.00     0.165 HD
ENDBRANCH   2   6
BRANCH   1  20
ATOM     20  S   UNL d   1       1.065  -0.128  -0.029  0.00  0.00     0.268 S 
ATOM     21  O   UNL d   1       1.290   1.259  -0.389  0.00  0.00    -0.200 OA
ATOM     22  O   UNL d   1       2.144  -1.000   0.394  0.00  0.00    -0.200 OA
BRANCH  20  23
ATOM     23  C   UNL d   1      -0.231  -0.206   1.175  0.00  0.00     0.080 A 
ATOM     24  C   UNL d   1      -0.356  -1.339   1.985  0.00  0.00     0.025 A 
ATOM     25  C   UNL d   1      -1.324  -1.361   2.989  0.00  0.00     0.002 A 
ATOM     26  C   UNL d   1      -2.155  -0.256   3.185  0.00  0.00     0.000 A 
ATOM     27  C   UNL d   1      -2.025   0.873   2.375  0.00  0.00     0.002 A 
ATOM     28  C   UNL d   1      -1.059   0.904   1.369  0.00  0.00     0.025 A 
ENDBRANCH  20  23
ENDBRANCH   1  20
TORSDOF 3
