REMARK  5 active torsions:
REMARK  status: ('A' for Active; 'I' for Inactive)
REMARK    1  A    between atoms: C_5  and  C_1 
REMARK    2  A    between atoms: C_7  and  C_2 
REMARK    3  A    between atoms: O_12  and  C_7 
REMARK    4  A    between atoms: C_9  and  C_14 
REMARK    5  A    between atoms: C_14  and  O_12 
ROOT
ATOM      1  C   UNL d   1      -1.364  -0.659   0.099  0.00  0.00     0.087 A 
ATOM      2  C   UNL d   1      -0.057  -1.267   0.072  0.00  0.00     0.100 A 
ATOM      3  N   UNL d   1      -1.234   0.672  -0.051  0.00  0.00    -0.259 N 
ATOM      4  HN  UNL d   1      -1.994   1.346  -0.137  1.00  0.00     0.195 HD
ATOM      5  O   UNL d   1       0.098   0.956  -0.066  0.00  0.00    -0.241 OA
ATOM      6  C   UNL d   1       0.811  -0.190  -0.001  0.00  0.00     0.091 A 
ATOM      7  C   UNL d   1       2.275   0.012  -0.017  0.00  0.00     0.080 C 
ENDROOT
BRANCH   1   8
ATOM      8  C   UNL d   1      -2.740  -1.193   0.169  0.00  0.00     0.037 A 
ATOM      9  C   UNL d   1      -3.712  -0.550   0.982  0.00  0.00     0.048 A 
ATOM     10 CL   UNL d   1      -3.328   0.687   2.143  0.00  0.00    -0.083 Cl
ATOM     11  C   UNL d   1      -5.074  -0.882   0.907  0.00  0.00     0.025 A 
ATOM     12  C   UNL d   1      -5.500  -1.905   0.071  0.00  0.00     0.003 A 
ATOM     13  C   UNL d   1      -4.562  -2.593  -0.691  0.00  0.00     0.025 A 
ATOM     14  C   UNL d   1      -3.203  -2.225  -0.670  0.00  0.00     0.048 A 
ATOM     15 CL   UNL d   1      -2.204  -3.043  -1.827  0.00  0.00    -0.083 Cl
ENDBRANCH   1   8
BRANCH   2  16
ATOM     16  C   UNL d   1       0.350  -2.660   0.104  0.00  0.00     0.298 C 
ATOM     17  O   UNL d   1      -0.301  -3.560   0.600  0.00  0.00    -0.259 OA
BRANCH  16  18
ATOM     18  O   UNL d   1       1.536  -2.854  -0.551  0.00  0.00    -0.308 OA
BRANCH  18  19
ATOM     19  C   UNL d   1       1.973  -4.219  -0.706  0.00  0.00     0.296 C 
BRANCH  19  20
ATOM     20  C   UNL d   1       2.421  -4.901   0.585  0.00  0.00     0.409 C 
ATOM     21  F   UNL d   1       2.219  -4.133   1.677  0.00  0.00    -0.169 F 
ATOM     22  F   UNL d   1       1.778  -6.074   0.768  0.00  0.00    -0.169 F 
ATOM     23  F   UNL d   1       3.748  -5.175   0.536  0.00  0.00    -0.169 F 
ENDBRANCH  19  20
ENDBRANCH  18  19
ENDBRANCH  16  18
ENDBRANCH   2  16
TORSDOF 5
