REMARK  3 active torsions:
REMARK  status: ('A' for Active; 'I' for Inactive)
REMARK    1  A    between atoms: C_13  and  C_6 
REMARK    2  A    between atoms: C_7  and  S_12 
REMARK    3  A    between atoms: S_12  and  C_13 
ROOT
ATOM      1  N   UNL d   1       0.278   0.889   0.233  0.00  0.00    -0.275 N 
ATOM      2  C   UNL d   1       0.830   0.133   1.224  0.00  0.00     0.327 A 
ATOM      3  C   UNL d   1      -0.370   0.395  -0.862  0.00  0.00     0.251 A 
ATOM      4  C   UNL d   1      -0.464  -1.076  -0.953  0.00  0.00     0.100 A 
ATOM      5  N   UNL d   1       0.688  -1.219   1.085  0.00  0.00    -0.311 N 
ATOM      6  C   UNL d   1       0.076  -1.832   0.014  0.00  0.00     0.028 A 
ATOM      7  O   UNL d   1       1.420   0.630   2.177  0.00  0.00    -0.247 OA
ATOM      8  O   UNL d   1      -0.849   1.111  -1.732  0.00  0.00    -0.268 OA
ATOM      9  H   UNL d   1       0.372   1.890   0.310  0.00  0.00     0.173 HD
ATOM     10  H   UNL d   1       1.131  -1.783   1.803  0.00  0.00     0.170 HD
ENDROOT
BRANCH   6  11
ATOM     11  C   UNL d   1       0.055  -3.346  -0.011  0.00  0.00     0.138 C 
BRANCH  11  12
ATOM     12  S   UNL d   1       1.776  -3.956  -0.059  0.00  0.00    -0.106 SA
BRANCH  12  13
ATOM     13  C   UNL d   1       1.524  -5.719  -0.089  0.00  0.00     0.069 A 
ATOM     14  N   UNL d   1       0.264  -6.208  -0.068  0.00  0.00    -0.361 N 
ATOM     15  C   UNL d   1       0.129  -7.555  -0.101  0.00  0.00     0.089 A 
ATOM     16  HN  UNL d   1      -0.547  -5.591  -0.028  1.00  0.00     0.165 HD
ATOM     17  C   UNL d   1       1.193  -8.441  -0.154  0.00  0.00     0.017 A 
ATOM     18  C   UNL d   1       2.478  -7.918  -0.172  0.00  0.00     0.004 A 
ATOM     19  C   UNL d   1       2.648  -6.537  -0.138  0.00  0.00     0.037 A 
ENDBRANCH  12  13
ENDBRANCH  11  12
ENDBRANCH   6  11
TORSDOF 3
