REMARK  8 active torsions:
REMARK  status: ('A' for Active; 'I' for Inactive)
REMARK    1  A    between atoms: S_9  and  C_3 
REMARK    2  A    between atoms: C_6  and  C_5 
REMARK    3  A    between atoms: C_10  and  C_6 
REMARK    4  A    between atoms: C_15  and  S_9 
REMARK    5  A    between atoms: O_18  and  C_10 
REMARK    6  A    between atoms: C_11  and  C_15 
REMARK       I    between atoms: N_12  and  C_11 
REMARK    7  A    between atoms: C_16  and  N_12 
REMARK    8  A    between atoms: C_26  and  O_18 
ROOT
ATOM      1  N   UNL d   1       1.254  -1.186   0.234  0.00  0.00    -0.352 N 
ATOM      2  HN  UNL d   1       1.304  -2.201   0.325  1.00  0.00     0.166 HD
ATOM      3  C   UNL d   1       2.347  -0.501   0.311  0.00  0.00     0.062 C 
ATOM      4  S   UNL d   1       1.129   1.870  -0.588  0.00  0.00    -0.116 SA
ATOM      5  C   UNL d   1       2.562   0.994   0.121  0.00  0.00     0.118 C 
ATOM      6  C   UNL d   1       0.007  -0.591   0.031  0.00  0.00     0.049 A 
ATOM      7  C   UNL d   1      -0.203   0.767  -0.210  0.00  0.00     0.028 A 
ATOM      8  C   UNL d   1      -1.109  -1.434   0.160  0.00  0.00     0.031 A 
ATOM      9  C   UNL d   1      -1.508   1.281  -0.220  0.00  0.00     0.021 A 
ATOM     10  C   UNL d   1      -2.607   0.439  -0.045  0.00  0.00     0.002 A 
ATOM     11  C   UNL d   1      -2.408  -0.926   0.117  0.00  0.00     0.002 A 
ENDROOT
BRANCH   3  12
ATOM     12  S   UNL d   1       3.771  -1.372   0.903  0.00  0.00    -0.106 SA
BRANCH  12  13
ATOM     13  C   UNL d   1       3.171  -3.033   1.244  0.00  0.00     0.183 C 
BRANCH  13  14
ATOM     14  C   UNL d   1       2.108  -3.276   2.309  0.00  0.00     0.231 C 
ATOM     15  N   UNL d   1       1.509  -2.199   2.927  0.00  0.00    -0.327 N 
ATOM     16  H   UNL d   1       1.674  -1.301   2.494  0.00  0.00     0.169 HD
ATOM     17  O   UNL d   1       1.814  -4.457   2.542  0.00  0.00    -0.272 OA
BRANCH  15  18
ATOM     18  C   UNL d   1       0.358  -2.273   3.753  0.00  0.00     0.034 A 
ATOM     19  C   UNL d   1      -0.023  -3.442   4.422  0.00  0.00     0.031 A 
ATOM     20  C   UNL d   1      -1.262  -3.529   5.059  0.00  0.00     0.026 A 
ATOM     21  C   UNL d   1      -2.121  -2.437   5.053  0.00  0.00     0.034 A 
ATOM     22  C   UNL d   1      -1.718  -1.236   4.472  0.00  0.00     0.026 A 
ATOM     23 CL   UNL d   1      -3.689  -2.578   5.745  0.00  0.00    -0.084 Cl
ATOM     24  C   UNL d   1      -0.474  -1.149   3.837  0.00  0.00     0.031 A 
ENDBRANCH  15  18
ENDBRANCH  13  14
ENDBRANCH  12  13
ENDBRANCH   3  12
BRANCH   5  25
ATOM     25  C   UNL d   1       2.945   1.615   1.460  0.00  0.00     0.133 C 
BRANCH  25  26
ATOM     26  C   UNL d   1       3.241   3.085   1.409  0.00  0.00     0.260 C 
ATOM     27  O   UNL d   1       4.119   3.599   0.719  0.00  0.00    -0.265 OA
BRANCH  26  28
ATOM     28  O   UNL d   1       2.493   3.703   2.361  0.00  0.00    -0.322 OA
BRANCH  28  29
ATOM     29  C   UNL d   1       3.034   4.927   2.868  0.00  0.00     0.174 C 
ATOM     30  C   UNL d   1       4.059   4.573   3.932  0.00  0.00     0.034 C 
ENDBRANCH  28  29
ENDBRANCH  26  28
ENDBRANCH  25  26
ENDBRANCH   5  25
TORSDOF 8
