REMARK  7 active torsions:
REMARK  status: ('A' for Active; 'I' for Inactive)
REMARK    1  A    between atoms: C_6  and  C_1 
REMARK    2  A    between atoms: S_2  and  C_7 
REMARK    3  A    between atoms: C_10  and  S_2 
REMARK    4  A    between atoms: C_7  and  C_5 
REMARK       I    between atoms: N_17  and  C_6 
REMARK    5  A    between atoms: C_11  and  C_10 
REMARK    6  A    between atoms: N_12  and  N_17 
REMARK    7  A    between atoms: C_23  and  C_22 
ROOT
ATOM      1  C   UNL d   1       1.270   0.843  -0.039  0.00  0.00     0.109 A 
ATOM      2  N   UNL d   1       1.465  -0.542  -0.060  0.00  0.00    -0.348 N 
ATOM      3  HN  UNL d   1       2.373  -1.004  -0.092  1.00  0.00     0.166 HD
ATOM      4  C   UNL d   1       0.300  -1.165  -0.034  0.00  0.00     0.065 A 
ATOM      5  C   UNL d   1      -0.057   1.229   0.007  0.00  0.00     0.086 A 
ATOM      6  S   UNL d   1      -1.078  -0.138   0.055  0.00  0.00    -0.085 SA
ENDROOT
BRANCH   1   7
ATOM      7  C   UNL d   1       2.377   1.807  -0.058  0.00  0.00     0.287 C 
ATOM      8  N   UNL d   1       3.634   1.216  -0.107  0.00  0.00    -0.265 N 
ATOM      9  H   UNL d   1       3.707   0.203  -0.126  0.00  0.00     0.190 HD
ATOM     10  O   UNL d   1       2.172   3.018  -0.029  0.00  0.00    -0.264 OA
BRANCH   8  11
ATOM     11  N   UNL d   1       4.734   2.019  -0.123  0.00  0.00    -0.308 N 
ATOM     12  C   UNL d   1       5.898   1.457  -0.150  0.00  0.00     0.118 C 
ATOM     13  HN  UNL d   1       4.642   3.035  -0.115  1.00  0.00     0.186 HD
BRANCH  12  14
ATOM     14  C   UNL d   1       7.123   2.291  -0.164  0.00  0.00    -0.019 A 
ATOM     15  C   UNL d   1       7.023   3.689  -0.187  0.00  0.00     0.014 A 
ATOM     16  C   UNL d   1       8.176   4.477  -0.193  0.00  0.00     0.024 A 
ATOM     17  C   UNL d   1       9.428   3.867  -0.174  0.00  0.00     0.034 A 
ATOM     18  C   UNL d   1       9.535   2.475  -0.153  0.00  0.00     0.024 A 
ATOM     19 CL   UNL d   1      10.850   4.836  -0.175  0.00  0.00    -0.084 Cl
ATOM     20  C   UNL d   1       8.381   1.681  -0.149  0.00  0.00     0.014 A 
ENDBRANCH  12  14
ENDBRANCH   8  11
ENDBRANCH   1   7
BRANCH   4  21
ATOM     21  C   UNL d   1       0.128  -2.643  -0.016  0.00  0.00     0.205 C 
BRANCH  21  22
ATOM     22  S   UNL d   1       0.010  -3.244  -1.693  0.00  0.00     0.156 S 
ATOM     23  O   UNL d   1      -0.074  -4.696  -1.627  0.00  0.00    -0.227 OA
ATOM     24  O   UNL d   1      -1.057  -2.523  -2.370  0.00  0.00    -0.227 OA
BRANCH  22  25
ATOM     25  C   UNL d   1       1.549  -2.807  -2.498  0.00  0.00     0.205 C 
BRANCH  25  26
ATOM     26  C   UNL d   1       2.670  -3.466  -1.796  0.00  0.00     0.066 A 
ATOM     27  O   UNL d   1       3.282  -2.749  -0.811  0.00  0.00    -0.326 OA
ATOM     28  C   UNL d   1       4.239  -3.546  -0.273  0.00  0.00     0.142 A 
ATOM     29  C   UNL d   1       4.273  -4.758  -0.920  0.00  0.00     0.027 A 
ATOM     30  C   UNL d   1       3.265  -4.706  -1.912  0.00  0.00     0.035 A 
ENDBRANCH  25  26
ENDBRANCH  22  25
ENDBRANCH  21  22
ENDBRANCH   4  21
TORSDOF 7
