REMARK  1 active torsions:
REMARK  status: ('A' for Active; 'I' for Inactive)
REMARK    1  A    between atoms: C_7  and  C_6 
ROOT
ATOM      1  C   UNL d   1       1.754  -0.131   0.013  0.00  0.00     0.067 A 
ATOM      2  C   UNL d   1       0.832  -1.296   0.051  0.00  0.00     0.197 A 
ATOM      3  C   UNL d   1       0.940   1.116   0.012  0.00  0.00     0.197 A 
ATOM      4  C   UNL d   1      -0.516  -0.724   0.036  0.00  0.00     0.029 A 
ATOM      5  C   UNL d   1      -0.459   0.667   0.011  0.00  0.00     0.029 A 
ATOM      6  C   UNL d   1       3.090  -0.102  -0.047  0.00  0.00     0.038 C 
ATOM      7  O   UNL d   1       1.329   2.265   0.007  0.00  0.00    -0.286 OA
ATOM      8  O   UNL d   1       1.087  -2.482   0.103  0.00  0.00    -0.286 OA
ATOM      9  C   UNL d   1      -1.720  -1.404   0.042  0.00  0.00     0.016 A 
ATOM     10  C   UNL d   1      -1.608   1.437  -0.016  0.00  0.00     0.016 A 
ATOM     11  C   UNL d   1      -2.836   0.764  -0.014  0.00  0.00     0.001 A 
ATOM     12  C   UNL d   1      -2.891  -0.643   0.016  0.00  0.00     0.001 A 
ENDROOT
BRANCH   6  13
ATOM     13  C   UNL d   1       3.874  -1.282  -0.119  0.00  0.00     0.005 A 
ATOM     14  S   UNL d   1       4.348  -1.900  -1.653  0.00  0.00    -0.102 SA
ATOM     15  C   UNL d   1       5.210  -3.194  -0.945  0.00  0.00     0.050 A 
ATOM     16  C   UNL d   1       5.155  -3.161   0.429  0.00  0.00     0.008 A 
ATOM     17  C   UNL d   1       4.381  -2.062   0.905  0.00  0.00     0.019 A 
ENDBRANCH   6  13
TORSDOF 1
