REMARK  2 active torsions:
REMARK  status: ('A' for Active; 'I' for Inactive)
REMARK    1  A    between atoms: C_12  and  C_9 
REMARK    2  A    between atoms: C_14  and  C_13 
ROOT
ATOM      1  C   UNL d   1       0.329   0.641   0.051  0.00  0.00     0.139 A 
ATOM      2  C   UNL d   1       0.269  -0.766   0.010  0.00  0.00     0.058 A 
ATOM      3  N   UNL d   1       1.584   1.086   0.102  0.00  0.00    -0.254 N 
ATOM      4  HN  UNL d   1       1.898   2.055   0.145  1.00  0.00     0.195 HD
ATOM      5  C   UNL d   1      -0.869   1.451   0.035  0.00  0.00     0.289 A 
ATOM      6  N   UNL d   1      -2.102  -0.699  -0.023  0.00  0.00    -0.301 N 
ATOM      7  HN  UNL d   1      -3.015  -1.154  -0.042  1.00  0.00     0.186 HD
ATOM      8  N   UNL d   1      -2.024   0.683  -0.016  0.00  0.00    -0.264 N 
ATOM      9  C   UNL d   1       1.589  -1.192  -0.008  0.00  0.00     0.113 A 
ATOM     10  O   UNL d   1       2.367  -0.052   0.083  0.00  0.00    -0.236 OA
ATOM     11  C   UNL d   1      -1.017  -1.427  -0.005  0.00  0.00     0.037 A 
ATOM     12  O   UNL d   1      -0.902   2.678   0.056  0.00  0.00    -0.264 OA
ATOM     13  C   UNL d   1      -1.206  -2.919   0.025  0.00  0.00     0.070 C 
ATOM     14  H   UNL d   1      -2.907   1.185  -0.026  0.00  0.00     0.190 HD
ENDROOT
BRANCH   9  15
ATOM     15  C   UNL d   1       2.156  -2.489  -0.127  0.00  0.00     0.041 C 
ATOM     16  C   UNL d   1       3.319  -2.814   0.459  0.00  0.00     0.015 C 
BRANCH  16  17
ATOM     17  C   UNL d   1       3.913  -4.117   0.379  0.00  0.00    -0.029 A 
ATOM     18  C   UNL d   1       4.755  -4.610   1.354  0.00  0.00     0.061 A 
ATOM     19  S   UNL d   1       5.276  -6.207   1.017  0.00  0.00    -0.113 SA
ATOM     20  C   UNL d   1       4.402  -6.242  -0.452  0.00  0.00     0.050 A 
ATOM     21  C   UNL d   1       3.726  -5.064  -0.677  0.00  0.00     0.019 A 
ENDBRANCH  16  17
ENDBRANCH   9  15
TORSDOF 2
