REMARK  3 active torsions:
REMARK  status: ('A' for Active; 'I' for Inactive)
REMARK    1  A    between atoms: C_7  and  N_1 
REMARK    2  A    between atoms: C_15  and  C_8 
REMARK    3  A    between atoms: O_24  and  C_18 
ROOT
ATOM      1  N   UNL d   1      -1.187   1.123  -0.024  0.00  0.00    -0.220 N 
ATOM      2  C   UNL d   1       0.031  -0.773   0.022  0.00  0.00     0.058 A 
ATOM      3  C   UNL d   1      -1.359  -0.265   0.051  0.00  0.00     0.279 A 
ATOM      4  N   UNL d   1       0.146   1.527  -0.089  0.00  0.00    -0.294 N 
ATOM      5  HN  UNL d   1       0.491   2.484  -0.153  1.00  0.00     0.187 HD
ATOM      6  C   UNL d   1       0.866   0.435  -0.054  0.00  0.00     0.038 A 
ATOM      7  C   UNL d   1       0.283  -2.086   0.077  0.00  0.00     0.030 C 
ATOM      8  O   UNL d   1      -2.359  -0.958   0.126  0.00  0.00    -0.265 OA
ATOM      9  C   UNL d   1       2.358   0.449  -0.076  0.00  0.00     0.071 C 
ENDROOT
BRANCH   7  10
ATOM     10  C   UNL d   1       1.601  -2.705   0.128  0.00  0.00    -0.035 A 
ATOM     11  C   UNL d   1       2.188  -2.955   1.372  0.00  0.00     0.014 A 
ATOM     12  C   UNL d   1       3.447  -3.554   1.450  0.00  0.00     0.037 A 
ATOM     13  C   UNL d   1       4.129  -3.907   0.286  0.00  0.00     0.068 A 
ATOM     14  C   UNL d   1       3.533  -3.668  -0.956  0.00  0.00     0.037 A 
ATOM     15  C   UNL d   1       2.272  -3.072  -1.039  0.00  0.00     0.014 A 
BRANCH  13  16
ATOM     16  O   UNL d   1       5.368  -4.484   0.230  0.00  0.00    -0.356 OA
ATOM     17  C   UNL d   1       6.018  -4.722   1.473  0.00  0.00     0.210 C 
ENDBRANCH  13  16
ENDBRANCH   7  10
BRANCH   1  18
ATOM     18  C   UNL d   1      -2.198   2.116  -0.022  0.00  0.00     0.061 A 
ATOM     19  C   UNL d   1      -3.545   1.795   0.187  0.00  0.00     0.057 A 
ATOM     20  C   UNL d   1      -4.535   2.788   0.180  0.00  0.00     0.058 A 
ATOM     21 CL   UNL d   1      -6.167   2.295   0.469  0.00  0.00    -0.082 Cl
ATOM     22  C   UNL d   1      -4.188   4.120  -0.050  0.00  0.00     0.055 A 
ATOM     23  C   UNL d   1      -2.850   4.457  -0.256  0.00  0.00     0.028 A 
ATOM     24 CL   UNL d   1      -5.356   5.391  -0.092  0.00  0.00    -0.083 Cl
ATOM     25  C   UNL d   1      -1.864   3.463  -0.235  0.00  0.00     0.033 A 
ENDBRANCH   1  18
TORSDOF 3
