REMARK  3 active torsions:
REMARK  status: ('A' for Active; 'I' for Inactive)
REMARK    1  A    between atoms: O_9  and  C_1 
REMARK    2  A    between atoms: C_7  and  C_2 
REMARK    3  A    between atoms: O_17  and  C_12 
ROOT
ATOM      1  C   UNL d   1       1.976  -0.268  -0.051  0.00  0.00     0.152 A 
ATOM      2  C   UNL d   1       1.491  -1.526  -0.041  0.00  0.00     0.123 A 
ATOM      3  C   UNL d   1       0.995   0.858  -0.054  0.00  0.00     0.220 A 
ATOM      4  O   UNL d   1       0.149  -1.864  -0.055  0.00  0.00    -0.306 OA
ATOM      5  C   UNL d   1      -0.429   0.491  -0.037  0.00  0.00     0.051 A 
ATOM      6  C   UNL d   1      -0.778  -0.855  -0.044  0.00  0.00     0.090 A 
ATOM      7  O   UNL d   1       1.340   2.035  -0.063  0.00  0.00    -0.284 OA
ATOM      8  C   UNL d   1      -1.421   1.478  -0.009  0.00  0.00     0.018 A 
ATOM      9  C   UNL d   1      -2.123  -1.226  -0.030  0.00  0.00     0.038 A 
ATOM     10  C   UNL d   1      -2.766   1.107   0.011  0.00  0.00     0.001 A 
ATOM     11  C   UNL d   1      -3.116  -0.244  -0.001  0.00  0.00     0.003 A 
ENDROOT
BRANCH   2  12
ATOM     12  C   UNL d   1       2.368  -2.702   0.034  0.00  0.00     0.001 A 
ATOM     13  C   UNL d   1       2.726  -3.224   1.283  0.00  0.00     0.017 A 
ATOM     14  C   UNL d   1       3.583  -4.327   1.377  0.00  0.00     0.037 A 
ATOM     15  C   UNL d   1       4.094  -4.918   0.222  0.00  0.00     0.068 A 
ATOM     16  C   UNL d   1       3.727  -4.404  -1.026  0.00  0.00     0.037 A 
ATOM     17  C   UNL d   1       2.870  -3.303  -1.124  0.00  0.00     0.017 A 
BRANCH  15  18
ATOM     18  O   UNL d   1       4.949  -5.983   0.178  0.00  0.00    -0.356 OA
ATOM     19  C   UNL d   1       5.356  -6.533   1.427  0.00  0.00     0.210 C 
ENDBRANCH  15  18
ENDBRANCH   2  12
BRANCH   1  20
ATOM     20  O   UNL d   1       3.321   0.057  -0.042  0.00  0.00    -0.355 OA
ATOM     21  H   UNL d   1       3.848  -0.756  -0.112  0.00  0.00     0.218 HD
ENDBRANCH   1  20
TORSDOF 3
