REMARK  3 active torsions:
REMARK  status: ('A' for Active; 'I' for Inactive)
REMARK    1  A    between atoms: S_16  and  C_11 
REMARK    2  A    between atoms: C_12  and  C_15 
REMARK    3  A    between atoms: C_15  and  S_16 
ROOT
ATOM      1  S   UNL d   1      -1.191   1.627  -0.173  0.00  0.00     0.268 S 
ATOM      2  C   UNL d   1       0.272   0.774  -0.049  0.00  0.00     0.138 A 
ATOM      3  C   UNL d   1       0.360  -0.583  -0.139  0.00  0.00     0.119 A 
ATOM      4  N   UNL d   1      -2.297   0.589   0.365  0.00  0.00    -0.268 N 
ATOM      5  HN  UNL d   1      -3.118   0.976   0.831  1.00  0.00     0.180 HD
ATOM      6  S   UNL d   1      -0.928  -1.685  -0.392  0.00  0.00    -0.044 SA
ATOM      7  N   UNL d   1       1.678  -0.898  -0.011  0.00  0.00    -0.288 N 
ATOM      8  C   UNL d   1       1.597   1.235   0.055  0.00  0.00     0.048 A 
ATOM      9  N   UNL d   1       2.458   0.202   0.106  0.00  0.00    -0.301 N 
ATOM     10  HN  UNL d   1       3.472   0.240   0.211  1.00  0.00     0.187 HD
ATOM     11  C   UNL d   1      -2.227  -0.691   0.255  0.00  0.00     0.123 C 
ATOM     12  O   UNL d   1      -1.351   1.841  -1.593  0.00  0.00    -0.200 OA
ATOM     13  O   UNL d   1      -1.052   2.715   0.766  0.00  0.00    -0.200 OA
ATOM     14  C   UNL d   1       2.313  -2.194   0.033  0.00  0.00     0.178 C 
ATOM     15  C   UNL d   1       2.123   2.622   0.086  0.00  0.00     0.071 C 
ENDROOT
BRANCH  11  16
ATOM     16  S   UNL d   1      -3.548  -1.694   0.848  0.00  0.00    -0.099 SA
BRANCH  16  17
ATOM     17  C   UNL d   1      -4.720  -0.441   1.431  0.00  0.00     0.125 C 
BRANCH  17  18
ATOM     18  C   UNL d   1      -5.975  -1.073   1.978  0.00  0.00     0.012 A 
ATOM     19  C   UNL d   1      -7.024  -1.369   1.098  0.00  0.00     0.125 A 
ATOM     20  F   UNL d   1      -6.894  -1.091  -0.207  0.00  0.00    -0.205 F 
ATOM     21  C   UNL d   1      -8.216  -1.944   1.535  0.00  0.00     0.043 A 
ATOM     22  C   UNL d   1      -8.383  -2.243   2.883  0.00  0.00     0.005 A 
ATOM     23  C   UNL d   1      -7.348  -1.978   3.779  0.00  0.00     0.024 A 
ATOM     24  C   UNL d   1      -6.149  -1.406   3.330  0.00  0.00     0.044 A 
ATOM     25 CL   UNL d   1      -4.911  -1.136   4.504  0.00  0.00    -0.084 Cl
ENDBRANCH  17  18
ENDBRANCH  16  17
ENDBRANCH  11  16
TORSDOF 3
