REMARK  5 active torsions:
REMARK  status: ('A' for Active; 'I' for Inactive)
REMARK    1  A    between atoms: C_8  and  C_1 
REMARK    2  A    between atoms: C_9  and  N_6 
REMARK    3  A    between atoms: C_11  and  C_9 
REMARK    4  A    between atoms: O_16  and  C_11 
REMARK    5  A    between atoms: C_17  and  O_16 
ROOT
ATOM      1  C   UNL d   1      -0.185  -1.026   0.841  0.00  0.00     0.151 C 
ATOM      2  N   UNL d   1       0.685  -0.105   1.290  0.00  0.00    -0.268 N 
ATOM      3  HN  UNL d   1       1.015   0.083   2.237  1.00  0.00     0.190 HD
ATOM      4  N   UNL d   1      -0.502  -0.857  -0.486  0.00  0.00    -0.266 N 
ATOM      5  HN  UNL d   1      -1.179  -1.398  -1.025  1.00  0.00     0.186 HD
ATOM      6  N   UNL d   1       0.994   0.498   0.126  0.00  0.00    -0.207 N 
ATOM      7  N   UNL d   1       0.243   0.147  -0.931  0.00  0.00    -0.002 NA
ENDROOT
BRANCH   6   8
ATOM      8  C   UNL d   1       2.137   1.363  -0.007  0.00  0.00     0.278 C 
BRANCH   8   9
ATOM      9  C   UNL d   1       3.394   0.544  -0.050  0.00  0.00     0.280 C 
ATOM     10  O   UNL d   1       3.468  -0.675  -0.080  0.00  0.00    -0.263 OA
BRANCH   9  11
ATOM     11  O   UNL d   1       4.477   1.378  -0.021  0.00  0.00    -0.320 OA
BRANCH  11  12
ATOM     12  C   UNL d   1       5.744   0.728   0.172  0.00  0.00     0.174 C 
ATOM     13  C   UNL d   1       6.029   0.668   1.661  0.00  0.00     0.034 C 
ENDBRANCH  11  12
ENDBRANCH   9  11
ENDBRANCH   8   9
ENDBRANCH   6   8
BRANCH   1  14
ATOM     14  C   UNL d   1      -0.679  -2.159   1.678  0.00  0.00     0.051 A 
ATOM     15  S   UNL d   1      -1.671  -3.415   1.086  0.00  0.00    -0.098 SA
ATOM     16  C   UNL d   1      -1.612  -4.246   2.581  0.00  0.00     0.050 A 
ATOM     17  C   UNL d   1      -0.884  -3.559   3.527  0.00  0.00     0.009 A 
ATOM     18  C   UNL d   1      -0.349  -2.344   3.005  0.00  0.00     0.023 A 
ENDBRANCH   1  14
TORSDOF 5
