REMARK  5 active torsions:
REMARK  status: ('A' for Active; 'I' for Inactive)
REMARK    1  A    between atoms: N_2  and  S_1 
REMARK    2  A    between atoms: C_3  and  S_1 
REMARK       I    between atoms: C_4  and  N_7 
REMARK    3  A    between atoms: C_15  and  C_4 
REMARK    4  A    between atoms: N_7  and  C_16 
REMARK    5  A    between atoms: C_20  and  C_15 
ROOT
ATOM      1  N   UNL d   1       0.314  -0.550   1.448  0.00  0.00    -0.206 NA
ATOM      2  C   UNL d   1      -0.952   0.123   1.867  0.00  0.00     0.109 C 
ATOM      3  C   UNL d   1       0.184  -2.040   1.504  0.00  0.00     0.109 C 
ATOM      4  C   UNL d   1      -1.311  -0.299   3.289  0.00  0.00     0.041 C 
ATOM      5  C   UNL d   1      -0.239  -2.510   2.893  0.00  0.00     0.041 C 
ATOM      6  C   UNL d   1      -1.516  -1.816   3.377  0.00  0.00     0.086 C 
ENDROOT
BRANCH   6   7
ATOM      7  N   UNL d   1      -2.697  -2.262   2.634  0.00  0.00    -0.356 N 
ATOM      8  C   UNL d   1      -3.977  -1.873   2.997  0.00  0.00     0.222 C 
ATOM      9  O   UNL d   1      -4.212  -1.140   3.952  0.00  0.00    -0.273 OA
ATOM     10  H   UNL d   1      -2.614  -3.044   1.998  0.00  0.00     0.162 HD
BRANCH   8  11
ATOM     11  C   UNL d   1      -5.074  -2.389   2.084  0.00  0.00     0.141 C 
BRANCH  11  12
ATOM     12  C   UNL d   1      -5.710  -3.668   2.566  0.00  0.00    -0.050 A 
ATOM     13  C   UNL d   1      -6.357  -3.728   3.810  0.00  0.00     0.007 A 
ATOM     14  C   UNL d   1      -6.966  -4.910   4.236  0.00  0.00     0.001 A 
ATOM     15  C   UNL d   1      -6.941  -6.041   3.422  0.00  0.00     0.000 A 
ATOM     16  C   UNL d   1      -6.312  -5.989   2.180  0.00  0.00     0.001 A 
ATOM     17  C   UNL d   1      -5.703  -4.809   1.753  0.00  0.00     0.007 A 
ENDBRANCH  11  12
ENDBRANCH   8  11
ENDBRANCH   6   7
BRANCH   1  18
ATOM     18  S   UNL d   1       0.898  -0.045  -0.098  0.00  0.00     0.243 S 
ATOM     19  O   UNL d   1      -0.234  -0.092  -1.005  0.00  0.00    -0.206 OA
ATOM     20  O   UNL d   1       2.106  -0.790  -0.383  0.00  0.00    -0.206 OA
BRANCH  18  21
ATOM     21  C   UNL d   1       1.379   1.649   0.118  0.00  0.00     0.074 A 
ATOM     22  C   UNL d   1       2.366   1.974   1.050  0.00  0.00     0.025 A 
ATOM     23  C   UNL d   1       2.821   3.293   1.139  0.00  0.00     0.008 A 
ATOM     24  C   UNL d   1       2.298   4.286   0.297  0.00  0.00    -0.062 A 
ATOM     25  C   UNL d   1       1.307   3.944  -0.632  0.00  0.00     0.008 A 
ATOM     26  C   UNL d   1       2.816   5.694   0.377  0.00  0.00     0.048 C 
ATOM     27  C   UNL d   1       0.846   2.629  -0.723  0.00  0.00     0.025 A 
ENDBRANCH  18  21
ENDBRANCH   1  18
TORSDOF 5
