REMARK  5 active torsions:
REMARK  status: ('A' for Active; 'I' for Inactive)
REMARK    1  A    between atoms: C_6  and  C_1 
REMARK    2  A    between atoms: C_7  and  C_3 
REMARK    3  A    between atoms: O_12  and  C_6 
REMARK    4  A    between atoms: C_8  and  C_7 
REMARK    5  A    between atoms: O_14  and  C_8 
ROOT
ATOM      1  C   UNL d   1      -0.878  -1.259   0.038  0.00  0.00     0.053 A 
ATOM      2  C   UNL d   1      -1.242   0.033   0.022  0.00  0.00     0.021 A 
ATOM      3  C   UNL d   1       0.634  -1.419   0.036  0.00  0.00     0.128 A 
ATOM      4  C   UNL d   1       1.034   0.057   0.024  0.00  0.00     0.231 A 
ATOM      5  N   UNL d   1      -0.121   0.807   0.014  0.00  0.00    -0.330 N 
ATOM      6  O   UNL d   1       2.165   0.510   0.044  0.00  0.00    -0.272 OA
ATOM      7  C   UNL d   1      -2.574   0.699  -0.006  0.00  0.00     0.069 C 
ATOM      8  H   UNL d   1      -0.103   1.819   0.007  0.00  0.00     0.168 HD
ENDROOT
BRANCH   3   9
ATOM      9  C   UNL d   1       1.198  -2.087   1.282  0.00  0.00     0.130 C 
BRANCH   9  10
ATOM     10  C   UNL d   1       2.702  -2.204   1.181  0.00  0.00     0.259 C 
ATOM     11  O   UNL d   1       3.285  -2.760   0.263  0.00  0.00    -0.265 OA
BRANCH  10  12
ATOM     12  O   UNL d   1       3.291  -1.629   2.266  0.00  0.00    -0.326 OA
ATOM     13  C   UNL d   1       4.718  -1.661   2.254  0.00  0.00     0.213 C 
ENDBRANCH  10  12
ENDBRANCH   9  10
ENDBRANCH   3   9
BRANCH   1  14
ATOM     14  C   UNL d   1      -1.822  -2.387   0.033  0.00  0.00     0.291 C 
ATOM     15  O   UNL d   1      -2.995  -2.307   0.356  0.00  0.00    -0.260 OA
BRANCH  14  16
ATOM     16  O   UNL d   1      -1.198  -3.515  -0.388  0.00  0.00    -0.323 OA
ATOM     17  C   UNL d   1      -2.072  -4.646  -0.469  0.00  0.00     0.213 C 
ENDBRANCH  14  16
ENDBRANCH   1  14
TORSDOF 5
