REMARK  4 active torsions:
REMARK  status: ('A' for Active; 'I' for Inactive)
REMARK    1  A    between atoms: O_8  and  S_1 
REMARK    2  A    between atoms: C_9  and  S_1 
REMARK    3  A    between atoms: C_15  and  C_2 
REMARK    4  A    between atoms: C_14  and  O_8 
ROOT
ATOM      1  C   UNL d   1       0.664  -0.515   7.581  0.00  0.00     0.048 A 
ATOM      2  C   UNL d   1       1.782  -0.474   6.602  0.00  0.00     0.197 A 
ATOM      3  C   UNL d   1       1.423  -0.103   5.221  0.00  0.00     0.049 A 
ATOM      4  C   UNL d   1      -0.558  -0.171   7.153  0.00  0.00     0.159 A 
ATOM      5  C   UNL d   1       0.099   0.214   4.932  0.00  0.00     0.091 A 
ATOM      6  O   UNL d   1      -0.893   0.220   5.880  0.00  0.00    -0.321 OA
ATOM      7  C   UNL d   1      -0.281   0.519   3.627  0.00  0.00     0.076 A 
ATOM      8  C   UNL d   1       2.383  -0.092   4.204  0.00  0.00     0.021 A 
ATOM      9  C   UNL d   1       0.657   0.460   2.592  0.00  0.00     0.092 A 
ATOM     10  O   UNL d   1       2.939  -0.742   6.901  0.00  0.00    -0.286 OA
ATOM     11  C   UNL d   1       1.997   0.191   2.889  0.00  0.00     0.039 A 
ENDROOT
BRANCH   9  12
ATOM     12  O   UNL d   1       0.348   0.624   1.262  0.00  0.00    -0.229 OA
BRANCH  12  13
ATOM     13  S   UNL d   1      -1.181   0.425   0.730  0.00  0.00     0.303 S 
ATOM     14  O   UNL d   1      -1.893   1.680   0.916  0.00  0.00    -0.193 OA
ATOM     15  O   UNL d   1      -1.724  -0.807   1.279  0.00  0.00    -0.193 OA
BRANCH  13  16
ATOM     16  C   UNL d   1      -1.024   0.157  -1.017  0.00  0.00     0.086 A 
ATOM     17  C   UNL d   1      -0.746  -1.131  -1.481  0.00  0.00     0.026 A 
ATOM     18  C   UNL d   1      -0.800  -1.396  -2.849  0.00  0.00     0.008 A 
ATOM     19  C   UNL d   1      -1.137  -0.382  -3.756  0.00  0.00    -0.062 A 
ATOM     20  C   UNL d   1      -1.387   0.913  -3.280  0.00  0.00     0.008 A 
ATOM     21  C   UNL d   1      -1.272  -0.703  -5.216  0.00  0.00     0.048 C 
ATOM     22  C   UNL d   1      -1.335   1.186  -1.911  0.00  0.00     0.026 A 
ENDBRANCH  13  16
ENDBRANCH  12  13
ENDBRANCH   9  12
BRANCH   1  23
ATOM     23  C   UNL d   1       0.872  -0.894   8.980  0.00  0.00    -0.020 A 
ATOM     24  C   UNL d   1       0.665  -2.214   9.401  0.00  0.00     0.012 A 
ATOM     25  C   UNL d   1       0.864  -2.563  10.738  0.00  0.00     0.001 A 
ATOM     26  C   UNL d   1       1.265  -1.597  11.660  0.00  0.00     0.000 A 
ATOM     27  C   UNL d   1       1.465  -0.280  11.249  0.00  0.00     0.001 A 
ATOM     28  C   UNL d   1       1.268   0.072   9.913  0.00  0.00     0.012 A 
ENDBRANCH   1  23
TORSDOF 4
