REMARK  5 active torsions:
REMARK  status: ('A' for Active; 'I' for Inactive)
REMARK    1  A    between atoms: C_9  and  C_1 
REMARK    2  A    between atoms: C_2  and  C_6 
REMARK    3  A    between atoms: N_3  and  O_7 
REMARK    4  A    between atoms: C_5  and  C_11 
REMARK    5  A    between atoms: O_7  and  C_5 
ROOT
ATOM      1  C   UNL d   1       0.758   3.878   0.551  0.00  0.00     0.315 C 
ATOM      2  O   UNL d   1       1.028   2.807   0.022  0.00  0.00    -0.257 OA
ENDROOT
BRANCH   1   3
ATOM      3  C   UNL d   1      -0.054   3.980   1.795  0.00  0.00     0.041 A 
ATOM      4  C   UNL d   1      -0.322   5.199   2.433  0.00  0.00     0.018 A 
ATOM      5  C   UNL d   1      -1.012   5.216   3.652  0.00  0.00     0.017 A 
ATOM      6  C   UNL d   1      -1.442   4.021   4.252  0.00  0.00     0.048 A 
ATOM      7  C   UNL d   1      -1.182   2.807   3.603  0.00  0.00     0.017 A 
ATOM      8  C   UNL d   1      -0.495   2.788   2.385  0.00  0.00     0.018 A 
BRANCH   6   9
ATOM      9  C   UNL d   1      -2.155   4.056   5.584  0.00  0.00     0.417 C 
ATOM     10  F   UNL d   1      -2.548   2.829   6.026  0.00  0.00    -0.166 F 
ATOM     11  F   UNL d   1      -3.281   4.820   5.552  0.00  0.00    -0.166 F 
ATOM     12  F   UNL d   1      -1.378   4.578   6.574  0.00  0.00    -0.166 F 
ENDBRANCH   6   9
ENDBRANCH   1   3
BRANCH   1  13
ATOM     13  O   UNL d   1       1.186   5.108   0.143  0.00  0.00    -0.195 OA
BRANCH  13  14
ATOM     14  N   UNL d   1       2.565   5.023  -0.117  0.00  0.00    -0.261 N 
ATOM     15  C   UNL d   1       3.004   5.978  -0.882  0.00  0.00     0.040 C 
ATOM     16  C   UNL d   1       2.107   6.997  -1.542  0.00  0.00     0.071 C 
ATOM     17  HN  UNL d   1       3.162   4.286   0.257  1.00  0.00     0.194 HD
BRANCH  15  18
ATOM     18  C   UNL d   1       4.457   6.027  -1.051  0.00  0.00     0.005 A 
ATOM     19  C   UNL d   1       5.341   5.083  -0.549  0.00  0.00     0.101 A 
ATOM     20  N   UNL d   1       6.620   5.466  -0.840  0.00  0.00    -0.374 N 
ATOM     21  C   UNL d   1       6.589   6.645  -1.534  0.00  0.00     0.088 A 
ATOM     22  H   UNL d   1       7.455   4.961  -0.572  0.00  0.00     0.164 HD
ATOM     23  C   UNL d   1       5.269   7.010  -1.691  0.00  0.00     0.032 A 
ENDBRANCH  15  18
ENDBRANCH  13  14
ENDBRANCH   1  13
TORSDOF 5
