REMARK  3 active torsions:
REMARK  status: ('A' for Active; 'I' for Inactive)
REMARK    1  A    between atoms: C_17  and  N_1 
REMARK    2  A    between atoms: C_4  and  C_7 
REMARK    3  A    between atoms: C_14  and  C_17 
ROOT
ATOM      1  C   UNL d   1       5.697   4.006  -1.543  0.00  0.00     0.127 C 
ATOM      2  C   UNL d   1       6.918   4.425  -0.728  0.00  0.00     0.026 C 
ATOM      3  C   UNL d   1       4.916   5.198  -2.136  0.00  0.00     0.059 C 
ATOM      4  C   UNL d   1       7.108   5.701  -0.341  0.00  0.00     0.020 C 
ATOM      5  N   UNL d   1       6.253   6.686  -0.807  0.00  0.00    -0.362 N 
ATOM      6  C   UNL d   1       5.213   6.454  -1.710  0.00  0.00     0.023 C 
ATOM      7  C   UNL d   1       3.856   4.910  -3.082  0.00  0.00     0.098 C 
ATOM      8  C   UNL d   1       7.888   3.362  -0.339  0.00  0.00     0.158 C 
ATOM      9  N   UNL d   1       3.021   4.652  -3.848  0.00  0.00    -0.192 NA
ATOM     10  O   UNL d   1       7.771   2.218  -0.776  0.00  0.00    -0.293 OA
ATOM     11  C   UNL d   1       8.190   6.097   0.640  0.00  0.00     0.058 C 
ATOM     12  C   UNL d   1       4.420   7.653  -2.161  0.00  0.00     0.069 C 
ATOM     13  C   UNL d   1       9.076   3.753   0.509  0.00  0.00     0.084 C 
ATOM     14  C   UNL d   1       8.705   4.897   1.438  0.00  0.00     0.014 C 
ATOM     15  H   UNL d   1       6.393   7.634  -0.460  0.00  0.00     0.165 HD
ENDROOT
BRANCH   1  16
ATOM     16  C   UNL d   1       4.782   3.143  -0.713  0.00  0.00     0.067 A 
ATOM     17  O   UNL d   1       4.333   3.686   0.457  0.00  0.00    -0.317 OA
ATOM     18  C   UNL d   1       3.523   2.765   1.045  0.00  0.00     0.071 A 
ATOM     19  C   UNL d   1       3.428   1.645   0.245  0.00  0.00     0.037 A 
ATOM     20  C   UNL d   1       4.266   1.876  -0.873  0.00  0.00     0.036 A 
BRANCH  18  21
ATOM     21  C   UNL d   1       2.969   3.126   2.375  0.00  0.00     0.200 C 
BRANCH  21  22
ATOM     22  N   UNL d   1       1.724   3.839   2.218  0.00  0.00    -0.274 N 
ATOM     23  C   UNL d   1       1.607   5.204   2.259  0.00  0.00     0.262 A 
ATOM     24  C   UNL d   1       0.176   5.489   2.116  0.00  0.00     0.048 A 
ATOM     25  O   UNL d   1       2.458   6.056   2.414  0.00  0.00    -0.267 OA
ATOM     26  C   UNL d   1      -0.502   6.693   2.109  0.00  0.00     0.018 A 
ATOM     27  C   UNL d   1      -0.488   4.279   2.014  0.00  0.00     0.048 A 
ATOM     28  C   UNL d   1      -1.895   6.643   1.985  0.00  0.00     0.001 A 
ATOM     29  C   UNL d   1      -2.569   5.409   1.877  0.00  0.00     0.001 A 
ATOM     30  C   UNL d   1      -1.862   4.202   1.894  0.00  0.00     0.018 A 
ATOM     31  C   UNL d   1       0.513   3.218   2.092  0.00  0.00     0.262 A 
ATOM     32  O   UNL d   1       0.252   2.029   2.080  0.00  0.00    -0.267 OA
ENDBRANCH  21  22
ENDBRANCH  18  21
ENDBRANCH   1  16
TORSDOF 3
