REMARK  4 active torsions:
REMARK  status: ('A' for Active; 'I' for Inactive)
REMARK    1  A    between atoms: S_2  and  N_1 
REMARK    2  A    between atoms: C_10  and  S_2 
REMARK    3  A    between atoms: C_8  and  C_5 
REMARK    4  A    between atoms: C_9  and  C_8 
ROOT
ATOM      1  N   UNL d   1      -0.198  -1.124   0.048  0.00  0.00    -0.181 N 
ATOM      2  N   UNL d   1       1.082  -0.752   0.282  0.00  0.00    -0.288 N 
ATOM      3  HN  UNL d   1       1.879  -1.356   0.484  1.00  0.00     0.188 HD
ATOM      4  C   UNL d   1      -0.248   1.104   0.007  0.00  0.00    -0.005 C 
ATOM      5  C   UNL d   1      -1.060  -0.034   0.063  0.00  0.00     0.051 C 
ATOM      6  C   UNL d   1       1.073   0.579   0.189  0.00  0.00     0.032 C 
ATOM      7  C   UNL d   1      -2.538  -0.170   0.112  0.00  0.00     0.072 C 
ATOM      8  C   UNL d   1       2.378   1.278   0.321  0.00  0.00     0.070 C 
ENDROOT
BRANCH   1   9
ATOM      9  S   UNL d   1      -0.693  -2.795  -0.062  0.00  0.00     0.282 S 
ATOM     10  O   UNL d   1      -1.907  -2.810  -0.853  0.00  0.00    -0.198 OA
ATOM     11  O   UNL d   1       0.482  -3.549  -0.467  0.00  0.00    -0.198 OA
BRANCH   9  12
ATOM     12  C   UNL d   1      -1.086  -3.276   1.596  0.00  0.00     0.081 A 
ATOM     13  C   UNL d   1      -2.334  -3.858   1.864  0.00  0.00     0.027 A 
ATOM     14  C   UNL d   1      -2.621  -4.321   3.149  0.00  0.00     0.025 A 
ATOM     15  C   UNL d   1      -1.662  -4.212   4.156  0.00  0.00     0.034 A 
ATOM     16  C   UNL d   1      -0.415  -3.643   3.890  0.00  0.00     0.025 A 
ATOM     17 CL   UNL d   1      -2.014  -4.802   5.734  0.00  0.00    -0.084 Cl
ATOM     18  C   UNL d   1      -0.121  -3.176   2.605  0.00  0.00     0.027 A 
ENDBRANCH   9  12
ENDBRANCH   1   9
BRANCH   4  19
ATOM     19  C   UNL d   1      -0.673   2.557  -0.071  0.00  0.00     0.084 C 
BRANCH  19  20
ATOM     20  C   UNL d   1      -0.697   2.972  -1.533  0.00  0.00    -0.010 C 
ATOM     21  C   UNL d   1      -1.844   2.825  -2.343  0.00  0.00     0.042 C 
ATOM     22 CL   UNL d   1      -3.409   2.467  -1.704  0.00  0.00    -0.084 Cl
ATOM     23  C   UNL d   1      -1.815   3.086  -3.722  0.00  0.00     0.024 C 
ATOM     24  C   UNL d   1      -0.658   3.554  -4.326  0.00  0.00     0.003 C 
ATOM     25  C   UNL d   1       0.451   3.821  -3.536  0.00  0.00     0.024 C 
ATOM     26  C   UNL d   1       0.425   3.558  -2.158  0.00  0.00     0.042 C 
ATOM     27 CL   UNL d   1       1.793   4.133  -1.267  0.00  0.00    -0.084 Cl
ENDBRANCH  19  20
ENDBRANCH   4  19
TORSDOF 4
