REMARK  3 active torsions:
REMARK  status: ('A' for Active; 'I' for Inactive)
REMARK    1  A    between atoms: S_4  and  C_1 
REMARK    2  A    between atoms: O_5  and  C_2 
REMARK    3  A    between atoms: O_6  and  C_3 
ROOT
ATOM      1  C   UNL d   1       1.639  -0.434   0.448  0.00  0.00     0.067 A 
ATOM      2  C   UNL d   1       0.680  -1.417   0.140  0.00  0.00     0.087 A 
ATOM      3  C   UNL d   1       1.262   0.917   0.306  0.00  0.00     0.087 A 
ATOM      4  C   UNL d   1      -0.957   0.277  -0.422  0.00  0.00     0.006 A 
ATOM      5  C   UNL d   1      -0.608  -1.066  -0.285  0.00  0.00     0.038 A 
ATOM      6  C   UNL d   1      -0.024   1.265  -0.117  0.00  0.00     0.038 A 
ENDROOT
BRANCH   1   7
ATOM      7  S   UNL d   1       3.262  -0.887   1.074  0.00  0.00    -0.129 SA
ATOM      8  C   UNL d   1       4.122  -1.155  -0.498  0.00  0.00     0.096 C 
ENDBRANCH   1   7
BRANCH   2   9
ATOM      9  O   UNL d   1       0.929  -2.748   0.367  0.00  0.00    -0.354 OA
ATOM     10  C   UNL d   1       1.357  -3.413  -0.819  0.00  0.00     0.210 C 
ENDBRANCH   2   9
BRANCH   3  11
ATOM     11  O   UNL d   1       2.072   1.960   0.687  0.00  0.00    -0.354 OA
ATOM     12  C   UNL d   1       3.056   2.267  -0.298  0.00  0.00     0.210 C 
ENDBRANCH   3  11
TORSDOF 3
