REMARK  7 active torsions:
REMARK  status: ('A' for Active; 'I' for Inactive)
REMARK    1  A    between atoms: C_2  and  C_1 
REMARK    2  A    between atoms: C_3  and  C_1 
REMARK    3  A    between atoms: C_7  and  C_1 
REMARK       I    between atoms: N_5  and  C_2 
REMARK    4  A    between atoms: N_6  and  C_3 
REMARK    5  A    between atoms: C_4  and  C_11 
REMARK    6  A    between atoms: C_14  and  N_6 
REMARK    7  A    between atoms: N_8  and  C_7 
ROOT
ATOM      1  C   UNL d   1       0.457   0.944  -1.128  0.00  0.00     0.103 C 
ATOM      2  S   UNL d   1      -0.998   0.576  -1.899  0.00  0.00    -0.063 SA
ENDROOT
BRANCH   1   3
ATOM      3  C   UNL d   1       0.925   0.051   0.042  0.00  0.00     0.227 C 
BRANCH   3   4
ATOM      4  C   UNL d   1       0.500   0.479   1.425  0.00  0.00     0.243 C 
ATOM      5  N   UNL d   1       0.264  -0.512   2.366  0.00  0.00    -0.351 N 
ATOM      6  C   UNL d   1       0.219  -1.953   2.183  0.00  0.00     0.126 C 
ATOM      7  C   UNL d   1       0.093  -0.176   3.769  0.00  0.00     0.126 C 
ATOM      8  C   UNL d   1      -0.710  -2.405   3.296  0.00  0.00     0.021 C 
ATOM      9  C   UNL d   1      -0.372  -1.463   4.446  0.00  0.00     0.021 C 
ATOM     10  O   UNL d   1       0.450   1.674   1.724  0.00  0.00    -0.271 OA
ENDBRANCH   3   4
BRANCH   3  11
ATOM     11  C   UNL d   1       2.445   0.051   0.042  0.00  0.00    -0.056 C 
BRANCH  11  12
ATOM     12  N   UNL d   1       3.706   0.051   0.042  0.00  0.00    -0.369 N 
ATOM     13  HN2 UNL d   1       2.686   0.051   0.042  1.00  0.00     0.165 HD
ATOM     14  HN1 UNL d   1       4.726   0.051   0.042  1.00  0.00     0.165 HD
ENDBRANCH  11  12
ENDBRANCH   3  11
ENDBRANCH   1   3
BRANCH   1  15
ATOM     15  N   UNL d   1       1.262   2.023  -1.481  0.00  0.00    -0.349 N 
ATOM     16  H   UNL d   1       1.704   2.538  -0.720  0.00  0.00     0.166 HD
BRANCH  15  17
ATOM     17  C   UNL d   1       1.729   2.388  -2.773  0.00  0.00     0.033 A 
ATOM     18  C   UNL d   1       1.692   1.536  -3.885  0.00  0.00     0.045 A 
ATOM     19  C   UNL d   1       2.328   1.886  -5.097  0.00  0.00     0.050 A 
ATOM     20  C   UNL d   1       2.939   3.143  -5.213  0.00  0.00     0.016 A 
ATOM     21  C   UNL d   1       2.962   4.005  -4.121  0.00  0.00     0.003 A 
ATOM     22  C   UNL d   1       2.385   3.623  -2.908  0.00  0.00     0.029 A 
BRANCH  19  23
ATOM     23  C   UNL d   1       2.426   0.908  -6.244  0.00  0.00     0.417 C 
ATOM     24  F   UNL d   1       1.923  -0.325  -5.956  0.00  0.00    -0.166 F 
ATOM     25  F   UNL d   1       1.773   1.330  -7.361  0.00  0.00    -0.166 F 
ATOM     26  F   UNL d   1       3.716   0.695  -6.629  0.00  0.00    -0.166 F 
ENDBRANCH  19  23
ENDBRANCH  15  17
ENDBRANCH   1  15
TORSDOF 7
