REMARK  2 active torsions:
REMARK  status: ('A' for Active; 'I' for Inactive)
REMARK    1  A    between atoms: C_3  and  C_4 
REMARK       I    between atoms: N_5  and  C_3 
REMARK    2  A    between atoms: C_7  and  N_5 
ROOT
ATOM      1  N   UNL d   1       6.564   2.241  -1.753  0.00  0.00    -0.197 NA
ATOM      2  C   UNL d   1       6.243   1.293  -2.343  0.00  0.00     0.068 C 
ATOM      3  C   UNL d   1       5.771   0.104  -3.041  0.00  0.00     0.226 C 
ENDROOT
BRANCH   3   4
ATOM      4  C   UNL d   1       4.302   0.151  -3.418  0.00  0.00     0.235 C 
ATOM      5  N   UNL d   1       3.480   0.937  -2.626  0.00  0.00    -0.326 N 
ATOM      6  H   UNL d   1       3.911   1.600  -1.989  0.00  0.00     0.169 HD
ATOM      7  O   UNL d   1       3.914  -0.564  -4.343  0.00  0.00    -0.272 OA
BRANCH   5   8
ATOM      8  C   UNL d   1       2.067   0.930  -2.597  0.00  0.00     0.034 A 
ATOM      9  C   UNL d   1       1.275   0.027  -3.312  0.00  0.00     0.031 A 
ATOM     10  C   UNL d   1      -0.114   0.011  -3.146  0.00  0.00     0.026 A 
ATOM     11  C   UNL d   1      -0.721   0.906  -2.271  0.00  0.00     0.034 A 
ATOM     12  C   UNL d   1       0.049   1.837  -1.579  0.00  0.00     0.026 A 
ATOM     13 CL   UNL d   1      -2.421   0.846  -2.026  0.00  0.00    -0.084 Cl
ATOM     14  C   UNL d   1       1.438   1.850  -1.744  0.00  0.00     0.031 A 
ENDBRANCH   5   8
ENDBRANCH   3   4
TORSDOF 2
