REMARK  3 active torsions:
REMARK  status: ('A' for Active; 'I' for Inactive)
REMARK    1  A    between atoms: N_7  and  C_1 
REMARK       I    between atoms: C_6  and  N_7 
REMARK       I    between atoms: N_8  and  C_6 
REMARK    2  A    between atoms: N_9  and  N_8 
REMARK    3  A    between atoms: C_13  and  N_9 
ROOT
ATOM      1  C   UNL d   1       2.812  -2.424  -0.310  0.00  0.00     0.312 C 
ATOM      2  N   UNL d   1       3.018  -3.523  -1.075  0.00  0.00    -0.310 N 
ATOM      3  N   UNL d   1       3.748  -1.431  -0.267  0.00  0.00    -0.172 NA
ATOM      4  O   UNL d   1       1.749  -2.343   0.312  0.00  0.00    -0.252 OA
ATOM      5  H   UNL d   1       2.209  -4.128  -0.989  0.00  0.00     0.170 HD
ATOM      6  H   UNL d   1       4.716  -1.731  -0.289  0.00  0.00     0.152 HD
ENDROOT
BRANCH   2   7
ATOM      7  C   UNL d   1       3.970  -3.950  -1.999  0.00  0.00     0.067 A 
ATOM      8  C   UNL d   1       5.191  -3.445  -2.404  0.00  0.00     0.102 A 
ATOM      9  S   UNL d   1       5.909  -4.322  -3.683  0.00  0.00    -0.063 SA
ATOM     10 CL   UNL d   1       6.134  -2.129  -1.828  0.00  0.00    -0.074 Cl
ATOM     11  C   UNL d   1       4.675  -5.463  -3.646  0.00  0.00     0.078 A 
ATOM     12  C   UNL d   1       3.708  -5.178  -2.721  0.00  0.00     0.063 A 
ATOM     13 CL   UNL d   1       4.719  -6.814  -4.703  0.00  0.00    -0.076 Cl
ENDBRANCH   2   7
BRANCH   3  14
ATOM     14  N   UNL d   1       3.515  -0.428   0.709  0.00  0.00    -0.219 NA
ATOM     15  H   UNL d   1       2.551  -0.483   1.066  0.00  0.00     0.147 HD
BRANCH  14  16
ATOM     16  C   UNL d   1       3.829   0.897   0.322  0.00  0.00     0.023 A 
ATOM     17  C   UNL d   1       4.606   1.222  -0.796  0.00  0.00     0.025 A 
ATOM     18  C   UNL d   1       4.945   2.549  -1.081  0.00  0.00     0.002 A 
ATOM     19  C   UNL d   1       4.530   3.573  -0.235  0.00  0.00     0.000 A 
ATOM     20  C   UNL d   1       3.788   3.270   0.901  0.00  0.00     0.002 A 
ATOM     21  C   UNL d   1       3.449   1.942   1.180  0.00  0.00     0.025 A 
ENDBRANCH  14  16
ENDBRANCH   3  14
TORSDOF 3
