REMARK  4 active torsions:
REMARK  status: ('A' for Active; 'I' for Inactive)
REMARK    1  A    between atoms: O_7  and  N_1 
REMARK    2  A    between atoms: C_3  and  C_4 
REMARK    3  A    between atoms: C_5  and  O_7 
REMARK    4  A    between atoms: C_8  and  C_5 
ROOT
ATOM      1  N   UNL d   1       1.075  -0.040  -0.015  0.00  0.00    -0.260 N 
ATOM      2  HN  UNL d   1       2.092   0.014   0.026  1.00  0.00     0.194 HD
ATOM      3  C   UNL d   1       0.341   0.671  -0.820  0.00  0.00     0.055 C 
ATOM      4  C   UNL d   1      -1.169   0.682  -0.774  0.00  0.00     0.072 C 
ENDROOT
BRANCH   1   5
ATOM      5  O   UNL d   1       0.300  -0.892   0.791  0.00  0.00    -0.195 OA
BRANCH   5   6
ATOM      6  C   UNL d   1       1.098  -1.459   1.743  0.00  0.00     0.315 C 
ATOM      7  O   UNL d   1       2.095  -0.972   2.256  0.00  0.00    -0.257 OA
BRANCH   6   8
ATOM      8  C   UNL d   1       0.616  -2.835   2.051  0.00  0.00     0.041 A 
ATOM      9  C   UNL d   1       1.276  -3.554   3.058  0.00  0.00     0.019 A 
ATOM     10  C   UNL d   1       0.936  -4.886   3.315  0.00  0.00     0.025 A 
ATOM     11  C   UNL d   1      -0.064  -5.501   2.566  0.00  0.00     0.034 A 
ATOM     12  C   UNL d   1      -0.738  -4.794   1.571  0.00  0.00     0.025 A 
ATOM     13 CL   UNL d   1      -0.457  -7.151   2.854  0.00  0.00    -0.084 Cl
ATOM     14  C   UNL d   1      -0.400  -3.461   1.313  0.00  0.00     0.019 A 
ENDBRANCH   6   8
ENDBRANCH   5   6
ENDBRANCH   1   5
BRANCH   3  15
ATOM     15  C   UNL d   1       1.047   1.458  -1.809  0.00  0.00     0.056 A 
ATOM     16  N   UNL d   1       2.426   1.466  -1.886  0.00  0.00    -0.364 N 
ATOM     17  C   UNL d   1       2.841   2.224  -2.946  0.00  0.00     0.088 A 
ATOM     18  H   UNL d   1       3.021   0.949  -1.249  0.00  0.00     0.165 HD
ATOM     19  C   UNL d   1       1.722   2.747  -3.551  0.00  0.00     0.019 A 
ATOM     20  C   UNL d   1       0.595   2.275  -2.833  0.00  0.00     0.033 A 
ENDBRANCH   3  15
TORSDOF 4
