REMARK  4 active torsions:
REMARK  status: ('A' for Active; 'I' for Inactive)
REMARK    1  A    between atoms: C_3  and  C_1 
REMARK    2  A    between atoms: C_2  and  C_4 
REMARK       I    between atoms: N_7  and  C_3 
REMARK    3  A    between atoms: N_10  and  N_7 
REMARK    4  A    between atoms: C_11  and  N_10 
ROOT
ATOM      1  N   UNL d   1       0.717   3.438   0.017  0.00  0.00    -0.202 NA
ATOM      2  H   UNL d   1       0.134   3.265   0.850  0.00  0.00     0.153 HD
ENDROOT
BRANCH   1   3
ATOM      3  N   UNL d   1       1.555   2.331  -0.237  0.00  0.00    -0.281 N 
ATOM      4  C   UNL d   1       1.379   1.174   0.509  0.00  0.00     0.291 C 
ATOM      5  O   UNL d   1       0.588   1.119   1.451  0.00  0.00    -0.264 OA
ATOM      6  H   UNL d   1       1.977   2.271  -1.158  0.00  0.00     0.184 HD
BRANCH   4   7
ATOM      7  C   UNL d   1       2.191   0.063   0.078  0.00  0.00     0.168 A 
ATOM      8  O   UNL d   1       3.145   0.268  -0.877  0.00  0.00    -0.233 OA
ATOM      9  N   UNL d   1       3.832  -0.912  -1.111  0.00  0.00    -0.272 N 
ATOM     10  C   UNL d   1       3.277  -1.811  -0.296  0.00  0.00     0.117 A 
ATOM     11  HN  UNL d   1       4.599  -1.061  -1.767  1.00  0.00     0.194 HD
ATOM     12  C   UNL d   1       2.234  -1.257   0.467  0.00  0.00     0.064 A 
ENDBRANCH   4   7
ENDBRANCH   1   3
BRANCH   1  13
ATOM     13  C   UNL d   1       1.409   4.681   0.069  0.00  0.00     0.042 A 
ATOM     14  C   UNL d   1       0.945   5.755   0.857  0.00  0.00     0.070 A 
ATOM     15  C   UNL d   1       1.616   7.000   0.809  0.00  0.00     0.018 A 
ATOM     16  C   UNL d   1       2.709   7.202  -0.028  0.00  0.00     0.001 A 
ATOM     17  C   UNL d   1       3.143   6.166  -0.840  0.00  0.00     0.002 A 
ATOM     18  C   UNL d   1       2.493   4.930  -0.800  0.00  0.00     0.026 A 
BRANCH  14  19
ATOM     19  C   UNL d   1      -0.243   5.664   1.781  0.00  0.00     0.419 C 
ATOM     20  F   UNL d   1      -0.857   4.448   1.798  0.00  0.00    -0.166 F 
ATOM     21  F   UNL d   1       0.091   5.922   3.078  0.00  0.00    -0.166 F 
ATOM     22  F   UNL d   1      -1.216   6.567   1.468  0.00  0.00    -0.166 F 
ENDBRANCH  14  19
ENDBRANCH   1  13
TORSDOF 4
