REMARK  4 active torsions:
REMARK  status: ('A' for Active; 'I' for Inactive)
REMARK    1  A    between atoms: O_4  and  C_1 
REMARK    2  A    between atoms: C_3  and  C_2 
REMARK    3  A    between atoms: O_8  and  C_3 
REMARK    4  A    between atoms: C_9  and  O_4 
ROOT
ATOM      1  C   UNL d   1      -0.554   1.137   0.098  0.00  0.00     0.164 A 
ATOM      2  C   UNL d   1       0.823   1.206   0.277  0.00  0.00     0.090 A 
ATOM      3  N   UNL d   1      -1.221  -0.045  -0.028  0.00  0.00    -0.346 N 
ATOM      4  HN  UNL d   1      -2.238  -0.068  -0.092  1.00  0.00     0.167 HD
ATOM      5  C   UNL d   1       1.538  -0.004   0.229  0.00  0.00     0.023 A 
ATOM      6  C   UNL d   1      -0.502  -1.184  -0.066  0.00  0.00     0.090 A 
ATOM      7  C   UNL d   1       0.874  -1.211   0.039  0.00  0.00     0.018 A 
ENDROOT
BRANCH   1   8
ATOM      8  O   UNL d   1      -1.318   2.299   0.062  0.00  0.00    -0.293 OA
BRANCH   8   9
ATOM      9  C   UNL d   1      -2.487   2.262  -0.673  0.00  0.00     0.077 A 
ATOM     10  C   UNL d   1      -3.599   2.907  -0.134  0.00  0.00     0.037 A 
ATOM     11  C   UNL d   1      -4.821   2.874  -0.812  0.00  0.00     0.003 A 
ATOM     12  C   UNL d   1      -4.928   2.207  -2.033  0.00  0.00     0.000 A 
ATOM     13  C   UNL d   1      -3.805   1.602  -2.596  0.00  0.00     0.003 A 
ATOM     14  C   UNL d   1      -2.581   1.650  -1.929  0.00  0.00     0.037 A 
ENDBRANCH   8   9
ENDBRANCH   1   8
BRANCH   2  15
ATOM     15  C   UNL d   1       1.611   2.431   0.544  0.00  0.00     0.297 C 
ATOM     16  O   UNL d   1       2.749   2.373   0.989  0.00  0.00    -0.259 OA
BRANCH  15  17
ATOM     17  O   UNL d   1       0.954   3.564   0.218  0.00  0.00    -0.322 OA
ATOM     18  C   UNL d   1       1.650   4.794   0.461  0.00  0.00     0.213 C 
ENDBRANCH  15  17
ENDBRANCH   2  15
TORSDOF 4
