REMARK  2 active torsions:
REMARK  status: ('A' for Active; 'I' for Inactive)
REMARK    1  A    between atoms: C_9  and  C_5 
REMARK    2  A    between atoms: C_10  and  C_6 
ROOT
ATOM      1  N   UNL d   1       1.100   1.459  -0.040  0.00  0.00    -0.356 N 
ATOM      2  HN  UNL d   1       1.062   2.478  -0.063  1.00  0.00     0.166 HD
ATOM      3  N   UNL d   1       1.206  -1.343  -0.004  0.00  0.00    -0.356 N 
ATOM      4  HN  UNL d   1       1.243  -2.362   0.003  1.00  0.00     0.166 HD
ATOM      5  C   UNL d   1       2.344  -0.600  -0.005  0.00  0.00     0.032 A 
ATOM      6  C   UNL d   1       2.288   0.799  -0.018  0.00  0.00     0.032 A 
ATOM      7  C   UNL d   1       0.029  -0.690  -0.011  0.00  0.00     0.059 A 
ATOM      8  C   UNL d   1      -0.023   0.721  -0.029  0.00  0.00     0.059 A 
ATOM      9  C   UNL d   1      -1.263   1.350  -0.030  0.00  0.00     0.032 A 
ATOM     10  C   UNL d   1      -1.159  -1.410   0.006  0.00  0.00     0.032 A 
ATOM     11  C   UNL d   1      -2.451   0.619  -0.011  0.00  0.00     0.002 A 
ATOM     12  C   UNL d   1      -2.399  -0.769   0.007  0.00  0.00     0.002 A 
ENDROOT
BRANCH   5  13
ATOM     13  C   UNL d   1       3.658  -1.345   0.022  0.00  0.00     0.054 C 
ATOM     14  C   UNL d   1       3.533  -2.865   0.053  0.00  0.00     0.011 C 
ENDBRANCH   5  13
BRANCH   6  15
ATOM     15  C   UNL d   1       3.510   1.678  -0.016  0.00  0.00     0.054 C 
ATOM     16  C   UNL d   1       3.954   2.054  -1.421  0.00  0.00     0.011 C 
ENDBRANCH   6  15
TORSDOF 2
