REMARK  2 active torsions:
REMARK  status: ('A' for Active; 'I' for Inactive)
REMARK       I    between atoms: C_2  and  N_1 
REMARK       I    between atoms: N_10  and  C_2 
REMARK    1  A    between atoms: N_3  and  C_9 
REMARK    2  A    between atoms: C_9  and  C_5 
ROOT
ATOM      1  N   UNL d   1       1.418  -0.099   0.251  0.00  0.00    -0.334 N 
ATOM      2  C   UNL d   1       2.503  -0.023   1.107  0.00  0.00     0.317 C 
ATOM      3  C   UNL d   1       0.793   1.159  -0.173  0.00  0.00     0.133 C 
ATOM      4  C   UNL d   1      -0.688   1.203   0.243  0.00  0.00     0.022 C 
ATOM      5  O   UNL d   1       2.942   1.049   1.510  0.00  0.00    -0.247 OA
ATOM      6  N   UNL d   1       3.056  -1.210   1.498  0.00  0.00    -0.347 N 
ATOM      7  C   UNL d   1       0.777  -1.305  -0.285  0.00  0.00     0.127 C 
ATOM      8  C   UNL d   1      -0.712  -1.328   0.065  0.00  0.00     0.020 C 
ATOM      9  C   UNL d   1      -1.388  -0.026  -0.368  0.00  0.00     0.009 C 
ATOM     10  C   UNL d   1       4.180  -1.278   2.400  0.00  0.00     0.151 C 
ATOM     11  H   UNL d   1       2.660  -2.082   1.205  0.00  0.00     0.163 HD
ENDROOT
BRANCH   4  12
ATOM     12  C   UNL d   1      -0.792   1.311   1.784  0.00  0.00     0.134 C 
BRANCH  12  13
ATOM     13  N   UNL d   1      -2.149   1.367   2.305  0.00  0.00    -0.366 N 
ATOM     14  C   UNL d   1      -2.710   0.452   3.160  0.00  0.00     0.090 A 
ATOM     15  C   UNL d   1      -4.022   0.824   3.380  0.00  0.00     0.019 A 
ATOM     16  C   UNL d   1      -4.227   2.048   2.702  0.00  0.00     0.019 A 
ATOM     17  C   UNL d   1      -3.046   2.377   2.074  0.00  0.00     0.090 A 
ENDBRANCH  12  13
ENDBRANCH   4  12
TORSDOF 2
