REMARK  8 active torsions:
REMARK  status: ('A' for Active; 'I' for Inactive)
REMARK    1  A    between atoms: C_8  and  C_1 
REMARK    2  A    between atoms: S_9  and  C_5 
REMARK    3  A    between atoms: C_19  and  S_9 
REMARK    4  A    between atoms: C_10  and  C_12 
REMARK    5  A    between atoms: C_11  and  C_10 
REMARK    6  A    between atoms: O_20  and  C_11 
REMARK    7  A    between atoms: C_12  and  C_19 
REMARK    8  A    between atoms: C_21  and  O_20 
ROOT
ATOM      1  C   UNL d   1      -0.274   1.177  -0.461  0.00  0.00     0.209 A 
ATOM      2  N   UNL d   1      -0.232   0.080  -1.294  0.00  0.00    -0.312 N 
ATOM      3  N   UNL d   1       0.712   1.067   0.417  0.00  0.00    -0.279 N 
ATOM      4  HN  UNL d   1       0.965   1.763   1.118  1.00  0.00     0.188 HD
ATOM      5  C   UNL d   1       0.736  -0.739  -0.770  0.00  0.00     0.163 A 
ATOM      6  N   UNL d   1       1.337  -0.138   0.225  0.00  0.00    -0.278 N 
ATOM      7  HN  UNL d   1       2.125  -0.500   0.761  1.00  0.00     0.189 HD
ATOM      8  C   UNL d   1      -1.001  -0.189  -2.484  0.00  0.00     0.160 C 
ENDROOT
BRANCH   5   9
ATOM      9  S   UNL d   1       1.032  -2.347  -1.325  0.00  0.00    -0.085 SA
BRANCH   9  10
ATOM     10  C   UNL d   1       2.422  -2.836  -0.256  0.00  0.00     0.161 C 
BRANCH  10  11
ATOM     11  C   UNL d   1       2.699  -4.329  -0.376  0.00  0.00     0.145 C 
ATOM     12  O   UNL d   1       2.463  -4.980  -1.398  0.00  0.00    -0.297 OA
BRANCH  11  13
ATOM     13  C   UNL d   1       3.288  -5.022   0.829  0.00  0.00     0.190 C 
BRANCH  13  14
ATOM     14  C   UNL d   1       4.663  -4.553   1.182  0.00  0.00     0.265 C 
ATOM     15  O   UNL d   1       5.194  -3.544   0.736  0.00  0.00    -0.265 OA
BRANCH  14  16
ATOM     16  O   UNL d   1       5.215  -5.395   2.099  0.00  0.00    -0.322 OA
BRANCH  16  17
ATOM     17  C   UNL d   1       6.533  -5.058   2.559  0.00  0.00     0.174 C 
ATOM     18  C   UNL d   1       7.583  -5.636   1.629  0.00  0.00     0.034 C 
ENDBRANCH  16  17
ENDBRANCH  14  16
ENDBRANCH  13  14
ENDBRANCH  11  13
ENDBRANCH  10  11
ENDBRANCH   9  10
ENDBRANCH   5   9
BRANCH   1  19
ATOM     19  C   UNL d   1      -1.268   2.285  -0.505  0.00  0.00     0.450 C 
ATOM     20  F   UNL d   1      -2.349   2.009  -1.281  0.00  0.00    -0.163 F 
ATOM     21  F   UNL d   1      -1.764   2.569   0.727  0.00  0.00    -0.163 F 
ATOM     22  F   UNL d   1      -0.731   3.434  -0.990  0.00  0.00    -0.163 F 
ENDBRANCH   1  19
TORSDOF 8
