REMARK  3 active torsions:
REMARK  status: ('A' for Active; 'I' for Inactive)
REMARK    1  A    between atoms: C_6  and  C_3 
REMARK    2  A    between atoms: O_9  and  C_5 
REMARK    3  A    between atoms: C_14  and  O_9 
ROOT
ATOM      1  N   UNL d   1       1.206  -1.395   0.059  0.00  0.00    -0.350 N 
ATOM      2  HN  UNL d   1       1.199  -2.415   0.031  1.00  0.00     0.166 HD
ATOM      3  C   UNL d   1       2.390  -0.731   0.113  0.00  0.00     0.119 A 
ATOM      4  C   UNL d   1       0.037  -0.714   0.041  0.00  0.00     0.063 A 
ATOM      5  C   UNL d   1       1.254   1.372   0.055  0.00  0.00     0.090 A 
ATOM      6  C   UNL d   1       0.015   0.697   0.018  0.00  0.00     0.026 A 
ATOM      7  C   UNL d   1       2.442   0.651   0.180  0.00  0.00     0.072 A 
ATOM      8  C   UNL d   1      -1.195  -1.380   0.031  0.00  0.00     0.038 A 
ATOM      9 BR   UNL d   1      -1.266  -3.287   0.092  0.00  0.00    -0.049 Br
ATOM     10  C   UNL d   1      -1.223   1.379  -0.041  0.00  0.00     0.017 A 
ATOM     11  C   UNL d   1      -2.429   0.686  -0.058  0.00  0.00     0.002 A 
ATOM     12  C   UNL d   1      -2.419  -0.702  -0.019  0.00  0.00     0.021 A 
ENDROOT
BRANCH   5  13
ATOM     13  O   UNL d   1       1.237   2.756   0.000  0.00  0.00    -0.310 OA
BRANCH  13  14
ATOM     14  C   UNL d   1       2.289   3.424  -0.592  0.00  0.00     0.076 A 
ATOM     15  C   UNL d   1       2.975   2.953  -1.720  0.00  0.00     0.040 A 
ATOM     16  C   UNL d   1       4.092   3.643  -2.192  0.00  0.00     0.045 A 
ATOM     17  C   UNL d   1       4.470   4.833  -1.581  0.00  0.00     0.116 A 
ATOM     18  C   UNL d   1       3.744   5.355  -0.517  0.00  0.00     0.045 A 
ATOM     19  F   UNL d   1       5.549   5.487  -2.028  0.00  0.00    -0.206 F 
ATOM     20  C   UNL d   1       2.647   4.647  -0.019  0.00  0.00     0.040 A 
ENDBRANCH  13  14
ENDBRANCH   5  13
BRANCH   3  21
ATOM     21  C   UNL d   1       3.701  -1.500   0.008  0.00  0.00     0.432 C 
ATOM     22  F   UNL d   1       3.561  -2.850  -0.095  0.00  0.00    -0.165 F 
ATOM     23  F   UNL d   1       4.423  -1.118  -1.089  0.00  0.00    -0.165 F 
ATOM     24  F   UNL d   1       4.523  -1.285   1.076  0.00  0.00    -0.165 F 
ENDBRANCH   3  21
TORSDOF 3
