REMARK  4 active torsions:
REMARK  status: ('A' for Active; 'I' for Inactive)
REMARK    1  A    between atoms: C_6  and  C_1 
REMARK    2  A    between atoms: C_5  and  C_2 
REMARK       I    between atoms: N_9  and  C_5 
REMARK    3  A    between atoms: C_12  and  N_9 
REMARK    4  A    between atoms: C_14  and  C_12 
ROOT
ATOM      1  C   UNL d   1      -0.369  -0.169   1.469  0.00  0.00     0.086 C 
ATOM      2  C   UNL d   1      -0.401  -1.183   0.453  0.00  0.00     0.092 C 
ATOM      3  N   UNL d   1      -1.293   0.771   1.196  0.00  0.00    -0.259 N 
ATOM      4  HN  UNL d   1      -1.560   1.552   1.795  1.00  0.00     0.195 HD
ATOM      5  O   UNL d   1      -1.808   0.479  -0.040  0.00  0.00    -0.241 OA
ATOM      6  C   UNL d   1      -1.261  -0.670  -0.500  0.00  0.00     0.090 C 
ATOM      7  C   UNL d   1      -1.669  -1.056  -1.867  0.00  0.00     0.080 C 
ENDROOT
BRANCH   2   8
ATOM      8  C   UNL d   1       0.324  -2.434   0.349  0.00  0.00     0.256 C 
ATOM      9  N   UNL d   1      -0.449  -3.472  -0.139  0.00  0.00    -0.352 N 
ATOM     10  H   UNL d   1      -1.441  -3.306  -0.246  0.00  0.00     0.163 HD
ATOM     11  O   UNL d   1       1.494  -2.551   0.693  0.00  0.00    -0.267 OA
BRANCH   9  12
ATOM     12  C   UNL d   1       0.048  -4.828  -0.379  0.00  0.00     0.088 C 
ATOM     13  C   UNL d   1       0.991  -4.823  -1.589  0.00  0.00     0.033 C 
BRANCH  12  14
ATOM     14  C   UNL d   1      -1.127  -5.869  -0.511  0.00  0.00    -0.031 C 
ATOM     15  C   UNL d   1      -2.114  -5.516  -1.645  0.00  0.00     0.016 C 
ATOM     16  C   UNL d   1      -0.574  -7.284  -0.793  0.00  0.00     0.016 C 
ATOM     17  C   UNL d   1      -1.916  -5.935   0.815  0.00  0.00     0.016 C 
ENDBRANCH  12  14
ENDBRANCH   9  12
ENDBRANCH   2   8
BRANCH   1  18
ATOM     18  C   UNL d   1       0.450  -0.038   2.682  0.00  0.00     0.037 A 
ATOM     19  C   UNL d   1       1.136   1.167   2.961  0.00  0.00     0.048 A 
ATOM     20 CL   UNL d   1       1.133   2.541   1.896  0.00  0.00    -0.083 Cl
ATOM     21  C   UNL d   1       1.891   1.325   4.133  0.00  0.00     0.025 A 
ATOM     22  C   UNL d   1       2.012   0.276   5.038  0.00  0.00     0.003 A 
ATOM     23  C   UNL d   1       1.348  -0.920   4.782  0.00  0.00     0.025 A 
ATOM     24  C   UNL d   1       0.555  -1.072   3.635  0.00  0.00     0.048 A 
ATOM     25 CL   UNL d   1      -0.344  -2.553   3.530  0.00  0.00    -0.083 Cl
ENDBRANCH   1  18
TORSDOF 4
