REMARK  10 active torsions:
REMARK  status: ('A' for Active; 'I' for Inactive)
REMARK    1  A    between atoms: N_4  and  C_1 
REMARK    2  A    between atoms: N_3  and  C_2 
REMARK       I    between atoms: C_8  and  N_4 
REMARK    3  A    between atoms: C_5  and  C_6 
REMARK    4  A    between atoms: O_16  and  C_5 
REMARK    5  A    between atoms: C_21  and  C_8 
REMARK    6  A    between atoms: C_10  and  C_22 
REMARK    7  A    between atoms: O_18  and  C_10 
REMARK    8  A    between atoms: C_25  and  O_16 
REMARK    9  A    between atoms: O_17  and  C_21 
REMARK   10  A    between atoms: C_22  and  O_17 
ROOT
ATOM      1  C   UNL d   1       1.461  -0.299   0.353  0.00  0.00     0.057 A 
ATOM      2  C   UNL d   1       0.637  -1.415   0.043  0.00  0.00     0.037 A 
ATOM      3  C   UNL d   1      -0.450   1.191   0.360  0.00  0.00     0.041 A 
ATOM      4  C   UNL d   1       0.922   0.981   0.513  0.00  0.00     0.049 A 
ATOM      5  C   UNL d   1      -0.740  -1.177  -0.093  0.00  0.00     0.027 A 
ATOM      6  C   UNL d   1      -1.280   0.108   0.061  0.00  0.00     0.019 A 
ENDROOT
BRANCH   1   7
ATOM      7  N   UNL d   1       2.855  -0.513   0.417  0.00  0.00    -0.324 N 
ATOM      8  C   UNL d   1       3.731   0.175   1.239  0.00  0.00     0.245 C 
ATOM      9  O   UNL d   1       3.425   1.051   2.039  0.00  0.00    -0.271 OA
ATOM     10  H   UNL d   1       3.131  -1.408   0.025  0.00  0.00     0.169 HD
BRANCH   8  11
ATOM     11  C   UNL d   1       5.177  -0.342   1.132  0.00  0.00     0.271 C 
BRANCH  11  12
ATOM     12  O   UNL d   1       5.913  -0.516   2.343  0.00  0.00    -0.372 OA
BRANCH  12  13
ATOM     13  C   UNL d   1       5.287  -1.409   3.270  0.00  0.00     0.277 C 
BRANCH  13  14
ATOM     14  C   UNL d   1       5.465  -2.857   2.845  0.00  0.00     0.164 C 
ATOM     15  O   UNL d   1       4.676  -3.754   3.086  0.00  0.00    -0.648 OA
BRANCH  14  16
ATOM     16  O   UNL d   1       6.608  -3.044   2.135  0.00  0.00    -0.775 OA
ATOM     17  H   UNL d   1       7.086  -2.188   2.052  0.00  0.00     0.167 HD
ENDBRANCH  14  16
ENDBRANCH  13  14
ENDBRANCH  12  13
ENDBRANCH  11  12
ENDBRANCH   8  11
ENDBRANCH   1   7
BRANCH   2  18
ATOM     18  N   UNL d   1       1.210  -2.694  -0.131  0.00  0.00    -0.278 NA
ATOM     19  C   UNL d   1       0.413  -3.692  -0.888  0.00  0.00     0.122 C 
ATOM     20  C   UNL d   1       1.300  -4.900  -1.223  0.00  0.00     0.182 C 
ATOM     21  O   UNL d   1       1.840  -5.498  -0.035  0.00  0.00    -0.389 OA
ATOM     22  C   UNL d   1       2.601  -4.538   0.719  0.00  0.00     0.182 C 
ATOM     23  C   UNL d   1       1.739  -3.322   1.118  0.00  0.00     0.122 C 
ENDBRANCH   2  18
BRANCH   3  24
ATOM     24  C   UNL d   1      -0.969   2.569   0.558  0.00  0.00     0.293 C 
ATOM     25  O   UNL d   1      -0.259   3.546   0.731  0.00  0.00    -0.259 OA
BRANCH  24  26
ATOM     26  O   UNL d   1      -2.325   2.547   0.609  0.00  0.00    -0.318 OA
BRANCH  26  27
ATOM     27  C   UNL d   1      -2.933   3.709   1.187  0.00  0.00     0.174 C 
ATOM     28  C   UNL d   1      -3.052   3.478   2.682  0.00  0.00     0.034 C 
ENDBRANCH  26  27
ENDBRANCH  24  26
ENDBRANCH   3  24
TORSDOF 10
