REMARK  6 active torsions:
REMARK  status: ('A' for Active; 'I' for Inactive)
REMARK    1  A    between atoms: N_5  and  C_1 
REMARK    2  A    between atoms: C_4  and  C_6 
REMARK       I    between atoms: C_7  and  N_15 
REMARK       I    between atoms: N_11  and  C_7 
REMARK    3  A    between atoms: C_25  and  N_10 
REMARK    4  A    between atoms: C_23  and  N_11 
REMARK    5  A    between atoms: N_15  and  C_24 
REMARK    6  A    between atoms: C_24  and  C_25 
ROOT
ATOM      1  N   UNL d   1       1.962   6.978  -1.454  0.00  0.00    -0.251 NA
ATOM      2  N   UNL d   1       0.977   5.047   0.588  0.00  0.00     0.092 N 
ATOM      3  C   UNL d   1       2.501   5.608  -1.398  0.00  0.00     0.129 C 
ATOM      4  C   UNL d   1       1.334   7.465  -0.214  0.00  0.00     0.129 C 
ATOM      5  C   UNL d   1       0.391   6.399   0.400  0.00  0.00     0.287 C 
ATOM      6  C   UNL d   1       1.494   4.631  -0.745  0.00  0.00     0.287 C 
ENDROOT
BRANCH   2   7
ATOM      7  C   UNL d   1       2.058   5.009   1.609  0.00  0.00     0.292 C 
BRANCH   7   8
ATOM      8  C   UNL d   1       1.594   5.211   3.077  0.00  0.00     0.154 C 
BRANCH   8   9
ATOM      9  N   UNL d   1       2.635   5.007   4.097  0.00  0.00    -0.341 N 
ATOM     10  C   UNL d   1       3.711   5.820   4.162  0.00  0.00     0.316 C 
ATOM     11  N   UNL d   1       4.609   5.665   5.157  0.00  0.00    -0.339 N 
ATOM     12  O   UNL d   1       3.925   6.713   3.333  0.00  0.00    -0.247 OA
ATOM     13  H   UNL d   1       5.310   6.397   5.077  0.00  0.00     0.164 HD
ATOM     14  H   UNL d   1       2.324   4.669   4.994  0.00  0.00     0.164 HD
BRANCH  11  15
ATOM     15  C   UNL d   1       4.703   4.845   6.375  0.00  0.00     0.086 C 
ATOM     16  C   UNL d   1       6.006   5.183   7.135  0.00  0.00     0.025 C 
ATOM     17  C   UNL d   1       7.268   4.699   6.409  0.00  0.00     0.002 C 
ATOM     18  C   UNL d   1       7.203   3.228   6.004  0.00  0.00     0.000 C 
ATOM     19  C   UNL d   1       5.884   2.852   5.335  0.00  0.00     0.002 C 
ATOM     20  C   UNL d   1       4.675   3.332   6.133  0.00  0.00     0.025 C 
ENDBRANCH  11  15
ENDBRANCH   8   9
ENDBRANCH   7   8
ENDBRANCH   2   7
BRANCH   1  21
ATOM     21  C   UNL d   1       2.861   7.884  -2.024  0.00  0.00     0.160 A 
ATOM     22  N   UNL d   1       3.733   7.428  -2.938  0.00  0.00    -0.329 N 
ATOM     23  C   UNL d   1       4.628   8.289  -3.485  0.00  0.00     0.120 A 
ATOM     24  HN  UNL d   1       3.723   6.447  -3.216  1.00  0.00     0.168 HD
ATOM     25  C   UNL d   1       4.666   9.619  -3.125  0.00  0.00     0.051 A 
ATOM     26  C   UNL d   1       3.727  10.014  -2.208  0.00  0.00     0.093 A 
ATOM     27  N   UNL d   1       2.827   9.177  -1.660  0.00  0.00    -0.343 N 
ATOM     28  HN  UNL d   1       2.139   9.515  -0.987  1.00  0.00     0.167 HD
BRANCH  23  29
ATOM     29  C   UNL d   1       5.613   7.764  -4.512  0.00  0.00     0.432 C 
ATOM     30  F   UNL d   1       5.475   6.438  -4.800  0.00  0.00    -0.165 F 
ATOM     31  F   UNL d   1       5.514   8.415  -5.708  0.00  0.00    -0.165 F 
ATOM     32  F   UNL d   1       6.910   7.924  -4.119  0.00  0.00    -0.165 F 
ENDBRANCH  23  29
ENDBRANCH   1  21
TORSDOF 6
