REMARK  4 active torsions:
REMARK  status: ('A' for Active; 'I' for Inactive)
REMARK    1  A    between atoms: C_5  and  C_1 
REMARK    2  A    between atoms: C_11  and  N_2 
REMARK    3  A    between atoms: S_8  and  C_5 
REMARK    4  A    between atoms: C_10  and  S_8 
ROOT
ATOM      1  C   UNL d   1      -0.558  -2.680   0.545  0.00  0.00     0.241 C 
ATOM      2  O   UNL d   1       0.374  -3.472   0.584  0.00  0.00    -0.278 OA
ENDROOT
BRANCH   1   3
ATOM      3  C   UNL d   1      -0.418  -1.259   0.288  0.00  0.00     0.110 A 
ATOM      4  N   UNL d   1       0.631  -0.684  -0.395  0.00  0.00    -0.288 N 
ATOM      5  N   UNL d   1       0.548   0.662  -0.479  0.00  0.00    -0.303 N 
ATOM      6  C   UNL d   1      -0.609   0.965   0.111  0.00  0.00     0.024 A 
ATOM      7  HN  UNL d   1       1.220   1.303  -0.900  1.00  0.00     0.186 HD
ATOM      8  C   UNL d   1      -1.242  -0.190   0.614  0.00  0.00     0.061 A 
ATOM      9  C   UNL d   1      -1.078   2.371   0.167  0.00  0.00     0.070 C 
BRANCH   4  10
ATOM     10  C   UNL d   1       1.679  -1.339  -1.159  0.00  0.00     0.145 C 
ATOM     11  C   UNL d   1       2.959  -1.547  -0.372  0.00  0.00     0.028 C 
ENDBRANCH   4  10
ENDBRANCH   1   3
BRANCH   1  12
ATOM     12  S   UNL d   1      -2.235  -3.198   0.644  0.00  0.00    -0.046 SA
BRANCH  12  13
ATOM     13  C   UNL d   1      -2.350  -4.467   1.889  0.00  0.00     0.008 A 
ATOM     14  C   UNL d   1      -1.356  -4.825   2.802  0.00  0.00     0.019 A 
ATOM     15  C   UNL d   1      -1.605  -5.794   3.788  0.00  0.00     0.008 A 
ATOM     16  C   UNL d   1      -2.859  -6.408   3.893  0.00  0.00    -0.062 A 
ATOM     17  C   UNL d   1      -3.844  -6.078   2.961  0.00  0.00     0.008 A 
ATOM     18  C   UNL d   1      -3.133  -7.436   4.950  0.00  0.00     0.048 C 
ATOM     19  C   UNL d   1      -3.592  -5.117   1.978  0.00  0.00     0.019 A 
ENDBRANCH  12  13
ENDBRANCH   1  12
TORSDOF 4
