REMARK  4 active torsions:
REMARK  status: ('A' for Active; 'I' for Inactive)
REMARK    1  A    between atoms: C_8  and  C_3 
REMARK    2  A    between atoms: C_7  and  C_4 
REMARK    3  A    between atoms: O_9  and  C_7 
REMARK    4  A    between atoms: O_10  and  C_8 
ROOT
ATOM      1  C   UNL d   1      -0.011  -1.794  -0.032  0.00  0.00     0.014 A 
ATOM      2  C   UNL d   1      -0.009   0.963  -0.033  0.00  0.00     0.019 A 
ATOM      3  C   UNL d   1      -1.247   0.288  -0.011  0.00  0.00    -0.028 A 
ATOM      4  C   UNL d   1       1.229   0.288  -0.079  0.00  0.00    -0.028 A 
ATOM      5  C   UNL d   1       1.223  -1.117  -0.091  0.00  0.00    -0.053 A 
ATOM      6  C   UNL d   1      -1.240  -1.115   0.035  0.00  0.00    -0.053 A 
ATOM      7  C   UNL d   1      -2.492  -1.944   0.132  0.00  0.00     0.049 C 
ATOM      8  C   UNL d   1       2.466  -1.965  -0.077  0.00  0.00     0.049 C 
ENDROOT
BRANCH   3   9
ATOM      9  C   UNL d   1      -2.508   1.120   0.045  0.00  0.00     0.203 C 
BRANCH   9  10
ATOM     10  O   UNL d   1      -3.505   0.671  -0.865  0.00  0.00    -0.396 OA
ATOM     11  H   UNL d   1      -3.044   0.236  -1.601  0.00  0.00     0.209 HD
ENDBRANCH   9  10
ENDBRANCH   3   9
BRANCH   4  12
ATOM     12  C   UNL d   1       2.507   1.098  -0.015  0.00  0.00     0.203 C 
BRANCH  12  13
ATOM     13  O   UNL d   1       2.360   2.379  -0.616  0.00  0.00    -0.396 OA
ATOM     14  H   UNL d   1       1.963   2.226  -1.492  0.00  0.00     0.209 HD
ENDBRANCH  12  13
ENDBRANCH   4  12
TORSDOF 4
