REMARK  5 active torsions:
REMARK  status: ('A' for Active; 'I' for Inactive)
REMARK    1  A    between atoms: C_8  and  C_1 
REMARK    2  A    between atoms: C_14  and  C_7 
REMARK    3  A    between atoms: C_9  and  C_13 
REMARK    4  A    between atoms: C_10  and  O_12 
REMARK    5  A    between atoms: O_12  and  C_11 
ROOT
ATOM      1  C   UNL d   1      -0.021  -1.015   0.338  0.00  0.00     0.177 A 
ATOM      2  O   UNL d   1      -0.897   0.031   0.459  0.00  0.00    -0.273 OA
ATOM      3  N   UNL d   1       1.222  -0.614   0.159  0.00  0.00    -0.277 N 
ATOM      4  HN  UNL d   1       2.048  -1.206   0.077  1.00  0.00     0.189 HD
ATOM      5  N   UNL d   1       1.187   0.763   0.107  0.00  0.00    -0.277 N 
ATOM      6  HN  UNL d   1       1.979   1.390  -0.033  1.00  0.00     0.189 HD
ATOM      7  C   UNL d   1      -0.075   1.110   0.273  0.00  0.00     0.174 A 
ENDROOT
BRANCH   1   8
ATOM      8  C   UNL d   1      -0.608  -2.345   0.255  0.00  0.00     0.050 A 
ATOM      9  C   UNL d   1      -0.034  -3.365  -0.527  0.00  0.00     0.092 A 
ATOM     10  C   UNL d   1      -0.619  -4.639  -0.565  0.00  0.00     0.038 A 
ATOM     11  C   UNL d   1      -1.789  -4.899   0.148  0.00  0.00     0.003 A 
ATOM     12  C   UNL d   1      -2.376  -3.896   0.912  0.00  0.00     0.001 A 
ATOM     13  C   UNL d   1      -1.793  -2.626   0.961  0.00  0.00     0.018 A 
BRANCH   9  14
ATOM     14  O   UNL d   1       1.171  -3.234  -1.163  0.00  0.00    -0.254 OA
BRANCH  14  15
ATOM     15  C   UNL d   1       1.148  -2.433  -2.343  0.00  0.00     0.530 C 
ATOM     16  F   UNL d   1       0.087  -1.599  -2.411  0.00  0.00    -0.144 F 
ATOM     17  F   UNL d   1       2.282  -1.700  -2.401  0.00  0.00    -0.144 F 
ATOM     18  F   UNL d   1       1.121  -3.239  -3.427  0.00  0.00    -0.144 F 
ENDBRANCH  14  15
ENDBRANCH   9  14
ENDBRANCH   1   8
BRANCH   7  19
ATOM     19  C   UNL d   1      -0.716   2.410   0.169  0.00  0.00     0.017 A 
ATOM     20  C   UNL d   1      -1.952   2.667   0.778  0.00  0.00     0.017 A 
ATOM     21  C   UNL d   1      -2.578   3.908   0.624  0.00  0.00     0.017 A 
ATOM     22  C   UNL d   1      -1.984   4.915  -0.151  0.00  0.00     0.048 A 
ATOM     23  C   UNL d   1      -0.742   4.662  -0.750  0.00  0.00     0.017 A 
ATOM     24  C   UNL d   1      -0.112   3.424  -0.586  0.00  0.00     0.017 A 
BRANCH  22  25
ATOM     25  C   UNL d   1      -2.665   6.247  -0.357  0.00  0.00     0.417 C 
ATOM     26  F   UNL d   1      -3.843   6.366   0.316  0.00  0.00    -0.166 F 
ATOM     27  F   UNL d   1      -1.895   7.295   0.048  0.00  0.00    -0.166 F 
ATOM     28  F   UNL d   1      -2.958   6.481  -1.666  0.00  0.00    -0.166 F 
ENDBRANCH  22  25
ENDBRANCH   7  19
TORSDOF 5
