REMARK  9 active torsions:
REMARK  status: ('A' for Active; 'I' for Inactive)
REMARK    1  A    between atoms: C_2  and  C_1 
REMARK    2  A    between atoms: O_9  and  C_6 
REMARK    3  A    between atoms: C_11  and  O_9 
REMARK    4  A    between atoms: C_12  and  C_11 
REMARK    5  A    between atoms: C_16  and  C_12 
REMARK    6  A    between atoms: C_13  and  C_14 
REMARK    7  A    between atoms: C_14  and  C_15 
REMARK    8  A    between atoms: C_15  and  C_17 
REMARK    9  A    between atoms: C_17  and  C_16 
ROOT
ATOM      1  C   UNL d   1       0.182  -1.243  -0.196  0.00  0.00     0.009 A 
ATOM      2  C   UNL d   1       0.691  -2.487   0.189  0.00  0.00     0.018 A 
ATOM      3  C   UNL d   1      -0.939  -1.179  -1.026  0.00  0.00     0.018 A 
ATOM      4  C   UNL d   1      -1.040  -3.598  -1.098  0.00  0.00     0.068 A 
ATOM      5  C   UNL d   1       0.076  -3.659  -0.260  0.00  0.00     0.037 A 
ATOM      6  C   UNL d   1      -1.550  -2.353  -1.469  0.00  0.00     0.037 A 
ENDROOT
BRANCH   4   7
ATOM      7  O   UNL d   1      -1.708  -4.679  -1.611  0.00  0.00    -0.351 OA
BRANCH   7   8
ATOM      8  C   UNL d   1      -1.186  -5.955  -1.242  0.00  0.00     0.175 C 
BRANCH   8   9
ATOM      9  C   UNL d   1      -2.023  -7.051  -1.888  0.00  0.00     0.027 C 
BRANCH   9  10
ATOM     10  C   UNL d   1      -1.486  -8.426  -1.499  0.00  0.00     0.002 C 
BRANCH  10  11
ATOM     11  C   UNL d   1      -2.306  -9.543  -2.135  0.00  0.00     0.000 C 
BRANCH  11  12
ATOM     12  C   UNL d   1      -1.762 -10.915  -1.741  0.00  0.00     0.000 C 
BRANCH  12  13
ATOM     13  C   UNL d   1      -2.585 -12.030  -2.382  0.00  0.00    -0.000 C 
BRANCH  13  14
ATOM     14  C   UNL d   1      -2.051 -13.406  -1.996  0.00  0.00    -0.005 C 
ATOM     15  C   UNL d   1      -2.874 -14.511  -2.636  0.00  0.00     0.005 C 
ENDBRANCH  13  14
ENDBRANCH  12  13
ENDBRANCH  11  12
ENDBRANCH  10  11
ENDBRANCH   9  10
ENDBRANCH   8   9
ENDBRANCH   7   8
ENDBRANCH   4   7
BRANCH   1  16
ATOM     16  C   UNL d   1       0.849  -0.005   0.284  0.00  0.00     0.155 C 
ATOM     17  O   UNL d   1       2.048  -0.013   0.528  0.00  0.00    -0.293 OA
ATOM     18  C   UNL d   1       0.009   1.236   0.465  0.00  0.00     0.096 C 
ENDBRANCH   1  16
TORSDOF 9
