REMARK  3 active torsions:
REMARK  status: ('A' for Active; 'I' for Inactive)
REMARK    1  A    between atoms: N_9  and  C_1 
REMARK    2  A    between atoms: C_6  and  C_8 
REMARK    3  A    between atoms: C_10  and  C_7 
ROOT
ATOM      1  C   UNL d   1      -0.880   0.027  -0.095  0.00  0.00     0.155 A 
ATOM      2  N   UNL d   1      -0.249   1.204  -0.062  0.00  0.00    -0.333 N 
ATOM      3  HN  UNL d   1      -0.763   2.086  -0.059  1.00  0.00     0.168 HD
ATOM      4  N   UNL d   1      -0.280  -1.165  -0.055  0.00  0.00    -0.343 N 
ATOM      5  HN  UNL d   1      -0.813  -2.035  -0.051  1.00  0.00     0.167 HD
ATOM      6  C   UNL d   1       1.098   1.171  -0.034  0.00  0.00     0.035 A 
ATOM      7  C   UNL d   1       1.063  -1.159  -0.022  0.00  0.00     0.093 A 
ATOM      8  C   UNL d   1       1.812  -0.009  -0.014  0.00  0.00     0.046 A 
ENDROOT
BRANCH   6   9
ATOM      9  C   UNL d   1       1.822   2.451  -0.035  0.00  0.00     0.030 C 
ATOM     10  C   UNL d   1       1.240   3.663  -0.021  0.00  0.00     0.013 C 
BRANCH  10  11
ATOM     11  C   UNL d   1       1.990   4.930  -0.044  0.00  0.00    -0.036 A 
ATOM     12  C   UNL d   1       1.403   6.056  -0.638  0.00  0.00     0.013 A 
ATOM     13  C   UNL d   1       2.080   7.280  -0.673  0.00  0.00     0.024 A 
ATOM     14  C   UNL d   1       3.346   7.388  -0.104  0.00  0.00     0.034 A 
ATOM     15  C   UNL d   1       3.937   6.286   0.507  0.00  0.00     0.024 A 
ATOM     16 CL   UNL d   1       4.184   8.890  -0.151  0.00  0.00    -0.084 Cl
ATOM     17  C   UNL d   1       3.256   5.066   0.545  0.00  0.00     0.013 A 
ENDBRANCH  10  11
ENDBRANCH   6   9
BRANCH   1  18
ATOM     18  N   UNL d   1      -2.258   0.037  -0.133  0.00  0.00    -0.274 NA
ATOM     19  H   UNL d   1      -2.607   0.896   0.265  0.00  0.00     0.127 HD
ATOM     20  H   UNL d   1      -2.613  -0.831   0.243  0.00  0.00     0.127 HD
ENDBRANCH   1  18
TORSDOF 3
