REMARK  6 active torsions:
REMARK  status: ('A' for Active; 'I' for Inactive)
REMARK    1  A    between atoms: S_8  and  C_1 
REMARK    2  A    between atoms: C_15  and  N_4 
REMARK    3  A    between atoms: C_7  and  C_9 
REMARK    4  A    between atoms: C_20  and  S_8 
REMARK    5  A    between atoms: C_12  and  C_20 
REMARK       I    between atoms: N_13  and  C_12 
REMARK    6  A    between atoms: C_21  and  N_13 
ROOT
ATOM      1  C   UNL d   1       2.190   0.296   0.680  0.00  0.00     0.148 C 
ATOM      2  N   UNL d   1       1.542  -0.839   0.625  0.00  0.00    -0.335 N 
ATOM      3  HN  UNL d   1       1.911  -1.772   0.809  1.00  0.00     0.168 HD
ATOM      4  N   UNL d   1       1.427   1.348   0.226  0.00  0.00    -0.321 N 
ATOM      5  C   UNL d   1       0.266  -0.509   0.267  0.00  0.00     0.062 A 
ATOM      6  C   UNL d   1       0.141   0.864   0.069  0.00  0.00     0.063 A 
ATOM      7  C   UNL d   1      -2.109  -0.783  -0.102  0.00  0.00     0.050 A 
ATOM      8  C   UNL d   1      -0.850  -1.349   0.152  0.00  0.00     0.048 A 
ATOM      9  C   UNL d   1      -1.099   1.452  -0.217  0.00  0.00     0.033 A 
ATOM     10  C   UNL d   1      -2.216   0.607  -0.279  0.00  0.00     0.018 A 
ENDROOT
BRANCH   1  11
ATOM     11  S   UNL d   1       3.729   0.447   1.464  0.00  0.00    -0.084 SA
BRANCH  11  12
ATOM     12  C   UNL d   1       4.600  -1.050   0.927  0.00  0.00     0.185 C 
BRANCH  12  13
ATOM     13  C   UNL d   1       4.289  -2.356   1.661  0.00  0.00     0.231 C 
ATOM     14  N   UNL d   1       2.984  -2.535   2.059  0.00  0.00    -0.327 N 
ATOM     15  H   UNL d   1       2.357  -1.763   1.845  0.00  0.00     0.169 HD
ATOM     16  O   UNL d   1       5.178  -3.203   1.768  0.00  0.00    -0.272 OA
BRANCH  14  17
ATOM     17  C   UNL d   1       2.343  -3.714   2.484  0.00  0.00     0.034 A 
ATOM     18  C   UNL d   1       2.979  -4.945   2.639  0.00  0.00     0.031 A 
ATOM     19  C   UNL d   1       2.234  -6.090   2.947  0.00  0.00     0.026 A 
ATOM     20  C   UNL d   1       0.852  -6.003   3.108  0.00  0.00     0.034 A 
ATOM     21  C   UNL d   1       0.211  -4.775   2.996  0.00  0.00     0.026 A 
ATOM     22 CL   UNL d   1      -0.065  -7.420   3.434  0.00  0.00    -0.084 Cl
ATOM     23  C   UNL d   1       0.957  -3.634   2.694  0.00  0.00     0.031 A 
ENDBRANCH  14  17
ENDBRANCH  12  13
ENDBRANCH  11  12
ENDBRANCH   1  11
BRANCH   4  24
ATOM     24  C   UNL d   1       1.901   2.697  -0.075  0.00  0.00     0.084 C 
ATOM     25  C   UNL d   1       1.588   3.120  -1.514  0.00  0.00     0.032 C 
ATOM     26  C   UNL d   1       1.406   3.724   0.940  0.00  0.00     0.032 C 
ENDBRANCH   4  24
BRANCH   7  27
ATOM     27  C   UNL d   1      -3.341  -1.650  -0.136  0.00  0.00     0.417 C 
ATOM     28  F   UNL d   1      -3.076  -2.982  -0.041  0.00  0.00    -0.166 F 
ATOM     29  F   UNL d   1      -4.199  -1.368   0.884  0.00  0.00    -0.166 F 
ATOM     30  F   UNL d   1      -4.059  -1.494  -1.282  0.00  0.00    -0.166 F 
ENDBRANCH   7  27
TORSDOF 6
