REMARK  8 active torsions:
REMARK  status: ('A' for Active; 'I' for Inactive)
REMARK    1  A    between atoms: C_2  and  S_1 
REMARK    2  A    between atoms: C_8  and  S_1 
REMARK    3  A    between atoms: C_3  and  C_9 
REMARK    4  A    between atoms: N_20  and  C_3 
REMARK    5  A    between atoms: O_13  and  N_4 
REMARK    6  A    between atoms: C_6  and  O_13 
REMARK       I    between atoms: N_12  and  C_6 
REMARK    7  A    between atoms: C_18  and  C_8 
REMARK    8  A    between atoms: C_21  and  N_12 
ROOT
ATOM      1  C   UNL d   1       2.057   3.495   3.340  0.00  0.00     0.109 C 
ATOM      2  N   UNL d   1       2.652   4.495   3.933  0.00  0.00    -0.244 N 
ATOM      3  HN  UNL d   1       3.236   4.429   4.767  1.00  0.00     0.196 HD
ENDROOT
BRANCH   1   4
ATOM      4  C   UNL d   1       2.354   2.107   3.825  0.00  0.00     0.004 A 
ATOM      5  C   UNL d   1       2.245   1.020   2.940  0.00  0.00     0.022 A 
ATOM      6  C   UNL d   1       2.738  -0.248   3.294  0.00  0.00    -0.043 A 
ATOM      7  C   UNL d   1       3.260  -0.423   4.585  0.00  0.00     0.008 A 
ATOM      8  C   UNL d   1       3.303   0.640   5.491  0.00  0.00     0.002 A 
ATOM      9  C   UNL d   1       2.860   1.905   5.109  0.00  0.00     0.015 A 
BRANCH   6  10
ATOM     10  C   UNL d   1       2.682  -1.424   2.348  0.00  0.00     0.184 C 
BRANCH  10  11
ATOM     11  S   UNL d   1       3.520  -1.134   0.799  0.00  0.00     0.186 S 
ATOM     12  O   UNL d   1       3.727  -2.410   0.140  0.00  0.00    -0.222 OA
ATOM     13  O   UNL d   1       2.882  -0.040   0.091  0.00  0.00    -0.222 OA
BRANCH  11  14
ATOM     14  C   UNL d   1       5.153  -0.540   1.185  0.00  0.00     0.100 A 
ATOM     15  S   UNL d   1       6.141  -1.565   2.133  0.00  0.00    -0.090 SA
ATOM     16  C   UNL d   1       7.456  -0.472   2.060  0.00  0.00     0.051 A 
ATOM     17  C   UNL d   1       7.153   0.654   1.327  0.00  0.00     0.009 A 
ATOM     18  C   UNL d   1       5.822   0.614   0.821  0.00  0.00     0.031 A 
ENDBRANCH  11  14
ENDBRANCH  10  11
ENDBRANCH   6  10
ENDBRANCH   1   4
BRANCH   1  19
ATOM     19  N   UNL d   1       1.223   3.652   2.261  0.00  0.00    -0.286 NA
ATOM     20  H   UNL d   1       0.442   3.012   2.171  0.00  0.00     0.125 HD
ATOM     21  H   UNL d   1       0.959   4.621   2.090  0.00  0.00     0.125 HD
ENDBRANCH   1  19
BRANCH   2  22
ATOM     22  O   UNL d   1       2.352   5.690   3.226  0.00  0.00    -0.179 OA
BRANCH  22  23
ATOM     23  C   UNL d   1       3.102   6.781   3.625  0.00  0.00     0.387 C 
ATOM     24  N   UNL d   1       3.776   6.604   4.814  0.00  0.00    -0.301 N 
ATOM     25  H   UNL d   1       3.647   5.670   5.190  0.00  0.00     0.171 HD
ATOM     26  O   UNL d   1       3.080   7.800   2.946  0.00  0.00    -0.236 OA
BRANCH  24  27
ATOM     27  C   UNL d   1       4.535   7.554   5.524  0.00  0.00     0.037 A 
ATOM     28  C   UNL d   1       4.769   8.854   5.060  0.00  0.00     0.031 A 
ATOM     29  C   UNL d   1       5.517   9.765   5.815  0.00  0.00     0.026 A 
ATOM     30  C   UNL d   1       6.036   9.382   7.046  0.00  0.00     0.034 A 
ATOM     31  C   UNL d   1       5.814   8.093   7.525  0.00  0.00     0.026 A 
ATOM     32 CL   UNL d   1       6.954  10.502   7.975  0.00  0.00    -0.084 Cl
ATOM     33  C   UNL d   1       5.067   7.181   6.765  0.00  0.00     0.031 A 
ENDBRANCH  24  27
ENDBRANCH  22  23
ENDBRANCH   2  22
TORSDOF 8
