REMARK  4 active torsions:
REMARK  status: ('A' for Active; 'I' for Inactive)
REMARK    1  A    between atoms: N_3  and  C_1 
REMARK    2  A    between atoms: C_2  and  C_11 
REMARK       I    between atoms: C_5  and  N_7 
REMARK    3  A    between atoms: C_12  and  C_5 
REMARK    4  A    between atoms: N_7  and  C_6 
ROOT
ATOM      1  C   UNL d   1      -1.135   3.594   0.125  0.00  0.00     0.256 C 
ATOM      2  N   UNL d   1      -1.492   2.325  -0.286  0.00  0.00    -0.321 N 
ATOM      3  O   UNL d   1       0.009   3.970   0.367  0.00  0.00    -0.267 OA
ATOM      4  H   UNL d   1      -2.444   2.166  -0.599  0.00  0.00     0.169 HD
ENDROOT
BRANCH   2   5
ATOM      5  C   UNL d   1      -0.657   1.171  -0.288  0.00  0.00     0.058 A 
ATOM      6  C   UNL d   1       0.677   1.193   0.128  0.00  0.00     0.057 A 
ATOM      7  C   UNL d   1       1.451   0.021   0.203  0.00  0.00     0.063 A 
ATOM      8  C   UNL d   1       0.879  -1.221  -0.112  0.00  0.00     0.061 A 
ATOM      9 CL   UNL d   1       3.131   0.278   0.543  0.00  0.00    -0.082 Cl
ATOM     10  C   UNL d   1      -0.447  -1.243  -0.585  0.00  0.00     0.058 A 
ATOM     11  C   UNL d   1      -1.196  -0.061  -0.682  0.00  0.00     0.063 A 
ATOM     12 CL   UNL d   1      -2.817  -0.171  -1.282  0.00  0.00    -0.082 Cl
BRANCH   8  13
ATOM     13  N   UNL d   1       1.569  -2.464   0.032  0.00  0.00    -0.331 N 
ATOM     14  C   UNL d   1       2.562  -2.777   0.944  0.00  0.00     0.096 A 
ATOM     15  C   UNL d   1       2.973  -4.079   0.747  0.00  0.00     0.019 A 
ATOM     16  C   UNL d   1       2.175  -4.615  -0.281  0.00  0.00     0.019 A 
ATOM     17  C   UNL d   1       1.308  -3.621  -0.682  0.00  0.00     0.096 A 
ENDBRANCH   8  13
ENDBRANCH   2   5
BRANCH   1  18
ATOM     18  C   UNL d   1      -2.229   4.590   0.318  0.00  0.00     0.032 A 
ATOM     19  C   UNL d   1      -3.540   4.229   0.652  0.00  0.00     0.018 A 
ATOM     20  C   UNL d   1      -4.469   5.220   1.000  0.00  0.00     0.017 A 
ATOM     21  C   UNL d   1      -4.101   6.576   1.028  0.00  0.00     0.048 A 
ATOM     22  C   UNL d   1      -2.800   6.931   0.647  0.00  0.00     0.017 A 
ATOM     23  C   UNL d   1      -1.874   5.947   0.299  0.00  0.00     0.018 A 
BRANCH  21  24
ATOM     24  C   UNL d   1      -5.053   7.645   1.510  0.00  0.00     0.417 C 
ATOM     25  F   UNL d   1      -6.271   7.162   1.881  0.00  0.00    -0.166 F 
ATOM     26  F   UNL d   1      -4.571   8.310   2.598  0.00  0.00    -0.166 F 
ATOM     27  F   UNL d   1      -5.296   8.596   0.568  0.00  0.00    -0.166 F 
ENDBRANCH  21  24
ENDBRANCH   1  18
TORSDOF 4
