REMARK  4 active torsions:
REMARK  status: ('A' for Active; 'I' for Inactive)
REMARK    1  A    between atoms: C_6  and  C_1 
REMARK       I    between atoms: C_2  and  N_7 
REMARK       I    between atoms: N_9  and  C_2 
REMARK    2  A    between atoms: C_3  and  C_11 
REMARK    3  A    between atoms: N_7  and  C_18 
REMARK    4  A    between atoms: C_11  and  N_9 
ROOT
ATOM      1  C   UNL d   1       0.219  -6.138  -1.641  0.00  0.00     0.321 C 
ATOM      2  N   UNL d   1      -0.657  -5.116  -1.472  0.00  0.00    -0.309 N 
ATOM      3  N   UNL d   1       1.419  -6.084  -1.015  0.00  0.00    -0.338 N 
ATOM      4  O   UNL d   1      -0.130  -7.096  -2.331  0.00  0.00    -0.247 OA
ATOM      5  H   UNL d   1      -1.570  -5.392  -1.819  0.00  0.00     0.170 HD
ATOM      6  H   UNL d   1       1.495  -5.495  -0.199  0.00  0.00     0.164 HD
ENDROOT
BRANCH   2   7
ATOM      7  C   UNL d   1      -0.572  -3.826  -0.917  0.00  0.00     0.036 A 
ATOM      8  C   UNL d   1       0.617  -3.139  -0.672  0.00  0.00     0.030 A 
ATOM      9  C   UNL d   1       0.591  -1.877  -0.058  0.00  0.00     0.018 A 
ATOM     10  C   UNL d   1      -0.624  -1.277   0.308  0.00  0.00     0.048 A 
ATOM     11  C   UNL d   1      -1.816  -1.935  -0.015  0.00  0.00     0.018 A 
ATOM     12  C   UNL d   1      -1.787  -3.190  -0.630  0.00  0.00     0.030 A 
BRANCH  10  13
ATOM     13  C   UNL d   1      -0.636   0.036   1.053  0.00  0.00     0.417 C 
ATOM     14  F   UNL d   1      -1.889   0.480   1.354  0.00  0.00    -0.166 F 
ATOM     15  F   UNL d   1      -0.040   1.043   0.358  0.00  0.00    -0.166 F 
ATOM     16  F   UNL d   1       0.024  -0.041   2.242  0.00  0.00    -0.166 F 
ENDBRANCH  10  13
ENDBRANCH   2   7
BRANCH   3  17
ATOM     17  C   UNL d   1       2.406  -7.137  -1.159  0.00  0.00     0.171 C 
BRANCH  17  18
ATOM     18  C   UNL d   1       2.917  -7.585   0.185  0.00  0.00     0.006 A 
ATOM     19  C   UNL d   1       3.026  -8.874   0.698  0.00  0.00    -0.047 A 
ATOM     20  C   UNL d   1       3.630  -8.867   2.001  0.00  0.00     0.015 A 
ATOM     21  C   UNL d   1       2.616 -10.139   0.012  0.00  0.00     0.049 C 
ATOM     22  C   UNL d   1       3.959  -7.604   2.429  0.00  0.00     0.051 A 
ATOM     23  S   UNL d   1       3.556  -6.416   1.276  0.00  0.00    -0.104 SA
ENDBRANCH  17  18
ENDBRANCH   3  17
TORSDOF 4
