REMARK  5 active torsions:
REMARK  status: ('A' for Active; 'I' for Inactive)
REMARK    1  A    between atoms: C_7  and  C_1 
REMARK    2  A    between atoms: S_16  and  C_4 
REMARK    3  A    between atoms: S_17  and  C_5 
REMARK       I    between atoms: N_9  and  C_7 
REMARK    4  A    between atoms: C_20  and  N_9 
REMARK    5  A    between atoms: C_19  and  C_20 
ROOT
ATOM      1  C   UNL d   1      -2.942  -1.133   0.163  0.00  0.00     0.256 C 
ATOM      2  N   UNL d   1      -3.884  -0.778  -0.776  0.00  0.00    -0.352 N 
ATOM      3  O   UNL d   1      -2.198  -0.300   0.669  0.00  0.00    -0.267 OA
ATOM      4  H   UNL d   1      -4.498  -1.484  -1.161  0.00  0.00     0.163 HD
ENDROOT
BRANCH   1   5
ATOM      5  C   UNL d   1      -2.863  -2.556   0.498  0.00  0.00     0.090 A 
ATOM      6  C   UNL d   1      -1.685  -3.187   0.907  0.00  0.00     0.076 A 
ATOM      7  S   UNL d   1      -2.039  -4.815   1.319  0.00  0.00    -0.006 SA
ATOM      8  N   UNL d   1      -3.634  -4.761   0.925  0.00  0.00    -0.319 N 
ATOM      9  C   UNL d   1      -3.933  -3.533   0.515  0.00  0.00     0.093 A 
ATOM     10  HN  UNL d   1      -4.287  -5.542   0.986  1.00  0.00     0.175 HD
BRANCH   6  11
ATOM     11  S   UNL d   1      -0.031  -2.611   1.081  0.00  0.00    -0.125 SA
ATOM     12  C   UNL d   1       0.296  -1.838  -0.516  0.00  0.00     0.096 C 
ENDBRANCH   6  11
BRANCH   9  13
ATOM     13  S   UNL d   1      -5.606  -3.202   0.035  0.00  0.00    -0.115 SA
ATOM     14  C   UNL d   1      -6.436  -4.766   0.410  0.00  0.00     0.097 C 
ENDBRANCH   9  13
ENDBRANCH   1   5
BRANCH   2  15
ATOM     15  C   UNL d   1      -4.072   0.591  -1.204  0.00  0.00     0.161 C 
BRANCH  15  16
ATOM     16  C   UNL d   1      -3.372   0.873  -2.512  0.00  0.00    -0.038 A 
ATOM     17  C   UNL d   1      -4.109   1.159  -3.672  0.00  0.00     0.048 A 
ATOM     18  C   UNL d   1      -3.413   1.430  -4.834  0.00  0.00     0.105 A 
ATOM     19  O   UNL d   1      -3.968   1.741  -6.036  0.00  0.00    -0.323 OA
ATOM     20  C   UNL d   1      -2.038   1.412  -4.883  0.00  0.00     0.105 A 
ATOM     21  C   UNL d   1      -2.784   1.917  -6.844  0.00  0.00     0.352 A 
ATOM     22  O   UNL d   1      -1.557   1.705  -6.119  0.00  0.00    -0.323 OA
ATOM     23  C   UNL d   1      -1.281   1.135  -3.767  0.00  0.00     0.040 A 
ATOM     24  C   UNL d   1      -1.957   0.870  -2.573  0.00  0.00     0.012 A 
ENDBRANCH  15  16
ENDBRANCH   2  15
TORSDOF 5
