REMARK  3 active torsions:
REMARK  status: ('A' for Active; 'I' for Inactive)
REMARK    1  A    between atoms: C_2  and  S_1 
REMARK    2  A    between atoms: C_9  and  S_1 
REMARK    3  A    between atoms: N_13  and  C_3 
ROOT
ATOM      1  C   UNL d   1       0.375  -1.549  -0.559  0.00  0.00     0.117 A 
ATOM      2  C   UNL d   1      -0.595  -1.667  -1.526  0.00  0.00     0.102 A 
ATOM      3  N   UNL d   1      -0.939  -2.862  -2.036  0.00  0.00    -0.336 N 
ATOM      4  HN  UNL d   1      -1.677  -2.944  -2.736  1.00  0.00     0.168 HD
ATOM      5  C   UNL d   1       1.015  -2.704  -0.176  0.00  0.00     0.116 A 
ATOM      6  N   UNL d   1       0.700  -3.918  -0.671  0.00  0.00    -0.354 N 
ATOM      7  HN  UNL d   1       1.178  -4.765  -0.364  1.00  0.00     0.166 HD
ATOM      8  C   UNL d   1      -0.278  -3.949  -1.592  0.00  0.00     0.078 A 
ATOM      9  C   UNL d   1      -0.652  -5.275  -2.175  0.00  0.00     0.089 C 
ENDROOT
BRANCH   1  10
ATOM     10  S   UNL d   1       0.910  -0.013   0.072  0.00  0.00     0.211 S 
ATOM     11  O   UNL d   1       0.687   0.999  -0.946  0.00  0.00    -0.217 OA
ATOM     12  O   UNL d   1       2.256  -0.223   0.581  0.00  0.00    -0.217 OA
BRANCH  10  13
ATOM     13  C   UNL d   1      -0.105   0.420   1.470  0.00  0.00     0.064 A 
ATOM     14  C   UNL d   1       0.483   0.589   2.730  0.00  0.00     0.025 A 
ATOM     15  C   UNL d   1      -0.304   0.994   3.811  0.00  0.00     0.025 A 
ATOM     16  C   UNL d   1      -1.667   1.226   3.629  0.00  0.00     0.034 A 
ATOM     17  C   UNL d   1      -2.253   1.054   2.375  0.00  0.00     0.025 A 
ATOM     18 CL   UNL d   1      -2.630   1.746   4.957  0.00  0.00    -0.084 Cl
ATOM     19  C   UNL d   1      -1.471   0.655   1.288  0.00  0.00     0.025 A 
ENDBRANCH  10  13
ENDBRANCH   1  10
BRANCH   2  20
ATOM     20  N   UNL d   1      -1.359  -0.603  -1.993  0.00  0.00    -0.287 NA
ATOM     21  H   UNL d   1      -0.789   0.202  -2.261  0.00  0.00     0.125 HD
ATOM     22  H   UNL d   1      -1.935  -0.937  -2.763  0.00  0.00     0.125 HD
ENDBRANCH   2  20
TORSDOF 3
