REMARK  2 active torsions:
REMARK  status: ('A' for Active; 'I' for Inactive)
REMARK    1  A    between atoms: C_2  and  C_1 
REMARK       I    between atoms: N_7  and  C_2 
REMARK    2  A    between atoms: C_5  and  C_8 
ROOT
ATOM      1  C   UNL d   1      -1.739   0.337  -0.049  0.00  0.00     0.054 A 
ATOM      2  N   UNL d   1       0.328  -0.630  -0.860  0.00  0.00    -0.355 N 
ATOM      3  HN  UNL d   1       0.811  -1.356  -1.390  1.00  0.00     0.166 HD
ATOM      4  C   UNL d   1      -1.032  -0.656  -0.739  0.00  0.00     0.021 A 
ATOM      5  C   UNL d   1       1.033   0.372  -0.267  0.00  0.00     0.117 A 
ATOM      6  C   UNL d   1      -0.987   1.302   0.632  0.00  0.00     0.021 A 
ATOM      7  C   UNL d   1       0.397   1.348   0.492  0.00  0.00     0.035 A 
ATOM      8  C   UNL d   1      -1.685  -1.866  -1.345  0.00  0.00     0.069 C 
ENDROOT
BRANCH   1   9
ATOM      9  C   UNL d   1      -3.230   0.335   0.041  0.00  0.00     0.255 C 
ATOM     10  N   UNL d   1      -3.971   1.524  -0.088  0.00  0.00    -0.346 N 
ATOM     11  C   UNL d   1      -5.389   1.473   0.310  0.00  0.00     0.136 C 
ATOM     12  C   UNL d   1      -3.413   2.873  -0.291  0.00  0.00     0.136 C 
ATOM     13  C   UNL d   1      -6.337   2.214  -0.635  0.00  0.00     0.093 C 
ATOM     14  S   UNL d   1      -5.927   3.982  -0.746  0.00  0.00    -0.166 SA
ATOM     15  C   UNL d   1      -4.199   3.772  -1.248  0.00  0.00     0.093 C 
ATOM     16  O   UNL d   1      -3.775  -0.755   0.234  0.00  0.00    -0.267 OA
ENDBRANCH   1   9
BRANCH   5  17
ATOM     17  C   UNL d   1       2.548   0.433  -0.424  0.00  0.00     0.432 C 
ATOM     18  F   UNL d   1       3.099  -0.644  -1.048  0.00  0.00    -0.165 F 
ATOM     19  F   UNL d   1       2.949   1.526  -1.139  0.00  0.00    -0.165 F 
ATOM     20  F   UNL d   1       3.188   0.535   0.778  0.00  0.00    -0.165 F 
ENDBRANCH   5  17
TORSDOF 2
