REMARK  2 active torsions:
REMARK  status: ('A' for Active; 'I' for Inactive)
REMARK    1  A    between atoms: C_9  and  C_3 
REMARK    2  A    between atoms: C_16  and  C_4 
ROOT
ATOM      1  N   UNL d   1       0.756   0.266  -0.973  0.00  0.00    -0.319 N 
ATOM      2  HN  UNL d   1       1.347   0.481  -1.776  1.00  0.00     0.169 HD
ATOM      3  C   UNL d   1       0.253   1.125  -0.018  0.00  0.00     0.138 A 
ATOM      4  C   UNL d   1       0.284  -0.900  -0.590  0.00  0.00     0.182 A 
ATOM      5  N   UNL d   1      -0.504   0.520   0.912  0.00  0.00    -0.242 N 
ATOM      6  HN  UNL d   1      -0.980   0.943   1.709  1.00  0.00     0.196 HD
ATOM      7  O   UNL d   1      -0.485  -0.818   0.535  0.00  0.00    -0.217 OA
ENDROOT
BRANCH   3   8
ATOM      8  C   UNL d   1       0.546   2.555  -0.023  0.00  0.00     0.011 A 
ATOM      9  C   UNL d   1       0.058   3.394   0.993  0.00  0.00     0.029 A 
ATOM     10  C   UNL d   1       0.369   4.758   1.002  0.00  0.00    -0.002 A 
ATOM     11  C   UNL d   1      -0.144   5.640   2.041  0.00  0.00     0.013 C 
ATOM     12  C   UNL d   1       1.175   5.287  -0.010  0.00  0.00     0.080 A 
ATOM     13  C   UNL d   1       0.384   6.866   2.123  0.00  0.00     0.011 C 
ATOM     14  C   UNL d   1       1.472   7.340   1.182  0.00  0.00     0.078 C 
ATOM     15  O   UNL d   1       1.530   6.608  -0.064  0.00  0.00    -0.336 OA
ATOM     16  C   UNL d   1       2.842   7.222   1.862  0.00  0.00     0.051 C 
ATOM     17  C   UNL d   1       1.216   8.802   0.796  0.00  0.00     0.051 C 
ATOM     18  C   UNL d   1       1.638   4.474  -1.042  0.00  0.00     0.039 A 
ATOM     19  C   UNL d   1       1.331   3.111  -1.044  0.00  0.00     0.018 A 
ENDBRANCH   3   8
BRANCH   4  20
ATOM     20  C   UNL d   1       0.479  -2.225  -1.167  0.00  0.00     0.017 A 
ATOM     21  C   UNL d   1       1.282  -2.376  -2.309  0.00  0.00     0.017 A 
ATOM     22  C   UNL d   1       1.505  -3.639  -2.867  0.00  0.00     0.025 A 
ATOM     23  C   UNL d   1       0.924  -4.764  -2.287  0.00  0.00     0.034 A 
ATOM     24  C   UNL d   1       0.115  -4.635  -1.161  0.00  0.00     0.025 A 
ATOM     25 CL   UNL d   1       1.209  -6.320  -2.961  0.00  0.00    -0.084 Cl
ATOM     26  C   UNL d   1      -0.107  -3.371  -0.605  0.00  0.00     0.017 A 
ENDBRANCH   4  20
TORSDOF 2
