REMARK  2 active torsions:
REMARK  status: ('A' for Active; 'I' for Inactive)
REMARK    1  A    between atoms: C_12  and  C_7 
REMARK    2  A    between atoms: C_15  and  C_11 
ROOT
ATOM      1  C   UNL d   1       3.175   1.245  -0.194  0.00  0.00     0.101 A 
ATOM      2  N   UNL d   1       2.337   3.458  -0.686  0.00  0.00    -0.299 N 
ATOM      3  N   UNL d   1       4.510   2.920  -1.301  0.00  0.00    -0.299 N 
ATOM      4  C   UNL d   1       2.067   2.238  -0.127  0.00  0.00     0.263 A 
ATOM      5  C   UNL d   1       4.477   1.650  -0.783  0.00  0.00     0.263 A 
ATOM      6  C   UNL d   1       3.502   3.833  -1.277  0.00  0.00     0.181 A 
ATOM      7  C   UNL d   1       2.908   0.019   0.295  0.00  0.00     0.034 C 
ATOM      8  S   UNL d   1       3.688   5.345  -1.939  0.00  0.00    -0.040 SA
ATOM      9  O   UNL d   1       0.977   2.010   0.386  0.00  0.00    -0.267 OA
ATOM     10  O   UNL d   1       5.479   0.946  -0.827  0.00  0.00    -0.267 OA
ATOM     11  H   UNL d   1       1.584   4.134  -0.648  0.00  0.00     0.171 HD
ATOM     12  H   UNL d   1       5.390   3.194  -1.718  0.00  0.00     0.171 HD
ENDROOT
BRANCH   7  13
ATOM     13  C   UNL d   1       3.815  -1.129   0.366  0.00  0.00    -0.035 A 
ATOM     14  C   UNL d   1       4.557  -1.352   1.528  0.00  0.00     0.012 A 
ATOM     15  C   UNL d   1       5.373  -2.480   1.636  0.00  0.00     0.008 A 
ATOM     16  C   UNL d   1       5.462  -3.408   0.587  0.00  0.00    -0.055 A 
ATOM     17  C   UNL d   1       4.729  -3.164  -0.584  0.00  0.00     0.008 A 
ATOM     18  C   UNL d   1       3.911  -2.033  -0.694  0.00  0.00     0.012 A 
BRANCH  16  19
ATOM     19  C   UNL d   1       6.314  -4.660   0.707  0.00  0.00     0.010 C 
ATOM     20  C   UNL d   1       7.793  -4.325   0.918  0.00  0.00     0.015 C 
ATOM     21  C   UNL d   1       5.806  -5.576   1.825  0.00  0.00     0.015 C 
ENDBRANCH  16  19
ENDBRANCH   7  13
TORSDOF 2
