REMARK  1 active torsions:
REMARK  status: ('A' for Active; 'I' for Inactive)
REMARK    1  A    between atoms: C_10  and  C_3 
ROOT
ATOM      1  N   UNL d   1      -3.358   2.737   0.160  0.00  0.00    -0.220 N 
ATOM      2  C   UNL d   1      -3.185   1.397  -0.078  0.00  0.00     0.176 A 
ATOM      3  C   UNL d   1      -1.173   2.749   0.046  0.00  0.00     0.177 A 
ATOM      4  N   UNL d   1      -2.214   3.510   0.244  0.00  0.00    -0.280 N 
ATOM      5  HN  UNL d   1      -2.189   4.513   0.430  1.00  0.00     0.188 HD
ATOM      6  S   UNL d   1      -1.484   1.037  -0.248  0.00  0.00    -0.028 SA
ATOM      7  N   UNL d   1      -4.082   0.486  -0.184  0.00  0.00    -0.305 N 
ATOM      8  HN  UNL d   1      -3.839  -0.482  -0.394  1.00  0.00     0.171 HD
ATOM      9  C   UNL d   1      -4.612   3.302   0.203  0.00  0.00     0.108 C 
ATOM     10  C   UNL d   1      -5.395   0.879  -0.002  0.00  0.00     0.230 C 
ATOM     11  C   UNL d   1      -5.762   2.354  -0.006  0.00  0.00     0.181 C 
ATOM     12  N   UNL d   1      -4.848   4.567   0.365  0.00  0.00    -0.387 N 
ATOM     13  HN  UNL d   1      -5.765   5.014   0.391  1.00  0.00     0.157 HD
ATOM     14  O   UNL d   1      -6.290   0.045   0.112  0.00  0.00    -0.273 OA
ATOM     15  H   UNL d   1      -3.934   5.034   0.464  0.00  0.00     0.157 HD
ENDROOT
BRANCH   3  16
ATOM     16  C   UNL d   1       0.247   3.264  -0.003  0.00  0.00     0.440 C 
ATOM     17  F   UNL d   1       0.479   3.966  -1.146  0.00  0.00    -0.164 F 
ATOM     18  F   UNL d   1       0.521   4.111   1.028  0.00  0.00    -0.164 F 
ATOM     19  F   UNL d   1       1.190   2.286   0.045  0.00  0.00    -0.164 F 
ENDBRANCH   3  16
TORSDOF 1
