REMARK  3 active torsions:
REMARK  status: ('A' for Active; 'I' for Inactive)
REMARK    1  A    between atoms: C_2  and  C_1 
REMARK    2  A    between atoms: O_4  and  C_1 
REMARK    3  A    between atoms: C_9  and  O_4 
ROOT
ATOM      1  C   UNL d   1       1.055   0.101   0.002  0.00  0.00     0.305 C 
ATOM      2  O   UNL d   1       0.590   0.903  -0.802  0.00  0.00    -0.258 OA
ENDROOT
BRANCH   1   3
ATOM      3  C   UNL d   1       2.453   0.086   0.409  0.00  0.00     0.080 A 
ATOM      4  S   UNL d   1       3.066  -0.975   1.608  0.00  0.00    -0.096 SA
ATOM      5  C   UNL d   1       4.638  -0.313   1.494  0.00  0.00     0.050 A 
ATOM      6  C   UNL d   1       4.711   0.687   0.552  0.00  0.00     0.009 A 
ATOM      7  C   UNL d   1       3.453   0.913  -0.075  0.00  0.00     0.025 A 
ENDBRANCH   1   3
BRANCH   1   8
ATOM      8  O   UNL d   1       0.324  -0.893   0.661  0.00  0.00    -0.275 OA
BRANCH   8   9
ATOM      9  C   UNL d   1      -1.074  -1.034   0.518  0.00  0.00     0.079 A 
ATOM     10  C   UNL d   1      -1.766  -0.763  -0.660  0.00  0.00     0.037 A 
ATOM     11  C   UNL d   1      -3.151  -0.937  -0.698  0.00  0.00     0.003 A 
ATOM     12  C   UNL d   1      -3.832  -1.402   0.429  0.00  0.00     0.000 A 
ATOM     13  C   UNL d   1      -3.128  -1.703   1.595  0.00  0.00     0.003 A 
ATOM     14  C   UNL d   1      -1.746  -1.523   1.640  0.00  0.00     0.037 A 
ENDBRANCH   8   9
ENDBRANCH   1   8
TORSDOF 3
