REMARK  5 active torsions:
REMARK  status: ('A' for Active; 'I' for Inactive)
REMARK    1  A    between atoms: C_17  and  C_2 
REMARK    2  A    between atoms: N_4  and  C_7 
REMARK    3  A    between atoms: N_10  and  O_19 
REMARK    4  A    between atoms: C_18  and  C_16 
REMARK    5  A    between atoms: O_19  and  C_17 
ROOT
ATOM      1  N   UNL d   1       3.783  -3.644  -0.089  0.00  0.00    -0.277 N 
ATOM      2  HN  UNL d   1       3.405  -4.550  -0.367  1.00  0.00     0.193 HD
ATOM      3  C   UNL d   1       5.031  -3.373   0.125  0.00  0.00     0.125 C 
ENDROOT
BRANCH   1   4
ATOM      4  O   UNL d   1       3.039  -2.470   0.131  0.00  0.00    -0.276 OA
BRANCH   4   5
ATOM      5  C   UNL d   1       1.721  -2.820   0.560  0.00  0.00     0.242 C 
BRANCH   5   6
ATOM      6  C   UNL d   1       0.877  -1.592   0.706  0.00  0.00    -0.001 A 
ATOM      7  C   UNL d   1       0.791  -0.791   1.827  0.00  0.00     0.084 A 
ATOM      8  S   UNL d   1      -0.258   0.530   1.655  0.00  0.00    -0.065 SA
ATOM      9 CL   UNL d   1       1.617  -0.996   3.324  0.00  0.00    -0.076 Cl
ATOM     10  C   UNL d   1      -0.621   0.074   0.069  0.00  0.00     0.076 A 
ATOM     11 CL   UNL d   1      -1.717   1.011  -0.863  0.00  0.00    -0.076 Cl
ATOM     12  C   UNL d   1       0.035  -1.061  -0.335  0.00  0.00     0.043 A 
ENDBRANCH   5   6
ENDBRANCH   4   5
ENDBRANCH   1   4
BRANCH   3  13
ATOM     13  C   UNL d   1       6.090  -4.387   0.006  0.00  0.00    -0.019 A 
ATOM     14  C   UNL d   1       5.935  -5.504  -0.821  0.00  0.00     0.015 A 
ATOM     15  C   UNL d   1       6.966  -6.446  -0.918  0.00  0.00     0.037 A 
ATOM     16  C   UNL d   1       8.139  -6.268  -0.169  0.00  0.00     0.102 A 
ATOM     17  C   UNL d   1       8.289  -5.154   0.668  0.00  0.00     0.037 A 
ATOM     18  C   UNL d   1       7.264  -4.207   0.747  0.00  0.00     0.015 A 
BRANCH  16  19
ATOM     19  N   UNL d   1       9.224  -7.257  -0.262  0.00  0.00    -0.116 N 
ATOM     20  O   UNL d   1       9.063  -8.213  -1.032  0.00  0.00    -0.532 OA
ATOM     21  O   UNL d   1      10.230  -7.077   0.435  0.00  0.00    -0.532 OA
ENDBRANCH  16  19
ENDBRANCH   3  13
TORSDOF 5
