REMARK  6 active torsions:
REMARK  status: ('A' for Active; 'I' for Inactive)
REMARK    1  A    between atoms: S_7  and  C_3 
REMARK    2  A    between atoms: S_8  and  C_4 
REMARK    3  A    between atoms: C_5  and  S_7 
REMARK    4  A    between atoms: C_9  and  C_5 
REMARK    5  A    between atoms: C_6  and  S_8 
REMARK    6  A    between atoms: C_10  and  C_6 
ROOT
ATOM      1  N   UNL d   1       1.560  -0.342  -0.520  0.00  0.00    -0.323 N 
ATOM      2  HN  UNL d   1       2.527  -0.464  -0.821  1.00  0.00     0.169 HD
ATOM      3  C   UNL d   1       0.984   0.846  -0.084  0.00  0.00     0.159 A 
ATOM      4  C   UNL d   1       0.636  -1.283  -0.478  0.00  0.00     0.138 A 
ATOM      5  N   UNL d   1      -0.323   0.879   0.190  0.00  0.00    -0.304 N 
ATOM      6  HN  UNL d   1      -0.866   1.697   0.467  1.00  0.00     0.176 HD
ATOM      7  S   UNL d   1      -0.898  -0.671  -0.008  0.00  0.00     0.013 SA
ENDROOT
BRANCH   3   8
ATOM      8  S   UNL d   1       1.858   2.349   0.117  0.00  0.00    -0.010 SA
BRANCH   8   9
ATOM      9  C   UNL d   1       3.377   2.064  -0.712  0.00  0.00     0.228 C 
ATOM     10  O   UNL d   1       4.365   1.804  -0.042  0.00  0.00    -0.279 OA
BRANCH   9  11
ATOM     11  C   UNL d   1       3.470   2.344  -2.189  0.00  0.00     0.043 A 
ATOM     12  C   UNL d   1       4.606   1.968  -2.937  0.00  0.00     0.050 A 
ATOM     13  C   UNL d   1       4.728   2.330  -4.289  0.00  0.00     0.048 A 
ATOM     14 CL   UNL d   1       5.917   1.025  -2.313  0.00  0.00    -0.083 Cl
ATOM     15  C   UNL d   1       3.718   3.048  -4.917  0.00  0.00     0.035 A 
ATOM     16  C   UNL d   1       2.578   3.408  -4.211  0.00  0.00     0.025 A 
ATOM     17 CL   UNL d   1       3.881   3.496  -6.569  0.00  0.00    -0.084 Cl
ATOM     18  C   UNL d   1       2.457   3.065  -2.857  0.00  0.00     0.019 A 
ENDBRANCH   9  11
ENDBRANCH   8   9
ENDBRANCH   3   8
BRANCH   4  19
ATOM     19  S   UNL d   1       0.906  -2.908  -1.044  0.00  0.00    -0.021 SA
BRANCH  19  20
ATOM     20  C   UNL d   1       0.846  -3.792   0.490  0.00  0.00     0.227 C 
ATOM     21  O   UNL d   1       0.390  -3.285   1.498  0.00  0.00    -0.279 OA
BRANCH  20  22
ATOM     22  C   UNL d   1       1.384  -5.200   0.476  0.00  0.00     0.043 A 
ATOM     23  C   UNL d   1       0.932  -6.186   1.375  0.00  0.00     0.050 A 
ATOM     24  C   UNL d   1       1.514  -7.466   1.386  0.00  0.00     0.048 A 
ATOM     25 CL   UNL d   1      -0.381  -5.950   2.476  0.00  0.00    -0.083 Cl
ATOM     26  C   UNL d   1       2.535  -7.779   0.495  0.00  0.00     0.035 A 
ATOM     27  C   UNL d   1       2.978  -6.829  -0.418  0.00  0.00     0.025 A 
ATOM     28 CL   UNL d   1       3.257  -9.338   0.520  0.00  0.00    -0.084 Cl
ATOM     29  C   UNL d   1       2.414  -5.550  -0.420  0.00  0.00     0.019 A 
ENDBRANCH  20  22
ENDBRANCH  19  20
ENDBRANCH   4  19
TORSDOF 6
