REMARK  7 active torsions:
REMARK  status: ('A' for Active; 'I' for Inactive)
REMARK    1  A    between atoms: S_8  and  C_3 
REMARK    2  A    between atoms: C_10  and  C_5 
REMARK    3  A    between atoms: C_13  and  S_8 
REMARK    4  A    between atoms: C_9  and  C_13 
REMARK    5  A    between atoms: C_11  and  C_9 
REMARK    6  A    between atoms: O_21  and  C_10 
REMARK    7  A    between atoms: O_22  and  C_10 
ROOT
ATOM      1  N   UNL d   1      -1.353  -1.032   0.185  0.00  0.00    -0.349 N 
ATOM      2  HN  UNL d   1      -1.807  -1.938   0.303  1.00  0.00     0.166 HD
ATOM      3  C   UNL d   1      -0.005  -0.937   0.240  0.00  0.00     0.091 A 
ATOM      4  C   UNL d   1       0.648   0.283   0.086  0.00  0.00     0.078 A 
ATOM      5  C   UNL d   1      -2.103   0.085  -0.028  0.00  0.00     0.065 A 
ATOM      6  C   UNL d   1       2.066   0.413   0.183  0.00  0.00     0.102 C 
ATOM      7  N   UNL d   1       3.216   0.575   0.267  0.00  0.00    -0.191 NA
ATOM      8  C   UNL d   1      -0.125   1.427  -0.153  0.00  0.00     0.027 A 
ATOM      9  C   UNL d   1      -1.514   1.331  -0.216  0.00  0.00     0.032 A 
ENDROOT
BRANCH   3  10
ATOM     10  S   UNL d   1       0.860  -2.454   0.633  0.00  0.00    -0.103 SA
BRANCH  10  11
ATOM     11  C   UNL d   1      -0.484  -3.670   0.420  0.00  0.00     0.164 C 
BRANCH  11  12
ATOM     12  C   UNL d   1      -0.023  -5.051   0.840  0.00  0.00     0.169 C 
ATOM     13  O   UNL d   1       0.294  -5.894  -0.002  0.00  0.00    -0.291 OA
BRANCH  12  14
ATOM     14  C   UNL d   1       0.021  -5.426   2.293  0.00  0.00     0.011 A 
ATOM     15  C   UNL d   1      -0.261  -4.525   3.326  0.00  0.00     0.015 A 
ATOM     16  C   UNL d   1      -0.158  -4.929   4.664  0.00  0.00     0.007 A 
ATOM     17  C   UNL d   1       0.214  -6.239   4.990  0.00  0.00    -0.062 A 
ATOM     18  C   UNL d   1       0.474  -7.144   3.958  0.00  0.00     0.007 A 
ATOM     19  C   UNL d   1       0.363  -6.645   6.427  0.00  0.00     0.048 C 
ATOM     20  C   UNL d   1       0.378  -6.742   2.623  0.00  0.00     0.015 A 
ENDBRANCH  12  14
ENDBRANCH  11  12
ENDBRANCH  10  11
ENDBRANCH   3  10
BRANCH   5  21
ATOM     21  C   UNL d   1      -3.631  -0.046  -0.014  0.00  0.00     0.309 C 
BRANCH  21  22
ATOM     22  O   UNL d   1      -4.067  -0.139  -1.375  0.00  0.00    -0.360 OA
ATOM     23  C   UNL d   1      -5.483  -0.132  -1.485  0.00  0.00     0.205 C 
ENDBRANCH  21  22
BRANCH  21  24
ATOM     24  O   UNL d   1      -4.072  -1.188   0.731  0.00  0.00    -0.360 OA
ATOM     25  C   UNL d   1      -3.822  -1.079   2.125  0.00  0.00     0.205 C 
ENDBRANCH  21  24
ENDBRANCH   5  21
TORSDOF 7
