REMARK  4 active torsions:
REMARK  status: ('A' for Active; 'I' for Inactive)
REMARK    1  A    between atoms: C_2  and  N_1 
REMARK    2  A    between atoms: N_4  and  C_3 
REMARK    3  A    between atoms: C_9  and  N_4 
REMARK    4  A    between atoms: C_11  and  C_9 
ROOT
ATOM      1  C   UNL d   1      -0.965   2.380   1.321  0.00  0.00     0.141 A 
ATOM      2  C   UNL d   1      -0.552   1.067   1.088  0.00  0.00     0.114 A 
ATOM      3  N   UNL d   1       0.254   0.809   0.027  0.00  0.00    -0.355 N 
ATOM      4  HN  UNL d   1       0.592  -0.138  -0.144  1.00  0.00     0.166 HD
ATOM      5  C   UNL d   1      -0.599   3.424   0.458  0.00  0.00     0.041 A 
ATOM      6  C   UNL d   1       0.607   1.821  -0.802  0.00  0.00     0.089 A 
ATOM      7  C   UNL d   1       0.202   3.132  -0.636  0.00  0.00     0.020 A 
ENDROOT
BRANCH   2   8
ATOM      8  N   UNL d   1      -0.896  -0.002   1.943  0.00  0.00    -0.273 NA
ATOM      9  H   UNL d   1      -1.909  -0.026   2.070  0.00  0.00     0.129 HD
BRANCH   8  10
ATOM     10  C   UNL d   1      -0.376  -1.293   1.493  0.00  0.00     0.132 C 
BRANCH  10  11
ATOM     11  C   UNL d   1      -0.899  -2.471   2.296  0.00  0.00    -0.045 A 
ATOM     12  C   UNL d   1      -0.949  -3.731   1.671  0.00  0.00     0.010 A 
ATOM     13  C   UNL d   1      -1.351  -4.869   2.372  0.00  0.00     0.024 A 
ATOM     14  C   UNL d   1      -1.702  -4.761   3.712  0.00  0.00     0.034 A 
ATOM     15  C   UNL d   1      -1.650  -3.525   4.357  0.00  0.00     0.024 A 
ATOM     16 CL   UNL d   1      -2.187  -6.165   4.583  0.00  0.00    -0.084 Cl
ATOM     17  C   UNL d   1      -1.241  -2.385   3.654  0.00  0.00     0.010 A 
ENDBRANCH  10  11
ENDBRANCH   8  10
ENDBRANCH   2   8
BRANCH   1  18
ATOM     18  N   UNL d   1      -1.783   2.700   2.464  0.00  0.00    -0.112 N 
ATOM     19  O   UNL d   1      -2.842   2.069   2.599  0.00  0.00    -0.532 OA
ATOM     20  O   UNL d   1      -1.400   3.623   3.195  0.00  0.00    -0.532 OA
ENDBRANCH   1  18
TORSDOF 4
