REMARK  7 active torsions:
REMARK  status: ('A' for Active; 'I' for Inactive)
REMARK    1  A    between atoms: C_2  and  C_1 
REMARK    2  A    between atoms: C_3  and  C_1 
REMARK    3  A    between atoms: C_4  and  C_2 
REMARK    4  A    between atoms: C_8  and  C_3 
REMARK    5  A    between atoms: N_11  and  N_5 
REMARK    6  A    between atoms: C_7  and  C_9 
REMARK    7  A    between atoms: C_24  and  N_11 
ROOT
ATOM      1  C   UNL d   1       1.091   0.020  -0.015  0.00  0.00     0.155 C 
ATOM      2  N   UNL d   1       2.390   0.018  -0.059  0.00  0.00    -0.293 N 
ATOM      3  HN  UNL d   1       2.899   0.676   0.531  1.00  0.00     0.187 HD
ENDROOT
BRANCH   1   4
ATOM      4  C   UNL d   1       0.211  -0.922  -0.763  0.00  0.00     0.287 C 
ATOM      5  O   UNL d   1      -0.637  -0.434  -1.509  0.00  0.00    -0.281 OA
BRANCH   4   6
ATOM      6  C   UNL d   1       0.471  -2.381  -0.543  0.00  0.00     0.457 C 
ATOM      7  F   UNL d   1       1.426  -2.644   0.390  0.00  0.00    -0.163 F 
ATOM      8  F   UNL d   1      -0.629  -3.081  -0.166  0.00  0.00    -0.163 F 
ATOM      9  F   UNL d   1       0.926  -2.965  -1.689  0.00  0.00    -0.163 F 
ENDBRANCH   4   6
ENDBRANCH   1   4
BRANCH   1  10
ATOM     10  C   UNL d   1       0.460   1.061   0.876  0.00  0.00     0.220 C 
ATOM     11  O   UNL d   1      -0.487   0.671   1.559  0.00  0.00    -0.284 OA
BRANCH  10  12
ATOM     12  C   UNL d   1       1.054   2.387   0.877  0.00  0.00     0.057 A 
ATOM     13  S   UNL d   1       0.698   3.458   2.172  0.00  0.00    -0.098 SA
ATOM     14  C   UNL d   1       1.786   4.644   1.590  0.00  0.00     0.050 A 
ATOM     15  C   UNL d   1       2.369   4.268   0.404  0.00  0.00     0.009 A 
ATOM     16  C   UNL d   1       1.931   2.978  -0.019  0.00  0.00     0.023 A 
ENDBRANCH  10  12
ENDBRANCH   1  10
BRANCH   2  17
ATOM     17  N   UNL d   1       3.097  -0.819  -0.855  0.00  0.00    -0.300 N 
ATOM     18  H   UNL d   1       2.743  -1.718  -1.181  0.00  0.00     0.187 HD
BRANCH  17  19
ATOM     19  C   UNL d   1       4.488  -0.907  -0.594  0.00  0.00     0.048 A 
ATOM     20  C   UNL d   1       5.168   0.042   0.185  0.00  0.00     0.047 A 
ATOM     21  C   UNL d   1       6.558  -0.031   0.371  0.00  0.00     0.050 A 
ATOM     22  C   UNL d   1       7.270  -1.067  -0.248  0.00  0.00     0.016 A 
ATOM     23  C   UNL d   1       6.609  -2.009  -1.034  0.00  0.00     0.003 A 
ATOM     24  C   UNL d   1       5.228  -1.921  -1.212  0.00  0.00     0.031 A 
BRANCH  21  25
ATOM     25  C   UNL d   1       7.289   0.990   1.204  0.00  0.00     0.417 C 
ATOM     26  F   UNL d   1       6.470   1.888   1.823  0.00  0.00    -0.166 F 
ATOM     27  F   UNL d   1       8.033   0.424   2.193  0.00  0.00    -0.166 F 
ATOM     28  F   UNL d   1       8.159   1.733   0.464  0.00  0.00    -0.166 F 
ENDBRANCH  21  25
ENDBRANCH  17  19
ENDBRANCH   2  17
TORSDOF 7
