REMARK  12 active torsions:
REMARK  status: ('A' for Active; 'I' for Inactive)
REMARK    1  A    between atoms: S_3  and  C_12 
REMARK    2  A    between atoms: N_26  and  S_3 
REMARK    3  A    between atoms: S_4  and  C_13 
REMARK    4  A    between atoms: N_27  and  S_4 
REMARK    5  A    between atoms: N_9  and  C_5 
REMARK    6  A    between atoms: N_10  and  C_6 
REMARK    7  A    between atoms: C_29  and  N_26 
REMARK    8  A    between atoms: C_30  and  N_27 
REMARK    9  A    between atoms: C_31  and  C_29 
REMARK   10  A    between atoms: C_32  and  C_30 
REMARK   11  A    between atoms: C_33  and  C_31 
REMARK   12  A    between atoms: C_34  and  C_32 
ROOT
ATOM      1  C   UNL d   1      -0.743   0.841   0.025  0.00  0.00     0.025 A 
ATOM      2  C   UNL d   1       0.730   0.836   0.010  0.00  0.00     0.025 A 
ATOM      3  C   UNL d   1      -1.740   1.813  -0.056  0.00  0.00     0.116 A 
ATOM      4  C   UNL d   1       1.736   1.791   0.157  0.00  0.00     0.116 A 
ATOM      5  C   UNL d   1       1.170  -0.497  -0.138  0.00  0.00     0.030 A 
ATOM      6  C   UNL d   1      -1.193  -0.497   0.023  0.00  0.00     0.030 A 
ATOM      7  C   UNL d   1      -0.013  -1.377  -0.093  0.00  0.00     0.194 A 
ATOM      8  C   UNL d   1      -3.488   0.118  -0.001  0.00  0.00     0.082 A 
ATOM      9  C   UNL d   1       3.465   0.115  -0.195  0.00  0.00     0.082 A 
ATOM     10  C   UNL d   1       3.097   1.450   0.028  0.00  0.00     0.062 A 
ATOM     11  C   UNL d   1      -3.107   1.467  -0.049  0.00  0.00     0.062 A 
ATOM     12  C   UNL d   1      -2.527  -0.893   0.022  0.00  0.00     0.041 A 
ATOM     13  C   UNL d   1       2.500  -0.891  -0.245  0.00  0.00     0.041 A 
ATOM     14  O   UNL d   1      -0.017  -2.581  -0.152  0.00  0.00    -0.287 OA
ENDROOT
BRANCH   8  15
ATOM     15  S   UNL d   1      -5.212  -0.274  -0.149  0.00  0.00     0.258 S 
ATOM     16  O   UNL d   1      -5.721   0.512  -1.248  0.00  0.00    -0.201 OA
ATOM     17  O   UNL d   1      -5.363  -1.710  -0.092  0.00  0.00    -0.201 OA
BRANCH  15  18
ATOM     18  N   UNL d   1      -5.860   0.392   1.260  0.00  0.00    -0.315 N 
ATOM     19  H   UNL d   1      -6.705   0.926   1.051  0.00  0.00     0.172 HD
BRANCH  18  20
ATOM     20  C   UNL d   1      -5.888  -0.470   2.448  0.00  0.00     0.132 C 
BRANCH  20  21
ATOM     21  C   UNL d   1      -6.472   0.287   3.640  0.00  0.00     0.020 C 
BRANCH  21  22
ATOM     22  C   UNL d   1      -6.524  -0.631   4.863  0.00  0.00    -0.003 C 
ATOM     23  C   UNL d   1      -7.118   0.054   6.082  0.00  0.00     0.005 C 
ENDBRANCH  21  22
ENDBRANCH  20  21
ENDBRANCH  18  20
ENDBRANCH  15  18
ENDBRANCH   8  15
BRANCH   3  24
ATOM     24  N   UNL d   1      -1.447   3.195  -0.370  0.00  0.00    -0.115 N 
ATOM     25  O   UNL d   1      -0.755   3.391  -1.377  0.00  0.00    -0.532 OA
ATOM     26  O   UNL d   1      -1.940   4.059   0.361  0.00  0.00    -0.532 OA
ENDBRANCH   3  24
BRANCH   4  27
ATOM     27  N   UNL d   1       1.461   3.120   0.660  0.00  0.00    -0.115 N 
ATOM     28  O   UNL d   1       0.801   3.181   1.706  0.00  0.00    -0.532 OA
ATOM     29  O   UNL d   1       1.932   4.075   0.036  0.00  0.00    -0.532 OA
ENDBRANCH   4  27
BRANCH   9  30
ATOM     30  S   UNL d   1       5.195  -0.288  -0.261  0.00  0.00     0.258 S 
ATOM     31  O   UNL d   1       5.824   0.423   0.828  0.00  0.00    -0.201 OA
ATOM     32  O   UNL d   1       5.329  -1.716  -0.429  0.00  0.00    -0.201 OA
BRANCH  30  33
ATOM     33  N   UNL d   1       5.693   0.474  -1.682  0.00  0.00    -0.315 N 
ATOM     34  H   UNL d   1       6.557   0.995  -1.528  0.00  0.00     0.172 HD
BRANCH  33  35
ATOM     35  C   UNL d   1       5.595  -0.305  -2.925  0.00  0.00     0.132 C 
BRANCH  35  36
ATOM     36  C   UNL d   1       6.060   0.535  -4.115  0.00  0.00     0.020 C 
BRANCH  36  37
ATOM     37  C   UNL d   1       5.977  -0.289  -5.403  0.00  0.00    -0.003 C 
ATOM     38  C   UNL d   1       6.446   0.486  -6.622  0.00  0.00     0.005 C 
ENDBRANCH  36  37
ENDBRANCH  35  36
ENDBRANCH  33  35
ENDBRANCH  30  33
ENDBRANCH   9  30
TORSDOF 12
