REMARK  4 active torsions:
REMARK  status: ('A' for Active; 'I' for Inactive)
REMARK    1  A    between atoms: N_6  and  C_1 
REMARK    2  A    between atoms: N_3  and  C_2 
REMARK       I    between atoms: C_4  and  N_7 
REMARK    3  A    between atoms: C_5  and  C_4 
REMARK    4  A    between atoms: N_7  and  N_6 
ROOT
ATOM      1  N   UNL d   1      -1.428   2.298  -0.076  0.00  0.00    -0.180 NA
ATOM      2  C   UNL d   1      -1.151   3.741  -0.132  0.00  0.00     0.144 C 
ENDROOT
BRANCH   1   3
ATOM      3  C   UNL d   1      -0.474   1.455  -0.693  0.00  0.00     0.134 A 
ATOM      4  C   UNL d   1      -0.565   0.062  -0.666  0.00  0.00     0.142 A 
ATOM      5  C   UNL d   1       0.337  -0.753  -1.369  0.00  0.00     0.041 A 
ATOM      6  C   UNL d   1       1.375  -0.146  -2.054  0.00  0.00     0.020 A 
ATOM      7  C   UNL d   1       1.465   1.232  -1.996  0.00  0.00     0.089 A 
ATOM      8  N   UNL d   1       0.569   2.022  -1.355  0.00  0.00    -0.353 N 
ATOM      9  HN  UNL d   1       0.677   3.036  -1.370  1.00  0.00     0.166 HD
BRANCH   4  10
ATOM     10  N   UNL d   1      -1.571  -0.595   0.123  0.00  0.00    -0.112 N 
ATOM     11  O   UNL d   1      -1.351  -0.720   1.338  0.00  0.00    -0.532 OA
ATOM     12  O   UNL d   1      -2.532  -1.082  -0.493  0.00  0.00    -0.532 OA
ENDBRANCH   4  10
ENDBRANCH   1   3
BRANCH   1  13
ATOM     13  N   UNL d   1      -2.765   1.981  -0.446  0.00  0.00    -0.279 N 
ATOM     14  C   UNL d   1      -3.803   2.338   0.399  0.00  0.00     0.268 C 
ATOM     15  O   UNL d   1      -3.643   2.755   1.541  0.00  0.00    -0.266 OA
ATOM     16  H   UNL d   1      -2.930   1.827  -1.438  0.00  0.00     0.184 HD
BRANCH  14  17
ATOM     17  C   UNL d   1      -5.191   2.198  -0.138  0.00  0.00     0.054 A 
ATOM     18  C   UNL d   1      -5.559   2.262  -1.490  0.00  0.00     0.049 A 
ATOM     19 CL   UNL d   1      -4.442   2.531  -2.786  0.00  0.00    -0.083 Cl
ATOM     20  C   UNL d   1      -6.908   2.151  -1.861  0.00  0.00     0.025 A 
ATOM     21  C   UNL d   1      -7.897   1.981  -0.893  0.00  0.00     0.002 A 
ATOM     22  C   UNL d   1      -7.547   1.923   0.449  0.00  0.00     0.001 A 
ATOM     23  C   UNL d   1      -6.205   2.028   0.824  0.00  0.00     0.019 A 
ENDBRANCH  14  17
ENDBRANCH   1  13
TORSDOF 4
