REMARK  5 active torsions:
REMARK  status: ('A' for Active; 'I' for Inactive)
REMARK    1  A    between atoms: C_2  and  S_1 
REMARK    2  A    between atoms: C_5  and  S_1 
REMARK    3  A    between atoms: N_13  and  C_8 
REMARK    4  A    between atoms: C_9  and  C_21 
REMARK    5  A    between atoms: C_21  and  N_13 
ROOT
ATOM      1  C   UNL d   1       0.322   1.649  -0.379  0.00  0.00     0.154 C 
ATOM      2  C   UNL d   1      -0.642   1.738  -1.402  0.00  0.00     0.113 C 
ATOM      3  N   UNL d   1      -1.401   1.858  -2.276  0.00  0.00    -0.191 NA
ATOM      4  C   UNL d   1       0.741   2.716   0.325  0.00  0.00     0.092 C 
ENDROOT
BRANCH   1   5
ATOM      5  S   UNL d   1       0.954   0.091   0.035  0.00  0.00     0.217 S 
ATOM      6  O   UNL d   1      -0.016  -0.575   0.886  0.00  0.00    -0.216 OA
ATOM      7  O   UNL d   1       2.335   0.211   0.469  0.00  0.00    -0.216 OA
BRANCH   5   8
ATOM      8  C   UNL d   1       1.030  -0.846  -1.485  0.00  0.00     0.065 A 
ATOM      9  C   UNL d   1       1.893  -0.435  -2.508  0.00  0.00     0.025 A 
ATOM     10  C   UNL d   1       2.023  -1.224  -3.655  0.00  0.00     0.025 A 
ATOM     11  C   UNL d   1       1.307  -2.417  -3.766  0.00  0.00     0.034 A 
ATOM     12  C   UNL d   1       0.452  -2.829  -2.743  0.00  0.00     0.025 A 
ATOM     13 CL   UNL d   1       1.498  -3.401  -5.165  0.00  0.00    -0.084 Cl
ATOM     14  C   UNL d   1       0.310  -2.042  -1.597  0.00  0.00     0.025 A 
ENDBRANCH   5   8
ENDBRANCH   1   5
BRANCH   4  15
ATOM     15  N   UNL d   1       0.277   4.025   0.300  0.00  0.00    -0.294 NA
ATOM     16  H   UNL d   1      -0.725   4.076   0.099  0.00  0.00     0.127 HD
BRANCH  15  17
ATOM     17  C   UNL d   1       0.944   5.061  -0.504  0.00  0.00     0.156 C 
BRANCH  17  18
ATOM     18  C   UNL d   1       0.205   6.355  -0.510  0.00  0.00     0.065 A 
ATOM     19  O   UNL d   1       0.522   7.250   0.468  0.00  0.00    -0.326 OA
ATOM     20  C   UNL d   1      -0.287   8.327   0.300  0.00  0.00     0.142 A 
ATOM     21  C   UNL d   1      -1.119   8.141  -0.779  0.00  0.00     0.027 A 
ATOM     22  C   UNL d   1      -0.802   6.865  -1.306  0.00  0.00     0.036 A 
ENDBRANCH  17  18
ENDBRANCH  15  17
ENDBRANCH   4  15
TORSDOF 5
