REMARK  3 active torsions:
REMARK  status: ('A' for Active; 'I' for Inactive)
REMARK    1  A    between atoms: C_8  and  N_1 
REMARK    2  A    between atoms: C_2  and  C_9 
REMARK    3  A    between atoms: O_17  and  C_2 
ROOT
ATOM      1  C   UNL d   1       2.105  -1.521  -0.070  0.00  0.00     0.039 A 
ATOM      2  C   UNL d   1       4.207  -3.433   0.042  0.00  0.00    -0.019 A 
ATOM      3  C   UNL d   1       2.257  -2.479  -1.081  0.00  0.00     0.030 A 
ATOM      4  C   UNL d   1       3.044  -1.484   0.964  0.00  0.00     0.030 A 
ATOM      5  C   UNL d   1       4.087  -2.414   1.006  0.00  0.00     0.013 A 
ATOM      6  C   UNL d   1       3.280  -3.437  -1.012  0.00  0.00     0.013 A 
ENDROOT
BRANCH   2   7
ATOM      7  C   UNL d   1       5.279  -4.534   0.187  0.00  0.00     0.114 C 
ATOM      8  C   UNL d   1       4.665  -5.934   0.303  0.00  0.00    -0.003 A 
ATOM      9  C   UNL d   1       5.032  -7.014  -0.517  0.00  0.00     0.010 A 
ATOM     10  C   UNL d   1       3.718  -6.171   1.330  0.00  0.00     0.012 A 
ATOM     11  C   UNL d   1       4.507  -8.293  -0.261  0.00  0.00     0.019 A 
ATOM     12  S   UNL d   1       6.163  -6.895  -1.889  0.00  0.00    -0.129 SA
ATOM     13  C   UNL d   1       3.599  -8.508   0.775  0.00  0.00     0.001 A 
ATOM     14  C   UNL d   1       3.192  -7.441   1.563  0.00  0.00     0.001 A 
ATOM     15  C   UNL d   1       6.138  -5.109  -2.175  0.00  0.00     0.083 C 
ATOM     16  C   UNL d   1       6.389  -4.375  -0.874  0.00  0.00     0.058 C 
BRANCH   7  17
ATOM     17  O   UNL d   1       5.973  -4.287   1.436  0.00  0.00    -0.380 OA
ATOM     18  H   UNL d   1       5.952  -5.103   1.963  0.00  0.00     0.211 HD
ENDBRANCH   7  17
ENDBRANCH   2   7
BRANCH   1  19
ATOM     19  N   UNL d   1       0.978  -0.642  -0.053  0.00  0.00    -0.320 N 
ATOM     20  C   UNL d   1      -0.338  -0.976  -0.410  0.00  0.00     0.013 A 
ATOM     21  C   UNL d   1      -1.140   0.126  -0.200  0.00  0.00     0.027 A 
ATOM     22  C   UNL d   1      -0.819  -2.326  -0.829  0.00  0.00     0.068 C 
ATOM     23  C   UNL d   1      -0.341   1.155   0.310  0.00  0.00     0.027 A 
ATOM     24  C   UNL d   1       0.959   0.689   0.382  0.00  0.00     0.013 A 
ATOM     25  C   UNL d   1       2.147   1.498   0.781  0.00  0.00     0.068 C 
ENDBRANCH   1  19
TORSDOF 3
