REMARK  4 active torsions:
REMARK  status: ('A' for Active; 'I' for Inactive)
REMARK    1  A    between atoms: C_3  and  C_1 
REMARK    2  A    between atoms: C_8  and  C_2 
REMARK    3  A    between atoms: C_12  and  C_23 
REMARK    4  A    between atoms: N_18  and  N_20 
ROOT
ATOM      1  C   UNL d   1       0.351  -2.734  -0.033  0.00  0.00     0.056 A 
ATOM      2  N   UNL d   1       1.126  -3.199   1.003  0.00  0.00    -0.334 N 
ATOM      3  HN  UNL d   1       1.412  -2.637   1.805  1.00  0.00     0.168 HD
ATOM      4  C   UNL d   1       1.451  -4.461   0.826  0.00  0.00     0.163 A 
ATOM      5  C   UNL d   1       0.043  -3.675  -0.991  0.00  0.00     0.083 A 
ATOM      6  S   UNL d   1       0.806  -5.164  -0.611  0.00  0.00    -0.062 SA
ATOM      7  N   UNL d   1       2.222  -5.199   1.669  0.00  0.00    -0.280 N 
ATOM      8  H   UNL d   1       2.348  -6.179   1.433  0.00  0.00     0.189 HD
ENDROOT
BRANCH   1   9
ATOM      9  C   UNL d   1      -0.022  -1.322  -0.040  0.00  0.00     0.052 A 
ATOM     10  C   UNL d   1       0.754  -0.211   0.435  0.00  0.00     0.081 A 
ATOM     11  N   UNL d   1       0.085   0.931   0.191  0.00  0.00    -0.259 N 
ATOM     12  O   UNL d   1      -1.117   0.583  -0.376  0.00  0.00    -0.241 OA
ATOM     13  HN  UNL d   1       0.409   1.878   0.390  1.00  0.00     0.195 HD
ATOM     14  C   UNL d   1      -1.180  -0.762  -0.529  0.00  0.00     0.087 A 
ATOM     15  C   UNL d   1      -2.411  -1.282  -1.152  0.00  0.00     0.080 C 
BRANCH  10  16
ATOM     16  C   UNL d   1       2.114  -0.163   1.001  0.00  0.00     0.015 A 
ATOM     17  C   UNL d   1       2.491   0.709   2.042  0.00  0.00     0.048 A 
ATOM     18  C   UNL d   1       3.817   0.741   2.506  0.00  0.00     0.048 A 
ATOM     19 CL   UNL d   1       1.388   1.774   2.850  0.00  0.00    -0.083 Cl
ATOM     20  C   UNL d   1       4.769  -0.115   1.962  0.00  0.00     0.035 A 
ATOM     21  C   UNL d   1       4.420  -0.989   0.943  0.00  0.00     0.025 A 
ATOM     22 CL   UNL d   1       6.385  -0.088   2.550  0.00  0.00    -0.084 Cl
ATOM     23  C   UNL d   1       3.111  -0.995   0.454  0.00  0.00     0.017 A 
ENDBRANCH  10  16
ENDBRANCH   1   9
BRANCH   7  24
ATOM     24  N   UNL d   1       2.429  -4.784   2.946  0.00  0.00    -0.309 N 
ATOM     25  C   UNL d   1       3.027  -5.601   3.745  0.00  0.00     0.122 C 
ATOM     26  HN  UNL d   1       2.124  -3.862   3.260  1.00  0.00     0.186 HD
BRANCH  25  27
ATOM     27  C   UNL d   1       3.214  -5.246   5.166  0.00  0.00     0.024 A 
ATOM     28  C   UNL d   1       2.202  -4.600   5.898  0.00  0.00     0.047 A 
ATOM     29 CL   UNL d   1       0.609  -4.306   5.289  0.00  0.00    -0.083 Cl
ATOM     30  C   UNL d   1       2.432  -4.225   7.229  0.00  0.00     0.025 A 
ATOM     31  C   UNL d   1       3.650  -4.503   7.840  0.00  0.00     0.003 A 
ATOM     32  C   UNL d   1       4.641  -5.174   7.130  0.00  0.00     0.025 A 
ATOM     33  C   UNL d   1       4.428  -5.548   5.797  0.00  0.00     0.047 A 
ATOM     34 CL   UNL d   1       5.723  -6.360   4.989  0.00  0.00    -0.083 Cl
ENDBRANCH  25  27
ENDBRANCH   7  24
TORSDOF 4
