REMARK  4 active torsions:
REMARK  status: ('A' for Active; 'I' for Inactive)
REMARK    1  A    between atoms: N_2  and  C_1 
REMARK    2  A    between atoms: C_3  and  C_7 
REMARK    3  A    between atoms: S_8  and  C_4 
REMARK    4  A    between atoms: C_6  and  S_8 
ROOT
ATOM      1  C   UNL d   1       1.445  -0.144  -0.021  0.00  0.00     0.120 A 
ATOM      2  C   UNL d   1       0.676  -1.315   0.011  0.00  0.00     0.039 A 
ATOM      3  C   UNL d   1       0.872   1.135   0.086  0.00  0.00     0.053 A 
ATOM      4  C   UNL d   1      -0.518   1.268   0.198  0.00  0.00     0.050 A 
ATOM      5  C   UNL d   1      -0.716  -1.165   0.102  0.00  0.00     0.022 A 
ATOM      6  C   UNL d   1      -1.305   0.105   0.191  0.00  0.00     0.017 A 
ENDROOT
BRANCH   2   7
ATOM      7  S   UNL d   1       1.338  -2.966  -0.145  0.00  0.00    -0.081 SA
BRANCH   7   8
ATOM      8  C   UNL d   1       1.411  -3.436   1.548  0.00  0.00     0.046 A 
ATOM      9  S   UNL d   1       0.481  -4.746   2.144  0.00  0.00    -0.095 SA
ATOM     10  C   UNL d   1       1.216  -4.656   3.686  0.00  0.00     0.051 A 
ATOM     11  C   UNL d   1       2.131  -3.630   3.759  0.00  0.00     0.009 A 
ATOM     12  C   UNL d   1       2.238  -2.918   2.525  0.00  0.00     0.027 A 
ENDBRANCH   7   8
ENDBRANCH   2   7
BRANCH   1  13
ATOM     13  N   UNL d   1       2.882  -0.206  -0.177  0.00  0.00    -0.114 N 
ATOM     14  O   UNL d   1       3.321  -0.574  -1.276  0.00  0.00    -0.532 OA
ATOM     15  O   UNL d   1       3.563   0.169   0.787  0.00  0.00    -0.532 OA
ENDBRANCH   1  13
BRANCH   4  16
ATOM     16  C   UNL d   1      -1.171   2.627   0.318  0.00  0.00     0.417 C 
ATOM     17  F   UNL d   1      -0.277   3.653   0.349  0.00  0.00    -0.166 F 
ATOM     18  F   UNL d   1      -2.012   2.892  -0.718  0.00  0.00    -0.166 F 
ATOM     19  F   UNL d   1      -1.917   2.743   1.450  0.00  0.00    -0.166 F 
ENDBRANCH   4  16
TORSDOF 4
