REMARK  4 active torsions:
REMARK  status: ('A' for Active; 'I' for Inactive)
REMARK       I    between atoms: N_2  and  C_1 
REMARK       I    between atoms: N_3  and  C_1 
REMARK    1  A    between atoms: C_4  and  N_3 
REMARK    2  A    between atoms: C_11  and  N_5 
REMARK    3  A    between atoms: O_19  and  C_8 
REMARK    4  A    between atoms: C_18  and  C_11 
ROOT
ATOM      1  C   UNL d   1       0.908   0.087  -0.160  0.00  0.00     0.323 C 
ATOM      2  N   UNL d   1       0.343   1.146   0.553  0.00  0.00    -0.331 N 
ATOM      3  N   UNL d   1       0.525  -1.177   0.227  0.00  0.00    -0.306 N 
ATOM      4  N   UNL d   1      -0.876   3.624   1.652  0.00  0.00     0.095 N 
ATOM      5  O   UNL d   1       1.688   0.314  -1.085  0.00  0.00    -0.247 OA
ATOM      6  C   UNL d   1       0.728   2.479   0.070  0.00  0.00     0.158 C 
ATOM      7  C   UNL d   1      -0.944   1.093   1.264  0.00  0.00     0.158 C 
ATOM      8  C   UNL d   1       0.497   3.583   1.107  0.00  0.00     0.292 C 
ATOM      9  C   UNL d   1      -1.175   2.291   2.218  0.00  0.00     0.292 C 
ATOM     10  H   UNL d   1      -0.165  -1.237   0.944  0.00  0.00     0.171 HD
ENDROOT
BRANCH   3  11
ATOM     11  C   UNL d   1       0.960  -2.400  -0.349  0.00  0.00     0.071 A 
ATOM     12  C   UNL d   1       2.195  -2.440  -1.031  0.00  0.00     0.056 A 
ATOM     13  C   UNL d   1       2.662  -3.601  -1.640  0.00  0.00     0.036 A 
ATOM     14 CL   UNL d   1       4.178  -3.595  -2.456  0.00  0.00    -0.084 Cl
ATOM     15  C   UNL d   1       1.916  -4.764  -1.583  0.00  0.00     0.026 A 
ATOM     16  C   UNL d   1       0.714  -4.759  -0.879  0.00  0.00     0.041 A 
ATOM     17  C   UNL d   1       0.223  -3.599  -0.245  0.00  0.00     0.095 A 
BRANCH  17  18
ATOM     18  O   UNL d   1      -0.964  -3.877   0.373  0.00  0.00    -0.354 OA
ATOM     19  C   UNL d   1      -1.794  -2.870   0.911  0.00  0.00     0.210 C 
ENDBRANCH  17  18
ENDBRANCH   3  11
BRANCH   4  20
ATOM     20  C   UNL d   1      -1.889   4.013   0.654  0.00  0.00     0.311 C 
BRANCH  20  21
ATOM     21  C   UNL d   1      -1.639   5.356  -0.001  0.00  0.00    -0.030 A 
ATOM     22  C   UNL d   1      -1.417   5.440  -1.385  0.00  0.00     0.009 A 
ATOM     23  C   UNL d   1      -1.183   6.674  -1.993  0.00  0.00     0.001 A 
ATOM     24  C   UNL d   1      -1.169   7.837  -1.227  0.00  0.00     0.000 A 
ATOM     25  C   UNL d   1      -1.389   7.768   0.148  0.00  0.00     0.001 A 
ATOM     26  C   UNL d   1      -1.622   6.534   0.759  0.00  0.00     0.009 A 
ENDBRANCH  20  21
ENDBRANCH   4  20
TORSDOF 4
