REMARK  3 active torsions:
REMARK  status: ('A' for Active; 'I' for Inactive)
REMARK       I    between atoms: C_3  and  N_1 
REMARK    1  A    between atoms: C_5  and  C_3 
REMARK    2  A    between atoms: N_6  and  C_4 
REMARK    3  A    between atoms: S_11  and  C_4 
ROOT
ATOM      1  N   UNL d   1       1.271  -0.230   0.011  0.00  0.00    -0.303 N 
ATOM      2  HN  UNL d   1       0.897  -0.266   0.959  1.00  0.00     0.171 HD
ATOM      3  C   UNL d   1       0.514  -0.749  -1.006  0.00  0.00     0.261 C 
ATOM      4  C   UNL d   1       2.446   0.308  -0.171  0.00  0.00     0.144 C 
ATOM      5  O   UNL d   1       0.976  -1.378  -1.954  0.00  0.00    -0.267 OA
ENDROOT
BRANCH   3   6
ATOM      6  C   UNL d   1      -0.979  -0.599  -0.902  0.00  0.00     0.075 A 
ATOM      7  C   UNL d   1      -1.826  -1.524  -1.558  0.00  0.00     0.051 A 
ATOM      8 CL   UNL d   1      -1.287  -2.987  -2.324  0.00  0.00    -0.083 Cl
ATOM      9  C   UNL d   1      -3.219  -1.345  -1.583  0.00  0.00     0.025 A 
ATOM     10  C   UNL d   1      -3.807  -0.276  -0.923  0.00  0.00     0.003 A 
ATOM     11  C   UNL d   1      -3.000   0.611  -0.224  0.00  0.00     0.025 A 
ATOM     12  C   UNL d   1      -1.599   0.466  -0.214  0.00  0.00     0.051 A 
ATOM     13 CL   UNL d   1      -0.769   1.709   0.663  0.00  0.00    -0.083 Cl
ENDBRANCH   3   6
BRANCH   4  14
ATOM     14  N   UNL d   1       3.150   0.854   0.903  0.00  0.00    -0.360 N 
ATOM     15  C   UNL d   1       2.560   0.852   2.256  0.00  0.00     0.135 C 
ATOM     16  C   UNL d   1       3.531   0.280   3.294  0.00  0.00     0.093 C 
ATOM     17  S   UNL d   1       5.107   1.198   3.392  0.00  0.00    -0.166 SA
ATOM     18  C   UNL d   1       5.491   1.222   1.610  0.00  0.00     0.093 C 
ATOM     19  C   UNL d   1       4.314   1.752   0.789  0.00  0.00     0.135 C 
ENDBRANCH   4  14
BRANCH   4  20
ATOM     20  S   UNL d   1       3.234   0.394  -1.755  0.00  0.00    -0.098 SA
ATOM     21  C   UNL d   1       4.125  -1.180  -1.671  0.00  0.00     0.099 C 
ENDBRANCH   4  20
TORSDOF 3
