REMARK  7 active torsions:
REMARK  status: ('A' for Active; 'I' for Inactive)
REMARK    1  A    between atoms: N_10  and  C_6 
REMARK    2  A    between atoms: N_9  and  C_7 
REMARK    3  A    between atoms: C_11  and  C_8 
REMARK    4  A    between atoms: C_21  and  N_9 
REMARK    5  A    between atoms: C_22  and  N_9 
REMARK    6  A    between atoms: C_19  and  N_10 
REMARK    7  A    between atoms: C_20  and  N_10 
ROOT
ATOM      1  N   UNL d   1      -1.483   1.182  -0.078  0.00  0.00    -0.327 N 
ATOM      2  HN  UNL d   1      -2.016   2.047  -0.171  1.00  0.00     0.169 HD
ATOM      3  N   UNL d   1      -1.492  -1.176   0.075  0.00  0.00    -0.327 N 
ATOM      4  HN  UNL d   1      -2.031  -2.037   0.173  1.00  0.00     0.169 HD
ATOM      5  C   UNL d   1       0.591  -0.006  -0.005  0.00  0.00     0.121 A 
ATOM      6  C   UNL d   1      -0.142  -1.216   0.022  0.00  0.00     0.130 A 
ATOM      7  C   UNL d   1      -0.134   1.210  -0.033  0.00  0.00     0.130 A 
ATOM      8  C   UNL d   1      -2.110   0.004  -0.001  0.00  0.00     0.118 A 
ATOM      9 CL   UNL d   1       2.330  -0.010  -0.003  0.00  0.00    -0.076 Cl
ENDROOT
BRANCH   8  10
ATOM     10  C   UNL d   1      -3.583   0.013   0.016  0.00  0.00     0.008 A 
ATOM     11  C   UNL d   1      -4.312  -0.988   0.688  0.00  0.00     0.017 A 
ATOM     12  C   UNL d   1      -5.711  -0.977   0.713  0.00  0.00     0.025 A 
ATOM     13  C   UNL d   1      -6.406   0.032   0.052  0.00  0.00     0.034 A 
ATOM     14  C   UNL d   1      -5.715   1.030  -0.628  0.00  0.00     0.025 A 
ATOM     15 CL   UNL d   1      -8.126   0.044   0.075  0.00  0.00    -0.084 Cl
ATOM     16  C   UNL d   1      -4.316   1.022  -0.639  0.00  0.00     0.017 A 
ENDBRANCH   8  10
BRANCH   6  17
ATOM     17  N   UNL d   1       0.374  -2.516  -0.010  0.00  0.00    -0.366 N 
BRANCH  17  18
ATOM     18  C   UNL d   1       1.685  -2.856  -0.566  0.00  0.00     0.120 C 
ATOM     19  C   UNL d   1       1.788  -4.272  -1.119  0.00  0.00     0.026 C 
ENDBRANCH  17  18
BRANCH  17  20
ATOM     20  C   UNL d   1      -0.314  -3.487   0.853  0.00  0.00     0.120 C 
ATOM     21  C   UNL d   1      -1.341  -4.312   0.084  0.00  0.00     0.026 C 
ENDBRANCH  17  20
ENDBRANCH   6  17
BRANCH   7  22
ATOM     22  N   UNL d   1       0.393   2.505  -0.008  0.00  0.00    -0.366 N 
BRANCH  22  23
ATOM     23  C   UNL d   1       1.700   2.841   0.560  0.00  0.00     0.120 C 
ATOM     24  C   UNL d   1       1.802   4.259   1.106  0.00  0.00     0.026 C 
ENDBRANCH  22  23
BRANCH  22  25
ATOM     25  C   UNL d   1      -0.269   3.467  -0.903  0.00  0.00     0.120 C 
ATOM     26  C   UNL d   1      -1.301   4.316  -0.170  0.00  0.00     0.026 C 
ENDBRANCH  22  25
ENDBRANCH   7  22
TORSDOF 7
