REMARK  6 active torsions:
REMARK  status: ('A' for Active; 'I' for Inactive)
REMARK    1  A    between atoms: C_10  and  C_1 
REMARK    2  A    between atoms: S_2  and  C_8 
REMARK    3  A    between atoms: N_13  and  S_2 
REMARK    4  A    between atoms: C_11  and  C_7 
REMARK    5  A    between atoms: C_19  and  N_13 
REMARK    6  A    between atoms: C_17  and  C_19 
ROOT
ATOM      1  C   UNL d   1       4.277   3.376   0.168  0.00  0.00     0.116 A 
ATOM      2  S   UNL d   1       2.853   2.954   1.012  0.00  0.00    -0.075 SA
ATOM      3  C   UNL d   1       2.504   1.672  -0.062  0.00  0.00     0.034 A 
ATOM      4  C   UNL d   1       4.455   2.577  -0.947  0.00  0.00     0.034 A 
ATOM      5  C   UNL d   1       3.436   1.591  -1.076  0.00  0.00     0.023 A 
ENDROOT
BRANCH   1   6
ATOM      6  S   UNL d   1       5.270   4.696   0.838  0.00  0.00     0.248 S 
ATOM      7  O   UNL d   1       5.610   4.289   2.183  0.00  0.00    -0.205 OA
ATOM      8  O   UNL d   1       6.279   4.904  -0.179  0.00  0.00    -0.205 OA
BRANCH   6   9
ATOM      9  N   UNL d   1       4.353   6.101   0.897  0.00  0.00    -0.209 NA
ATOM     10  H   UNL d   1       3.803   6.251   0.052  0.00  0.00     0.140 HD
BRANCH   9  11
ATOM     11  C   UNL d   1       3.622   6.351   2.141  0.00  0.00     0.169 C 
BRANCH  11  12
ATOM     12  C   UNL d   1       2.911   7.649   2.006  0.00  0.00     0.066 A 
ATOM     13  O   UNL d   1       1.661   7.607   1.459  0.00  0.00    -0.326 OA
ATOM     14  C   UNL d   1       1.184   8.879   1.464  0.00  0.00     0.142 A 
ATOM     15  C   UNL d   1       2.116   9.741   1.991  0.00  0.00     0.027 A 
ATOM     16  C   UNL d   1       3.239   8.949   2.333  0.00  0.00     0.036 A 
ENDBRANCH  11  12
ENDBRANCH   9  11
ENDBRANCH   6   9
ENDBRANCH   1   6
BRANCH   3  17
ATOM     17  C   UNL d   1       1.346   0.731   0.083  0.00  0.00     0.067 A 
ATOM     18  C   UNL d   1       0.314   0.797   1.038  0.00  0.00     0.068 A 
ATOM     19  C   UNL d   1      -0.496  -0.301   0.797  0.00  0.00     0.136 A 
ATOM     20  N   UNL d   1       0.102  -0.969  -0.236  0.00  0.00    -0.292 N 
ATOM     21  N   UNL d   1       1.189  -0.328  -0.717  0.00  0.00    -0.297 N 
ATOM     22  C   UNL d   1      -0.207  -2.245  -0.840  0.00  0.00     0.178 C 
ATOM     23  HN  UNL d   1       1.765  -0.595  -1.515  1.00  0.00     0.187 HD
BRANCH  19  24
ATOM     24  C   UNL d   1      -1.729  -0.705   1.503  0.00  0.00     0.434 C 
ATOM     25  F   UNL d   1      -2.342  -1.794   0.986  0.00  0.00    -0.165 F 
ATOM     26  F   UNL d   1      -1.477  -0.983   2.806  0.00  0.00    -0.165 F 
ATOM     27  F   UNL d   1      -2.647   0.294   1.489  0.00  0.00    -0.165 F 
ENDBRANCH  19  24
ENDBRANCH   3  17
TORSDOF 6
