REMARK  6 active torsions:
REMARK  status: ('A' for Active; 'I' for Inactive)
REMARK    1  A    between atoms: O_4  and  C_1 
REMARK    2  A    between atoms: C_3  and  C_2 
REMARK       I    between atoms: N_5  and  C_3 
REMARK    3  A    between atoms: C_12  and  O_4 
REMARK    4  A    between atoms: C_11  and  N_5 
REMARK    5  A    between atoms: C_8  and  C_11 
REMARK    6  A    between atoms: O_13  and  C_8 
ROOT
ATOM      1  C   UNL d   1      -0.744   0.992   0.174  0.00  0.00     0.163 A 
ATOM      2  C   UNL d   1       0.568   1.444   0.233  0.00  0.00     0.083 A 
ATOM      3  N   UNL d   1      -1.073  -0.333   0.252  0.00  0.00    -0.346 N 
ATOM      4  HN  UNL d   1      -2.050  -0.623   0.307  1.00  0.00     0.167 HD
ATOM      5  C   UNL d   1       1.566   0.446   0.237  0.00  0.00     0.023 A 
ATOM      6  C   UNL d   1      -0.086  -1.248   0.254  0.00  0.00     0.090 A 
ATOM      7  C   UNL d   1       1.246  -0.908   0.222  0.00  0.00     0.018 A 
ENDROOT
BRANCH   2   8
ATOM      8  C   UNL d   1       1.080   2.845   0.246  0.00  0.00     0.256 C 
ATOM      9  N   UNL d   1       0.276   3.942   0.568  0.00  0.00    -0.347 N 
ATOM     10  H   UNL d   1      -0.723   3.836   0.412  0.00  0.00     0.163 HD
ATOM     11  O   UNL d   1       2.269   3.013  -0.012  0.00  0.00    -0.268 OA
BRANCH   9  12
ATOM     12  C   UNL d   1       0.924   5.256   0.381  0.00  0.00     0.232 C 
BRANCH  12  13
ATOM     13  C   UNL d   1       0.331   6.513   1.012  0.00  0.00     0.158 C 
ATOM     14  O   UNL d   1       0.759   7.640   0.812  0.00  0.00    -0.649 OA
BRANCH  13  15
ATOM     15  O   UNL d   1      -0.696   6.273   1.864  0.00  0.00    -0.775 OA
ATOM     16  H   UNL d   1      -0.812   5.317   2.005  0.00  0.00     0.167 HD
ENDBRANCH  13  15
ENDBRANCH  12  13
ENDBRANCH   9  12
ENDBRANCH   2   8
BRANCH   1  17
ATOM     17  O   UNL d   1      -1.795   1.875  -0.056  0.00  0.00    -0.293 OA
BRANCH  17  18
ATOM     18  C   UNL d   1      -2.889   1.339  -0.726  0.00  0.00     0.077 A 
ATOM     19  C   UNL d   1      -4.161   1.563  -0.201  0.00  0.00     0.038 A 
ATOM     20  C   UNL d   1      -5.289   1.027  -0.841  0.00  0.00     0.009 A 
ATOM     21  C   UNL d   1      -5.161   0.274  -2.016  0.00  0.00    -0.062 A 
ATOM     22  C   UNL d   1      -3.881   0.054  -2.538  0.00  0.00     0.009 A 
ATOM     23  C   UNL d   1      -6.371  -0.308  -2.687  0.00  0.00     0.048 C 
ATOM     24  C   UNL d   1      -2.757   0.602  -1.912  0.00  0.00     0.038 A 
ENDBRANCH  17  18
ENDBRANCH   1  17
TORSDOF 6
