REMARK  5 active torsions:
REMARK  status: ('A' for Active; 'I' for Inactive)
REMARK    1  A    between atoms: C_14  and  C_1 
REMARK    2  A    between atoms: C_2  and  C_3 
REMARK    3  A    between atoms: C_6  and  C_7 
REMARK    4  A    between atoms: C_7  and  O_16 
REMARK    5  A    between atoms: O_16  and  N_8 
ROOT
ATOM      1  N   UNL d   1      -0.310   4.389  -1.107  0.00  0.00    -0.268 N 
ATOM      2  HN  UNL d   1      -0.554   4.888  -1.963  1.00  0.00     0.194 HD
ATOM      3  C   UNL d   1       0.880   3.994  -0.793  0.00  0.00     0.129 C 
ENDROOT
BRANCH   1   4
ATOM      4  O   UNL d   1      -1.222   4.028  -0.091  0.00  0.00    -0.196 OA
BRANCH   4   5
ATOM      5  C   UNL d   1      -2.248   4.923  -0.071  0.00  0.00     0.304 C 
ATOM      6  O   UNL d   1      -2.143   6.144  -0.120  0.00  0.00    -0.258 OA
BRANCH   5   7
ATOM      7  C   UNL d   1      -3.576   4.274  -0.017  0.00  0.00     0.085 C 
ATOM      8  C   UNL d   1      -3.781   2.961  -0.197  0.00  0.00     0.025 C 
BRANCH   8   9
ATOM      9  C   UNL d   1      -5.086   2.395  -0.343  0.00  0.00     0.011 A 
ATOM     10  C   UNL d   1      -6.242   2.862  -0.971  0.00  0.00    -0.044 A 
ATOM     11  C   UNL d   1      -7.297   1.885  -0.934  0.00  0.00     0.015 A 
ATOM     12  C   UNL d   1      -6.436   4.176  -1.665  0.00  0.00     0.049 C 
ATOM     13  C   UNL d   1      -6.930   0.723  -0.302  0.00  0.00     0.051 A 
ATOM     14  S   UNL d   1      -5.330   0.795   0.269  0.00  0.00    -0.102 SA
ENDBRANCH   8   9
ENDBRANCH   5   7
ENDBRANCH   4   5
ENDBRANCH   1   4
BRANCH   3  15
ATOM     15  C   UNL d   1       2.014   4.073  -1.738  0.00  0.00     0.025 A 
ATOM     16  C   UNL d   1       3.282   4.443  -1.263  0.00  0.00     0.047 A 
ATOM     17 CL   UNL d   1       3.551   4.958   0.366  0.00  0.00    -0.083 Cl
ATOM     18  C   UNL d   1       4.393   4.425  -2.117  0.00  0.00     0.025 A 
ATOM     19  C   UNL d   1       4.252   4.037  -3.447  0.00  0.00     0.003 A 
ATOM     20  C   UNL d   1       2.996   3.680  -3.930  0.00  0.00     0.025 A 
ATOM     21  C   UNL d   1       1.878   3.695  -3.085  0.00  0.00     0.047 A 
ATOM     22 CL   UNL d   1       0.393   3.143  -3.781  0.00  0.00    -0.083 Cl
ENDBRANCH   3  15
TORSDOF 5
