REMARK  4 active torsions:
REMARK  status: ('A' for Active; 'I' for Inactive)
REMARK    1  A    between atoms: N_8  and  C_2 
REMARK    2  A    between atoms: C_9  and  C_3 
REMARK       I    between atoms: C_10  and  N_8 
REMARK    3  A    between atoms: C_14  and  C_10 
REMARK    4  A    between atoms: C_13  and  C_14 
ROOT
ATOM      1  N   UNL d   1       0.280   2.264  -1.174  0.00  0.00    -0.306 N 
ATOM      2  C   UNL d   1       1.190   3.078  -0.540  0.00  0.00     0.228 C 
ATOM      3  O   UNL d   1       1.058   4.270  -0.293  0.00  0.00    -0.273 OA
ATOM      4  H   UNL d   1       0.544   1.310  -1.393  0.00  0.00     0.171 HD
ENDROOT
BRANCH   1   5
ATOM      5  C   UNL d   1      -0.930   2.608  -1.718  0.00  0.00     0.167 A 
ATOM      6  S   UNL d   1      -1.650   4.151  -1.622  0.00  0.00    -0.037 SA
ATOM      7  C   UNL d   1      -2.929   3.537  -2.588  0.00  0.00     0.074 A 
ATOM      8  N   UNL d   1      -2.792   2.264  -2.899  0.00  0.00    -0.296 N 
ATOM      9  N   UNL d   1      -1.638   1.723  -2.383  0.00  0.00    -0.279 N 
ATOM     10  HN  UNL d   1      -3.465   1.741  -3.459  1.00  0.00     0.187 HD
ATOM     11  HN  UNL d   1      -1.363   0.748  -2.503  1.00  0.00     0.189 HD
BRANCH   7  12
ATOM     12  C   UNL d   1      -4.155   4.287  -3.113  0.00  0.00     0.044 A 
ATOM     13  C   UNL d   1      -4.113   5.772  -3.401  0.00  0.00     0.012 A 
ATOM     14  C   UNL d   1      -4.899   5.271  -2.237  0.00  0.00     0.012 A 
ENDBRANCH   7  12
ENDBRANCH   1   5
BRANCH   2  15
ATOM     15  C   UNL d   1       2.474   2.332  -0.168  0.00  0.00     0.145 C 
BRANCH  15  16
ATOM     16  C   UNL d   1       3.509   2.395  -1.262  0.00  0.00    -0.011 A 
ATOM     17  C   UNL d   1       3.347   1.642  -2.429  0.00  0.00     0.123 A 
ATOM     18  F   UNL d   1       2.301   0.808  -2.537  0.00  0.00    -0.206 F 
ATOM     19  C   UNL d   1       4.240   1.743  -3.491  0.00  0.00     0.043 A 
ATOM     20  C   UNL d   1       5.332   2.602  -3.389  0.00  0.00     0.003 A 
ATOM     21  C   UNL d   1       5.531   3.337  -2.220  0.00  0.00     0.001 A 
ATOM     22  C   UNL d   1       4.625   3.235  -1.159  0.00  0.00     0.011 A 
ENDBRANCH  15  16
ENDBRANCH   2  15
TORSDOF 4
