REMARK  5 active torsions:
REMARK  status: ('A' for Active; 'I' for Inactive)
REMARK    1  A    between atoms: C_6  and  S_1 
REMARK    2  A    between atoms: C_8  and  S_1 
REMARK    3  A    between atoms: C_2  and  S_12 
REMARK    4  A    between atoms: C_15  and  C_8 
REMARK    5  A    between atoms: S_12  and  C_15 
ROOT
ATOM      1  S   UNL d   1       1.084   0.037   0.021  0.00  0.00     0.176 S 
ATOM      2  O   UNL d   1       2.519  -0.146   0.120  0.00  0.00    -0.223 OA
ATOM      3  O   UNL d   1       0.506   1.365  -0.063  0.00  0.00    -0.223 OA
ENDROOT
BRANCH   1   4
ATOM      4  C   UNL d   1       0.353  -0.764   1.438  0.00  0.00     0.059 A 
ATOM      5  C   UNL d   1       1.053  -1.778   2.096  0.00  0.00     0.024 A 
ATOM      6  C   UNL d   1       0.500  -2.371   3.234  0.00  0.00     0.008 A 
ATOM      7  C   UNL d   1      -0.745  -1.951   3.725  0.00  0.00    -0.062 A 
ATOM      8  C   UNL d   1      -1.429  -0.924   3.061  0.00  0.00     0.008 A 
ATOM      9  C   UNL d   1      -1.314  -2.586   4.961  0.00  0.00     0.048 C 
ATOM     10  C   UNL d   1      -0.882  -0.325   1.922  0.00  0.00     0.024 A 
ENDBRANCH   1   4
BRANCH   1  11
ATOM     11  C   UNL d   1       0.487  -0.923  -1.353  0.00  0.00     0.156 C 
BRANCH  11  12
ATOM     12  C   UNL d   1       1.024  -0.374  -2.666  0.00  0.00     0.097 C 
BRANCH  12  13
ATOM     13  S   UNL d   1       0.337  -1.366  -4.036  0.00  0.00    -0.093 SA
BRANCH  13  14
ATOM     14  C   UNL d   1       1.168  -0.701  -5.403  0.00  0.00     0.145 A 
ATOM     15  N   UNL d   1       0.944  -1.109  -6.693  0.00  0.00    -0.341 N 
ATOM     16  C   UNL d   1       1.784  -0.382  -7.502  0.00  0.00     0.109 A 
ATOM     17  C   UNL d   1       0.024  -2.102  -7.191  0.00  0.00     0.158 C 
ATOM     18  C   UNL d   1       2.481   0.438  -6.647  0.00  0.00     0.107 A 
ATOM     19  N   UNL d   1       2.089   0.234  -5.348  0.00  0.00    -0.345 N 
ATOM     20  HN  UNL d   1       2.438   0.708  -4.516  1.00  0.00     0.167 HD
ENDBRANCH  13  14
ENDBRANCH  12  13
ENDBRANCH  11  12
ENDBRANCH   1  11
TORSDOF 5
