REMARK  4 active torsions:
REMARK  status: ('A' for Active; 'I' for Inactive)
REMARK    1  A    between atoms: C_2  and  S_1 
REMARK    2  A    between atoms: O_3  and  S_1 
REMARK    3  A    between atoms: C_13  and  O_3 
REMARK    4  A    between atoms: C_21  and  C_16 
ROOT
ATOM      1  N   UNL d   1       1.719   6.547   4.359  0.00  0.00    -0.197 NA
ATOM      2  C   UNL d   1       1.873   6.506   3.209  0.00  0.00     0.063 C 
ATOM      3  C   UNL d   1       2.077   6.483   1.752  0.00  0.00     0.162 C 
ENDROOT
BRANCH   3   4
ATOM      4  C   UNL d   1       1.660   5.170   1.129  0.00  0.00    -0.045 A 
ATOM      5  C   UNL d   1       0.345   4.970   0.689  0.00  0.00     0.011 A 
ATOM      6  C   UNL d   1      -0.046   3.735   0.160  0.00  0.00     0.039 A 
ATOM      7  C   UNL d   1       0.864   2.680   0.080  0.00  0.00     0.089 A 
ATOM      8  C   UNL d   1       2.182   2.880   0.492  0.00  0.00     0.039 A 
ATOM      9  C   UNL d   1       2.575   4.115   1.019  0.00  0.00     0.011 A 
BRANCH   7  10
ATOM     10  O   UNL d   1       0.389   1.505  -0.451  0.00  0.00    -0.229 OA
BRANCH  10  11
ATOM     11  S   UNL d   1       0.964   0.061   0.054  0.00  0.00     0.303 S 
ATOM     12  O   UNL d   1       2.306  -0.120  -0.469  0.00  0.00    -0.193 OA
ATOM     13  O   UNL d   1       0.679  -0.107   1.465  0.00  0.00    -0.193 OA
BRANCH  11  14
ATOM     14  C   UNL d   1      -0.067  -1.123  -0.791  0.00  0.00     0.090 A 
ATOM     15  C   UNL d   1       0.512  -2.057  -1.656  0.00  0.00     0.049 A 
ATOM     16  C   UNL d   1      -0.302  -3.005  -2.273  0.00  0.00     0.037 A 
ATOM     17 CL   UNL d   1       0.399  -4.165  -3.332  0.00  0.00    -0.084 Cl
ATOM     18  C   UNL d   1      -1.675  -3.029  -2.034  0.00  0.00     0.047 A 
ATOM     19  C   UNL d   1      -2.236  -2.091  -1.167  0.00  0.00     0.037 A 
ATOM     20  C   UNL d   1      -1.442  -1.134  -0.538  0.00  0.00     0.049 A 
ATOM     21 CL   UNL d   1      -3.929  -2.125  -0.864  0.00  0.00    -0.084 Cl
ENDBRANCH  11  14
ENDBRANCH  10  11
ENDBRANCH   7  10
ENDBRANCH   3   4
TORSDOF 4
