REMARK  3 active torsions:
REMARK  status: ('A' for Active; 'I' for Inactive)
REMARK    1  A    between atoms: C_4  and  N_1 
REMARK       I    between atoms: C_2  and  N_3 
REMARK       I    between atoms: N_5  and  C_2 
REMARK    2  A    between atoms: C_10  and  N_5 
REMARK    3  A    between atoms: N_6  and  C_7 
ROOT
ATOM      1  C   UNL d   1      -4.423   7.589   2.170  0.00  0.00     0.323 C 
ATOM      2  N   UNL d   1      -4.352   6.206   2.301  0.00  0.00    -0.332 N 
ATOM      3  N   UNL d   1      -5.568   8.025   1.544  0.00  0.00    -0.307 N 
ATOM      4  N   UNL d   1      -2.166   4.444   1.417  0.00  0.00    -0.366 N 
ATOM      5  O   UNL d   1      -3.562   8.331   2.632  0.00  0.00    -0.247 OA
ATOM      6  C   UNL d   1      -3.345   5.655   3.219  0.00  0.00     0.147 C 
ATOM      7  C   UNL d   1      -1.981   5.329   2.584  0.00  0.00     0.144 C 
ATOM      8  C   UNL d   1      -4.102   5.112   0.039  0.00  0.00     0.040 C 
ATOM      9  C   UNL d   1      -4.915   5.264   1.329  0.00  0.00     0.129 C 
ATOM     10  C   UNL d   1      -2.584   5.142   0.197  0.00  0.00     0.126 C 
ATOM     11  H   UNL d   1      -6.382   7.454   1.732  0.00  0.00     0.170 HD
ENDROOT
BRANCH   3  12
ATOM     12  C   UNL d   1      -5.849   9.360   1.172  0.00  0.00     0.058 A 
ATOM     13  C   UNL d   1      -7.188   9.790   1.114  0.00  0.00     0.062 A 
ATOM     14  C   UNL d   1      -7.509  11.083   0.697  0.00  0.00     0.050 A 
ATOM     15 CL   UNL d   1      -8.480   8.738   1.586  0.00  0.00    -0.082 Cl
ATOM     16  C   UNL d   1      -6.489  11.949   0.315  0.00  0.00     0.035 A 
ATOM     17  C   UNL d   1      -5.157  11.542   0.369  0.00  0.00     0.026 A 
ATOM     18 CL   UNL d   1      -6.877  13.529  -0.245  0.00  0.00    -0.084 Cl
ATOM     19  C   UNL d   1      -4.837  10.252   0.804  0.00  0.00     0.033 A 
ENDBRANCH   3  12
BRANCH   4  20
ATOM     20  C   UNL d   1      -1.270   3.390   1.271  0.00  0.00     0.103 A 
ATOM     21  C   UNL d   1      -1.598   2.314   0.437  0.00  0.00     0.051 A 
ATOM     22  C   UNL d   1      -0.767   1.194   0.367  0.00  0.00     0.041 A 
ATOM     23  C   UNL d   1       0.391   1.178   1.133  0.00  0.00     0.118 A 
ATOM     24  C   UNL d   1       0.677   2.278   1.921  0.00  0.00     0.125 A 
ATOM     25  N   UNL d   1      -0.134   3.364   2.003  0.00  0.00    -0.350 N 
ATOM     26  HN  UNL d   1       0.111   4.148   2.608  1.00  0.00     0.166 HD
BRANCH  23  27
ATOM     27  N   UNL d   1       1.278   0.027   1.138  0.00  0.00    -0.114 N 
ATOM     28  O   UNL d   1       2.315   0.097   1.812  0.00  0.00    -0.532 OA
ATOM     29  O   UNL d   1       0.939  -0.963   0.471  0.00  0.00    -0.532 OA
ENDBRANCH  23  27
ENDBRANCH   4  20
TORSDOF 3
