REMARK  6 active torsions:
REMARK  status: ('A' for Active; 'I' for Inactive)
REMARK    1  A    between atoms: S_2  and  N_1 
REMARK    2  A    between atoms: C_7  and  S_2 
REMARK    3  A    between atoms: C_11  and  C_5 
REMARK    4  A    between atoms: C_9  and  C_14 
REMARK    5  A    between atoms: C_10  and  C_13 
REMARK    6  A    between atoms: C_12  and  C_11 
ROOT
ATOM      1  N   UNL d   1      -0.174  -1.160   0.123  0.00  0.00    -0.181 N 
ATOM      2  N   UNL d   1       1.122  -0.767   0.131  0.00  0.00    -0.288 N 
ATOM      3  HN  UNL d   1       1.950  -1.363   0.133  1.00  0.00     0.188 HD
ATOM      4  C   UNL d   1      -0.248   1.071  -0.019  0.00  0.00    -0.005 A 
ATOM      5  C   UNL d   1      -1.042  -0.080   0.037  0.00  0.00     0.051 A 
ATOM      6  C   UNL d   1       1.084   0.565   0.134  0.00  0.00     0.032 A 
ATOM      7  C   UNL d   1      -2.519  -0.227   0.095  0.00  0.00     0.072 C 
ATOM      8  C   UNL d   1       2.378   1.279   0.299  0.00  0.00     0.070 C 
ENDROOT
BRANCH   1   9
ATOM      9  S   UNL d   1      -0.627  -2.847   0.003  0.00  0.00     0.282 S 
ATOM     10  O   UNL d   1       0.377  -3.597   0.729  0.00  0.00    -0.198 OA
ATOM     11  O   UNL d   1      -2.039  -2.946   0.338  0.00  0.00    -0.198 OA
BRANCH   9  12
ATOM     12  C   UNL d   1      -0.440  -3.248  -1.720  0.00  0.00     0.083 A 
ATOM     13  C   UNL d   1       0.764  -2.964  -2.374  0.00  0.00     0.041 A 
ATOM     14  C   UNL d   1       0.953  -3.367  -3.705  0.00  0.00     0.050 A 
ATOM     15  C   UNL d   1      -0.078  -4.070  -4.356  0.00  0.00     0.032 A 
ATOM     16  C   UNL d   1      -1.279  -4.385  -3.696  0.00  0.00     0.050 A 
ATOM     17  C   UNL d   1      -1.459  -3.951  -2.373  0.00  0.00     0.041 A 
BRANCH  14  18
ATOM     18  C   UNL d   1       2.251  -3.090  -4.432  0.00  0.00     0.417 C 
ATOM     19  F   UNL d   1       3.190  -2.481  -3.660  0.00  0.00    -0.166 F 
ATOM     20  F   UNL d   1       2.829  -4.228  -4.904  0.00  0.00    -0.166 F 
ATOM     21  F   UNL d   1       2.071  -2.283  -5.514  0.00  0.00    -0.166 F 
ENDBRANCH  14  18
BRANCH  16  22
ATOM     22  C   UNL d   1      -2.323  -5.227  -4.397  0.00  0.00     0.417 C 
ATOM     23  F   UNL d   1      -3.411  -5.498  -3.627  0.00  0.00    -0.166 F 
ATOM     24  F   UNL d   1      -2.796  -4.634  -5.526  0.00  0.00    -0.166 F 
ATOM     25  F   UNL d   1      -1.828  -6.434  -4.785  0.00  0.00    -0.166 F 
ENDBRANCH  16  22
ENDBRANCH   9  12
ENDBRANCH   1   9
BRANCH   4  26
ATOM     26  C   UNL d   1      -0.700   2.517  -0.062  0.00  0.00     0.084 C 
BRANCH  26  27
ATOM     27  C   UNL d   1      -0.730   2.971  -1.512  0.00  0.00    -0.010 C 
ATOM     28  C   UNL d   1      -1.874   2.832  -2.330  0.00  0.00     0.042 C 
ATOM     29 CL   UNL d   1      -3.438   2.433  -1.716  0.00  0.00    -0.084 Cl
ATOM     30  C   UNL d   1      -1.848   3.139  -3.699  0.00  0.00     0.024 C 
ATOM     31  C   UNL d   1      -0.702   3.654  -4.283  0.00  0.00     0.003 C 
ATOM     32  C   UNL d   1       0.401   3.913  -3.483  0.00  0.00     0.024 C 
ATOM     33  C   UNL d   1       0.381   3.598  -2.115  0.00  0.00     0.042 C 
ATOM     34 CL   UNL d   1       1.742   4.162  -1.206  0.00  0.00    -0.084 Cl
ENDBRANCH  26  27
ENDBRANCH   4  26
TORSDOF 6
