REMARK  7 active torsions:
REMARK  status: ('A' for Active; 'I' for Inactive)
REMARK    1  A    between atoms: N_3  and  C_1 
REMARK    2  A    between atoms: N_9  and  C_2 
REMARK    3  A    between atoms: C_14  and  N_9 
REMARK    4  A    between atoms: S_10  and  C_11 
REMARK    5  A    between atoms: C_15  and  S_10 
REMARK    6  A    between atoms: C_12  and  C_14 
REMARK    7  A    between atoms: C_17  and  C_13 
ROOT
ATOM      1  C   UNL d   1       0.368   0.652  -0.987  0.00  0.00     0.146 C 
ATOM      2  C   UNL d   1       0.329   1.943  -0.575  0.00  0.00     0.128 C 
ATOM      3  C   UNL d   1      -0.625   0.183  -1.923  0.00  0.00     0.120 C 
ATOM      4  C   UNL d   1      -0.693   2.832  -1.057  0.00  0.00     0.114 C 
ATOM      5  N   UNL d   1      -1.518   3.551  -1.449  0.00  0.00    -0.190 NA
ATOM      6  N   UNL d   1      -1.383  -0.233  -2.701  0.00  0.00    -0.190 NA
ENDROOT
BRANCH   1   7
ATOM      7  N   UNL d   1       1.293  -0.228  -0.431  0.00  0.00    -0.355 N 
ATOM      8  C   UNL d   1       1.657  -1.249  -1.144  0.00  0.00     0.100 C 
ATOM      9  HN  UNL d   1       1.671  -0.076   0.504  1.00  0.00     0.166 HD
BRANCH   8  10
ATOM     10  C   UNL d   1       2.592  -2.268  -0.626  0.00  0.00    -0.021 A 
ATOM     11  C   UNL d   1       3.077  -2.200   0.682  0.00  0.00     0.013 A 
ATOM     12  C   UNL d   1       3.974  -3.167   1.136  0.00  0.00     0.001 A 
ATOM     13  C   UNL d   1       4.380  -4.198   0.286  0.00  0.00     0.000 A 
ATOM     14  C   UNL d   1       3.883  -4.272  -1.015  0.00  0.00     0.001 A 
ATOM     15  C   UNL d   1       2.984  -3.308  -1.474  0.00  0.00     0.013 A 
ENDBRANCH   8  10
ENDBRANCH   1   7
BRANCH   2  16
ATOM     16  N   UNL d   1       1.185   2.600   0.312  0.00  0.00    -0.277 NA
ATOM     17  H   UNL d   1       0.821   2.532   1.265  0.00  0.00     0.128 HD
BRANCH  16  18
ATOM     18  C   UNL d   1       2.633   2.452   0.334  0.00  0.00     0.133 C 
BRANCH  18  19
ATOM     19  C   UNL d   1       3.284   3.821   0.427  0.00  0.00    -0.028 A 
ATOM     20  C   UNL d   1       3.116   4.695   1.524  0.00  0.00     0.013 A 
ATOM     21  C   UNL d   1       3.788   5.931   1.536  0.00  0.00     0.019 A 
ATOM     22  C   UNL d   1       4.614   6.311   0.477  0.00  0.00     0.001 A 
ATOM     23  C   UNL d   1       4.780   5.459  -0.608  0.00  0.00     0.001 A 
ATOM     24  C   UNL d   1       4.120   4.229  -0.634  0.00  0.00     0.010 A 
BRANCH  20  25
ATOM     25  S   UNL d   1       2.147   4.278   2.970  0.00  0.00    -0.090 SA
BRANCH  25  26
ATOM     26  C   UNL d   1       0.554   5.058   2.715  0.00  0.00     0.005 A 
ATOM     27  C   UNL d   1       0.157   5.689   1.530  0.00  0.00     0.020 A 
ATOM     28  C   UNL d   1      -1.132   6.223   1.402  0.00  0.00     0.025 A 
ATOM     29  C   UNL d   1      -2.033   6.131   2.459  0.00  0.00     0.034 A 
ATOM     30  C   UNL d   1      -1.655   5.512   3.646  0.00  0.00     0.025 A 
ATOM     31 CL   UNL d   1      -3.620   6.775   2.296  0.00  0.00    -0.084 Cl
ATOM     32  C   UNL d   1      -0.367   4.980   3.771  0.00  0.00     0.020 A 
ENDBRANCH  25  26
ENDBRANCH  20  25
ENDBRANCH  18  19
ENDBRANCH  16  18
ENDBRANCH   2  16
TORSDOF 7
