REMARK  4 active torsions:
REMARK  status: ('A' for Active; 'I' for Inactive)
REMARK    1  A    between atoms: N_3  and  S_1 
REMARK    2  A    between atoms: C_5  and  S_1 
REMARK    3  A    between atoms: C_2  and  N_4 
REMARK    4  A    between atoms: N_4  and  N_3 
ROOT
ATOM      1  N   UNL d   1       0.418  -0.074   1.396  0.00  0.00    -0.222 N 
ATOM      2  H   UNL d   1      -0.177   0.723   1.630  0.00  0.00     0.200 HD
ENDROOT
BRANCH   1   3
ATOM      3  S   UNL d   1       1.103  -0.184  -0.153  0.00  0.00     0.276 S 
ATOM      4  O   UNL d   1       0.560  -1.367  -0.779  0.00  0.00    -0.199 OA
ATOM      5  O   UNL d   1       2.537  -0.034  -0.005  0.00  0.00    -0.199 OA
BRANCH   3   6
ATOM      6  C   UNL d   1       0.487   1.236  -1.014  0.00  0.00     0.083 A 
ATOM      7  C   UNL d   1       1.220   2.428  -0.977  0.00  0.00     0.062 A 
ATOM      8  C   UNL d   1       0.827   3.437  -1.833  0.00  0.00     0.076 A 
ATOM      9  O   UNL d   1       1.465   4.645  -1.945  0.00  0.00    -0.350 OA
ATOM     10  C   UNL d   1      -0.253   3.299  -2.692  0.00  0.00    -0.023 A 
ATOM     11  C   UNL d   1       0.941   5.193  -3.178  0.00  0.00     0.180 C 
ATOM     12  C   UNL d   1      -0.411   4.543  -3.480  0.00  0.00     0.068 C 
ATOM     13  C   UNL d   1      -1.007   2.139  -2.713  0.00  0.00     0.011 A 
ATOM     14  C   UNL d   1      -0.623   1.090  -1.872  0.00  0.00     0.026 A 
ENDBRANCH   3   6
ENDBRANCH   1   3
BRANCH   1  15
ATOM     15  N   UNL d   1       0.710  -1.142   2.342  0.00  0.00    -0.288 N 
ATOM     16  H   UNL d   1       1.251  -1.927   1.961  0.00  0.00     0.188 HD
BRANCH  15  17
ATOM     17  C   UNL d   1       0.315  -1.276   3.687  0.00  0.00     0.095 A 
ATOM     18  C   UNL d   1       0.209  -2.576   4.227  0.00  0.00     0.079 A 
ATOM     19 CL   UNL d   1       0.564  -3.978   3.278  0.00  0.00    -0.080 Cl
ATOM     20  C   UNL d   1      -0.205  -2.749   5.542  0.00  0.00     0.114 A 
ATOM     21  N   UNL d   1      -0.519  -1.728   6.367  0.00  0.00    -0.372 N 
ATOM     22  C   UNL d   1      -0.427  -0.485   5.837  0.00  0.00     0.114 A 
ATOM     23  HN  UNL d   1      -0.807  -1.884   7.333  1.00  0.00     0.164 HD
ATOM     24  C   UNL d   1      -0.045  -0.210   4.524  0.00  0.00     0.079 A 
ATOM     25 CL   UNL d   1       0.025   1.445   4.039  0.00  0.00    -0.080 Cl
ENDBRANCH  15  17
ENDBRANCH   1  15
TORSDOF 4
