REMARK  4 active torsions:
REMARK  status: ('A' for Active; 'I' for Inactive)
REMARK    1  A    between atoms: N_2  and  C_1 
REMARK    2  A    between atoms: C_6  and  C_3 
REMARK    3  A    between atoms: C_7  and  C_5 
REMARK    4  A    between atoms: C_8  and  C_6 
ROOT
ATOM      1  C   UNL d   1       0.796  -3.703  -0.050  0.00  0.00     0.092 C 
ATOM      2  C   UNL d   1      -0.246  -2.843  -0.016  0.00  0.00     0.045 C 
ATOM      3  C   UNL d   1       0.638  -5.113  -0.070  0.00  0.00     0.103 C 
ATOM      4  N   UNL d   1       0.511  -6.268  -0.075  0.00  0.00    -0.191 NA
ENDROOT
BRANCH   1   5
ATOM      5  C   UNL d   1       2.189  -3.144  -0.092  0.00  0.00     0.174 C 
ATOM      6  O   UNL d   1       2.411  -1.942  -0.177  0.00  0.00    -0.291 OA
BRANCH   5   7
ATOM      7  C   UNL d   1       3.321  -4.123   0.041  0.00  0.00     0.061 A 
ATOM      8  C   UNL d   1       4.240  -4.010   1.237  0.00  0.00     0.013 A 
ATOM      9  C   UNL d   1       4.763  -3.714  -0.137  0.00  0.00     0.013 A 
ENDBRANCH   5   7
ENDBRANCH   1   5
BRANCH   2  10
ATOM     10  C   UNL d   1      -1.616  -3.258   0.042  0.00  0.00     0.009 A 
ATOM     11  S   UNL d   1      -2.827  -2.308  -0.751  0.00  0.00    -0.066 SA
ATOM     12  C   UNL d   1      -4.058  -3.412  -0.359  0.00  0.00     0.144 A 
ATOM     13  C   UNL d   1      -3.604  -4.467   0.395  0.00  0.00     0.045 A 
ATOM     14  C   UNL d   1      -2.211  -4.346   0.668  0.00  0.00     0.022 A 
BRANCH  12  15
ATOM     15  N   UNL d   1      -5.415  -3.206  -0.796  0.00  0.00    -0.108 N 
ATOM     16  O   UNL d   1      -6.230  -4.084  -0.485  0.00  0.00    -0.531 OA
ATOM     17  O   UNL d   1      -5.675  -2.182  -1.440  0.00  0.00    -0.531 OA
ENDBRANCH  12  15
ENDBRANCH   2  10
TORSDOF 4
