REMARK  2 active torsions:
REMARK  status: ('A' for Active; 'I' for Inactive)
REMARK    1  A    between atoms: C_2  and  C_1 
REMARK       I    between atoms: N_3  and  C_1 
REMARK    2  A    between atoms: C_4  and  N_3 
ROOT
ATOM      1  C   UNL d   1       1.128  -0.054  -0.064  0.00  0.00     0.259 C 
ATOM      2  N   UNL d   1       0.370   1.083   0.140  0.00  0.00    -0.321 N 
ATOM      3  O   UNL d   1       2.352  -0.072  -0.167  0.00  0.00    -0.267 OA
ATOM      4  H   UNL d   1      -0.609   0.965   0.394  0.00  0.00     0.169 HD
ENDROOT
BRANCH   2   5
ATOM      5  C   UNL d   1       0.803   2.429   0.028  0.00  0.00     0.058 A 
ATOM      6  C   UNL d   1       2.043   2.780  -0.523  0.00  0.00     0.055 A 
ATOM      7  C   UNL d   1       2.394   4.121  -0.678  0.00  0.00     0.036 A 
ATOM      8 CL   UNL d   1       3.905   4.532  -1.395  0.00  0.00    -0.084 Cl
ATOM      9  C   UNL d   1       1.526   5.135  -0.280  0.00  0.00     0.026 A 
ATOM     10  C   UNL d   1       0.292   4.804   0.278  0.00  0.00     0.028 A 
ATOM     11  C   UNL d   1      -0.069   3.461   0.424  0.00  0.00     0.060 A 
ATOM     12 CL   UNL d   1      -1.616   3.107   1.114  0.00  0.00    -0.082 Cl
ENDBRANCH   2   5
BRANCH   1  13
ATOM     13  C   UNL d   1       0.401  -1.352  -0.168  0.00  0.00     0.070 A 
ATOM     14  C   UNL d   1      -0.991  -1.451  -0.184  0.00  0.00     0.132 A 
ATOM     15  F   UNL d   1      -1.764  -0.365  -0.027  0.00  0.00    -0.205 F 
ATOM     16  C   UNL d   1      -1.622  -2.680  -0.376  0.00  0.00     0.043 A 
ATOM     17  C   UNL d   1      -0.861  -3.835  -0.551  0.00  0.00     0.003 A 
ATOM     18  C   UNL d   1       0.530  -3.758  -0.521  0.00  0.00     0.001 A 
ATOM     19  C   UNL d   1       1.158  -2.524  -0.331  0.00  0.00     0.020 A 
ENDBRANCH   1  13
TORSDOF 2
