REMARK  5 active torsions:
REMARK  status: ('A' for Active; 'I' for Inactive)
REMARK    1  A    between atoms: C_2  and  S_1 
REMARK    2  A    between atoms: C_4  and  S_1 
REMARK    3  A    between atoms: C_6  and  C_2 
REMARK    4  A    between atoms: C_3  and  C_5 
REMARK    5  A    between atoms: O_20  and  C_6 
ROOT
ATOM      1  C   UNL d   1       2.854  -0.017   0.082  0.00  0.00     0.129 A 
ATOM      2  C   UNL d   1       5.557  -0.062   0.462  0.00  0.00     0.063 A 
ATOM      3  N   UNL d   1       3.418  -1.188   0.474  0.00  0.00    -0.356 N 
ATOM      4  HN  UNL d   1       2.860  -2.028   0.631  1.00  0.00     0.166 HD
ATOM      5  C   UNL d   1       4.757  -1.182   0.646  0.00  0.00     0.105 A 
ATOM      6  C   UNL d   1       4.934   1.123   0.043  0.00  0.00     0.020 A 
ATOM      7  C   UNL d   1       3.557   1.151  -0.162  0.00  0.00     0.043 A 
ENDROOT
BRANCH   1   8
ATOM      8  S   UNL d   1       1.075  -0.089  -0.072  0.00  0.00     0.208 S 
ATOM      9  O   UNL d   1       0.611   1.238  -0.453  0.00  0.00    -0.220 OA
ATOM     10  O   UNL d   1       0.773  -1.204  -0.959  0.00  0.00    -0.220 OA
BRANCH   8  11
ATOM     11  C   UNL d   1       0.432  -0.472   1.567  0.00  0.00     0.150 C 
ATOM     12  C   UNL d   1      -1.104  -0.422   1.504  0.00  0.00     0.043 C 
ATOM     13  C   UNL d   1       0.868  -1.865   2.041  0.00  0.00     0.043 C 
BRANCH  11  14
ATOM     14  C   UNL d   1       0.938   0.581   2.534  0.00  0.00     0.282 C 
ATOM     15  O   UNL d   1       1.716   1.490   2.278  0.00  0.00    -0.263 OA
BRANCH  14  16
ATOM     16  O   UNL d   1       0.420   0.375   3.783  0.00  0.00    -0.325 OA
ATOM     17  C   UNL d   1       0.833   1.335   4.759  0.00  0.00     0.213 C 
ENDBRANCH  14  16
ENDBRANCH  11  14
ENDBRANCH   8  11
ENDBRANCH   1   8
BRANCH   2  18
ATOM     18  C   UNL d   1       7.031  -0.131   0.721  0.00  0.00     0.418 C 
ATOM     19  F   UNL d   1       7.452  -1.356   1.138  0.00  0.00    -0.166 F 
ATOM     20  F   UNL d   1       7.770   0.163  -0.383  0.00  0.00    -0.166 F 
ATOM     21  F   UNL d   1       7.429   0.745   1.684  0.00  0.00    -0.166 F 
ENDBRANCH   2  18
TORSDOF 5
