REMARK  6 active torsions:
REMARK  status: ('A' for Active; 'I' for Inactive)
REMARK    1  A    between atoms: S_11  and  C_1 
REMARK    2  A    between atoms: C_9  and  C_8 
REMARK    3  A    between atoms: C_14  and  C_9 
REMARK    4  A    between atoms: C_10  and  S_11 
REMARK    5  A    between atoms: O_17  and  C_15 
REMARK    6  A    between atoms: C_20  and  O_17 
ROOT
ATOM      1  C   UNL d   1      -2.098  -0.789  -0.119  0.00  0.00     0.117 A 
ATOM      2  N   UNL d   1      -1.064  -1.599  -0.118  0.00  0.00    -0.344 N 
ATOM      3  HN  UNL d   1      -1.114  -2.617  -0.144  1.00  0.00     0.167 HD
ATOM      4  S   UNL d   1      -1.742   0.887  -0.083  0.00  0.00    -0.063 SA
ATOM      5  C   UNL d   1      -0.058   0.529  -0.063  0.00  0.00     0.036 A 
ATOM      6  C   UNL d   1       0.107  -0.857  -0.077  0.00  0.00     0.050 A 
ATOM      7  C   UNL d   1       1.042   1.407  -0.031  0.00  0.00     0.058 A 
ATOM      8  C   UNL d   1       1.416  -1.376  -0.043  0.00  0.00     0.034 A 
ATOM      9  C   UNL d   1       2.337   0.873  -0.010  0.00  0.00     0.070 A 
ATOM     10  C   UNL d   1       2.518  -0.508  -0.011  0.00  0.00     0.039 A 
ENDROOT
BRANCH   1  11
ATOM     11  S   UNL d   1      -3.748  -1.385  -0.057  0.00  0.00    -0.077 SA
BRANCH  11  12
ATOM     12  C   UNL d   1      -3.742  -2.407  -1.462  0.00  0.00     0.056 C 
ATOM     13  C   UNL d   1      -4.809  -3.171  -1.738  0.00  0.00     0.063 C 
BRANCH  13  14
ATOM     14  C   UNL d   1      -4.837  -4.024  -2.956  0.00  0.00     0.182 C 
ATOM     15  O   UNL d   1      -4.132  -3.783  -3.929  0.00  0.00    -0.288 OA
BRANCH  14  16
ATOM     16  C   UNL d   1      -5.801  -5.160  -2.978  0.00  0.00     0.014 A 
ATOM     17  C   UNL d   1      -6.332  -5.575  -4.207  0.00  0.00     0.015 A 
ATOM     18  C   UNL d   1      -7.217  -6.654  -4.263  0.00  0.00     0.001 A 
ATOM     19  C   UNL d   1      -7.569  -7.332  -3.096  0.00  0.00     0.000 A 
ATOM     20  C   UNL d   1      -7.035  -6.933  -1.871  0.00  0.00     0.001 A 
ATOM     21  C   UNL d   1      -6.150  -5.851  -1.809  0.00  0.00     0.015 A 
ENDBRANCH  14  16
ENDBRANCH  13  14
ENDBRANCH  11  12
ENDBRANCH   1  11
BRANCH   9  22
ATOM     22  O   UNL d   1       3.338   1.809   0.012  0.00  0.00    -0.351 OA
BRANCH  22  23
ATOM     23  C   UNL d   1       4.681   1.322  -0.003  0.00  0.00     0.171 C 
ATOM     24  C   UNL d   1       5.629   2.508  -0.009  0.00  0.00     0.034 C 
ENDBRANCH  22  23
ENDBRANCH   9  22
TORSDOF 6
