REMARK  7 active torsions:
REMARK  status: ('A' for Active; 'I' for Inactive)
REMARK    1  A    between atoms: C_8  and  N_1 
REMARK    2  A    between atoms: C_15  and  C_2 
REMARK    3  A    between atoms: C_13  and  C_5 
REMARK    4  A    between atoms: C_12  and  C_29 
REMARK       I    between atoms: N_14  and  C_12 
REMARK    5  A    between atoms: C_20  and  N_14 
REMARK    6  A    between atoms: S_17  and  C_15 
REMARK    7  A    between atoms: C_29  and  S_17 
ROOT
ATOM      1  N   UNL d   1      -0.255  -0.791  -0.179  0.00  0.00    -0.240 N 
ATOM      2  C   UNL d   1       1.141  -0.586  -0.080  0.00  0.00     0.074 C 
ATOM      3  N   UNL d   1      -0.827   0.348  -0.638  0.00  0.00    -0.235 N 
ATOM      4  HN  UNL d   1      -1.769   0.424  -1.021  1.00  0.00     0.209 HD
ATOM      5  C   UNL d   1       1.236   0.808  -0.190  0.00  0.00     0.085 C 
ATOM      6  N   UNL d   1       0.022   1.333  -0.514  0.00  0.00    -0.283 N 
ATOM      7  HN  UNL d   1      -0.188   2.323  -0.638  1.00  0.00     0.188 HD
ENDROOT
BRANCH   2   8
ATOM      8  C   UNL d   1       2.204  -1.647   0.087  0.00  0.00     0.136 C 
BRANCH   8   9
ATOM      9  S   UNL d   1       3.481  -1.543  -1.264  0.00  0.00    -0.154 SA
BRANCH   9  10
ATOM     10  C   UNL d   1       4.887  -2.580  -0.653  0.00  0.00     0.177 C 
BRANCH  10  11
ATOM     11  C   UNL d   1       5.627  -1.988   0.548  0.00  0.00     0.231 C 
ATOM     12  N   UNL d   1       6.998  -2.264   0.620  0.00  0.00    -0.327 N 
ATOM     13  H   UNL d   1       7.383  -2.946  -0.024  0.00  0.00     0.169 HD
ATOM     14  O   UNL d   1       5.001  -1.422   1.449  0.00  0.00    -0.272 OA
BRANCH  12  15
ATOM     15  C   UNL d   1       7.779  -1.973   1.776  0.00  0.00     0.034 A 
ATOM     16  C   UNL d   1       8.838  -2.822   2.116  0.00  0.00     0.031 A 
ATOM     17  C   UNL d   1       9.469  -2.701   3.367  0.00  0.00     0.026 A 
ATOM     18  C   UNL d   1       9.078  -1.698   4.252  0.00  0.00     0.034 A 
ATOM     19  C   UNL d   1       8.113  -0.775   3.872  0.00  0.00     0.026 A 
ATOM     20 CL   UNL d   1       9.760  -1.621   5.830  0.00  0.00    -0.084 Cl
ATOM     21  C   UNL d   1       7.477  -0.908   2.633  0.00  0.00     0.031 A 
ENDBRANCH  12  15
ENDBRANCH  10  11
ENDBRANCH   9  10
ENDBRANCH   8   9
ENDBRANCH   2   8
BRANCH   1  22
ATOM     22  C   UNL d   1      -1.164  -1.793   0.282  0.00  0.00     0.096 A 
ATOM     23  C   UNL d   1      -2.527  -1.684  -0.093  0.00  0.00     0.148 A 
ATOM     24  C   UNL d   1      -3.534  -2.384   0.561  0.00  0.00     0.087 A 
ATOM     25  F   UNL d   1      -2.922  -0.888  -1.099  0.00  0.00    -0.203 F 
ATOM     26  C   UNL d   1      -3.180  -3.253   1.573  0.00  0.00     0.119 A 
ATOM     27  C   UNL d   1      -1.842  -3.462   1.897  0.00  0.00     0.045 A 
ATOM     28  F   UNL d   1      -4.142  -3.884   2.260  0.00  0.00    -0.206 F 
ATOM     29  C   UNL d   1      -0.821  -2.734   1.256  0.00  0.00     0.038 A 
ENDBRANCH   1  22
BRANCH   5  30
ATOM     30  C   UNL d   1       2.376   1.710  -0.102  0.00  0.00    -0.006 A 
ATOM     31  C   UNL d   1       2.285   2.962  -0.739  0.00  0.00     0.014 A 
ATOM     32  C   UNL d   1       3.333   3.873  -0.704  0.00  0.00     0.001 A 
ATOM     33  C   UNL d   1       4.505   3.539  -0.028  0.00  0.00     0.000 A 
ATOM     34  C   UNL d   1       4.600   2.320   0.637  0.00  0.00     0.001 A 
ATOM     35  C   UNL d   1       3.528   1.422   0.624  0.00  0.00     0.014 A 
ENDBRANCH   5  30
TORSDOF 7
