REMARK  2 active torsions:
REMARK  status: ('A' for Active; 'I' for Inactive)
REMARK    1  A    between atoms: O_9  and  C_3 
REMARK    2  A    between atoms: C_10  and  O_9 
ROOT
ATOM      1  C   UNL d   1       0.262  -1.331  -0.058  0.00  0.00     0.098 A 
ATOM      2  C   UNL d   1       0.568  -2.658  -0.024  0.00  0.00     0.153 C 
ATOM      3  C   UNL d   1       1.284  -0.228  -0.112  0.00  0.00     0.108 A 
ATOM      4  C   UNL d   1       1.904  -3.153  -0.013  0.00  0.00     0.113 C 
ATOM      5  C   UNL d   1      -0.483  -3.628   0.005  0.00  0.00     0.113 C 
ATOM      6  N   UNL d   1      -1.065  -0.855  -0.033  0.00  0.00    -0.362 N 
ATOM      7  N   UNL d   1       3.003  -3.530   0.004  0.00  0.00    -0.191 NA
ATOM      8  N   UNL d   1      -1.370  -4.376   0.021  0.00  0.00    -0.191 NA
ATOM      9  C   UNL d   1       0.905   1.070  -0.134  0.00  0.00     0.041 A 
ATOM     10  C   UNL d   1      -1.404   0.478  -0.003  0.00  0.00     0.088 A 
ATOM     11  C   UNL d   1      -0.486   1.451  -0.041  0.00  0.00     0.020 A 
ATOM     12  H   UNL d   1      -1.836  -1.516   0.038  0.00  0.00     0.165 HD
ENDROOT
BRANCH   3  13
ATOM     13  O   UNL d   1       2.634  -0.597  -0.281  0.00  0.00    -0.277 OA
BRANCH  13  14
ATOM     14  C   UNL d   1       3.558  -0.009   0.547  0.00  0.00     0.260 C 
ATOM     15  O   UNL d   1       3.323   0.722   1.501  0.00  0.00    -0.265 OA
ATOM     16  C   UNL d   1       4.940  -0.443   0.157  0.00  0.00     0.126 C 
ENDBRANCH  13  14
ENDBRANCH   3  13
TORSDOF 2
