REMARK  6 active torsions:
REMARK  status: ('A' for Active; 'I' for Inactive)
REMARK    1  A    between atoms: C_14  and  N_2 
REMARK    2  A    between atoms: C_3  and  C_5 
REMARK    3  A    between atoms: C_6  and  C_4 
REMARK       I    between atoms: C_5  and  N_11 
REMARK    4  A    between atoms: O_12  and  C_6 
REMARK    5  A    between atoms: N_11  and  C_16 
REMARK    6  A    between atoms: C_16  and  C_14 
ROOT
ATOM      1  C   UNL d   1      -3.672  -4.030  -1.161  0.00  0.00     0.252 C 
ATOM      2  O   UNL d   1      -4.554  -3.220  -0.886  0.00  0.00    -0.268 OA
ATOM      3  N   UNL d   1      -2.347  -3.775  -0.919  0.00  0.00    -0.355 N 
ATOM      4  H   UNL d   1      -1.668  -4.533  -0.992  0.00  0.00     0.162 HD
ENDROOT
BRANCH   1   5
ATOM      5  C   UNL d   1      -4.044  -5.299  -1.863  0.00  0.00     0.048 A 
ATOM      6  C   UNL d   1      -3.424  -6.558  -1.762  0.00  0.00     0.053 A 
ATOM      7  C   UNL d   1      -3.879  -7.624  -2.570  0.00  0.00     0.019 A 
ATOM      8  C   UNL d   1      -4.981  -7.473  -3.411  0.00  0.00     0.001 A 
ATOM      9  C   UNL d   1      -5.635  -6.251  -3.471  0.00  0.00     0.001 A 
ATOM     10  C   UNL d   1      -5.166  -5.176  -2.713  0.00  0.00     0.018 A 
BRANCH   6  11
ATOM     11  C   UNL d   1      -2.298  -6.852  -0.843  0.00  0.00     0.177 C 
ATOM     12  O   UNL d   1      -1.351  -6.106  -0.663  0.00  0.00    -0.646 OA
BRANCH  11  13
ATOM     13  O   UNL d   1      -2.395  -8.055  -0.231  0.00  0.00    -0.773 OA
ATOM     14  H   UNL d   1      -3.231  -8.541  -0.365  0.00  0.00     0.167 HD
ENDBRANCH  11  13
ENDBRANCH   6  11
ENDBRANCH   1   5
BRANCH   3  15
ATOM     15  C   UNL d   1      -1.905  -2.539  -0.295  0.00  0.00     0.143 C 
BRANCH  15  16
ATOM     16  C   UNL d   1      -0.387  -2.505  -0.095  0.00  0.00     0.147 C 
BRANCH  16  17
ATOM     17  N   UNL d   1       0.090  -1.319   0.597  0.00  0.00    -0.331 N 
ATOM     18  C   UNL d   1       1.029  -0.429   0.095  0.00  0.00     0.318 C 
ATOM     19  N   UNL d   1       1.283   0.509   1.093  0.00  0.00    -0.341 N 
ATOM     20  O   UNL d   1       1.574  -0.449  -0.989  0.00  0.00    -0.247 OA
ATOM     21  C   UNL d   1       0.717   0.078   2.343  0.00  0.00     0.144 C 
ATOM     22  H   UNL d   1       2.080   1.120   0.986  0.00  0.00     0.164 HD
ATOM     23  C   UNL d   1      -0.334  -0.943   1.927  0.00  0.00     0.147 C 
ENDBRANCH  16  17
ENDBRANCH  15  16
ENDBRANCH   3  15
TORSDOF 6
