REMARK  4 active torsions:
REMARK  status: ('A' for Active; 'I' for Inactive)
REMARK    1  A    between atoms: S_2  and  N_1 
REMARK    2  A    between atoms: C_7  and  S_2 
REMARK    3  A    between atoms: C_16  and  C_4 
REMARK    4  A    between atoms: C_13  and  C_17 
ROOT
ATOM      1  C   UNL d   1      -1.411  -3.281   1.248  0.00  0.00     0.122 A 
ATOM      2  S   UNL d   1      -0.520  -4.231   2.353  0.00  0.00    -0.074 SA
ATOM      3  C   UNL d   1      -1.900  -4.556   3.310  0.00  0.00     0.034 A 
ATOM      4  C   UNL d   1      -2.721  -3.126   1.664  0.00  0.00     0.034 A 
ATOM      5  C   UNL d   1      -3.006  -3.872   2.851  0.00  0.00     0.023 A 
ENDROOT
BRANCH   1   6
ATOM      6  S   UNL d   1      -0.534  -2.701  -0.185  0.00  0.00     0.289 S 
ATOM      7  O   UNL d   1      -1.558  -2.362  -1.159  0.00  0.00    -0.198 OA
ATOM      8  O   UNL d   1       0.524  -3.652  -0.473  0.00  0.00    -0.198 OA
BRANCH   6   9
ATOM      9  N   UNL d   1       0.257  -1.206   0.174  0.00  0.00    -0.180 N 
ATOM     10  C   UNL d   1       1.042  -0.520  -0.741  0.00  0.00     0.062 A 
ATOM     11  C   UNL d   1       1.358   0.660  -0.107  0.00  0.00     0.059 A 
ATOM     12  C   UNL d   1       1.411  -0.993  -2.100  0.00  0.00     0.072 C 
ATOM     13 BR   UNL d   1       2.378   2.080  -0.782  0.00  0.00    -0.047 Br
ATOM     14  C   UNL d   1       0.750   0.624   1.161  0.00  0.00     0.042 A 
ATOM     15  N   UNL d   1       0.072  -0.516   1.339  0.00  0.00    -0.287 N 
ATOM     16  C   UNL d   1       0.772   1.656   2.227  0.00  0.00     0.071 C 
ATOM     17  HN  UNL d   1      -0.462  -0.805   2.159  1.00  0.00     0.188 HD
ENDBRANCH   6   9
ENDBRANCH   1   6
BRANCH   3  18
ATOM     18  C   UNL d   1      -1.896  -5.486   4.489  0.00  0.00     0.067 A 
ATOM     19  C   UNL d   1      -0.765  -6.135   5.029  0.00  0.00     0.068 A 
ATOM     20  C   UNL d   1      -1.236  -6.911   6.069  0.00  0.00     0.136 A 
ATOM     21  N   UNL d   1      -2.591  -6.721   6.076  0.00  0.00    -0.292 N 
ATOM     22  N   UNL d   1      -3.008  -5.825   5.154  0.00  0.00    -0.297 N 
ATOM     23  C   UNL d   1      -3.577  -7.383   6.903  0.00  0.00     0.178 C 
ATOM     24  HN  UNL d   1      -3.956  -5.484   4.999  1.00  0.00     0.187 HD
BRANCH  20  25
ATOM     25  C   UNL d   1      -0.507  -7.792   7.000  0.00  0.00     0.434 C 
ATOM     26  F   UNL d   1      -1.304  -8.377   7.928  0.00  0.00    -0.165 F 
ATOM     27  F   UNL d   1       0.124  -8.793   6.340  0.00  0.00    -0.165 F 
ATOM     28  F   UNL d   1       0.445  -7.108   7.682  0.00  0.00    -0.165 F 
ENDBRANCH  20  25
ENDBRANCH   3  18
TORSDOF 4
