REMARK  4 active torsions:
REMARK  status: ('A' for Active; 'I' for Inactive)
REMARK    1  A    between atoms: S_13  and  C_2 
REMARK    2  A    between atoms: C_7  and  C_4 
REMARK       I    between atoms: N_12  and  C_7 
REMARK    3  A    between atoms: N_10  and  N_12 
REMARK    4  A    between atoms: C_17  and  C_16 
ROOT
ATOM      1  C   UNL d   1       0.229   0.926   0.147  0.00  0.00     0.002 C 
ATOM      2  C   UNL d   1       1.575   1.180  -0.096  0.00  0.00     0.051 C 
ATOM      3  C   UNL d   1      -0.045  -0.492  -0.046  0.00  0.00    -0.025 C 
ATOM      4  C   UNL d   1       1.108  -1.259  -0.139  0.00  0.00     0.082 C 
ATOM      5  S   UNL d   1       2.476  -0.260  -0.334  0.00  0.00    -0.076 SA
ATOM      6  C   UNL d   1      -0.883   1.878   0.604  0.00  0.00     0.085 C 
ATOM      7  S   UNL d   1      -1.008   3.400  -0.410  0.00  0.00    -0.142 SA
ATOM      8  S   UNL d   1      -0.538   2.360   2.365  0.00  0.00    -0.142 SA
ATOM      9  C   UNL d   1      -1.444  -1.037  -0.018  0.00  0.00     0.041 C 
ATOM     10  C   UNL d   1      -2.301   1.220   0.617  0.00  0.00     0.037 C 
ATOM     11  C   UNL d   1      -2.450   0.057  -0.365  0.00  0.00     0.007 C 
ATOM     12  C   UNL d   1      -0.448   4.146   2.119  0.00  0.00     0.086 C 
ATOM     13  C   UNL d   1      -1.355   4.524   0.968  0.00  0.00     0.086 C 
ENDROOT
BRANCH   4  14
ATOM     14  C   UNL d   1       1.205  -2.721  -0.072  0.00  0.00     0.277 C 
ATOM     15  N   UNL d   1       2.493  -3.253  -0.056  0.00  0.00    -0.266 N 
ATOM     16  H   UNL d   1       3.296  -2.637  -0.090  0.00  0.00     0.190 HD
ATOM     17  O   UNL d   1       0.205  -3.438   0.011  0.00  0.00    -0.265 OA
BRANCH  15  18
ATOM     18  N   UNL d   1       2.656  -4.593   0.149  0.00  0.00    -0.308 N 
ATOM     19  C   UNL d   1       3.869  -5.042   0.183  0.00  0.00     0.118 C 
ATOM     20  HN  UNL d   1       1.855  -5.214   0.269  1.00  0.00     0.186 HD
BRANCH  19  21
ATOM     21  C   UNL d   1       4.138  -6.476   0.416  0.00  0.00    -0.019 A 
ATOM     22  C   UNL d   1       3.089  -7.359   0.723  0.00  0.00     0.014 A 
ATOM     23  C   UNL d   1       3.360  -8.713   0.926  0.00  0.00     0.024 A 
ATOM     24  C   UNL d   1       4.667  -9.184   0.830  0.00  0.00     0.034 A 
ATOM     25  C   UNL d   1       5.713  -8.309   0.530  0.00  0.00     0.024 A 
ATOM     26 CL   UNL d   1       4.996 -10.855   1.073  0.00  0.00    -0.084 Cl
ATOM     27  C   UNL d   1       5.450  -6.952   0.323  0.00  0.00     0.014 A 
ENDBRANCH  19  21
ENDBRANCH  15  18
ENDBRANCH   4  14
BRANCH   2  28
ATOM     28  S   UNL d   1       2.437   2.722  -0.079  0.00  0.00    -0.126 SA
ATOM     29  C   UNL d   1       2.426   3.134  -1.844  0.00  0.00     0.096 C 
ENDBRANCH   2  28
TORSDOF 4
