REMARK  6 active torsions:
REMARK  status: ('A' for Active; 'I' for Inactive)
REMARK    1  A    between atoms: N_2  and  C_1 
REMARK    2  A    between atoms: C_3  and  C_1 
REMARK    3  A    between atoms: C_4  and  C_1 
REMARK    4  A    between atoms: O_6  and  C_1 
REMARK       I    between atoms: C_5  and  N_2 
REMARK    5  A    between atoms: C_8  and  C_5 
REMARK    6  A    between atoms: C_15  and  O_6 
ROOT
ATOM      1  C   UNL d   1       0.989  -0.041   0.149  0.00  0.00     0.337 C 
ENDROOT
BRANCH   1   2
ATOM      2  N   UNL d   1       0.373   0.332   1.444  0.00  0.00    -0.310 N 
ATOM      3  C   UNL d   1      -0.982   0.321   1.630  0.00  0.00     0.254 C 
ATOM      4  O   UNL d   1      -1.758   0.006   0.751  0.00  0.00    -0.268 OA
ATOM      5  H   UNL d   1       0.974   0.246   2.253  0.00  0.00     0.166 HD
BRANCH   3   6
ATOM      6  C   UNL d   1      -1.440   0.698   2.993  0.00  0.00     0.032 A 
ATOM      7  C   UNL d   1      -0.762   1.665   3.748  0.00  0.00     0.017 A 
ATOM      8  C   UNL d   1      -1.231   2.018   5.013  0.00  0.00     0.001 A 
ATOM      9  C   UNL d   1      -2.374   1.407   5.525  0.00  0.00     0.000 A 
ATOM     10  C   UNL d   1      -3.052   0.446   4.773  0.00  0.00     0.001 A 
ATOM     11  C   UNL d   1      -2.591   0.094   3.505  0.00  0.00     0.017 A 
ENDBRANCH   3   6
ENDBRANCH   1   2
BRANCH   1  12
ATOM     12  C   UNL d   1       0.496   0.771  -1.086  0.00  0.00     0.447 C 
ATOM     13  F   UNL d   1       0.271   2.071  -0.739  0.00  0.00    -0.166 F 
ATOM     14  F   UNL d   1       1.443   0.805  -2.060  0.00  0.00    -0.166 F 
ATOM     15  F   UNL d   1      -0.638   0.337  -1.669  0.00  0.00    -0.166 F 
ENDBRANCH   1  12
BRANCH   1  16
ATOM     16  C   UNL d   1       0.782  -1.546  -0.217  0.00  0.00     0.447 C 
ATOM     17  F   UNL d   1       0.368  -2.257   0.871  0.00  0.00    -0.166 F 
ATOM     18  F   UNL d   1      -0.094  -1.808  -1.206  0.00  0.00    -0.166 F 
ATOM     19  F   UNL d   1       1.956  -2.124  -0.595  0.00  0.00    -0.166 F 
ENDBRANCH   1  16
BRANCH   1  20
ATOM     20  O   UNL d   1       2.413   0.124   0.435  0.00  0.00    -0.342 OA
BRANCH  20  21
ATOM     21  C   UNL d   1       3.009   1.425   0.402  0.00  0.00     0.117 C 
ATOM     22  C   UNL d   1       2.705   2.219   1.667  0.00  0.00     0.039 C 
ATOM     23  C   UNL d   1       4.516   1.185   0.312  0.00  0.00     0.039 C 
ENDBRANCH  20  21
ENDBRANCH   1  20
TORSDOF 6
