REMARK  2 active torsions:
REMARK  status: ('A' for Active; 'I' for Inactive)
REMARK    1  A    between atoms: C_4  and  C_1 
REMARK       I    between atoms: N_7  and  C_4 
REMARK    2  A    between atoms: C_8  and  N_7 
ROOT
ATOM      1  C   UNL d   1      -2.508  -1.458  -0.147  0.00  0.00     0.274 C 
ATOM      2  N   UNL d   1      -3.734  -0.839   0.043  0.00  0.00    -0.322 N 
ATOM      3  O   UNL d   1      -1.450  -0.885  -0.388  0.00  0.00    -0.266 OA
ATOM      4  H   UNL d   1      -4.486  -1.454   0.343  0.00  0.00     0.169 HD
ENDROOT
BRANCH   2   5
ATOM      5  C   UNL d   1      -3.983   0.550  -0.014  0.00  0.00     0.038 A 
ATOM      6  C   UNL d   1      -3.068   1.472  -0.535  0.00  0.00     0.053 A 
ATOM      7  C   UNL d   1      -3.347   2.839  -0.515  0.00  0.00     0.037 A 
ATOM      8 CL   UNL d   1      -2.196   3.951  -1.150  0.00  0.00    -0.084 Cl
ATOM      9  C   UNL d   1      -4.540   3.312   0.016  0.00  0.00     0.048 A 
ATOM     10  C   UNL d   1      -5.466   2.396   0.506  0.00  0.00     0.037 A 
ATOM     11  C   UNL d   1      -5.203   1.022   0.484  0.00  0.00     0.053 A 
ATOM     12 CL   UNL d   1      -6.949   2.969   1.167  0.00  0.00    -0.084 Cl
ENDBRANCH   2   5
BRANCH   1  13
ATOM     13  C   UNL d   1      -2.528  -2.914   0.002  0.00  0.00     0.125 A 
ATOM     14  N   UNL d   1      -3.653  -3.618   0.223  0.00  0.00    -0.256 N 
ATOM     15  O   UNL d   1      -3.253  -4.948   0.287  0.00  0.00    -0.242 OA
ATOM     16  HN  UNL d   1      -4.600  -3.253   0.323  1.00  0.00     0.195 HD
ATOM     17  C   UNL d   1      -1.905  -5.028   0.119  0.00  0.00     0.075 A 
ATOM     18  C   UNL d   1      -1.399  -3.769  -0.053  0.00  0.00     0.071 A 
ATOM     19  C   UNL d   1      -1.297  -6.370   0.157  0.00  0.00     0.079 C 
ENDBRANCH   1  13
TORSDOF 2
