REMARK  4 active torsions:
REMARK  status: ('A' for Active; 'I' for Inactive)
REMARK    1  A    between atoms: C_2  and  S_1 
REMARK    2  A    between atoms: O_7  and  S_1 
REMARK    3  A    between atoms: C_3  and  C_8 
REMARK    4  A    between atoms: C_8  and  O_7 
ROOT
ATOM      1  O   UNL d   1       0.543  -1.465   0.756  0.00  0.00    -0.259 OA
ENDROOT
BRANCH   1   2
ATOM      2  S   UNL d   1      -1.016  -0.997   0.703  0.00  0.00     0.300 S 
ATOM      3  O   UNL d   1      -1.326  -0.674  -0.676  0.00  0.00    -0.193 OA
ATOM      4  O   UNL d   1      -1.820  -1.949   1.439  0.00  0.00    -0.193 OA
BRANCH   2   5
ATOM      5  C   UNL d   1      -1.091   0.519   1.622  0.00  0.00     0.108 A 
ATOM      6  C   UNL d   1      -0.560   0.617   2.906  0.00  0.00     0.059 A 
ATOM      7  C   UNL d   1      -0.701   1.815   3.613  0.00  0.00     0.050 A 
ATOM      8 CL   UNL d   1       0.271  -0.668   3.705  0.00  0.00    -0.083 Cl
ATOM      9  C   UNL d   1      -1.361   2.911   3.045  0.00  0.00     0.041 A 
ATOM     10  C   UNL d   1      -1.896   2.827   1.753  0.00  0.00    -0.039 A 
ATOM     11 CL   UNL d   1      -1.482   4.343   4.003  0.00  0.00    -0.084 Cl
ATOM     12  C   UNL d   1      -1.755   1.617   1.049  0.00  0.00     0.036 A 
ATOM     13  C   UNL d   1      -2.606   3.961   1.063  0.00  0.00     0.050 C 
ENDBRANCH   2   5
ENDBRANCH   1   2
BRANCH   1  14
ATOM     14  C   UNL d   1       0.926  -2.564  -0.065  0.00  0.00     0.206 C 
ATOM     15  C   UNL d   1       0.416  -3.889   0.496  0.00  0.00     0.049 C 
BRANCH  14  16
ATOM     16  C   UNL d   1       2.426  -2.585  -0.118  0.00  0.00     0.113 A 
ATOM     17  N   UNL d   1       3.163  -3.018  -1.124  0.00  0.00    -0.342 N 
ATOM     18  C   UNL d   1       4.468  -2.920  -0.706  0.00  0.00     0.060 A 
ATOM     19  HN  UNL d   1       2.831  -3.357  -2.027  1.00  0.00     0.167 HD
ATOM     20  C   UNL d   1       5.653  -3.257  -1.375  0.00  0.00     0.032 A 
ATOM     21  C   UNL d   1       4.535  -2.408   0.585  0.00  0.00     0.060 A 
ATOM     22  C   UNL d   1       6.875  -3.057  -0.720  0.00  0.00     0.002 A 
ATOM     23  C   UNL d   1       6.914  -2.537   0.576  0.00  0.00     0.002 A 
ATOM     24  C   UNL d   1       5.740  -2.199   1.262  0.00  0.00     0.032 A 
ATOM     25  N   UNL d   1       3.225  -2.203   0.936  0.00  0.00    -0.342 N 
ATOM     26  H   UNL d   1       2.893  -1.846   1.820  0.00  0.00     0.167 HD
ENDBRANCH  14  16
ENDBRANCH   1  14
TORSDOF 4
