REMARK  5 active torsions:
REMARK  status: ('A' for Active; 'I' for Inactive)
REMARK       I    between atoms: N_2  and  C_1 
REMARK       I    between atoms: N_3  and  C_1 
REMARK    1  A    between atoms: C_5  and  N_3 
REMARK    2  A    between atoms: C_12  and  N_4 
REMARK    3  A    between atoms: O_14  and  C_9 
REMARK    4  A    between atoms: C_13  and  C_12 
REMARK    5  A    between atoms: C_15  and  C_13 
ROOT
ATOM      1  C   UNL d   1       1.026   0.512  -0.279  0.00  0.00     0.323 C 
ATOM      2  N   UNL d   1       0.330   0.321  -1.463  0.00  0.00    -0.331 N 
ATOM      3  N   UNL d   1       0.359   1.286   0.642  0.00  0.00    -0.306 N 
ATOM      4  N   UNL d   1      -0.485   0.439  -4.294  0.00  0.00     0.091 N 
ATOM      5  O   UNL d   1       2.116  -0.012  -0.066  0.00  0.00    -0.247 OA
ATOM      6  C   UNL d   1       0.787  -0.709  -2.400  0.00  0.00     0.158 C 
ATOM      7  C   UNL d   1      -0.881   1.046  -1.865  0.00  0.00     0.158 C 
ATOM      8  C   UNL d   1       0.774  -0.221  -3.864  0.00  0.00     0.292 C 
ATOM      9  C   UNL d   1      -0.786   1.515  -3.327  0.00  0.00     0.292 C 
ATOM     10  H   UNL d   1      -0.644   1.206   0.616  0.00  0.00     0.171 HD
ENDROOT
BRANCH   3  11
ATOM     11  C   UNL d   1       0.883   1.643   1.898  0.00  0.00     0.069 A 
ATOM     12  C   UNL d   1       0.060   1.588   3.034  0.00  0.00     0.095 A 
ATOM     13  C   UNL d   1       0.516   2.119   4.244  0.00  0.00     0.039 A 
ATOM     14  C   UNL d   1       1.793   2.679   4.330  0.00  0.00     0.003 A 
ATOM     15  C   UNL d   1       2.623   2.698   3.210  0.00  0.00     0.002 A 
ATOM     16  C   UNL d   1       2.175   2.170   1.998  0.00  0.00     0.032 A 
BRANCH  12  17
ATOM     17  O   UNL d   1      -1.216   1.078   3.043  0.00  0.00    -0.354 OA
ATOM     18  C   UNL d   1      -1.332  -0.247   2.517  0.00  0.00     0.210 C 
ENDBRANCH  12  17
ENDBRANCH   3  11
BRANCH   4  19
ATOM     19  C   UNL d   1      -1.575  -0.546  -4.443  0.00  0.00     0.277 C 
BRANCH  19  20
ATOM     20  C   UNL d   1      -2.888   0.058  -4.975  0.00  0.00     0.068 C 
BRANCH  20  21
ATOM     21  C   UNL d   1      -3.982  -0.978  -5.083  0.00  0.00    -0.057 A 
ATOM     22  C   UNL d   1      -4.794  -1.262  -3.979  0.00  0.00     0.007 A 
ATOM     23  C   UNL d   1      -5.814  -2.215  -4.077  0.00  0.00     0.001 A 
ATOM     24  C   UNL d   1      -6.022  -2.888  -5.282  0.00  0.00     0.000 A 
ATOM     25  C   UNL d   1      -5.213  -2.615  -6.382  0.00  0.00     0.001 A 
ATOM     26  C   UNL d   1      -4.195  -1.666  -6.284  0.00  0.00     0.007 A 
ENDBRANCH  20  21
ENDBRANCH  19  20
ENDBRANCH   4  19
TORSDOF 5
