REMARK  7 active torsions:
REMARK  status: ('A' for Active; 'I' for Inactive)
REMARK    1  A    between atoms: C_3  and  C_1 
REMARK    2  A    between atoms: C_11  and  C_2 
REMARK    3  A    between atoms: O_18  and  C_11 
REMARK    4  A    between atoms: C_15  and  C_12 
REMARK    5  A    between atoms: O_16  and  C_15 
REMARK    6  A    between atoms: C_17  and  O_16 
REMARK    7  A    between atoms: C_26  and  O_18 
ROOT
ATOM      1  C   UNL d   1       0.337  -2.714  -0.032  0.00  0.00     0.054 A 
ATOM      2  N   UNL d   1       1.150  -3.186   0.987  0.00  0.00    -0.351 N 
ATOM      3  HN  UNL d   1       1.484  -2.630   1.774  1.00  0.00     0.166 HD
ATOM      4  C   UNL d   1       0.088  -3.624  -1.037  0.00  0.00     0.082 A 
ATOM      5  C   UNL d   1       1.427  -4.461   0.790  0.00  0.00     0.075 A 
ATOM      6  S   UNL d   1       0.781  -5.140  -0.655  0.00  0.00    -0.084 SA
ENDROOT
BRANCH   1   7
ATOM      7  C   UNL d   1      -0.099  -1.321   0.034  0.00  0.00     0.057 A 
ATOM      8  C   UNL d   1      -1.270  -0.734  -0.526  0.00  0.00     0.144 A 
ATOM      9  N   UNL d   1      -1.278   0.595  -0.302  0.00  0.00    -0.254 N 
ATOM     10  O   UNL d   1      -0.139   0.873   0.423  0.00  0.00    -0.241 OA
ATOM     11  HN  UNL d   1      -1.986   1.263  -0.608  1.00  0.00     0.195 HD
ATOM     12  C   UNL d   1       0.569  -0.270   0.619  0.00  0.00     0.087 A 
ATOM     13  C   UNL d   1       1.851  -0.131   1.335  0.00  0.00     0.080 C 
BRANCH   8  14
ATOM     14  C   UNL d   1      -2.342  -1.373  -1.279  0.00  0.00     0.312 C 
ATOM     15  O   UNL d   1      -2.630  -2.562  -1.178  0.00  0.00    -0.258 OA
BRANCH  14  16
ATOM     16  O   UNL d   1      -2.905  -0.538  -2.204  0.00  0.00    -0.317 OA
BRANCH  16  17
ATOM     17  C   UNL d   1      -3.611  -1.188  -3.268  0.00  0.00     0.175 C 
ATOM     18  C   UNL d   1      -2.612  -1.555  -4.354  0.00  0.00     0.034 C 
ENDBRANCH  16  17
ENDBRANCH  14  16
ENDBRANCH   8  14
ENDBRANCH   1   7
BRANCH   5  19
ATOM     19  C   UNL d   1       2.287  -5.309   1.680  0.00  0.00     0.240 C 
BRANCH  19  20
ATOM     20  O   UNL d   1       1.430  -5.923   2.646  0.00  0.00    -0.345 OA
BRANCH  20  21
ATOM     21  C   UNL d   1       2.057  -6.715   3.569  0.00  0.00     0.069 A 
ATOM     22  C   UNL d   1       1.418  -6.814   4.808  0.00  0.00     0.038 A 
ATOM     23  C   UNL d   1       1.956  -7.613   5.821  0.00  0.00     0.026 A 
ATOM     24  C   UNL d   1       3.128  -8.326   5.586  0.00  0.00     0.034 A 
ATOM     25  C   UNL d   1       3.761  -8.250   4.349  0.00  0.00     0.026 A 
ATOM     26 CL   UNL d   1       3.794  -9.316   6.825  0.00  0.00    -0.084 Cl
ATOM     27  C   UNL d   1       3.225  -7.446   3.338  0.00  0.00     0.038 A 
ENDBRANCH  20  21
ENDBRANCH  19  20
ENDBRANCH   5  19
TORSDOF 7
