REMARK  6 active torsions:
REMARK  status: ('A' for Active; 'I' for Inactive)
REMARK    1  A    between atoms: C_2  and  C_1 
REMARK    2  A    between atoms: O_9  and  C_3 
REMARK    3  A    between atoms: C_8  and  C_11 
REMARK    4  A    between atoms: O_20  and  C_8 
REMARK    5  A    between atoms: C_18  and  O_9 
REMARK    6  A    between atoms: C_23  and  O_20 
ROOT
ATOM      1  C   UNL d   1      -2.951  -4.052   2.948  0.00  0.00     0.065 A 
ATOM      2  C   UNL d   1      -1.386  -2.394   4.481  0.00  0.00     0.170 A 
ATOM      3  N   UNL d   1      -2.560  -2.842   4.999  0.00  0.00    -0.344 N 
ATOM      4  HN  UNL d   1      -2.858  -2.580   5.938  1.00  0.00     0.167 HD
ATOM      5  C   UNL d   1      -0.918  -2.771   3.226  0.00  0.00     0.086 A 
ATOM      6  C   UNL d   1      -1.722  -3.605   2.446  0.00  0.00     0.045 A 
ATOM      7  C   UNL d   1      -3.315  -3.646   4.223  0.00  0.00     0.106 A 
ATOM      8 CL   UNL d   1       0.595  -2.240   2.600  0.00  0.00    -0.080 Cl
ENDROOT
BRANCH   2   9
ATOM      9  O   UNL d   1      -0.606  -1.550   5.258  0.00  0.00    -0.292 OA
BRANCH   9  10
ATOM     10  C   UNL d   1      -1.249  -0.677   6.109  0.00  0.00     0.077 A 
ATOM     11  C   UNL d   1      -0.597  -0.381   7.309  0.00  0.00     0.038 A 
ATOM     12  C   UNL d   1      -1.145   0.550   8.197  0.00  0.00     0.020 A 
ATOM     13  C   UNL d   1      -2.336   1.204   7.869  0.00  0.00     0.039 A 
ATOM     14  C   UNL d   1      -3.002   0.890   6.678  0.00  0.00     0.020 A 
ATOM     15  C   UNL d   1      -2.450  -0.033   5.793  0.00  0.00     0.038 A 
BRANCH  13  16
ATOM     16  C   UNL d   1      -2.898   2.199   8.807  0.00  0.00     0.293 C 
ATOM     17  O   UNL d   1      -2.751   2.167  10.011  0.00  0.00    -0.259 OA
BRANCH  16  18
ATOM     18  O   UNL d   1      -3.615   3.107   8.095  0.00  0.00    -0.318 OA
BRANCH  18  19
ATOM     19  C   UNL d   1      -4.514   3.924   8.851  0.00  0.00     0.174 C 
ATOM     20  C   UNL d   1      -5.840   3.191   8.928  0.00  0.00     0.034 C 
ENDBRANCH  18  19
ENDBRANCH  16  18
ENDBRANCH  13  16
ENDBRANCH   9  10
ENDBRANCH   2   9
BRANCH   1  21
ATOM     21  C   UNL d   1      -3.875  -4.946   2.183  0.00  0.00     0.418 C 
ATOM     22  F   UNL d   1      -3.397  -5.303   0.961  0.00  0.00    -0.166 F 
ATOM     23  F   UNL d   1      -5.086  -4.367   1.959  0.00  0.00    -0.166 F 
ATOM     24  F   UNL d   1      -4.131  -6.108   2.842  0.00  0.00    -0.166 F 
ENDBRANCH   1  21
TORSDOF 6
