REMARK  3 active torsions:
REMARK  status: ('A' for Active; 'I' for Inactive)
REMARK    1  A    between atoms: N_7  and  C_3 
REMARK    2  A    between atoms: C_8  and  C_4 
REMARK    3  A    between atoms: C_9  and  N_7 
ROOT
ATOM      1  N   UNL d   1       1.357  -0.535  -0.566  0.00  0.00    -0.335 N 
ATOM      2  HN  UNL d   1       2.176  -0.988  -0.970  1.00  0.00     0.168 HD
ATOM      3  C   UNL d   1       0.276  -1.171  -0.175  0.00  0.00     0.149 A 
ATOM      4  C   UNL d   1       1.241   0.823  -0.361  0.00  0.00     0.051 A 
ATOM      5  S   UNL d   1      -0.976  -0.144   0.415  0.00  0.00    -0.064 SA
ATOM      6  C   UNL d   1       0.044   1.222   0.197  0.00  0.00     0.083 A 
ENDROOT
BRANCH   3   7
ATOM      7  N   UNL d   1       0.107  -2.515  -0.228  0.00  0.00    -0.336 N 
ATOM      8  H   UNL d   1      -0.802  -2.884   0.018  0.00  0.00     0.168 HD
BRANCH   7   9
ATOM      9  C   UNL d   1       1.145  -3.454  -0.022  0.00  0.00     0.040 A 
ATOM     10  C   UNL d   1       1.065  -4.746  -0.577  0.00  0.00    -0.035 A 
ATOM     11  C   UNL d   1       2.106  -5.668  -0.341  0.00  0.00     0.015 A 
ATOM     12  C   UNL d   1      -0.075  -5.193  -1.452  0.00  0.00     0.050 C 
ATOM     13  C   UNL d   1       3.227  -5.326   0.425  0.00  0.00    -0.061 A 
ATOM     14  C   UNL d   1       3.312  -4.040   0.953  0.00  0.00     0.009 A 
ATOM     15  C   UNL d   1       4.322  -6.323   0.656  0.00  0.00     0.048 C 
ATOM     16  C   UNL d   1       2.287  -3.121   0.729  0.00  0.00     0.030 A 
ENDBRANCH   7   9
ENDBRANCH   3   7
BRANCH   4  17
ATOM     17  C   UNL d   1       2.323   1.710  -0.756  0.00  0.00    -0.006 A 
ATOM     18  C   UNL d   1       3.106   1.363  -1.870  0.00  0.00     0.059 A 
ATOM     19  C   UNL d   1       4.151   2.187  -2.272  0.00  0.00     0.155 A 
ATOM     20  F   UNL d   1       4.880   1.850  -3.345  0.00  0.00    -0.203 F 
ATOM     21  C   UNL d   1       4.438   3.349  -1.569  0.00  0.00     0.154 A 
ATOM     22  C   UNL d   1       3.683   3.701  -0.454  0.00  0.00     0.046 A 
ATOM     23  F   UNL d   1       5.445   4.142  -1.956  0.00  0.00    -0.203 F 
ATOM     24  C   UNL d   1       2.625   2.882  -0.046  0.00  0.00     0.017 A 
ENDBRANCH   4  17
TORSDOF 3
