REMARK  7 active torsions:
REMARK  status: ('A' for Active; 'I' for Inactive)
REMARK    1  A    between atoms: C_6  and  C_1 
REMARK    2  A    between atoms: N_17  and  C_4 
REMARK       I    between atoms: N_11  and  C_6 
REMARK    3  A    between atoms: C_9  and  C_13 
REMARK    4  A    between atoms: C_14  and  C_10 
REMARK    5  A    between atoms: C_23  and  N_11 
REMARK    6  A    between atoms: O_26  and  C_14 
REMARK    7  A    between atoms: O_27  and  C_14 
ROOT
ATOM      1  C   UNL d   1      -2.132  -0.065  -0.128  0.00  0.00     0.102 A 
ATOM      2  C   UNL d   1       0.286  -0.540  -0.168  0.00  0.00     0.087 A 
ATOM      3  S   UNL d   1      -1.144  -1.457  -0.273  0.00  0.00    -0.064 SA
ATOM      4  C   UNL d   1      -1.359   1.079  -0.012  0.00  0.00     0.061 A 
ATOM      5  C   UNL d   1       0.048   0.820  -0.033  0.00  0.00     0.026 A 
ATOM      6  N   UNL d   1       1.487  -1.149  -0.203  0.00  0.00    -0.349 N 
ATOM      7  HN  UNL d   1       1.587  -2.159  -0.306  1.00  0.00     0.166 HD
ATOM      8  C   UNL d   1       2.556  -0.318  -0.092  0.00  0.00     0.065 A 
ATOM      9  C   UNL d   1       1.180   1.654   0.067  0.00  0.00     0.018 A 
ATOM     10  C   UNL d   1       2.444   1.066   0.045  0.00  0.00     0.031 A 
ENDROOT
BRANCH   1  11
ATOM     11  C   UNL d   1      -3.594  -0.138  -0.148  0.00  0.00     0.265 C 
ATOM     12  N   UNL d   1      -4.134  -1.403  -0.327  0.00  0.00    -0.322 N 
ATOM     13  H   UNL d   1      -3.471  -2.170  -0.336  0.00  0.00     0.169 HD
ATOM     14  O   UNL d   1      -4.275   0.879  -0.014  0.00  0.00    -0.267 OA
BRANCH  12  15
ATOM     15  C   UNL d   1      -5.492  -1.731  -0.536  0.00  0.00     0.035 A 
ATOM     16  C   UNL d   1      -6.503  -0.779  -0.683  0.00  0.00     0.030 A 
ATOM     17  C   UNL d   1      -7.820  -1.164  -0.952  0.00  0.00     0.018 A 
ATOM     18  C   UNL d   1      -8.157  -2.515  -1.079  0.00  0.00     0.048 A 
ATOM     19  C   UNL d   1      -7.148  -3.475  -0.908  0.00  0.00     0.018 A 
ATOM     20  C   UNL d   1      -5.828  -3.085  -0.643  0.00  0.00     0.030 A 
BRANCH  18  21
ATOM     21  C   UNL d   1      -9.569  -2.933  -1.406  0.00  0.00     0.417 C 
ATOM     22  F   UNL d   1     -10.423  -1.886  -1.580  0.00  0.00    -0.166 F 
ATOM     23  F   UNL d   1      -9.641  -3.664  -2.554  0.00  0.00    -0.166 F 
ATOM     24  F   UNL d   1     -10.124  -3.708  -0.435  0.00  0.00    -0.166 F 
ENDBRANCH  18  21
ENDBRANCH  12  15
ENDBRANCH   1  11
BRANCH   4  25
ATOM     25  N   UNL d   1      -1.884   2.317   0.112  0.00  0.00    -0.397 N 
ATOM     26  H   UNL d   1      -2.898   2.456   0.128  0.00  0.00     0.156 HD
ATOM     27  H   UNL d   1      -1.340   3.170   0.176  0.00  0.00     0.156 HD
ENDBRANCH   4  25
BRANCH   8  28
ATOM     28  C   UNL d   1       3.954  -0.947   0.000  0.00  0.00     0.309 C 
BRANCH  28  29
ATOM     29  O   UNL d   1       4.394  -1.048   1.363  0.00  0.00    -0.360 OA
ATOM     30  C   UNL d   1       3.631  -1.973   2.131  0.00  0.00     0.205 C 
ENDBRANCH  28  29
BRANCH  28  31
ATOM     31  O   UNL d   1       4.026  -2.191  -0.703  0.00  0.00    -0.360 OA
ATOM     32  C   UNL d   1       5.359  -2.661  -0.829  0.00  0.00     0.205 C 
ENDBRANCH  28  31
ENDBRANCH   8  28
TORSDOF 7
