REMARK  5 active torsions:
REMARK  status: ('A' for Active; 'I' for Inactive)
REMARK    1  A    between atoms: C_2  and  C_1 
REMARK    2  A    between atoms: O_13  and  C_5 
REMARK    3  A    between atoms: O_14  and  C_6 
REMARK    4  A    between atoms: O_15  and  C_7 
REMARK    5  A    between atoms: O_16  and  C_8 
ROOT
ATOM      1  C   UNL d   1      -1.801   0.091   0.011  0.00  0.00     0.013 A 
ATOM      2  C   UNL d   1      -1.102  -0.989   0.595  0.00  0.00     0.052 A 
ATOM      3  C   UNL d   1      -1.008   1.159  -0.460  0.00  0.00     0.080 A 
ATOM      4  C   UNL d   1       0.309  -1.065   0.677  0.00  0.00     0.075 A 
ATOM      5  C   UNL d   1       0.391   1.064  -0.438  0.00  0.00     0.047 A 
ATOM      6  C   UNL d   1       1.074  -0.042   0.101  0.00  0.00    -0.026 A 
ATOM      7  C   UNL d   1       2.566  -0.006   0.011  0.00  0.00     0.051 C 
ENDROOT
BRANCH   1   8
ATOM      8  C   UNL d   1      -3.299   0.059  -0.091  0.00  0.00     0.013 A 
ATOM      9  C   UNL d   1      -4.075  -0.430   0.983  0.00  0.00     0.052 A 
ATOM     10  C   UNL d   1      -5.489  -0.467   0.974  0.00  0.00     0.075 A 
ATOM     11  C   UNL d   1      -6.171   0.050  -0.132  0.00  0.00    -0.026 A 
ATOM     12  C   UNL d   1      -5.407   0.493  -1.234  0.00  0.00     0.047 A 
ATOM     13  C   UNL d   1      -7.663   0.191  -0.256  0.00  0.00     0.051 C 
ATOM     14  C   UNL d   1      -4.003   0.464  -1.245  0.00  0.00     0.080 A 
BRANCH  10  15
ATOM     15  O   UNL d   1      -5.977  -1.021   2.125  0.00  0.00    -0.355 OA
ATOM     16  C   UNL d   1      -7.362  -1.254   2.300  0.00  0.00     0.210 C 
ENDBRANCH  10  15
BRANCH  14  17
ATOM     17  O   UNL d   1      -3.257   0.824  -2.338  0.00  0.00    -0.355 OA
ATOM     18  C   UNL d   1      -3.887   0.966  -3.598  0.00  0.00     0.210 C 
ENDBRANCH  14  17
ENDBRANCH   1   8
BRANCH   3  19
ATOM     19  O   UNL d   1      -1.649   2.307  -0.859  0.00  0.00    -0.355 OA
ATOM     20  C   UNL d   1      -0.967   3.137  -1.793  0.00  0.00     0.210 C 
ENDBRANCH   3  19
BRANCH   4  21
ATOM     21  O   UNL d   1       0.711  -2.194   1.328  0.00  0.00    -0.355 OA
ATOM     22  C   UNL d   1       2.073  -2.404   1.650  0.00  0.00     0.210 C 
ENDBRANCH   4  21
TORSDOF 5
