REMARK  6 active torsions:
REMARK  status: ('A' for Active; 'I' for Inactive)
REMARK    1  A    between atoms: C_5  and  C_1 
REMARK    2  A    between atoms: C_13  and  C_4 
REMARK       I    between atoms: N_11  and  C_5 
REMARK    3  A    between atoms: C_9  and  O_16 
REMARK       I    between atoms: C_10  and  N_12 
REMARK       I    between atoms: N_14  and  C_10 
REMARK    4  A    between atoms: N_12  and  N_11 
REMARK    5  A    between atoms: C_24  and  N_14 
REMARK    6  A    between atoms: O_16  and  C_23 
ROOT
ATOM      1  C   UNL d   1       0.528  -1.025   0.020  0.00  0.00     0.241 A 
ATOM      2  N   UNL d   1      -0.737  -0.653  -0.037  0.00  0.00    -0.315 N 
ATOM      3  HN  UNL d   1      -1.558  -1.211  -0.272  1.00  0.00     0.169 HD
ATOM      4  C   UNL d   1      -0.665   0.685   0.302  0.00  0.00     0.138 A 
ATOM      5  N   UNL d   1       0.587   1.124   0.515  0.00  0.00    -0.242 N 
ATOM      6  HN  UNL d   1       0.889   2.069   0.753  1.00  0.00     0.196 HD
ATOM      7  O   UNL d   1       1.376  -0.008   0.337  0.00  0.00    -0.212 OA
ENDROOT
BRANCH   1   8
ATOM      8  C   UNL d   1       1.066  -2.354  -0.170  0.00  0.00     0.313 C 
ATOM      9  N   UNL d   1       0.128  -3.291  -0.578  0.00  0.00    -0.259 N 
ATOM     10  H   UNL d   1      -0.788  -2.995  -0.923  0.00  0.00     0.190 HD
ATOM     11  O   UNL d   1       2.242  -2.666   0.024  0.00  0.00    -0.262 OA
BRANCH   9  12
ATOM     12  N   UNL d   1       0.572  -4.562  -0.984  0.00  0.00    -0.248 N 
ATOM     13  C   UNL d   1      -0.223  -5.262  -1.878  0.00  0.00     0.339 C 
ATOM     14  N   UNL d   1       0.270  -6.525  -2.122  0.00  0.00    -0.308 N 
ATOM     15  O   UNL d   1      -1.228  -4.744  -2.361  0.00  0.00    -0.245 OA
ATOM     16  H   UNL d   1       1.152  -6.750  -1.686  0.00  0.00     0.170 HD
ATOM     17  H   UNL d   1       1.183  -5.045  -0.333  0.00  0.00     0.192 HD
BRANCH  14  18
ATOM     18  C   UNL d   1      -0.296  -7.525  -2.939  0.00  0.00     0.036 A 
ATOM     19  C   UNL d   1      -1.476  -7.362  -3.663  0.00  0.00     0.029 A 
ATOM     20  C   UNL d   1      -1.984  -8.406  -4.444  0.00  0.00     0.002 A 
ATOM     21  C   UNL d   1      -1.314  -9.625  -4.504  0.00  0.00     0.000 A 
ATOM     22  C   UNL d   1      -0.132  -9.799  -3.789  0.00  0.00     0.002 A 
ATOM     23  C   UNL d   1       0.376  -8.754  -3.014  0.00  0.00     0.029 A 
ENDBRANCH  14  18
ENDBRANCH   9  12
ENDBRANCH   1   8
BRANCH   4  24
ATOM     24  C   UNL d   1      -1.849   1.529   0.451  0.00  0.00     0.010 A 
ATOM     25  C   UNL d   1      -3.135   1.015   0.230  0.00  0.00     0.018 A 
ATOM     26  C   UNL d   1      -4.274   1.821   0.391  0.00  0.00     0.038 A 
ATOM     27  C   UNL d   1      -4.137   3.161   0.748  0.00  0.00     0.078 A 
ATOM     28  C   UNL d   1      -2.862   3.669   1.003  0.00  0.00     0.038 A 
ATOM     29  C   UNL d   1      -1.728   2.867   0.849  0.00  0.00     0.018 A 
BRANCH  27  30
ATOM     30  O   UNL d   1      -5.143   4.059   0.926  0.00  0.00    -0.255 OA
BRANCH  30  31
ATOM     31  C   UNL d   1      -6.344   3.917   0.183  0.00  0.00     0.530 C 
ATOM     32  F   UNL d   1      -6.230   3.107  -0.890  0.00  0.00    -0.144 F 
ATOM     33  F   UNL d   1      -7.322   3.449   0.988  0.00  0.00    -0.144 F 
ATOM     34  F   UNL d   1      -6.714   5.139  -0.262  0.00  0.00    -0.144 F 
ENDBRANCH  30  31
ENDBRANCH  27  30
ENDBRANCH   4  24
TORSDOF 6
