REMARK  3 active torsions:
REMARK  status: ('A' for Active; 'I' for Inactive)
REMARK    1  A    between atoms: C_2  and  C_1 
REMARK       I    between atoms: N_5  and  C_1 
REMARK    2  A    between atoms: O_8  and  N_3 
REMARK    3  A    between atoms: C_7  and  N_5 
ROOT
ATOM      1  C   UNL d   1       1.046  -1.970  -0.968  0.00  0.00     0.263 C 
ATOM      2  N   UNL d   1       0.209  -0.874  -0.958  0.00  0.00    -0.322 N 
ATOM      3  O   UNL d   1       0.775  -3.153  -1.103  0.00  0.00    -0.267 OA
ATOM      4  H   UNL d   1       0.648   0.037  -0.890  0.00  0.00     0.169 HD
ENDROOT
BRANCH   2   5
ATOM      5  C   UNL d   1      -1.201  -0.891  -1.003  0.00  0.00     0.035 A 
ATOM      6  C   UNL d   1      -1.957  -2.062  -1.070  0.00  0.00     0.030 A 
ATOM      7  C   UNL d   1      -3.355  -2.009  -1.061  0.00  0.00     0.009 A 
ATOM      8  C   UNL d   1      -4.022  -0.783  -0.989  0.00  0.00    -0.062 A 
ATOM      9  C   UNL d   1      -3.268   0.392  -0.931  0.00  0.00     0.009 A 
ATOM     10  C   UNL d   1      -5.521  -0.751  -0.953  0.00  0.00     0.048 C 
ATOM     11  C   UNL d   1      -1.868   0.338  -0.941  0.00  0.00     0.030 A 
ENDBRANCH   2   5
BRANCH   1  12
ATOM     12  C   UNL d   1       2.480  -1.612  -0.691  0.00  0.00     0.188 C 
ATOM     13  N   UNL d   1       3.358  -1.597  -1.639  0.00  0.00    -0.275 N 
ATOM     14  HN  UNL d   1       3.175  -1.791  -2.623  1.00  0.00     0.193 HD
BRANCH  13  15
ATOM     15  O   UNL d   1       4.603  -1.268  -1.087  0.00  0.00    -0.290 OA
ATOM     16  H   UNL d   1       5.219  -1.468  -1.819  0.00  0.00     0.244 HD
ENDBRANCH  13  15
ENDBRANCH   1  12
TORSDOF 3
