REMARK  6 active torsions:
REMARK  status: ('A' for Active; 'I' for Inactive)
REMARK    1  A    between atoms: C_16  and  N_1 
REMARK    2  A    between atoms: S_10  and  C_2 
REMARK    3  A    between atoms: N_6  and  C_3 
REMARK    4  A    between atoms: C_5  and  S_10 
REMARK    5  A    between atoms: O_19  and  C_7 
REMARK    6  A    between atoms: C_20  and  C_16 
ROOT
ATOM      1  N   UNL d   1      -0.051  -1.147  -0.665  0.00  0.00    -0.287 N 
ATOM      2  C   UNL d   1       1.315  -1.040  -0.755  0.00  0.00     0.171 A 
ATOM      3  C   UNL d   1      -0.495   0.133  -0.448  0.00  0.00     0.240 A 
ATOM      4  N   UNL d   1       1.662   0.225  -0.692  0.00  0.00    -0.276 N 
ATOM      5  HN  UNL d   1       2.610   0.593  -0.774  1.00  0.00     0.189 HD
ATOM      6  N   UNL d   1       0.516   0.966  -0.494  0.00  0.00    -0.263 N 
ATOM      7  HN  UNL d   1       0.464   1.980  -0.401  1.00  0.00     0.190 HD
ENDROOT
BRANCH   2   8
ATOM      8  S   UNL d   1       2.410  -2.375  -0.667  0.00  0.00    -0.027 SA
BRANCH   8   9
ATOM      9  C   UNL d   1       2.819  -2.538  -2.362  0.00  0.00     0.121 A 
ATOM     10  S   UNL d   1       1.775  -3.294  -3.505  0.00  0.00    -0.039 SA
ATOM     11  C   UNL d   1       3.051  -3.312  -4.624  0.00  0.00     0.161 A 
ATOM     12  C   UNL d   1       4.175  -2.723  -4.102  0.00  0.00     0.133 A 
ATOM     13  N   UNL d   1       4.036  -2.280  -2.796  0.00  0.00    -0.352 N 
ATOM     14  HN  UNL d   1       4.768  -1.822  -2.252  1.00  0.00     0.166 HD
BRANCH  11  15
ATOM     15  N   UNL d   1       2.918  -3.931  -5.905  0.00  0.00    -0.107 N 
ATOM     16  O   UNL d   1       3.969  -4.156  -6.518  0.00  0.00    -0.531 OA
ATOM     17  O   UNL d   1       1.779  -4.200  -6.305  0.00  0.00    -0.531 OA
ENDBRANCH  11  15
ENDBRANCH   8   9
ENDBRANCH   2   8
BRANCH   1  18
ATOM     18  C   UNL d   1      -0.870  -2.339  -0.759  0.00  0.00     0.173 C 
BRANCH  18  19
ATOM     19  C   UNL d   1      -1.858  -2.285  -1.906  0.00  0.00    -0.040 A 
ATOM     20  C   UNL d   1      -1.574  -1.626  -3.117  0.00  0.00     0.009 A 
ATOM     21  C   UNL d   1      -2.508  -1.598  -4.152  0.00  0.00     0.001 A 
ATOM     22  C   UNL d   1      -3.733  -2.241  -4.003  0.00  0.00     0.000 A 
ATOM     23  C   UNL d   1      -4.021  -2.920  -2.822  0.00  0.00     0.001 A 
ATOM     24  C   UNL d   1      -3.088  -2.947  -1.783  0.00  0.00     0.009 A 
ENDBRANCH  18  19
ENDBRANCH   1  18
BRANCH   3  25
ATOM     25  O   UNL d   1      -1.744   0.515  -0.230  0.00  0.00    -0.331 OA
ATOM     26  H   UNL d   1      -2.357  -0.205  -0.442  0.00  0.00     0.221 HD
ENDBRANCH   3  25
TORSDOF 6
