REMARK  5 active torsions:
REMARK  status: ('A' for Active; 'I' for Inactive)
REMARK    1  A    between atoms: N_4  and  S_1 
REMARK    2  A    between atoms: C_2  and  C_5 
REMARK    3  A    between atoms: S_6  and  C_3 
REMARK    4  A    between atoms: C_5  and  N_4 
REMARK    5  A    between atoms: C_10  and  S_6 
ROOT
ATOM      1  C   UNL d   1       0.340   3.633  -1.896  0.00  0.00    -0.005 A 
ATOM      2  C   UNL d   1      -0.174   2.915  -3.007  0.00  0.00     0.014 A 
ATOM      3  C   UNL d   1       0.339   5.045  -1.976  0.00  0.00     0.043 A 
ATOM      4 CL   UNL d   1       0.940   6.059  -0.705  0.00  0.00    -0.084 Cl
ATOM      5  C   UNL d   1      -0.666   3.608  -4.129  0.00  0.00     0.019 A 
ATOM      6  C   UNL d   1      -0.655   4.998  -4.180  0.00  0.00     0.003 A 
ATOM      7  C   UNL d   1      -0.144   5.714  -3.108  0.00  0.00     0.024 A 
ENDROOT
BRANCH   2   8
ATOM      8  S   UNL d   1      -0.084   1.137  -3.208  0.00  0.00    -0.090 SA
BRANCH   8   9
ATOM      9  C   UNL d   1      -1.417   0.424  -2.271  0.00  0.00     0.005 A 
ATOM     10  C   UNL d   1      -2.444   1.138  -1.652  0.00  0.00     0.020 A 
ATOM     11  C   UNL d   1      -3.453   0.464  -0.949  0.00  0.00     0.025 A 
ATOM     12  C   UNL d   1      -3.443  -0.930  -0.876  0.00  0.00     0.034 A 
ATOM     13  C   UNL d   1      -2.430  -1.656  -1.489  0.00  0.00     0.025 A 
ATOM     14 CL   UNL d   1      -4.690  -1.753  -0.023  0.00  0.00    -0.084 Cl
ATOM     15  C   UNL d   1      -1.424  -0.979  -2.182  0.00  0.00     0.020 A 
ENDBRANCH   8   9
ENDBRANCH   2   8
BRANCH   1  16
ATOM     16  C   UNL d   1       0.806   2.935  -0.630  0.00  0.00     0.145 C 
BRANCH  16  17
ATOM     17  N   UNL d   1       1.790   1.873  -0.865  0.00  0.00    -0.216 NA
ATOM     18  H   UNL d   1       1.483   1.143  -1.514  0.00  0.00     0.139 HD
BRANCH  17  19
ATOM     19  S   UNL d   1       2.513   1.190   0.484  0.00  0.00     0.205 S 
ATOM     20  O   UNL d   1       2.998  -0.103   0.059  0.00  0.00    -0.212 OA
ATOM     21  O   UNL d   1       1.616   1.335   1.607  0.00  0.00    -0.212 OA
ATOM     22  C   UNL d   1       3.914   2.266   0.706  0.00  0.00     0.179 C 
ENDBRANCH  17  19
ENDBRANCH  16  17
ENDBRANCH   1  16
TORSDOF 5
