REMARK  3 active torsions:
REMARK  status: ('A' for Active; 'I' for Inactive)
REMARK    1  A    between atoms: N_4  and  C_1 
REMARK    2  A    between atoms: C_5  and  C_1 
REMARK    3  A    between atoms: C_8  and  N_4 
ROOT
ATOM      1  C   UNL d   1       1.064   0.022   0.055  0.00  0.00     0.144 C 
ATOM      2  N   UNL d   1       0.151  -2.454  -0.267  0.00  0.00    -0.194 NA
ATOM      3  C   UNL d   1       0.544  -1.369  -0.115  0.00  0.00     0.095 C 
ATOM      4  C   UNL d   1       2.597   0.056  -0.132  0.00  0.00     0.061 C 
ENDROOT
BRANCH   1   5
ATOM      5  N   UNL d   1       0.690   0.578   1.379  0.00  0.00    -0.365 N 
ATOM      6  H   UNL d   1      -0.290   0.857   1.404  0.00  0.00     0.161 HD
BRANCH   5   7
ATOM      7  C   UNL d   1       1.076   0.093   2.627  0.00  0.00     0.029 A 
ATOM      8  C   UNL d   1       1.839  -1.057   2.851  0.00  0.00     0.029 A 
ATOM      9  C   UNL d   1       2.243  -1.429   4.139  0.00  0.00     0.002 A 
ATOM     10  C   UNL d   1       1.896  -0.650   5.237  0.00  0.00     0.000 A 
ATOM     11  C   UNL d   1       1.139   0.498   5.044  0.00  0.00     0.002 A 
ATOM     12  C   UNL d   1       0.738   0.863   3.753  0.00  0.00     0.029 A 
ENDBRANCH   5   7
ENDBRANCH   1   5
BRANCH   1  13
ATOM     13  C   UNL d   1       0.512   0.959  -1.053  0.00  0.00    -0.014 A 
ATOM     14  C   UNL d   1       0.315   2.332  -0.828  0.00  0.00     0.027 A 
ATOM     15  C   UNL d   1      -0.076   3.144  -1.883  0.00  0.00     0.088 A 
ATOM     16  N   UNL d   1      -0.275   2.700  -3.140  0.00  0.00    -0.375 N 
ATOM     17  C   UNL d   1      -0.072   1.385  -3.356  0.00  0.00     0.088 A 
ATOM     18  HN  UNL d   1      -0.563   3.327  -3.891  1.00  0.00     0.164 HD
ATOM     19  C   UNL d   1       0.312   0.493  -2.366  0.00  0.00     0.027 A 
ENDBRANCH   1  13
TORSDOF 3
