REMARK  4 active torsions:
REMARK  status: ('A' for Active; 'I' for Inactive)
REMARK    1  A    between atoms: C_2  and  S_1 
REMARK    2  A    between atoms: N_13  and  S_1 
REMARK    3  A    between atoms: C_10  and  C_17 
REMARK    4  A    between atoms: C_17  and  N_13 
ROOT
ATOM      1  S   UNL d   1       0.859  -0.069   0.031  0.00  0.00     0.261 S 
ATOM      2  O   UNL d   1       0.002  -0.818  -0.863  0.00  0.00    -0.200 OA
ATOM      3  O   UNL d   1       2.290  -0.022  -0.171  0.00  0.00    -0.200 OA
ENDROOT
BRANCH   1   4
ATOM      4  C   UNL d   1       0.585  -0.680   1.651  0.00  0.00     0.110 A 
ATOM      5  C   UNL d   1      -0.689  -0.812   2.227  0.00  0.00     0.108 A 
ATOM      6  C   UNL d   1      -0.859  -1.355   3.574  0.00  0.00     0.086 A 
ATOM      7  N   UNL d   1      -1.906  -0.505   1.758  0.00  0.00    -0.238 N 
ATOM      8  N   UNL d   1      -2.164  -1.364   3.866  0.00  0.00    -0.239 N 
ATOM      9  C   UNL d   1       0.225  -1.775   4.369  0.00  0.00     0.034 A 
ATOM     10  O   UNL d   1      -2.805  -0.873   2.744  0.00  0.00    -0.156 OA
ATOM     11  HN  UNL d   1      -2.598  -1.671   4.737  1.00  0.00     0.197 HD
ATOM     12  C   UNL d   1       1.486  -1.652   3.759  0.00  0.00     0.004 A 
ATOM     13  C   UNL d   1       1.661  -1.131   2.451  0.00  0.00     0.028 A 
ATOM     14  HN  UNL d   1      -2.126  -0.085   0.855  1.00  0.00     0.197 HD
ENDBRANCH   1   4
BRANCH   1  15
ATOM     15  N   UNL d   1       0.316   1.512   0.064  0.00  0.00    -0.311 N 
ATOM     16  H   UNL d   1      -0.704   1.592   0.044  0.00  0.00     0.172 HD
BRANCH  15  17
ATOM     17  C   UNL d   1       1.018   2.488   0.899  0.00  0.00     0.173 C 
BRANCH  17  18
ATOM     18  C   UNL d   1       0.375   3.856   0.828  0.00  0.00    -0.003 A 
ATOM     19  C   UNL d   1      -0.948   4.052   1.264  0.00  0.00     0.088 A 
ATOM     20  C   UNL d   1      -1.558   5.310   1.195  0.00  0.00     0.003 A 
ATOM     21  O   UNL d   1      -1.619   2.950   1.729  0.00  0.00    -0.325 OA
ATOM     22  C   UNL d   1      -2.974   5.474   1.655  0.00  0.00     0.212 C 
ATOM     23  C   UNL d   1      -0.824   6.402   0.721  0.00  0.00     0.054 A 
ATOM     24  O   UNL d   1      -3.639   4.217   1.661  0.00  0.00    -0.362 OA
ATOM     25  C   UNL d   1      -2.859   3.261   2.365  0.00  0.00     0.345 C 
ATOM     26  C   UNL d   1       0.486   6.215   0.297  0.00  0.00     0.117 A 
ATOM     27  C   UNL d   1       1.089   4.960   0.341  0.00  0.00     0.054 A 
ATOM     28  F   UNL d   1       1.183   7.265  -0.159  0.00  0.00    -0.206 F 
ENDBRANCH  17  18
ENDBRANCH  15  17
ENDBRANCH   1  15
TORSDOF 4
