REMARK  5 active torsions:
REMARK  status: ('A' for Active; 'I' for Inactive)
REMARK    1  A    between atoms: S_7  and  C_1 
REMARK    2  A    between atoms: C_13  and  N_4 
REMARK    3  A    between atoms: C_16  and  S_7 
REMARK       I    between atoms: N_8  and  C_10 
REMARK    4  A    between atoms: C_12  and  N_8 
REMARK    5  A    between atoms: C_10  and  C_16 
ROOT
ATOM      1  C   UNL d   1       2.257   0.265   0.570  0.00  0.00     0.148 C 
ATOM      2  N   UNL d   1       1.627  -0.883   0.490  0.00  0.00    -0.335 N 
ATOM      3  HN  UNL d   1       2.020  -1.816   0.609  1.00  0.00     0.168 HD
ATOM      4  N   UNL d   1       1.463   1.321   0.184  0.00  0.00    -0.321 N 
ATOM      5  C   UNL d   1       0.327  -0.556   0.212  0.00  0.00     0.062 A 
ATOM      6  C   UNL d   1       0.177   0.821   0.055  0.00  0.00     0.063 A 
ATOM      7  C   UNL d   1      -0.788  -1.401   0.115  0.00  0.00     0.055 A 
ATOM      8  C   UNL d   1      -1.076   1.409  -0.172  0.00  0.00     0.034 A 
ATOM      9  C   UNL d   1      -2.039  -0.825  -0.104  0.00  0.00     0.036 A 
ATOM     10  C   UNL d   1      -2.185   0.554  -0.237  0.00  0.00     0.026 A 
ATOM     11 CL   UNL d   1      -3.427  -1.840  -0.192  0.00  0.00    -0.084 Cl
ENDROOT
BRANCH   1  12
ATOM     12  S   UNL d   1       3.810   0.414   1.321  0.00  0.00    -0.084 SA
BRANCH  12  13
ATOM     13  C   UNL d   1       4.899  -0.528   0.236  0.00  0.00     0.185 C 
BRANCH  13  14
ATOM     14  C   UNL d   1       4.807  -2.050   0.228  0.00  0.00     0.231 C 
ATOM     15  N   UNL d   1       3.686  -2.629   0.776  0.00  0.00    -0.325 N 
ATOM     16  H   UNL d   1       2.857  -2.031   0.768  0.00  0.00     0.169 HD
ATOM     17  O   UNL d   1       5.691  -2.683  -0.356  0.00  0.00    -0.272 OA
BRANCH  15  18
ATOM     18  C   UNL d   1       3.428  -4.021   0.779  0.00  0.00     0.056 A 
ATOM     19  C   UNL d   1       4.341  -5.011   1.176  0.00  0.00     0.060 A 
ATOM     20 CL   UNL d   1       5.867  -4.657   1.909  0.00  0.00    -0.082 Cl
ATOM     21  C   UNL d   1       3.968  -6.363   1.123  0.00  0.00     0.026 A 
ATOM     22  C   UNL d   1       2.695  -6.735   0.702  0.00  0.00     0.002 A 
ATOM     23  C   UNL d   1       1.772  -5.757   0.342  0.00  0.00     0.002 A 
ATOM     24  C   UNL d   1       2.136  -4.408   0.392  0.00  0.00     0.031 A 
ENDBRANCH  15  18
ENDBRANCH  13  14
ENDBRANCH  12  13
ENDBRANCH   1  12
BRANCH   4  25
ATOM     25  C   UNL d   1       1.903   2.684  -0.104  0.00  0.00     0.084 C 
ATOM     26  C   UNL d   1       1.550   3.117  -1.531  0.00  0.00     0.032 C 
ATOM     27  C   UNL d   1       1.410   3.693   0.930  0.00  0.00     0.032 C 
ENDBRANCH   4  25
TORSDOF 5
