REMARK  3 active torsions:
REMARK  status: ('A' for Active; 'I' for Inactive)
REMARK       I    between atoms: C_2  and  N_1 
REMARK    1  A    between atoms: C_6  and  C_2 
REMARK    2  A    between atoms: C_4  and  C_3 
REMARK    3  A    between atoms: O_12  and  C_4 
ROOT
ATOM      1  N   UNL d   1      -1.367  -0.570   0.116  0.00  0.00    -0.324 N 
ATOM      2  C   UNL d   1      -2.439  -1.361   0.495  0.00  0.00     0.255 C 
ATOM      3  C   UNL d   1      -0.132  -1.220  -0.322  0.00  0.00     0.247 C 
ATOM      4  S   UNL d   1       1.189  -0.058   0.125  0.00  0.00    -0.131 SA
ATOM      5  O   UNL d   1      -2.383  -2.585   0.360  0.00  0.00    -0.267 OA
ATOM      6  C   UNL d   1      -1.276   0.892   0.170  0.00  0.00     0.138 C 
ATOM      7  C   UNL d   1       0.137   1.371  -0.149  0.00  0.00     0.096 C 
ENDROOT
BRANCH   2   8
ATOM      8  C   UNL d   1      -3.690  -0.757   1.025  0.00  0.00     0.032 A 
ATOM      9  C   UNL d   1      -4.319   0.304   0.366  0.00  0.00     0.018 A 
ATOM     10  C   UNL d   1      -5.501   0.853   0.874  0.00  0.00     0.025 A 
ATOM     11  C   UNL d   1      -6.090   0.299   2.007  0.00  0.00     0.034 A 
ATOM     12  C   UNL d   1      -5.508  -0.802   2.637  0.00  0.00     0.025 A 
ATOM     13 CL   UNL d   1      -7.558   0.960   2.611  0.00  0.00    -0.084 Cl
ATOM     14  C   UNL d   1      -4.308  -1.330   2.145  0.00  0.00     0.018 A 
ENDBRANCH   2   8
BRANCH   3  15
ATOM     15  C   UNL d   1      -0.205  -1.499  -1.831  0.00  0.00     0.174 C 
ATOM     16  O   UNL d   1       0.544  -1.053  -2.695  0.00  0.00    -0.648 OA
BRANCH  15  17
ATOM     17  O   UNL d   1      -1.235  -2.327  -2.177  0.00  0.00    -0.774 OA
ATOM     18  H   UNL d   1      -1.736  -2.652  -1.381  0.00  0.00     0.167 HD
ENDBRANCH  15  17
ENDBRANCH   3  15
TORSDOF 3
