REMARK  4 active torsions:
REMARK  status: ('A' for Active; 'I' for Inactive)
REMARK    1  A    between atoms: C_2  and  N_1 
REMARK    2  A    between atoms: C_6  and  C_16 
REMARK    3  A    between atoms: N_11  and  C_8 
REMARK    4  A    between atoms: C_16  and  N_11 
ROOT
ATOM      1  C   UNL d   1       0.244  -1.044   0.875  0.00  0.00     0.118 A 
ATOM      2  N   UNL d   1      -0.530  -2.477   2.652  0.00  0.00    -0.354 N 
ATOM      3  HN  UNL d   1      -0.633  -2.664   3.649  1.00  0.00     0.166 HD
ATOM      4  C   UNL d   1      -0.970  -3.363   1.733  0.00  0.00     0.080 A 
ATOM      5  C   UNL d   1       0.053  -1.331   2.215  0.00  0.00     0.125 A 
ATOM      6  C   UNL d   1      -0.197  -1.959  -0.076  0.00  0.00     0.041 A 
ATOM      7  C   UNL d   1      -0.821  -3.127   0.365  0.00  0.00     0.044 A 
ENDROOT
BRANCH   4   8
ATOM      8  N   UNL d   1      -1.576  -4.562   2.128  0.00  0.00    -0.274 NA
ATOM      9  H   UNL d   1      -2.521  -4.602   1.759  0.00  0.00     0.129 HD
BRANCH   8  10
ATOM     10  C   UNL d   1      -1.557  -4.821   3.566  0.00  0.00     0.140 C 
BRANCH  10  11
ATOM     11  C   UNL d   1      -2.376  -6.029   3.937  0.00  0.00    -0.004 A 
ATOM     12  S   UNL d   1      -3.919  -5.835   4.659  0.00  0.00    -0.105 SA
ATOM     13  C   UNL d   1      -4.156  -7.524   4.757  0.00  0.00     0.050 A 
ATOM     14  C   UNL d   1      -3.092  -8.227   4.240  0.00  0.00     0.008 A 
ATOM     15  C   UNL d   1      -2.064  -7.363   3.763  0.00  0.00     0.016 A 
ENDBRANCH  10  11
ENDBRANCH   8  10
ENDBRANCH   4   8
BRANCH   1  16
ATOM     16  N   UNL d   1       0.900   0.195   0.484  0.00  0.00    -0.114 N 
ATOM     17  O   UNL d   1       1.199   0.997   1.377  0.00  0.00    -0.532 OA
ATOM     18  O   UNL d   1       1.123   0.369  -0.724  0.00  0.00    -0.532 OA
ENDBRANCH   1  16
TORSDOF 4
