REMARK  6 active torsions:
REMARK  status: ('A' for Active; 'I' for Inactive)
REMARK    1  A    between atoms: N_15  and  C_2 
REMARK    2  A    between atoms: C_7  and  C_5 
REMARK    3  A    between atoms: C_6  and  N_10 
REMARK    4  A    between atoms: C_8  and  C_7 
REMARK       I    between atoms: N_10  and  C_8 
REMARK    5  A    between atoms: O_20  and  C_12 
REMARK    6  A    between atoms: O_21  and  C_14 
ROOT
ATOM      1  C   UNL d   1      -2.862  -0.651  -1.795  0.00  0.00     0.223 C 
ATOM      2  N   UNL d   1      -3.229  -1.228  -0.594  0.00  0.00    -0.325 N 
ATOM      3  O   UNL d   1      -2.084   0.292  -1.937  0.00  0.00    -0.273 OA
ATOM      4  H   UNL d   1      -3.651  -2.153  -0.621  0.00  0.00     0.169 HD
ENDROOT
BRANCH   1   5
ATOM      5  C   UNL d   1      -3.519  -1.260  -3.012  0.00  0.00     0.128 C 
BRANCH   5   6
ATOM      6  C   UNL d   1      -2.812  -2.474  -3.585  0.00  0.00     0.156 C 
ATOM      7  C   UNL d   1      -2.795  -3.660  -2.643  0.00  0.00     0.238 C 
ATOM      8  N   UNL d   1      -1.702  -4.449  -2.863  0.00  0.00    -0.307 N 
ATOM      9  O   UNL d   1      -3.651  -3.892  -1.802  0.00  0.00    -0.272 OA
ATOM     10  C   UNL d   1      -0.701  -3.902  -3.584  0.00  0.00     0.141 C 
ATOM     11  H   UNL d   1      -1.589  -5.305  -2.343  0.00  0.00     0.171 HD
ATOM     12  S   UNL d   1      -1.077  -2.294  -4.102  0.00  0.00    -0.079 SA
BRANCH  10  13
ATOM     13  N   UNL d   1       0.397  -4.498  -3.847  0.00  0.00    -0.380 N 
ATOM     14  H   UNL d   1       0.407  -5.441  -3.458  0.00  0.00     0.158 HD
ATOM     15  HN  UNL d   1       1.164  -4.085  -4.378  1.00  0.00     0.158 HD
ENDBRANCH  10  13
ENDBRANCH   5   6
ENDBRANCH   1   5
BRANCH   2  16
ATOM     16  C   UNL d   1      -2.897  -0.738   0.697  0.00  0.00     0.070 A 
ATOM     17  C   UNL d   1      -2.338   0.528   0.896  0.00  0.00     0.059 A 
ATOM     18  C   UNL d   1      -1.908   0.959   2.162  0.00  0.00     0.069 A 
ATOM     19 CL   UNL d   1      -1.292   2.575   2.215  0.00  0.00    -0.081 Cl
ATOM     20  C   UNL d   1      -2.032   0.111   3.267  0.00  0.00     0.092 A 
ATOM     21  C   UNL d   1      -2.675  -1.127   3.084  0.00  0.00     0.077 A 
ATOM     22  C   UNL d   1      -3.130  -1.537   1.824  0.00  0.00     0.097 A 
BRANCH  20  23
ATOM     23  O   UNL d   1      -1.648   0.323   4.563  0.00  0.00    -0.354 OA
ATOM     24  C   UNL d   1      -0.569   1.214   4.820  0.00  0.00     0.210 C 
ENDBRANCH  20  23
BRANCH  22  25
ATOM     25  O   UNL d   1      -3.688  -2.788   1.745  0.00  0.00    -0.354 OA
ATOM     26  C   UNL d   1      -5.081  -2.764   1.421  0.00  0.00     0.210 C 
ENDBRANCH  22  25
ENDBRANCH   2  16
TORSDOF 6
