REMARK  4 active torsions:
REMARK  status: ('A' for Active; 'I' for Inactive)
REMARK    1  A    between atoms: C_12  and  N_1 
REMARK    2  A    between atoms: C_7  and  C_5 
REMARK       I    between atoms: C_9  and  N_11 
REMARK    3  A    between atoms: C_10  and  C_9 
REMARK    4  A    between atoms: N_11  and  C_27 
ROOT
ATOM      1  N   UNL d   1       0.873  -0.621   0.132  0.00  0.00    -0.255 N 
ATOM      2  C   UNL d   1      -0.443  -1.050   0.009  0.00  0.00     0.076 C 
ATOM      3  N   UNL d   1       0.936   0.714   0.390  0.00  0.00    -0.289 N 
ATOM      4  HN  UNL d   1       1.750   1.251   0.689  1.00  0.00     0.187 HD
ATOM      5  C   UNL d   1      -0.312   1.170   0.165  0.00  0.00     0.135 C 
ATOM      6  C   UNL d   1      -1.196   0.099  -0.121  0.00  0.00     0.069 C 
ATOM      7  C   UNL d   1      -0.896  -2.409   0.143  0.00  0.00     0.033 A 
ATOM      8  S   UNL d   1      -2.210  -3.025  -0.764  0.00  0.00    -0.100 SA
ATOM      9  C   UNL d   1      -0.408  -3.360   1.023  0.00  0.00     0.021 A 
ATOM     10  C   UNL d   1      -2.121  -4.546   0.011  0.00  0.00     0.050 A 
ATOM     11  C   UNL d   1      -1.107  -4.596   0.940  0.00  0.00     0.008 A 
ENDROOT
BRANCH   1  12
ATOM     12  C   UNL d   1       2.065  -1.389   0.028  0.00  0.00     0.057 A 
ATOM     13  C   UNL d   1       2.128  -2.497  -0.826  0.00  0.00     0.034 A 
ATOM     14  C   UNL d   1       3.290  -3.271  -0.886  0.00  0.00     0.032 A 
ATOM     15  C   UNL d   1       4.403  -2.951  -0.100  0.00  0.00     0.035 A 
ATOM     16  C   UNL d   1       4.334  -1.836   0.741  0.00  0.00     0.032 A 
ATOM     17  C   UNL d   1       3.182  -1.041   0.789  0.00  0.00     0.034 A 
BRANCH  15  18
ATOM     18  N   UNL d   1       5.546  -3.763  -0.247  0.00  0.00    -0.323 N 
ATOM     19  C   UNL d   1       6.768  -3.630   0.383  0.00  0.00     0.263 C 
ATOM     20  O   UNL d   1       6.992  -2.842   1.298  0.00  0.00    -0.267 OA
ATOM     21  H   UNL d   1       5.492  -4.502  -0.938  0.00  0.00     0.169 HD
BRANCH  19  22
ATOM     22  C   UNL d   1       7.831  -4.493  -0.127  0.00  0.00     0.072 A 
ATOM     23  S   UNL d   1       7.580  -5.649  -1.370  0.00  0.00    -0.097 SA
ATOM     24  C   UNL d   1       9.232  -6.088  -1.390  0.00  0.00     0.050 A 
ATOM     25  C   UNL d   1       9.964  -5.393  -0.455  0.00  0.00     0.009 A 
ATOM     26  C   UNL d   1       9.153  -4.486   0.283  0.00  0.00     0.025 A 
ENDBRANCH  19  22
ENDBRANCH  15  18
ENDBRANCH   1  12
BRANCH   5  27
ATOM     27  C   UNL d   1      -0.707   2.619   0.279  0.00  0.00     0.434 C 
ATOM     28  F   UNL d   1       0.302   3.438   0.670  0.00  0.00    -0.165 F 
ATOM     29  F   UNL d   1      -1.173   3.104  -0.904  0.00  0.00    -0.165 F 
ATOM     30  F   UNL d   1      -1.716   2.785   1.180  0.00  0.00    -0.165 F 
ENDBRANCH   5  27
TORSDOF 4
