REMARK  4 active torsions:
REMARK  status: ('A' for Active; 'I' for Inactive)
REMARK    1  A    between atoms: C_24  and  C_3 
REMARK    2  A    between atoms: C_5  and  C_15 
REMARK    3  A    between atoms: N_11  and  O_22 
REMARK    4  A    between atoms: O_22  and  C_24 
ROOT
ATOM      1  O   UNL d   1       1.566   3.889   0.232  0.00  0.00    -0.276 OA
ENDROOT
BRANCH   1   2
ATOM      2  N   UNL d   1       1.301   5.266   0.315  0.00  0.00    -0.277 N 
ATOM      3  C   UNL d   1       2.344   5.859   0.807  0.00  0.00     0.127 C 
ATOM      4  HN  UNL d   1       0.433   5.722   0.035  1.00  0.00     0.193 HD
BRANCH   3   5
ATOM      5  C   UNL d   1       2.358   7.316   1.055  0.00  0.00     0.003 A 
ATOM      6  C   UNL d   1       3.428   7.943   1.708  0.00  0.00     0.047 A 
ATOM      7  C   UNL d   1       3.380   9.317   1.970  0.00  0.00     0.048 A 
ATOM      8 CL   UNL d   1       4.838   7.092   2.232  0.00  0.00    -0.083 Cl
ATOM      9  C   UNL d   1       2.270  10.061   1.575  0.00  0.00     0.035 A 
ATOM     10  C   UNL d   1       1.209   9.451   0.911  0.00  0.00     0.025 A 
ATOM     11 CL   UNL d   1       2.207  11.746   1.915  0.00  0.00    -0.084 Cl
ATOM     12  C   UNL d   1       1.252   8.080   0.652  0.00  0.00     0.016 A 
ENDBRANCH   3   5
ENDBRANCH   1   2
BRANCH   1  13
ATOM     13  C   UNL d   1       0.322   3.183   0.137  0.00  0.00     0.242 C 
BRANCH  13  14
ATOM     14  C   UNL d   1       0.571   1.694   0.070  0.00  0.00     0.005 A 
ATOM     15  C   UNL d   1      -0.344   0.779   0.617  0.00  0.00     0.088 A 
ATOM     16  C   UNL d   1      -0.104  -0.602   0.562  0.00  0.00     0.003 A 
ATOM     17  O   UNL d   1      -1.468   1.282   1.221  0.00  0.00    -0.325 OA
ATOM     18  C   UNL d   1       1.034  -1.077  -0.098  0.00  0.00     0.054 A 
ATOM     19  C   UNL d   1      -1.080  -1.556   1.179  0.00  0.00     0.212 C 
ATOM     20  C   UNL d   1       1.919  -0.177  -0.676  0.00  0.00     0.117 A 
ATOM     21  C   UNL d   1       1.699   1.193  -0.601  0.00  0.00     0.054 A 
ATOM     22  F   UNL d   1       3.002  -0.637  -1.315  0.00  0.00    -0.206 F 
ATOM     23  O   UNL d   1      -1.917  -0.885   2.112  0.00  0.00    -0.362 OA
ATOM     24  C   UNL d   1      -2.450   0.289   1.515  0.00  0.00     0.345 C 
ENDBRANCH  13  14
ENDBRANCH   1  13
TORSDOF 4
