REMARK  1 active torsions:
REMARK  status: ('A' for Active; 'I' for Inactive)
REMARK    1  A    between atoms: S_2  and  C_1 
ROOT
ATOM      1  C   UNL d   1       2.588   1.455  -0.036  0.00  0.00     0.135 A 
ATOM      2  C   UNL d   1       3.055   0.067   0.074  0.00  0.00     0.310 A 
ATOM      3  C   UNL d   1       1.281   1.769  -0.033  0.00  0.00     0.044 A 
ATOM      4  O   UNL d   1       2.072  -0.923   0.016  0.00  0.00    -0.274 OA
ATOM      5  C   UNL d   1       0.278   0.718   0.007  0.00  0.00     0.001 A 
ATOM      6  C   UNL d   1       0.700  -0.609   0.003  0.00  0.00     0.089 A 
ATOM      7  O   UNL d   1       4.228  -0.233   0.261  0.00  0.00    -0.258 OA
ATOM      8  C   UNL d   1      -1.090   0.995   0.017  0.00  0.00     0.038 A 
ATOM      9  C   UNL d   1      -0.207  -1.666   0.000  0.00  0.00     0.040 A 
ATOM     10  C   UNL d   1      -2.008  -0.059   0.015  0.00  0.00     0.035 A 
ATOM     11  C   UNL d   1      -1.573  -1.386   0.005  0.00  0.00     0.026 A 
ATOM     12 CL   UNL d   1      -3.695   0.284   0.019  0.00  0.00    -0.084 Cl
ENDROOT
BRANCH   1  13
ATOM     13  S   UNL d   1       3.749   2.734  -0.150  0.00  0.00     0.177 S 
ATOM     14  O   UNL d   1       4.938   2.298  -0.859  0.00  0.00    -0.223 OA
ATOM     15  O   UNL d   1       3.082   3.948  -0.589  0.00  0.00    -0.223 OA
ATOM     16  C   UNL d   1       4.194   3.004   1.547  0.00  0.00     0.167 C 
ENDBRANCH   1  13
TORSDOF 1
