REMARK  2 active torsions:
REMARK  status: ('A' for Active; 'I' for Inactive)
REMARK    1  A    between atoms: C_4  and  C_1 
REMARK    2  A    between atoms: O_9  and  C_4 
ROOT
ATOM      1  C   UNL d   1      -2.152  -0.082   0.001  0.00  0.00     0.079 A 
ATOM      2  S   UNL d   1      -0.767  -1.098   0.011  0.00  0.00    -0.071 SA
ATOM      3  C   UNL d   1       0.278   0.231   0.011  0.00  0.00     0.075 A 
ATOM      4  C   UNL d   1      -1.786   1.255  -0.004  0.00  0.00     0.028 A 
ATOM      5  C   UNL d   1      -0.371   1.438   0.003  0.00  0.00     0.033 A 
ATOM      6 CL   UNL d   1       1.976  -0.022   0.023  0.00  0.00    -0.076 Cl
ENDROOT
BRANCH   1   7
ATOM      7  C   UNL d   1      -3.503  -0.613  -0.001  0.00  0.00     0.183 C 
ATOM      8  O   UNL d   1      -4.523   0.062  -0.007  0.00  0.00    -0.646 OA
BRANCH   7   9
ATOM      9  O   UNL d   1      -3.548  -1.971   0.004  0.00  0.00    -0.772 OA
ATOM     10  H   UNL d   1      -2.655  -2.365   0.009  0.00  0.00     0.167 HD
ENDBRANCH   7   9
ENDBRANCH   1   7
TORSDOF 2
