REMARK  4 active torsions:
REMARK  status: ('A' for Active; 'I' for Inactive)
REMARK    1  A    between atoms: C_6  and  C_1 
REMARK    2  A    between atoms: C_3  and  C_2 
REMARK       I    between atoms: N_8  and  C_3 
REMARK    3  A    between atoms: N_12  and  N_8 
REMARK    4  A    between atoms: C_11  and  N_12 
ROOT
ATOM      1  C   UNL d   1      -2.673  -5.324   1.587  0.00  0.00     0.111 A 
ATOM      2  C   UNL d   1      -1.898  -5.809   0.500  0.00  0.00     0.074 A 
ATOM      3  C   UNL d   1      -2.656  -3.964   2.022  0.00  0.00     0.105 C 
ATOM      4  N   UNL d   1      -2.684  -2.838   2.306  0.00  0.00    -0.191 NA
ATOM      5  C   UNL d   1      -3.540  -6.164   2.294  0.00  0.00     0.139 A 
ATOM      6  F   UNL d   1      -4.250  -5.685   3.331  0.00  0.00    -0.204 F 
ATOM      7  C   UNL d   1      -2.137  -7.167   0.154  0.00  0.00     0.033 A 
ATOM      8  C   UNL d   1      -3.027  -7.995   0.861  0.00  0.00     0.005 A 
ATOM      9  C   UNL d   1      -3.718  -7.495   1.952  0.00  0.00     0.044 A 
ENDROOT
BRANCH   2  10
ATOM     10  N   UNL d   1      -0.983  -5.038  -0.246  0.00  0.00    -0.292 N 
ATOM     11  C   UNL d   1       0.123  -5.611  -1.025  0.00  0.00     0.178 C 
BRANCH  10  12
ATOM     12  N   UNL d   1      -1.003  -3.627  -0.100  0.00  0.00    -0.263 N 
ATOM     13  C   UNL d   1       0.119  -2.867   0.224  0.00  0.00     0.275 C 
ATOM     14  O   UNL d   1       1.207  -3.367   0.488  0.00  0.00    -0.266 OA
ATOM     15  H   UNL d   1      -1.879  -3.182  -0.338  0.00  0.00     0.190 HD
BRANCH  13  16
ATOM     16  C   UNL d   1      -0.073  -1.406   0.226  0.00  0.00     0.094 A 
ATOM     17  C   UNL d   1      -1.032  -0.494  -0.391  0.00  0.00     0.086 A 
ATOM     18  N   UNL d   1      -0.657   0.771  -0.136  0.00  0.00    -0.259 N 
ATOM     19  O   UNL d   1       0.390   0.731   0.726  0.00  0.00    -0.241 OA
ATOM     20  HN  UNL d   1      -1.085   1.613  -0.521  1.00  0.00     0.195 HD
ATOM     21  C   UNL d   1       0.768  -0.548   0.932  0.00  0.00     0.090 A 
ATOM     22  C   UNL d   1       1.937  -0.660   1.834  0.00  0.00     0.080 C 
BRANCH  17  23
ATOM     23  C   UNL d   1      -2.261  -0.663  -1.210  0.00  0.00     0.037 A 
ATOM     24  C   UNL d   1      -3.403   0.161  -0.992  0.00  0.00     0.048 A 
ATOM     25 CL   UNL d   1      -3.489   1.444   0.180  0.00  0.00    -0.083 Cl
ATOM     26  C   UNL d   1      -4.586   0.003  -1.736  0.00  0.00     0.025 A 
ATOM     27  C   UNL d   1      -4.690  -0.996  -2.690  0.00  0.00     0.003 A 
ATOM     28  C   UNL d   1      -3.579  -1.783  -2.961  0.00  0.00     0.025 A 
ATOM     29  C   UNL d   1      -2.365  -1.581  -2.275  0.00  0.00     0.048 A 
ATOM     30 CL   UNL d   1      -1.013  -2.448  -2.917  0.00  0.00    -0.083 Cl
ENDBRANCH  17  23
ENDBRANCH  13  16
ENDBRANCH  10  12
ENDBRANCH   2  10
TORSDOF 4
