REMARK  4 active torsions:
REMARK  status: ('A' for Active; 'I' for Inactive)
REMARK       I    between atoms: C_4  and  N_1 
REMARK       I    between atoms: N_2  and  C_3 
REMARK    1  A    between atoms: C_3  and  C_7 
REMARK    2  A    between atoms: C_8  and  C_4 
REMARK    3  A    between atoms: C_7  and  C_13 
REMARK    4  A    between atoms: C_13  and  C_8 
ROOT
ATOM      1  C   UNL d   1      -4.700   0.997   1.122  0.00  0.00     0.018 C 
ENDROOT
BRANCH   1   2
ATOM      2  C   UNL d   1      -6.004   0.207   1.280  0.00  0.00     0.103 C 
BRANCH   2   3
ATOM      3  C   UNL d   1      -7.135   1.135   1.706  0.00  0.00     0.219 C 
ATOM      4  N   UNL d   1      -8.394   0.591   1.826  0.00  0.00    -0.352 N 
ATOM      5  C   UNL d   1      -8.812  -0.783   1.638  0.00  0.00     0.126 C 
ATOM      6  C   UNL d   1      -9.534   1.443   2.126  0.00  0.00     0.126 C 
ATOM      7  C   UNL d   1     -10.241  -0.638   1.141  0.00  0.00     0.021 C 
ATOM      8  C   UNL d   1     -10.762   0.564   1.923  0.00  0.00     0.021 C 
ATOM      9  O   UNL d   1      -6.947   2.333   1.920  0.00  0.00    -0.273 OA
ENDBRANCH   2   3
ENDBRANCH   1   2
BRANCH   1  10
ATOM     10  C   UNL d   1      -3.493   0.153   0.702  0.00  0.00     0.103 C 
BRANCH  10  11
ATOM     11  C   UNL d   1      -2.239   1.019   0.629  0.00  0.00     0.219 C 
ATOM     12  N   UNL d   1      -1.050   0.385   0.349  0.00  0.00    -0.352 N 
ATOM     13  C   UNL d   1      -0.826  -1.010   0.022  0.00  0.00     0.126 C 
ATOM     14  C   UNL d   1       0.201   1.123   0.376  0.00  0.00     0.126 C 
ATOM     15  C   UNL d   1       0.604  -1.245   0.480  0.00  0.00     0.021 C 
ATOM     16  C   UNL d   1       1.294   0.079   0.169  0.00  0.00     0.021 C 
ATOM     17  O   UNL d   1      -2.272   2.231   0.833  0.00  0.00    -0.273 OA
ENDBRANCH  10  11
ENDBRANCH   1  10
TORSDOF 4
