REMARK  4 active torsions:
REMARK  status: ('A' for Active; 'I' for Inactive)
REMARK    1  A    between atoms: C_4  and  C_3 
REMARK    2  A    between atoms: C_15  and  C_5 
REMARK    3  A    between atoms: C_16  and  C_10 
REMARK    4  A    between atoms: C_12  and  C_14 
ROOT
ATOM      1  N   UNL d   1       1.372  -0.620  -0.162  0.00  0.00    -0.347 N 
ATOM      2  HN  UNL d   1       2.230  -1.136  -0.358  1.00  0.00     0.167 HD
ATOM      3  C   UNL d   1       1.286   0.755  -0.030  0.00  0.00     0.076 A 
ATOM      4  C   UNL d   1       0.181  -1.165   0.001  0.00  0.00     0.084 A 
ATOM      5  S   UNL d   1      -1.106  -0.032   0.217  0.00  0.00    -0.081 SA
ATOM      6  C   UNL d   1       0.018   1.253   0.179  0.00  0.00     0.084 A 
ENDROOT
BRANCH   3   7
ATOM      7  C   UNL d   1       2.477   1.637  -0.113  0.00  0.00     0.128 A 
ATOM      8  C   UNL d   1       3.769   1.248  -0.372  0.00  0.00     0.074 A 
ATOM      9  C   UNL d   1       4.522   2.452  -0.394  0.00  0.00     0.068 A 
ATOM     10  N   UNL d   1       3.724   3.499  -0.125  0.00  0.00    -0.260 N 
ATOM     11  O   UNL d   1       2.456   2.988   0.049  0.00  0.00    -0.235 OA
ATOM     12  HN  UNL d   1       4.002   4.479  -0.061  1.00  0.00     0.195 HD
BRANCH   9  13
ATOM     13  C   UNL d   1       5.943   2.628  -0.691  0.00  0.00    -0.007 A 
ATOM     14  C   UNL d   1       6.410   3.846  -1.208  0.00  0.00     0.014 A 
ATOM     15  C   UNL d   1       7.758   4.015  -1.532  0.00  0.00     0.001 A 
ATOM     16  C   UNL d   1       8.656   2.970  -1.335  0.00  0.00     0.000 A 
ATOM     17  C   UNL d   1       8.210   1.758  -0.811  0.00  0.00     0.001 A 
ATOM     18  C   UNL d   1       6.860   1.586  -0.491  0.00  0.00     0.014 A 
ENDBRANCH   9  13
ENDBRANCH   3   7
BRANCH   4  19
ATOM     19  C   UNL d   1      -0.080  -2.616  -0.012  0.00  0.00    -0.002 A 
ATOM     20  C   UNL d   1      -1.127  -3.196   0.722  0.00  0.00     0.015 A 
ATOM     21  C   UNL d   1      -1.334  -4.580   0.712  0.00  0.00     0.017 A 
ATOM     22  C   UNL d   1      -0.497  -5.421  -0.031  0.00  0.00     0.048 A 
ATOM     23  C   UNL d   1       0.552  -4.851  -0.763  0.00  0.00     0.017 A 
ATOM     24  C   UNL d   1       0.761  -3.466  -0.750  0.00  0.00     0.015 A 
BRANCH  22  25
ATOM     25  C   UNL d   1      -0.710  -6.916  -0.044  0.00  0.00     0.417 C 
ATOM     26  F   UNL d   1      -1.764  -7.322   0.717  0.00  0.00    -0.166 F 
ATOM     27  F   UNL d   1      -0.947  -7.399  -1.295  0.00  0.00    -0.166 F 
ATOM     28  F   UNL d   1       0.371  -7.601   0.423  0.00  0.00    -0.166 F 
ENDBRANCH  22  25
ENDBRANCH   4  19
TORSDOF 4
