REMARK  3 active torsions:
REMARK  status: ('A' for Active; 'I' for Inactive)
REMARK    1  A    between atoms: C_2  and  C_1 
REMARK       I    between atoms: N_8  and  C_2 
REMARK    2  A    between atoms: S_7  and  C_3 
REMARK    3  A    between atoms: C_11  and  S_7 
ROOT
ATOM      1  C   UNL d   1       0.819   1.368  -0.037  0.00  0.00     0.065 A 
ATOM      2  C   UNL d   1      -0.578   1.364  -0.015  0.00  0.00     0.085 A 
ATOM      3  N   UNL d   1      -1.295   0.206  -0.025  0.00  0.00    -0.360 N 
ATOM      4  HN  UNL d   1      -2.315   0.224  -0.001  1.00  0.00     0.166 HD
ATOM      5  C   UNL d   1       1.479   0.130  -0.099  0.00  0.00     0.021 A 
ATOM      6  C   UNL d   1      -0.625  -0.965  -0.068  0.00  0.00     0.089 A 
ATOM      7  C   UNL d   1       0.751  -1.054  -0.108  0.00  0.00     0.018 A 
ENDROOT
BRANCH   1   8
ATOM      8  C   UNL d   1       1.688   2.569   0.001  0.00  0.00     0.252 C 
ATOM      9  O   UNL d   1       2.785   2.569  -0.549  0.00  0.00    -0.268 OA
ATOM     10  N   UNL d   1       1.266   3.661   0.698  0.00  0.00    -0.366 N 
ATOM     11  H   UNL d   1       0.355   3.721   1.139  0.00  0.00     0.159 HD
ATOM     12  H   UNL d   1       1.865   4.475   0.713  0.00  0.00     0.159 HD
ENDBRANCH   1   8
BRANCH   2  13
ATOM     13  S   UNL d   1      -1.634   2.802   0.044  0.00  0.00    -0.112 SA
BRANCH  13  14
ATOM     14  C   UNL d   1      -1.315   3.551  -1.589  0.00  0.00     0.076 C 
ATOM     15  C   UNL d   1      -1.635   2.634  -2.756  0.00  0.00     0.016 C 
ENDBRANCH  13  14
ENDBRANCH   2  13
TORSDOF 3
