REMARK  5 active torsions:
REMARK  status: ('A' for Active; 'I' for Inactive)
REMARK    1  A    between atoms: C_6  and  C_1 
REMARK    2  A    between atoms: C_8  and  C_7 
REMARK    3  A    between atoms: C_9  and  O_13 
REMARK    4  A    between atoms: O_20  and  C_11 
REMARK    5  A    between atoms: O_13  and  C_12 
ROOT
ATOM      1  C   UNL d   1       1.101  -1.087  -0.496  0.00  0.00     0.120 A 
ATOM      2  N   UNL d   1       1.599   0.032   0.053  0.00  0.00    -0.322 N 
ATOM      3  HN  UNL d   1       2.379   0.015   0.709  1.00  0.00     0.169 HD
ATOM      4  N   UNL d   1       0.079  -1.103  -1.373  0.00  0.00    -0.338 N 
ATOM      5  HN  UNL d   1      -0.261  -1.981  -1.766  1.00  0.00     0.167 HD
ATOM      6  C   UNL d   1      -0.489   0.081  -1.720  0.00  0.00     0.122 A 
ATOM      7  C   UNL d   1      -0.037   1.275  -1.197  0.00  0.00     0.090 A 
ATOM      8  C   UNL d   1       1.005   1.167  -0.318  0.00  0.00     0.143 A 
ENDROOT
BRANCH   1   9
ATOM      9  C   UNL d   1       1.691  -2.390  -0.120  0.00  0.00     0.042 A 
ATOM     10  C   UNL d   1       2.492  -2.608   1.024  0.00  0.00     0.092 A 
ATOM     11  C   UNL d   1       3.074  -3.863   1.268  0.00  0.00     0.038 A 
ATOM     12  C   UNL d   1       2.847  -4.933   0.403  0.00  0.00     0.003 A 
ATOM     13  C   UNL d   1       2.042  -4.756  -0.712  0.00  0.00     0.001 A 
ATOM     14  C   UNL d   1       1.472  -3.506  -0.963  0.00  0.00     0.018 A 
BRANCH  10  15
ATOM     15  O   UNL d   1       2.884  -1.612   1.878  0.00  0.00    -0.254 OA
BRANCH  15  16
ATOM     16  C   UNL d   1       1.869  -1.140   2.758  0.00  0.00     0.530 C 
ATOM     17  F   UNL d   1       0.613  -1.428   2.356  0.00  0.00    -0.144 F 
ATOM     18  F   UNL d   1       2.057  -1.677   3.985  0.00  0.00    -0.144 F 
ATOM     19  F   UNL d   1       1.988   0.206   2.877  0.00  0.00    -0.144 F 
ENDBRANCH  15  16
ENDBRANCH  10  15
ENDBRANCH   1   9
BRANCH   8  20
ATOM     20  O   UNL d   1       1.512   2.280   0.270  0.00  0.00    -0.346 OA
ATOM     21  H   UNL d   1       2.185   1.890   0.858  0.00  0.00     0.219 HD
ENDBRANCH   8  20
BRANCH   6  22
ATOM     22  C   UNL d   1      -1.635   0.090  -2.712  0.00  0.00     0.432 C 
ATOM     23  F   UNL d   1      -2.032  -1.146  -3.116  0.00  0.00    -0.165 F 
ATOM     24  F   UNL d   1      -2.753   0.697  -2.214  0.00  0.00    -0.165 F 
ATOM     25  F   UNL d   1      -1.326   0.772  -3.854  0.00  0.00    -0.165 F 
ENDBRANCH   6  22
TORSDOF 5
