REMARK  2 active torsions:
REMARK  status: ('A' for Active; 'I' for Inactive)
REMARK    1  A    between atoms: C_4  and  C_1 
REMARK    2  A    between atoms: C_5  and  C_4 
ROOT
ATOM      1  C   UNL d   1      -3.759  -0.067  -0.140  0.00  0.00     0.215 C 
ATOM      2  O   UNL d   1      -4.545  -0.934   0.239  0.00  0.00    -0.284 OA
ENDROOT
BRANCH   1   3
ATOM      3  C   UNL d   1      -2.321  -0.202  -0.059  0.00  0.00     0.127 A 
ATOM      4  O   UNL d   1      -1.545   0.927  -0.043  0.00  0.00    -0.306 OA
ATOM      5  C   UNL d   1      -0.247   0.531  -0.003  0.00  0.00     0.086 A 
ATOM      6  C   UNL d   1       0.853   1.384  -0.003  0.00  0.00     0.038 A 
ATOM      7  C   UNL d   1      -0.167  -0.855   0.025  0.00  0.00     0.001 A 
ATOM      8  C   UNL d   1       2.110   0.775   0.011  0.00  0.00     0.003 A 
ATOM      9  C   UNL d   1       2.237  -0.617   0.028  0.00  0.00     0.001 A 
ATOM     10  C   UNL d   1       1.107  -1.449   0.040  0.00  0.00     0.014 A 
ATOM     11  C   UNL d   1      -1.510  -1.319   0.025  0.00  0.00     0.055 A 
ENDBRANCH   1   3
BRANCH   1  12
ATOM     12  C   UNL d   1      -4.326   1.177  -0.739  0.00  0.00     0.020 A 
ATOM     13  C   UNL d   1      -3.691   1.815  -1.815  0.00  0.00     0.061 A 
ATOM     14  C   UNL d   1      -4.237   2.978  -2.344  0.00  0.00     0.155 A 
ATOM     15  F   UNL d   1      -3.614   3.588  -3.362  0.00  0.00    -0.203 F 
ATOM     16  C   UNL d   1      -5.416   3.501  -1.829  0.00  0.00     0.154 A 
ATOM     17  C   UNL d   1      -6.072   2.862  -0.781  0.00  0.00     0.046 A 
ATOM     18  F   UNL d   1      -5.934   4.626  -2.342  0.00  0.00    -0.203 F 
ATOM     19  C   UNL d   1      -5.531   1.693  -0.237  0.00  0.00     0.019 A 
ENDBRANCH   1  12
TORSDOF 2
