REMARK  6 active torsions:
REMARK  status: ('A' for Active; 'I' for Inactive)
REMARK    1  A    between atoms: C_2  and  S_1 
REMARK    2  A    between atoms: N_5  and  S_1 
REMARK    3  A    between atoms: C_12  and  C_4 
REMARK    4  A    between atoms: C_7  and  C_10 
REMARK    5  A    between atoms: C_11  and  N_9 
REMARK    6  A    between atoms: O_29  and  C_12 
ROOT
ATOM      1  N   UNL d   1       0.486   0.936   1.133  0.00  0.00    -0.202 NA
ATOM      2  N   UNL d   1       1.427   3.652   0.814  0.00  0.00    -0.365 N 
ATOM      3  C   UNL d   1      -0.398   2.023   0.587  0.00  0.00     0.127 C 
ATOM      4  C   UNL d   1       1.514   1.536   2.057  0.00  0.00     0.127 C 
ATOM      5  C   UNL d   1       0.388   3.156  -0.093  0.00  0.00     0.140 C 
ATOM      6  C   UNL d   1       2.337   2.654   1.376  0.00  0.00     0.140 C 
ENDROOT
BRANCH   1   7
ATOM      7  S   UNL d   1       1.150  -0.157   0.019  0.00  0.00     0.259 S 
ATOM      8  O   UNL d   1       1.992   0.568  -0.906  0.00  0.00    -0.204 OA
ATOM      9  O   UNL d   1       1.651  -1.301   0.746  0.00  0.00    -0.204 OA
BRANCH   7  10
ATOM     10  C   UNL d   1      -0.167  -0.788  -0.996  0.00  0.00     0.146 A 
ATOM     11  N   UNL d   1      -1.278  -1.463  -0.523  0.00  0.00    -0.336 N 
ATOM     12  C   UNL d   1      -2.115  -1.810  -1.581  0.00  0.00     0.109 A 
ATOM     13  C   UNL d   1      -1.556  -1.797   0.863  0.00  0.00     0.157 C 
ATOM     14  C   UNL d   1      -1.522  -1.319  -2.734  0.00  0.00     0.039 A 
ATOM     15  C   UNL d   1      -0.313  -0.700  -2.371  0.00  0.00     0.046 A 
BRANCH  12  16
ATOM     16  C   UNL d   1      -3.377  -2.510  -1.431  0.00  0.00     0.193 C 
ATOM     17  O   UNL d   1      -4.070  -2.522  -0.429  0.00  0.00    -0.645 OA
BRANCH  16  18
ATOM     18  O   UNL d   1      -3.714  -3.199  -2.550  0.00  0.00    -0.772 OA
ATOM     19  H   UNL d   1      -3.005  -3.217  -3.214  0.00  0.00     0.167 HD
ENDBRANCH  16  18
ENDBRANCH  12  16
ENDBRANCH   7  10
ENDBRANCH   1   7
BRANCH   2  20
ATOM     20  C   UNL d   1       1.748   4.985   0.738  0.00  0.00     0.102 A 
ATOM     21  N   UNL d   1       0.722   5.865   0.770  0.00  0.00    -0.352 N 
ATOM     22  C   UNL d   1       0.997   7.189   0.819  0.00  0.00     0.106 A 
ATOM     23  HN  UNL d   1      -0.243   5.536   0.758  1.00  0.00     0.166 HD
ATOM     24  C   UNL d   1       2.276   7.714   0.800  0.00  0.00     0.063 A 
ATOM     25  C   UNL d   1       3.330   6.806   0.720  0.00  0.00     0.021 A 
ATOM     26  C   UNL d   1       3.063   5.438   0.699  0.00  0.00     0.049 A 
BRANCH  24  27
ATOM     27  C   UNL d   1       2.510   9.188   0.863  0.00  0.00     0.418 C 
ATOM     28  F   UNL d   1       1.368   9.922   0.972  0.00  0.00    -0.166 F 
ATOM     29  F   UNL d   1       3.284   9.547   1.925  0.00  0.00    -0.166 F 
ATOM     30  F   UNL d   1       3.152   9.660  -0.241  0.00  0.00    -0.166 F 
ENDBRANCH  24  27
ENDBRANCH   2  20
TORSDOF 6
