REMARK  4 active torsions:
REMARK  status: ('A' for Active; 'I' for Inactive)
REMARK    1  A    between atoms: N_4  and  C_1 
REMARK    2  A    between atoms: C_2  and  N_3 
REMARK    3  A    between atoms: C_18  and  C_15 
REMARK    4  A    between atoms: C_20  and  C_18 
ROOT
ATOM      1  C   UNL d   1       0.182   1.390   0.184  0.00  0.00     0.159 A 
ATOM      2  N   UNL d   1      -0.675   0.922   1.106  0.00  0.00    -0.342 N 
ATOM      3  HN  UNL d   1      -1.347   1.540   1.563  1.00  0.00     0.167 HD
ATOM      4  N   UNL d   1       1.035   0.585  -0.475  0.00  0.00    -0.342 N 
ATOM      5  HN  UNL d   1       1.647   0.952  -1.204  1.00  0.00     0.167 HD
ATOM      6  C   UNL d   1       0.267  -1.272   0.835  0.00  0.00    -0.027 A 
ATOM      7  C   UNL d   1      -0.618  -0.388   1.407  0.00  0.00     0.099 A 
ATOM      8  C   UNL d   1       1.059  -0.719  -0.144  0.00  0.00     0.099 A 
ENDROOT
BRANCH   1   9
ATOM      9  N   UNL d   1       0.192   2.753  -0.111  0.00  0.00    -0.251 NA
ATOM     10  C   UNL d   1       1.490   3.217  -0.634  0.00  0.00     0.118 C 
ATOM     11  C   UNL d   1       1.365   4.660  -1.132  0.00  0.00     0.140 C 
ATOM     12  N   UNL d   1       0.795   5.554  -0.119  0.00  0.00    -0.356 N 
ATOM     13  C   UNL d   1      -0.455   5.073   0.489  0.00  0.00     0.140 C 
ATOM     14  C   UNL d   1      -0.362   3.605   0.958  0.00  0.00     0.118 C 
BRANCH  12  15
ATOM     15  C   UNL d   1       1.414   6.712   0.260  0.00  0.00     0.169 C 
ATOM     16  S   UNL d   1       3.040   6.822   0.650  0.00  0.00    -0.041 SA
ATOM     17  N   UNL d   1       0.677   7.853   0.317  0.00  0.00    -0.371 N 
ATOM     18  C   UNL d   1      -0.592   8.131  -0.324  0.00  0.00     0.148 C 
ATOM     19  H   UNL d   1       1.237   8.664   0.553  0.00  0.00     0.161 HD
ENDBRANCH  12  15
ENDBRANCH   1   9
BRANCH   6  20
ATOM     20  C   UNL d   1       0.382  -2.698   1.263  0.00  0.00     0.041 C 
BRANCH  20  21
ATOM     21  C   UNL d   1       1.769  -3.058   1.808  0.00  0.00     0.000 C 
ATOM     22  C   UNL d   1       2.150  -2.268   3.055  0.00  0.00     0.005 C 
ENDBRANCH  20  21
ENDBRANCH   6  20
TORSDOF 4
