REMARK  6 active torsions:
REMARK  status: ('A' for Active; 'I' for Inactive)
REMARK    1  A    between atoms: N_4  and  C_1 
REMARK       I    between atoms: C_5  and  N_4 
REMARK    2  A    between atoms: C_13  and  C_5 
REMARK    3  A    between atoms: C_8  and  C_14 
REMARK    4  A    between atoms: O_12  and  C_8 
REMARK    5  A    between atoms: S_11  and  C_13 
REMARK    6  A    between atoms: C_14  and  S_11 
ROOT
ATOM      1  N   UNL d   1       3.880   0.012   0.290  0.00  0.00    -0.355 N 
ATOM      2  C   UNL d   1       4.780  -0.985  -0.009  0.00  0.00     0.227 C 
ATOM      3  O   UNL d   1       4.508  -1.979  -0.683  0.00  0.00    -0.273 OA
ATOM      4  H   UNL d   1       4.157   0.756   0.923  0.00  0.00     0.162 HD
ENDROOT
BRANCH   1   5
ATOM      5  C   UNL d   1       2.524   0.016  -0.248  0.00  0.00     0.092 C 
ATOM      6  C   UNL d   1       1.685   1.245   0.184  0.00  0.00     0.064 C 
ATOM      7  C   UNL d   1       0.290   0.709   0.076  0.00  0.00    -0.050 A 
ATOM      8  C   UNL d   1      -0.901   1.415   0.030  0.00  0.00     0.007 A 
ATOM      9  C   UNL d   1       0.294  -0.690   0.065  0.00  0.00    -0.050 A 
ATOM     10  C   UNL d   1      -2.097   0.697  -0.043  0.00  0.00     0.001 A 
ATOM     11  C   UNL d   1      -2.090  -0.707  -0.055  0.00  0.00     0.001 A 
ATOM     12  C   UNL d   1      -0.887  -1.411   0.006  0.00  0.00     0.007 A 
ATOM     13  C   UNL d   1       1.690  -1.223   0.156  0.00  0.00     0.064 C 
ENDBRANCH   1   5
BRANCH   2  14
ATOM     14  C   UNL d   1       6.153  -0.840   0.623  0.00  0.00     0.177 C 
BRANCH  14  15
ATOM     15  S   UNL d   1       6.189  -1.646   2.256  0.00  0.00    -0.149 SA
BRANCH  15  16
ATOM     16  C   UNL d   1       5.731  -3.361   1.823  0.00  0.00     0.184 C 
BRANCH  16  17
ATOM     17  C   UNL d   1       6.710  -4.004   0.868  0.00  0.00     0.149 C 
ATOM     18  O   UNL d   1       7.736  -4.571   1.219  0.00  0.00    -0.649 OA
BRANCH  17  19
ATOM     19  O   UNL d   1       6.368  -3.889  -0.438  0.00  0.00    -0.776 OA
ATOM     20  H   UNL d   1       5.535  -3.382  -0.615  0.00  0.00     0.167 HD
ENDBRANCH  17  19
ENDBRANCH  16  17
ENDBRANCH  15  16
ENDBRANCH  14  15
ENDBRANCH   2  14
TORSDOF 6
