REMARK  3 active torsions:
REMARK  status: ('A' for Active; 'I' for Inactive)
REMARK       I    between atoms: N_2  and  C_1 
REMARK    1  A    between atoms: C_5  and  C_1 
REMARK       I    between atoms: C_3  and  N_2 
REMARK       I    between atoms: N_4  and  C_3 
REMARK    2  A    between atoms: C_8  and  N_4 
REMARK    3  A    between atoms: C_6  and  C_7 
ROOT
ATOM      1  C   UNL d   1      -0.920   0.456  -0.865  0.00  0.00     0.264 C 
ATOM      2  N   UNL d   1       0.425   0.349  -1.202  0.00  0.00    -0.275 N 
ATOM      3  C   UNL d   1       1.072   1.267  -1.981  0.00  0.00     0.328 C 
ATOM      4  N   UNL d   1       2.405   1.429  -1.765  0.00  0.00    -0.293 N 
ATOM      5  O   UNL d   1      -1.742   1.078  -1.518  0.00  0.00    -0.267 OA
ATOM      6  O   UNL d   1       0.539   2.016  -2.797  0.00  0.00    -0.247 OA
ATOM      7  H   UNL d   1       1.034  -0.261  -0.665  0.00  0.00     0.173 HD
ATOM      8  H   UNL d   1       2.751   2.299  -2.153  0.00  0.00     0.172 HD
ENDROOT
BRANCH   4   9
ATOM      9  C   UNL d   1       3.328   0.626  -1.096  0.00  0.00     0.131 A 
ATOM     10  N   UNL d   1       3.125  -0.712  -1.044  0.00  0.00    -0.350 N 
ATOM     11  C   UNL d   1       4.152  -1.476  -0.578  0.00  0.00     0.106 A 
ATOM     12  HN  UNL d   1       2.243  -1.129  -1.340  1.00  0.00     0.166 HD
ATOM     13  C   UNL d   1       5.338  -0.965  -0.062  0.00  0.00     0.065 A 
ATOM     14  C   UNL d   1       5.477   0.425  -0.029  0.00  0.00     0.045 A 
ATOM     15  C   UNL d   1       4.480   1.227  -0.578  0.00  0.00     0.079 A 
ATOM     16 CL   UNL d   1       4.677   2.941  -0.536  0.00  0.00    -0.080 Cl
BRANCH  13  17
ATOM     17  C   UNL d   1       6.426  -1.883   0.409  0.00  0.00     0.418 C 
ATOM     18  F   UNL d   1       7.467  -1.227   0.991  0.00  0.00    -0.166 F 
ATOM     19  F   UNL d   1       5.988  -2.782   1.331  0.00  0.00    -0.166 F 
ATOM     20  F   UNL d   1       6.963  -2.612  -0.606  0.00  0.00    -0.166 F 
ENDBRANCH  13  17
ENDBRANCH   4   9
BRANCH   1  21
ATOM     21  C   UNL d   1      -1.385  -0.313   0.335  0.00  0.00     0.092 A 
ATOM     22  C   UNL d   1      -2.539   0.037   1.061  0.00  0.00     0.052 A 
ATOM     23 CL   UNL d   1      -3.477   1.464   0.773  0.00  0.00    -0.083 Cl
ATOM     24  C   UNL d   1      -2.975  -0.759   2.137  0.00  0.00     0.025 A 
ATOM     25  C   UNL d   1      -2.267  -1.898   2.513  0.00  0.00     0.005 A 
ATOM     26  C   UNL d   1      -1.114  -2.240   1.819  0.00  0.00     0.043 A 
ATOM     27  C   UNL d   1      -0.686  -1.453   0.748  0.00  0.00     0.133 A 
ATOM     28  F   UNL d   1       0.436  -1.836   0.120  0.00  0.00    -0.205 F 
ENDBRANCH   1  21
TORSDOF 3
