REMARK  6 active torsions:
REMARK  status: ('A' for Active; 'I' for Inactive)
REMARK    1  A    between atoms: N_4  and  S_1 
REMARK    2  A    between atoms: C_8  and  S_1 
REMARK    3  A    between atoms: C_2  and  N_7 
REMARK    4  A    between atoms: N_3  and  C_2 
REMARK    5  A    between atoms: C_13  and  C_6 
REMARK    6  A    between atoms: N_7  and  C_16 
ROOT
ATOM      1  N   UNL d   1      -0.422   3.530  -4.370  0.00  0.00    -0.333 N 
ATOM      2  H   UNL d   1      -0.335   4.521  -4.160  0.00  0.00     0.168 HD
ENDROOT
BRANCH   1   3
ATOM      3  C   UNL d   1      -1.383   3.275  -5.314  0.00  0.00     0.174 C 
ATOM      4  S   UNL d   1      -2.522   4.492  -5.528  0.00  0.00    -0.041 SA
BRANCH   3   5
ATOM      5  N   UNL d   1      -1.286   2.115  -6.077  0.00  0.00    -0.349 N 
ATOM      6  C   UNL d   1      -2.247   1.778  -7.192  0.00  0.00     0.116 C 
ATOM      7  C   UNL d   1      -2.425   0.223  -7.291  0.00  0.00     0.177 C 
ATOM      8  C   UNL d   1      -1.759   2.400  -8.514  0.00  0.00     0.035 C 
ATOM      9  O   UNL d   1      -1.141  -0.434  -7.387  0.00  0.00    -0.378 OA
ATOM     10  C   UNL d   1      -0.319  -0.142  -6.256  0.00  0.00     0.188 C 
ATOM     11  C   UNL d   1      -0.028   1.352  -6.189  0.00  0.00     0.152 C 
BRANCH   7  12
ATOM     12  C   UNL d   1      -3.320  -0.278  -8.418  0.00  0.00    -0.028 A 
ATOM     13  C   UNL d   1      -2.820  -1.115  -9.434  0.00  0.00     0.010 A 
ATOM     14  C   UNL d   1      -3.658  -1.638 -10.421  0.00  0.00     0.001 A 
ATOM     15  C   UNL d   1      -5.013  -1.330 -10.415  0.00  0.00     0.000 A 
ATOM     16  C   UNL d   1      -5.528  -0.494  -9.426  0.00  0.00     0.001 A 
ATOM     17  C   UNL d   1      -4.689   0.030  -8.434  0.00  0.00     0.010 A 
ENDBRANCH   7  12
ENDBRANCH   3   5
ENDBRANCH   1   3
BRANCH   1  18
ATOM     18  C   UNL d   1       0.096   2.699  -3.352  0.00  0.00     0.034 A 
ATOM     19  C   UNL d   1       1.252   3.137  -2.692  0.00  0.00     0.031 A 
ATOM     20  C   UNL d   1       1.795   2.401  -1.637  0.00  0.00     0.027 A 
ATOM     21  C   UNL d   1       1.154   1.233  -1.215  0.00  0.00     0.079 A 
ATOM     22  C   UNL d   1       0.011   0.774  -1.879  0.00  0.00     0.027 A 
ATOM     23  C   UNL d   1      -0.515   1.506  -2.951  0.00  0.00     0.031 A 
BRANCH  21  24
ATOM     24  S   UNL d   1       1.715   0.425   0.270  0.00  0.00     0.260 S 
ATOM     25  O   UNL d   1       1.772   1.449   1.296  0.00  0.00    -0.200 OA
ATOM     26  O   UNL d   1       0.911  -0.766   0.460  0.00  0.00    -0.200 OA
BRANCH  24  27
ATOM     27  N   UNL d   1       3.305  -0.067  -0.075  0.00  0.00    -0.307 N 
ATOM     28  C   UNL d   1       3.528  -0.974  -1.224  0.00  0.00     0.135 C 
ATOM     29  C   UNL d   1       3.259  -2.432  -0.861  0.00  0.00     0.021 C 
ATOM     30  C   UNL d   1       4.062  -2.871   0.358  0.00  0.00     0.003 C 
ATOM     31  C   UNL d   1       3.898  -1.902   1.525  0.00  0.00     0.021 C 
ATOM     32  C   UNL d   1       4.121  -0.449   1.114  0.00  0.00     0.135 C 
ENDBRANCH  24  27
ENDBRANCH  21  24
ENDBRANCH   1  18
TORSDOF 6
