REMARK  2 active torsions:
REMARK  status: ('A' for Active; 'I' for Inactive)
REMARK    1  A    between atoms: N_6  and  C_1 
REMARK    2  A    between atoms: O_12  and  C_4 
ROOT
ATOM      1  C   UNL d   1      -1.403   2.481  -0.016  0.00  0.00     0.204 A 
ATOM      2  C   UNL d   1       0.070   2.502   0.003  0.00  0.00     0.284 A 
ATOM      3  N   UNL d   1       0.708   1.258  -0.022  0.00  0.00    -0.311 N 
ATOM      4  C   UNL d   1      -2.166   1.374  -0.038  0.00  0.00     0.119 A 
ATOM      5  C   UNL d   1      -1.432   0.078  -0.044  0.00  0.00     0.028 A 
ATOM      6  C   UNL d   1      -0.020   0.042  -0.024  0.00  0.00     0.057 A 
ATOM      7  O   UNL d   1       0.697   3.558   0.058  0.00  0.00    -0.265 OA
ATOM      8  C   UNL d   1       0.650  -1.190   0.000  0.00  0.00    -0.030 A 
ATOM      9  C   UNL d   1       2.155   1.270   0.079  0.00  0.00     0.133 C 
ATOM     10  C   UNL d   1      -2.143  -1.137  -0.050  0.00  0.00     0.017 A 
ATOM     11  C   UNL d   1       2.905  -0.026  -0.168  0.00  0.00     0.025 C 
ATOM     12  C   UNL d   1      -1.479  -2.359  -0.039  0.00  0.00     0.002 A 
ATOM     13  C   UNL d   1      -0.091  -2.384  -0.012  0.00  0.00     0.009 A 
ATOM     14  C   UNL d   1       2.140  -1.302   0.113  0.00  0.00     0.042 C 
ENDROOT
BRANCH   1  15
ATOM     15  N   UNL d   1      -2.007   3.779   0.003  0.00  0.00    -0.107 N 
ATOM     16  O   UNL d   1      -2.246   4.305  -1.090  0.00  0.00    -0.531 OA
ATOM     17  O   UNL d   1      -2.276   4.260   1.113  0.00  0.00    -0.531 OA
ENDBRANCH   1  15
BRANCH   4  18
ATOM     18  O   UNL d   1      -3.528   1.199  -0.050  0.00  0.00    -0.352 OA
ATOM     19  C   UNL d   1      -4.478   2.252  -0.048  0.00  0.00     0.210 C 
ENDBRANCH   4  18
TORSDOF 2
