REMARK  4 active torsions:
REMARK  status: ('A' for Active; 'I' for Inactive)
REMARK    1  A    between atoms: C_3  and  S_1 
REMARK    2  A    between atoms: O_4  and  S_1 
REMARK    3  A    between atoms: S_2  and  C_3 
REMARK    4  A    between atoms: C_5  and  O_4 
ROOT
ATOM      1  O   UNL d   1       0.383  -0.819  -1.151  0.00  0.00    -0.229 OA
ENDROOT
BRANCH   1   2
ATOM      2  S   UNL d   1       0.962  -0.027   0.153  0.00  0.00     0.283 S 
ATOM      3  O   UNL d   1       0.145  -0.388   1.295  0.00  0.00    -0.197 OA
ATOM      4  O   UNL d   1       2.405  -0.099   0.162  0.00  0.00    -0.197 OA
BRANCH   2   5
ATOM      5  C   UNL d   1       0.472   1.564  -0.381  0.00  0.00     0.310 C 
BRANCH   5   6
ATOM      6  S   UNL d   1       0.936   2.840   0.730  0.00  0.00     0.156 S 
ATOM      7  O   UNL d   1       2.382   2.904   0.806  0.00  0.00    -0.227 OA
ATOM      8  O   UNL d   1       0.194   4.019   0.313  0.00  0.00    -0.227 OA
ATOM      9  C   UNL d   1       0.311   2.393   2.335  0.00  0.00     0.162 C 
ENDBRANCH   5   6
ENDBRANCH   2   5
ENDBRANCH   1   2
BRANCH   1  10
ATOM     10  C   UNL d   1       0.854  -2.046  -1.540  0.00  0.00     0.128 A 
ATOM     11  C   UNL d   1       1.525  -2.966  -0.729  0.00  0.00     0.153 A 
ATOM     12  C   UNL d   1       1.982  -4.174  -1.248  0.00  0.00     0.087 A 
ATOM     13  F   UNL d   1       1.724  -2.726   0.572  0.00  0.00    -0.203 F 
ATOM     14  C   UNL d   1       1.744  -4.471  -2.582  0.00  0.00     0.119 A 
ATOM     15  C   UNL d   1       1.047  -3.588  -3.399  0.00  0.00     0.045 A 
ATOM     16  F   UNL d   1       2.181  -5.630  -3.090  0.00  0.00    -0.206 F 
ATOM     17  C   UNL d   1       0.599  -2.374  -2.877  0.00  0.00     0.044 A 
ENDBRANCH   1  10
TORSDOF 4
