REMARK  8 active torsions:
REMARK  status: ('A' for Active; 'I' for Inactive)
REMARK    1  A    between atoms: C_5  and  S_1 
REMARK    2  A    between atoms: C_8  and  S_1 
REMARK    3  A    between atoms: C_2  and  C_16 
REMARK       I    between atoms: N_9  and  C_2 
REMARK    4  A    between atoms: N_3  and  N_9 
REMARK    5  A    between atoms: C_21  and  C_5 
REMARK    6  A    between atoms: C_12  and  C_11 
REMARK    7  A    between atoms: S_14  and  C_21 
REMARK    8  A    between atoms: C_16  and  S_14 
ROOT
ATOM      1  C   UNL d   1       0.409  -0.878  -6.805  0.00  0.00     0.245 C 
ATOM      2  N   UNL d   1      -0.888  -0.622  -7.244  0.00  0.00    -0.270 N 
ATOM      3  O   UNL d   1       1.193  -1.654  -7.346  0.00  0.00    -0.271 OA
ATOM      4  H   UNL d   1      -1.531  -0.053  -6.710  0.00  0.00     0.190 HD
ENDROOT
BRANCH   1   5
ATOM      5  C   UNL d   1       0.824  -0.093  -5.579  0.00  0.00     0.178 C 
BRANCH   5   6
ATOM      6  S   UNL d   1       0.346  -0.928  -4.038  0.00  0.00    -0.159 SA
BRANCH   6   7
ATOM      7  C   UNL d   1       1.389  -2.446  -4.117  0.00  0.00     0.089 C 
BRANCH   7   8
ATOM      8  C   UNL d   1       1.239  -3.149  -2.775  0.00  0.00     0.156 C 
BRANCH   8   9
ATOM      9  S   UNL d   1       2.070  -4.719  -2.729  0.00  0.00     0.176 S 
ATOM     10  O   UNL d   1       3.493  -4.492  -2.894  0.00  0.00    -0.223 OA
ATOM     11  O   UNL d   1       1.355  -5.647  -3.583  0.00  0.00    -0.223 OA
BRANCH   9  12
ATOM     12  C   UNL d   1       1.810  -5.250  -1.044  0.00  0.00     0.059 A 
ATOM     13  C   UNL d   1       0.662  -5.978  -0.718  0.00  0.00     0.023 A 
ATOM     14  C   UNL d   1       0.470  -6.404   0.598  0.00  0.00     0.002 A 
ATOM     15  C   UNL d   1       1.422  -6.112   1.576  0.00  0.00     0.000 A 
ATOM     16  C   UNL d   1       2.571  -5.394   1.242  0.00  0.00     0.002 A 
ATOM     17  C   UNL d   1       2.771  -4.963  -0.070  0.00  0.00     0.023 A 
ENDBRANCH   9  12
ENDBRANCH   8   9
ENDBRANCH   7   8
ENDBRANCH   6   7
ENDBRANCH   5   6
ENDBRANCH   1   5
BRANCH   2  18
ATOM     18  N   UNL d   1      -1.276  -1.178  -8.423  0.00  0.00    -0.308 N 
ATOM     19  C   UNL d   1      -2.488  -0.990  -8.832  0.00  0.00     0.118 C 
ATOM     20  HN  UNL d   1      -0.623  -1.734  -8.974  1.00  0.00     0.186 HD
BRANCH  19  21
ATOM     21  C   UNL d   1      -2.919  -1.565 -10.130  0.00  0.00    -0.019 A 
ATOM     22  C   UNL d   1      -1.999  -2.280 -10.910  0.00  0.00     0.014 A 
ATOM     23  C   UNL d   1      -2.387  -2.825 -12.136  0.00  0.00     0.024 A 
ATOM     24  C   UNL d   1      -3.695  -2.656 -12.579  0.00  0.00     0.034 A 
ATOM     25  C   UNL d   1      -4.617  -1.943 -11.810  0.00  0.00     0.024 A 
ATOM     26 CL   UNL d   1      -4.177  -3.332 -14.087  0.00  0.00    -0.084 Cl
ATOM     27  C   UNL d   1      -4.231  -1.393 -10.580  0.00  0.00     0.014 A 
ENDBRANCH  19  21
ENDBRANCH   2  18
TORSDOF 8
