REMARK  0 active torsions:
REMARK  status: ('A' for Active; 'I' for Inactive)
ROOT
ATOM      1  N   UNL d   1      -2.414   1.362  -0.004  0.00  0.00    -0.289 N 
ATOM      2  N   UNL d   1      -3.619  -0.666  -0.002  0.00  0.00    -0.270 N 
ATOM      3  C   UNL d   1      -3.642   0.723  -0.004  0.00  0.00     0.332 A 
ATOM      4  C   UNL d   1      -1.189   0.663  -0.003  0.00  0.00     0.127 A 
ATOM      5  C   UNL d   1      -1.196  -0.716  -0.000  0.00  0.00     0.077 A 
ATOM      6  C   UNL d   1      -2.467  -1.435  -0.002  0.00  0.00     0.265 A 
ATOM      7  N   UNL d   1      -0.030   1.371  -0.003  0.00  0.00    -0.341 N 
ATOM      8  HN  UNL d   1      -0.047   2.391  -0.003  1.00  0.00     0.167 HD
ATOM      9  C   UNL d   1       0.013  -1.411   0.000  0.00  0.00     0.034 A 
ATOM     10  C   UNL d   1       1.212  -0.700   0.000  0.00  0.00    -0.008 A 
ATOM     11  C   UNL d   1       1.147   0.706  -0.002  0.00  0.00     0.044 A 
ATOM     12  O   UNL d   1      -4.702   1.352  -0.005  0.00  0.00    -0.246 OA
ATOM     13  O   UNL d   1      -2.461  -2.664  -0.002  0.00  0.00    -0.267 OA
ATOM     14  C   UNL d   1       2.450  -1.365   0.001  0.00  0.00     0.020 A 
ATOM     15  C   UNL d   1      -2.357   2.816  -0.009  0.00  0.00     0.163 C 
ATOM     16  C   UNL d   1      -4.875  -1.394  -0.004  0.00  0.00     0.164 C 
ATOM     17  C   UNL d   1       2.348   1.405  -0.001  0.00  0.00     0.031 A 
ATOM     18  C   UNL d   1       3.646  -0.645   0.000  0.00  0.00    -0.061 A 
ATOM     19  C   UNL d   1       3.587   0.750  -0.001  0.00  0.00     0.009 A 
ATOM     20  C   UNL d   1       4.957  -1.374  -0.000  0.00  0.00     0.048 C 
ENDROOT
TORSDOF 0
