REMARK  4 active torsions:
REMARK  status: ('A' for Active; 'I' for Inactive)
REMARK    1  A    between atoms: C_4  and  N_1 
REMARK    2  A    between atoms: C_13  and  C_2 
REMARK    3  A    between atoms: O_9  and  C_8 
REMARK    4  A    between atoms: C_10  and  O_9 
ROOT
ATOM      1  C   UNL d   1       2.019  -1.578   0.146  0.00  0.00     0.089 A 
ATOM      2  C   UNL d   1       2.213  -2.389  -0.990  0.00  0.00     0.104 A 
ATOM      3  C   UNL d   1       3.069  -1.421   1.069  0.00  0.00     0.034 A 
ATOM      4  C   UNL d   1       3.502  -2.898  -1.240  0.00  0.00     0.040 A 
ATOM      5  C   UNL d   1       4.317  -1.996   0.839  0.00  0.00     0.002 A 
ATOM      6  C   UNL d   1       4.539  -2.715  -0.329  0.00  0.00     0.003 A 
ENDROOT
BRANCH   1   7
ATOM      7  N   UNL d   1       0.785  -0.908   0.390  0.00  0.00    -0.235 N 
ATOM      8  C   UNL d   1       0.546   0.308   1.044  0.00  0.00     0.082 C 
ATOM      9  C   UNL d   1      -0.834   0.333   1.160  0.00  0.00     0.137 C 
ATOM     10  N   UNL d   1      -1.383  -0.742   0.539  0.00  0.00    -0.293 N 
ATOM     11  N   UNL d   1      -0.400  -1.462   0.028  0.00  0.00    -0.015 NA
ATOM     12  HN  UNL d   1      -2.379  -0.955   0.478  1.00  0.00     0.183 HD
BRANCH   8  13
ATOM     13  C   UNL d   1       1.511   1.353   1.408  0.00  0.00    -0.006 A 
ATOM     14  C   UNL d   1       2.571   1.702   0.557  0.00  0.00     0.014 A 
ATOM     15  C   UNL d   1       3.478   2.704   0.913  0.00  0.00     0.001 A 
ATOM     16  C   UNL d   1       3.319   3.397   2.109  0.00  0.00     0.000 A 
ATOM     17  C   UNL d   1       2.254   3.087   2.951  0.00  0.00     0.001 A 
ATOM     18  C   UNL d   1       1.357   2.070   2.604  0.00  0.00     0.014 A 
ENDBRANCH   8  13
ENDBRANCH   1   7
BRANCH   2  19
ATOM     19  O   UNL d   1       1.160  -2.598  -1.861  0.00  0.00    -0.307 OA
BRANCH  19  20
ATOM     20  C   UNL d   1       1.221  -3.663  -2.735  0.00  0.00     0.098 A 
ATOM     21  C   UNL d   1       1.320  -5.006  -2.342  0.00  0.00     0.069 A 
ATOM     22  C   UNL d   1       1.468  -6.004  -3.310  0.00  0.00     0.050 A 
ATOM     23 CL   UNL d   1       1.267  -5.500  -0.688  0.00  0.00    -0.081 Cl
ATOM     24  C   UNL d   1       1.455  -5.664  -4.662  0.00  0.00     0.035 A 
ATOM     25  C   UNL d   1       1.272  -4.341  -5.059  0.00  0.00     0.026 A 
ATOM     26 CL   UNL d   1       1.667  -6.889  -5.851  0.00  0.00    -0.084 Cl
ATOM     27  C   UNL d   1       1.150  -3.339  -4.094  0.00  0.00     0.041 A 
ENDBRANCH  19  20
ENDBRANCH   2  19
TORSDOF 4
