REMARK  2 active torsions:
REMARK  status: ('A' for Active; 'I' for Inactive)
REMARK    1  A    between atoms: C_9  and  N_3 
REMARK    2  A    between atoms: C_8  and  C_4 
REMARK       I    between atoms: N_14  and  C_8 
ROOT
ATOM      1  N   UNL d   1       2.354  -0.670  -0.137  0.00  0.00    -0.285 N 
ATOM      2  HN  UNL d   1       3.247  -1.157  -0.212  1.00  0.00     0.188 HD
ATOM      3  N   UNL d   1       2.324   0.706  -0.049  0.00  0.00    -0.219 N 
ATOM      4  C   UNL d   1       1.242  -1.344  -0.123  0.00  0.00     0.127 A 
ATOM      5  C   UNL d   1       1.132   1.442   0.020  0.00  0.00     0.278 A 
ATOM      6  C   UNL d   1      -0.088  -0.724  -0.039  0.00  0.00     0.013 A 
ATOM      7  C   UNL d   1      -0.124   0.666   0.006  0.00  0.00     0.046 A 
ATOM      8  O   UNL d   1       1.033   2.668   0.062  0.00  0.00    -0.265 OA
ATOM      9  C   UNL d   1      -1.288  -1.444  -0.018  0.00  0.00     0.015 A 
ATOM     10  C   UNL d   1      -1.356   1.339   0.033  0.00  0.00     0.018 A 
ATOM     11  C   UNL d   1      -2.549   0.620   0.028  0.00  0.00     0.001 A 
ATOM     12  C   UNL d   1      -2.514  -0.771   0.011  0.00  0.00     0.001 A 
ENDROOT
BRANCH   3  13
ATOM     13  C   UNL d   1       3.624   1.315  -0.055  0.00  0.00     0.060 A 
ATOM     14  C   UNL d   1       3.853   2.599   0.463  0.00  0.00     0.033 A 
ATOM     15  C   UNL d   1       5.126   3.183   0.427  0.00  0.00     0.026 A 
ATOM     16  C   UNL d   1       6.190   2.490  -0.138  0.00  0.00     0.034 A 
ATOM     17  C   UNL d   1       5.996   1.211  -0.648  0.00  0.00     0.026 A 
ATOM     18 CL   UNL d   1       7.747   3.216  -0.206  0.00  0.00    -0.084 Cl
ATOM     19  C   UNL d   1       4.726   0.625  -0.594  0.00  0.00     0.033 A 
ENDBRANCH   3  13
BRANCH   4  20
ATOM     20  C   UNL d   1       1.403  -2.865  -0.188  0.00  0.00     0.268 C 
ATOM     21  O   UNL d   1       0.634  -3.582  -0.804  0.00  0.00    -0.266 OA
ATOM     22  N   UNL d   1       2.507  -3.338   0.468  0.00  0.00    -0.365 N 
ATOM     23  H   UNL d   1       3.228  -2.679   0.743  0.00  0.00     0.159 HD
ATOM     24  H   UNL d   1       2.762  -4.305   0.326  0.00  0.00     0.159 HD
ENDBRANCH   4  20
TORSDOF 2
