REMARK  2 active torsions:
REMARK  status: ('A' for Active; 'I' for Inactive)
REMARK    1  A    between atoms: S_3  and  C_2 
REMARK    2  A    between atoms: C_9  and  C_4 
ROOT
ATOM      1  C   UNL d   1      -0.785  -0.013  -0.058  0.00  0.00     0.084 A 
ATOM      2  C   UNL d   1       0.090   1.059  -0.045  0.00  0.00     0.120 A 
ATOM      3  C   UNL d   1      -0.107  -1.290  -0.028  0.00  0.00     0.003 A 
ATOM      4  S   UNL d   1       1.719   0.538  -0.016  0.00  0.00    -0.088 SA
ATOM      5  C   UNL d   1       1.264  -1.106   0.001  0.00  0.00     0.065 A 
ATOM      6  C   UNL d   1      -2.209   0.162  -0.094  0.00  0.00     0.102 C 
ATOM      7  N   UNL d   1      -3.368   0.240  -0.113  0.00  0.00    -0.191 NA
ENDROOT
BRANCH   2   8
ATOM      8  S   UNL d   1      -0.148   2.823  -0.023  0.00  0.00     0.179 S 
ATOM      9  O   UNL d   1      -1.576   3.017  -0.143  0.00  0.00    -0.222 OA
ATOM     10  O   UNL d   1       0.593   3.303   1.125  0.00  0.00    -0.222 OA
ATOM     11  C   UNL d   1       0.619   3.408  -1.510  0.00  0.00     0.167 C 
ENDBRANCH   2   8
BRANCH   3  12
ATOM     12  C   UNL d   1      -0.682  -2.644   0.007  0.00  0.00    -0.024 A 
ATOM     13  C   UNL d   1      -0.059  -3.711  -0.664  0.00  0.00     0.014 A 
ATOM     14  C   UNL d   1      -0.591  -5.005  -0.607  0.00  0.00     0.024 A 
ATOM     15  C   UNL d   1      -1.762  -5.242   0.106  0.00  0.00     0.034 A 
ATOM     16  C   UNL d   1      -2.402  -4.198   0.766  0.00  0.00     0.024 A 
ATOM     17 CL   UNL d   1      -2.416  -6.831   0.181  0.00  0.00    -0.084 Cl
ATOM     18  C   UNL d   1      -1.857  -2.910   0.727  0.00  0.00     0.014 A 
ENDBRANCH   3  12
TORSDOF 2
