REMARK  1 active torsions:
REMARK  status: ('A' for Active; 'I' for Inactive)
REMARK    1  A    between atoms: C_7  and  C_5 
ROOT
ATOM      1  N   UNL d   1      -1.587  -1.096   0.051  0.00  0.00    -0.340 N 
ATOM      2  HN  UNL d   1      -1.935  -2.054   0.080  1.00  0.00     0.167 HD
ATOM      3  N   UNL d   1      -0.230   0.678   0.007  0.00  0.00    -0.317 N 
ATOM      4  C   UNL d   1      -0.329  -0.707   0.039  0.00  0.00     0.111 A 
ATOM      5  C   UNL d   1      -2.336   0.063   0.018  0.00  0.00     0.060 A 
ATOM      6  C   UNL d   1      -1.511   1.169  -0.004  0.00  0.00     0.128 A 
ATOM      7  C   UNL d   1       0.980   1.367  -0.015  0.00  0.00     0.098 A 
ATOM      8  C   UNL d   1       0.891  -1.442   0.047  0.00  0.00     0.049 A 
ATOM      9  C   UNL d   1       2.129   0.669  -0.007  0.00  0.00     0.018 A 
ATOM     10  C   UNL d   1       2.068  -0.786   0.023  0.00  0.00     0.005 A 
ENDROOT
BRANCH   5  11
ATOM     11  C   UNL d   1      -3.792   0.071  -0.002  0.00  0.00    -0.008 A 
ATOM     12  C   UNL d   1      -4.493  -1.143   0.068  0.00  0.00     0.015 A 
ATOM     13  C   UNL d   1      -5.891  -1.170   0.038  0.00  0.00     0.020 A 
ATOM     14  C   UNL d   1      -6.601   0.024  -0.064  0.00  0.00     0.011 A 
ATOM     15  C   UNL d   1      -5.926   1.240  -0.131  0.00  0.00     0.020 A 
ATOM     16 BR   UNL d   1      -8.490  -0.004  -0.114  0.00  0.00    -0.051 Br
ATOM     17  C   UNL d   1      -4.528   1.262  -0.100  0.00  0.00     0.015 A 
ENDBRANCH   5  11
TORSDOF 1
