REMARK  6 active torsions:
REMARK  status: ('A' for Active; 'I' for Inactive)
REMARK    1  A    between atoms: C_17  and  C_1 
REMARK    2  A    between atoms: C_4  and  S_13 
REMARK    3  A    between atoms: N_23  and  C_4 
REMARK    4  A    between atoms: N_5  and  N_7 
REMARK    5  A    between atoms: C_9  and  C_12 
REMARK    6  A    between atoms: S_13  and  C_17 
ROOT
ATOM      1  C   UNL d   1       0.581   3.538   0.063  0.00  0.00     0.131 C 
ATOM      2  N   UNL d   1      -0.659   3.893   0.215  0.00  0.00    -0.284 N 
ATOM      3  HN  UNL d   1      -1.435   3.237   0.310  1.00  0.00     0.188 HD
ENDROOT
BRANCH   1   4
ATOM      4  S   UNL d   1       1.099   1.868   0.081  0.00  0.00    -0.094 SA
BRANCH   4   5
ATOM      5  C   UNL d   1      -0.465   0.974   0.282  0.00  0.00     0.123 C 
BRANCH   5   6
ATOM      6  C   UNL d   1      -0.237  -0.525   0.330  0.00  0.00    -0.011 A 
ATOM      7  C   UNL d   1      -0.244  -1.318  -0.834  0.00  0.00     0.087 A 
ATOM      8  C   UNL d   1      -0.038  -2.706  -0.768  0.00  0.00     0.003 A 
ATOM      9  O   UNL d   1      -0.484  -0.693  -2.029  0.00  0.00    -0.325 OA
ATOM     10  C   UNL d   1      -0.064  -3.527  -2.022  0.00  0.00     0.212 C 
ATOM     11  C   UNL d   1       0.223  -3.307   0.468  0.00  0.00     0.054 A 
ATOM     12  O   UNL d   1      -0.721  -2.824  -3.069  0.00  0.00    -0.362 OA
ATOM     13  C   UNL d   1      -0.192  -1.508  -3.163  0.00  0.00     0.345 C 
ATOM     14  C   UNL d   1       0.254  -2.526   1.616  0.00  0.00     0.117 A 
ATOM     15  C   UNL d   1       0.028  -1.153   1.560  0.00  0.00     0.053 A 
ATOM     16  F   UNL d   1       0.505  -3.106   2.797  0.00  0.00    -0.206 F 
ENDBRANCH   5   6
ENDBRANCH   4   5
ENDBRANCH   1   4
BRANCH   1  17
ATOM     17  N   UNL d   1       1.622   4.408  -0.080  0.00  0.00    -0.282 NA
ATOM     18  H   UNL d   1       2.483   4.082   0.334  0.00  0.00     0.126 HD
ATOM     19  H   UNL d   1       1.327   5.332   0.220  0.00  0.00     0.126 HD
ENDBRANCH   1  17
BRANCH   2  20
ATOM     20  N   UNL d   1      -0.804   5.298   0.234  0.00  0.00    -0.303 N 
ATOM     21  C   UNL d   1      -2.037   5.711   0.314  0.00  0.00     0.033 C 
ATOM     22  C   UNL d   1      -3.220   4.764   0.345  0.00  0.00     0.070 C 
ATOM     23  HN  UNL d   1      -0.009   5.936   0.189  1.00  0.00     0.186 HD
BRANCH  21  24
ATOM     24  C   UNL d   1      -2.306   7.178   0.369  0.00  0.00     0.003 A 
ATOM     25  C   UNL d   1      -3.381   7.701   1.075  0.00  0.00     0.101 A 
ATOM     26  N   UNL d   1      -3.677   9.023   1.148  0.00  0.00    -0.369 N 
ATOM     27  C   UNL d   1      -2.862   9.887   0.497  0.00  0.00     0.005 A 
ATOM     28  HN  UNL d   1      -4.485   9.355   1.675  1.00  0.00     0.165 HD
ATOM     29  C   UNL d   1      -1.747   9.453  -0.218  0.00  0.00     0.025 A 
ATOM     30  C   UNL d   1      -3.214  11.341   0.584  0.00  0.00     0.068 C 
ATOM     31  C   UNL d   1      -1.466   8.085  -0.279  0.00  0.00     0.017 A 
ENDBRANCH  21  24
ENDBRANCH   2  20
TORSDOF 6
