REMARK  3 active torsions:
REMARK  status: ('A' for Active; 'I' for Inactive)
REMARK    1  A    between atoms: C_6  and  C_1 
REMARK    2  A    between atoms: C_2  and  C_7 
REMARK       I    between atoms: N_3  and  C_2 
REMARK    3  A    between atoms: C_9  and  N_3 
ROOT
ATOM      1  C   UNL d   1      -0.766  -0.402   5.332  0.00  0.00     0.256 C 
ATOM      2  N   UNL d   1      -0.983   0.726   6.116  0.00  0.00    -0.323 N 
ATOM      3  O   UNL d   1      -0.544  -0.391   4.126  0.00  0.00    -0.267 OA
ATOM      4  H   UNL d   1      -0.981   0.622   7.119  0.00  0.00     0.169 HD
ENDROOT
BRANCH   1   5
ATOM      5  C   UNL d   1      -0.722  -1.734   6.016  0.00  0.00     0.032 A 
ATOM      6  C   UNL d   1      -1.039  -1.941   7.361  0.00  0.00     0.018 A 
ATOM      7  C   UNL d   1      -0.920  -3.220   7.923  0.00  0.00     0.017 A 
ATOM      8  C   UNL d   1      -0.496  -4.315   7.150  0.00  0.00     0.048 A 
ATOM      9  C   UNL d   1      -0.208  -4.111   5.795  0.00  0.00     0.017 A 
ATOM     10  C   UNL d   1      -0.319  -2.835   5.239  0.00  0.00     0.018 A 
BRANCH   8  11
ATOM     11  C   UNL d   1      -0.336  -5.676   7.782  0.00  0.00     0.417 C 
ATOM     12  F   UNL d   1      -0.008  -6.657   6.895  0.00  0.00    -0.166 F 
ATOM     13  F   UNL d   1      -1.469  -6.098   8.406  0.00  0.00    -0.166 F 
ATOM     14  F   UNL d   1       0.642  -5.689   8.730  0.00  0.00    -0.166 F 
ENDBRANCH   8  11
ENDBRANCH   1   5
BRANCH   2  15
ATOM     15  C   UNL d   1      -0.912   2.060   5.644  0.00  0.00     0.037 A 
ATOM     16  C   UNL d   1      -0.956   2.391   4.289  0.00  0.00     0.069 A 
ATOM     17  C   UNL d   1      -0.660   3.685   3.870  0.00  0.00     0.104 A 
ATOM     18  O   UNL d   1      -0.603   3.891   2.515  0.00  0.00    -0.346 OA
ATOM     19  C   UNL d   1      -0.397   4.688   4.804  0.00  0.00     0.102 A 
ATOM     20  C   UNL d   1       0.253   4.998   2.227  0.00  0.00     0.202 C 
ATOM     21  C   UNL d   1      -0.170   6.205   3.050  0.00  0.00     0.202 C 
ATOM     22  O   UNL d   1      -0.039   5.964   4.458  0.00  0.00    -0.346 OA
ATOM     23  C   UNL d   1      -0.454   4.392   6.164  0.00  0.00     0.042 A 
ATOM     24  C   UNL d   1      -0.717   3.081   6.585  0.00  0.00     0.032 A 
ENDBRANCH   2  15
TORSDOF 3
