REMARK  5 active torsions:
REMARK  status: ('A' for Active; 'I' for Inactive)
REMARK    1  A    between atoms: N_13  and  C_2 
REMARK    2  A    between atoms: O_19  and  C_8 
REMARK    3  A    between atoms: C_9  and  C_15 
REMARK    4  A    between atoms: N_10  and  N_13 
REMARK    5  A    between atoms: O_20  and  C_17 
ROOT
ATOM      1  N   UNL d   1      -0.487   5.745  -0.619  0.00  0.00    -0.297 N 
ATOM      2  HN  UNL d   1      -0.564   6.751  -0.767  1.00  0.00     0.186 HD
ATOM      3  C   UNL d   1      -1.499   5.047  -0.216  0.00  0.00     0.121 C 
ENDROOT
BRANCH   1   4
ATOM      4  N   UNL d   1       0.679   5.087  -0.838  0.00  0.00    -0.132 N 
ATOM      5  H   UNL d   1       0.733   4.072  -0.857  0.00  0.00     0.205 HD
BRANCH   4   6
ATOM      6  C   UNL d   1       1.813   5.731  -1.264  0.00  0.00     0.700 A 
ATOM      7  N   UNL d   1       1.710   7.091  -1.349  0.00  0.00    -0.155 N 
ATOM      8  C   UNL d   1       2.712   7.894  -1.787  0.00  0.00     0.261 A 
ATOM      9  H   UNL d   1       0.819   7.492  -1.100  0.00  0.00     0.187 HD
ATOM     10  C   UNL d   1       3.954   7.192  -2.123  0.00  0.00     0.100 A 
ATOM     11  O   UNL d   1       2.612   9.111  -1.902  0.00  0.00    -0.268 OA
ATOM     12  C   UNL d   1       3.980   5.857  -1.990  0.00  0.00     0.028 A 
ATOM     13  C   UNL d   1       5.226   5.083  -2.306  0.00  0.00     0.069 C 
ATOM     14  N   UNL d   1       2.906   5.101  -1.570  0.00  0.00    -0.194 N 
ATOM     15  HN  UNL d   1       2.968   4.086  -1.502  1.00  0.00     0.184 HD
ENDBRANCH   4   6
ENDBRANCH   1   4
BRANCH   3  16
ATOM     16  C   UNL d   1      -2.789   5.728  -0.003  0.00  0.00     0.014 A 
ATOM     17  C   UNL d   1      -3.761   5.287   0.896  0.00  0.00     0.082 A 
ATOM     18  C   UNL d   1      -4.997   5.954   0.931  0.00  0.00     0.074 A 
ATOM     19  C   UNL d   1      -5.262   7.052   0.092  0.00  0.00     0.070 A 
ATOM     20  C   UNL d   1      -4.272   7.495  -0.776  0.00  0.00     0.038 A 
ATOM     21  C   UNL d   1      -3.045   6.840  -0.821  0.00  0.00     0.018 A 
BRANCH  17  22
ATOM     22  O   UNL d   1      -3.668   4.175   1.691  0.00  0.00    -0.355 OA
ATOM     23  C   UNL d   1      -2.558   4.156   2.587  0.00  0.00     0.210 C 
ENDBRANCH  17  22
BRANCH  19  24
ATOM     24  O   UNL d   1      -6.517   7.585   0.198  0.00  0.00    -0.356 OA
ATOM     25  C   UNL d   1      -6.834   8.654  -0.691  0.00  0.00     0.210 C 
ENDBRANCH  19  24
ENDBRANCH   3  16
TORSDOF 5
