REMARK  9 active torsions:
REMARK  status: ('A' for Active; 'I' for Inactive)
REMARK    1  A    between atoms: C_2  and  N_1 
REMARK    2  A    between atoms: C_6  and  C_8 
REMARK    3  A    between atoms: C_29  and  C_6 
REMARK    4  A    between atoms: S_16  and  C_29 
REMARK    5  A    between atoms: C_30  and  S_16 
REMARK    6  A    between atoms: O_17  and  C_23 
REMARK    7  A    between atoms: C_19  and  O_17 
REMARK    8  A    between atoms: C_20  and  C_30 
REMARK    9  A    between atoms: C_23  and  C_22 
ROOT
ATOM      1  C   UNL d   1      -3.483   8.694   4.036  0.00  0.00     0.011 A 
ATOM      2  C   UNL d   1      -3.021   8.818   2.726  0.00  0.00     0.018 A 
ATOM      3  C   UNL d   1      -3.341   7.476   4.713  0.00  0.00     0.018 A 
ATOM      4  C   UNL d   1      -2.273   6.523   2.762  0.00  0.00     0.069 A 
ATOM      5  C   UNL d   1      -2.447   7.729   2.084  0.00  0.00     0.037 A 
ATOM      6  C   UNL d   1      -2.745   6.386   4.069  0.00  0.00     0.037 A 
ENDROOT
BRANCH   1   7
ATOM      7  C   UNL d   1      -4.170   9.834   4.700  0.00  0.00     0.168 C 
ATOM      8  O   UNL d   1      -4.147   9.922   5.926  0.00  0.00    -0.292 OA
BRANCH   7   9
ATOM      9  C   UNL d   1      -4.910  10.845   3.841  0.00  0.00     0.158 C 
BRANCH   9  10
ATOM     10  S   UNL d   1      -6.265  10.073   2.895  0.00  0.00    -0.157 SA
BRANCH  10  11
ATOM     11  C   UNL d   1      -7.254   9.421   4.277  0.00  0.00     0.112 C 
BRANCH  11  12
ATOM     12  C   UNL d   1      -8.458   8.661   3.777  0.00  0.00    -0.047 A 
ATOM     13  C   UNL d   1      -8.392   7.272   3.579  0.00  0.00     0.033 A 
ATOM     14  C   UNL d   1      -9.515   6.558   3.145  0.00  0.00     0.056 A 
ATOM     15 CL   UNL d   1      -9.356   4.848   2.953  0.00  0.00    -0.083 Cl
ATOM     16  C   UNL d   1     -10.714   7.232   2.892  0.00  0.00     0.055 A 
ATOM     17  C   UNL d   1     -10.778   8.618   3.057  0.00  0.00     0.026 A 
ATOM     18 CL   UNL d   1     -12.150   6.415   2.384  0.00  0.00    -0.083 Cl
ATOM     19  C   UNL d   1      -9.657   9.328   3.494  0.00  0.00     0.010 A 
ENDBRANCH  11  12
ENDBRANCH  10  11
ENDBRANCH   9  10
ENDBRANCH   7   9
ENDBRANCH   1   7
BRANCH   4  20
ATOM     20  O   UNL d   1      -1.636   5.438   2.220  0.00  0.00    -0.347 OA
BRANCH  20  21
ATOM     21  C   UNL d   1      -0.691   5.787   1.203  0.00  0.00     0.214 C 
BRANCH  21  22
ATOM     22  C   UNL d   1       0.317   4.681   1.052  0.00  0.00    -0.034 A 
ATOM     23  C   UNL d   1      -0.084   3.423   0.584  0.00  0.00     0.012 A 
ATOM     24  C   UNL d   1       0.853   2.401   0.438  0.00  0.00     0.037 A 
ATOM     25  C   UNL d   1       2.194   2.640   0.757  0.00  0.00     0.102 A 
ATOM     26  C   UNL d   1       2.607   3.897   1.221  0.00  0.00     0.037 A 
ATOM     27  C   UNL d   1       1.665   4.913   1.367  0.00  0.00     0.012 A 
BRANCH  25  28
ATOM     28  N   UNL d   1       3.179   1.565   0.606  0.00  0.00    -0.116 N 
ATOM     29  O   UNL d   1       4.360   1.818   0.896  0.00  0.00    -0.532 OA
ATOM     30  O   UNL d   1       2.780   0.469   0.194  0.00  0.00    -0.532 OA
ENDBRANCH  25  28
ENDBRANCH  21  22
ENDBRANCH  20  21
ENDBRANCH   4  20
TORSDOF 9
