REMARK  1 active torsions:
REMARK  status: ('A' for Active; 'I' for Inactive)
REMARK    1  A    between atoms: C_18  and  N_4 
ROOT
ATOM      1  C   UNL d   1       2.701  -0.691  -0.011  0.00  0.00     0.139 A 
ATOM      2  C   UNL d   1       1.751   0.285   0.029  0.00  0.00     0.105 A 
ATOM      3  N   UNL d   1       4.055  -0.290  -0.124  0.00  0.00    -0.288 N 
ATOM      4  N   UNL d   1       2.279  -2.061  -0.004  0.00  0.00    -0.262 N 
ATOM      5  N   UNL d   1       3.510   1.993   0.070  0.00  0.00    -0.270 N 
ATOM      6  C   UNL d   1       4.484   1.032   0.018  0.00  0.00     0.332 C 
ATOM      7  C   UNL d   1       2.165   1.724   0.009  0.00  0.00     0.267 C 
ATOM      8  C   UNL d   1       0.911  -2.429  -0.014  0.00  0.00     0.266 A 
ATOM      9  C   UNL d   1      -0.089  -1.369  -0.001  0.00  0.00     0.061 A 
ATOM     10  C   UNL d   1       0.314  -0.059   0.037  0.00  0.00     0.068 A 
ATOM     11  N   UNL d   1      -0.606   0.939   0.058  0.00  0.00    -0.354 N 
ATOM     12  HN  UNL d   1      -0.293   1.909   0.091  1.00  0.00     0.166 HD
ATOM     13  C   UNL d   1      -1.456  -1.677  -0.008  0.00  0.00     0.033 A 
ATOM     14  C   UNL d   1      -1.923   0.667   0.035  0.00  0.00     0.044 A 
ATOM     15  C   UNL d   1      -2.402  -0.652   0.009  0.00  0.00    -0.007 A 
ATOM     16  C   UNL d   1      -2.847   1.702   0.034  0.00  0.00     0.056 A 
ATOM     17  C   UNL d   1      -4.224   1.455   0.018  0.00  0.00     0.058 A 
ATOM     18  C   UNL d   1      -4.694   0.141   0.003  0.00  0.00     0.056 A 
ATOM     19  C   UNL d   1      -3.784  -0.914  -0.005  0.00  0.00     0.039 A 
ATOM     20  O   UNL d   1       5.681   1.329   0.063  0.00  0.00    -0.246 OA
ATOM     21  O   UNL d   1       1.353   2.645  -0.061  0.00  0.00    -0.267 OA
ATOM     22  O   UNL d   1       0.478  -3.582  -0.003  0.00  0.00    -0.267 OA
ATOM     23  C   UNL d   1       5.164  -1.183  -0.444  0.00  0.00     0.163 C 
ATOM     24  C   UNL d   1       3.905   3.394   0.062  0.00  0.00     0.164 C 
ATOM     25 CL   UNL d   1      -5.288   2.816   0.016  0.00  0.00    -0.082 Cl
ATOM     26 CL   UNL d   1      -6.377  -0.248  -0.010  0.00  0.00    -0.083 Cl
ENDROOT
BRANCH   4  27
ATOM     27  C   UNL d   1       3.144  -3.205   0.093  0.00  0.00     0.044 A 
ATOM     28  C   UNL d   1       3.111  -4.183  -0.918  0.00  0.00     0.030 A 
ATOM     29  C   UNL d   1       3.969  -5.280  -0.876  0.00  0.00     0.002 A 
ATOM     30  C   UNL d   1       4.860  -5.418   0.184  0.00  0.00     0.000 A 
ATOM     31  C   UNL d   1       4.869  -4.480   1.218  0.00  0.00     0.002 A 
ATOM     32  C   UNL d   1       4.000  -3.385   1.184  0.00  0.00     0.030 A 
ENDBRANCH   4  27
TORSDOF 1
