REMARK  4 active torsions:
REMARK  status: ('A' for Active; 'I' for Inactive)
REMARK       I    between atoms: N_2  and  C_1 
REMARK       I    between atoms: N_3  and  C_1 
REMARK    1  A    between atoms: C_5  and  N_2 
REMARK    2  A    between atoms: C_6  and  N_3 
REMARK    3  A    between atoms: C_7  and  C_5 
REMARK    4  A    between atoms: C_8  and  C_6 
ROOT
ATOM      1  C   UNL d   1       0.991  -0.097   0.022  0.00  0.00     0.316 C 
ATOM      2  N   UNL d   1       0.321   0.610  -0.935  0.00  0.00    -0.339 N 
ATOM      3  N   UNL d   1       0.146  -0.696   0.912  0.00  0.00    -0.339 N 
ATOM      4  O   UNL d   1       2.212  -0.182   0.077  0.00  0.00    -0.247 OA
ATOM      5  H   UNL d   1      -0.684   0.669  -0.898  0.00  0.00     0.164 HD
ATOM      6  H   UNL d   1      -0.849  -0.620   0.782  0.00  0.00     0.164 HD
ENDROOT
BRANCH   2   7
ATOM      7  C   UNL d   1       1.006   1.337  -1.980  0.00  0.00     0.162 C 
BRANCH   7   8
ATOM      8  C   UNL d   1       0.634   0.829  -3.351  0.00  0.00    -0.040 A 
ATOM      9  C   UNL d   1       0.047   1.680  -4.298  0.00  0.00     0.009 A 
ATOM     10  C   UNL d   1      -0.245   1.217  -5.583  0.00  0.00     0.001 A 
ATOM     11  C   UNL d   1       0.046  -0.099  -5.935  0.00  0.00     0.000 A 
ATOM     12  C   UNL d   1       0.627  -0.956  -5.002  0.00  0.00     0.001 A 
ATOM     13  C   UNL d   1       0.921  -0.495  -3.718  0.00  0.00     0.009 A 
ENDBRANCH   7   8
ENDBRANCH   2   7
BRANCH   3  14
ATOM     14  C   UNL d   1       0.628  -1.522   1.994  0.00  0.00     0.162 C 
BRANCH  14  15
ATOM     15  C   UNL d   1       0.148  -1.019   3.331  0.00  0.00    -0.040 A 
ATOM     16  C   UNL d   1      -0.704  -1.792   4.130  0.00  0.00     0.009 A 
ATOM     17  C   UNL d   1      -1.093  -1.341   5.394  0.00  0.00     0.001 A 
ATOM     18  C   UNL d   1      -0.636  -0.113   5.869  0.00  0.00     0.000 A 
ATOM     19  C   UNL d   1       0.199   0.672   5.077  0.00  0.00     0.001 A 
ATOM     20  C   UNL d   1       0.589   0.223   3.815  0.00  0.00     0.009 A 
ENDBRANCH  14  15
ENDBRANCH   3  14
TORSDOF 4
