REMARK  11 active torsions:
REMARK  status: ('A' for Active; 'I' for Inactive)
REMARK    1  A    between atoms: C_3  and  N_1 
REMARK    2  A    between atoms: C_2  and  C_11 
REMARK    3  A    between atoms: O_6  and  C_2 
REMARK    4  A    between atoms: N_4  and  O_6 
REMARK    5  A    between atoms: O_32  and  C_9 
REMARK    6  A    between atoms: O_14  and  C_12 
REMARK    7  A    between atoms: C_28  and  O_14 
REMARK    8  A    between atoms: C_33  and  C_22 
REMARK    9  A    between atoms: C_25  and  C_28 
REMARK   10  A    between atoms: C_26  and  C_34 
REMARK   11  A    between atoms: C_34  and  C_33 
ROOT
ATOM      1  C   UNL d   1      -6.963  -5.067   7.663  0.00  0.00     0.102 A 
ATOM      2  C   UNL d   1      -6.865  -6.464   7.783  0.00  0.00     0.102 A 
ATOM      3  C   UNL d   1      -6.375  -4.420   6.565  0.00  0.00     0.046 A 
ATOM      4  C   UNL d   1      -6.213  -7.191   6.781  0.00  0.00     0.040 A 
ATOM      5  C   UNL d   1      -5.667  -5.145   5.592  0.00  0.00    -0.055 A 
ATOM      6  C   UNL d   1      -5.606  -6.537   5.707  0.00  0.00     0.010 A 
ENDROOT
BRANCH   5   7
ATOM      7  C   UNL d   1      -5.011  -4.455   4.417  0.00  0.00     0.044 C 
BRANCH   7   8
ATOM      8  C   UNL d   1      -3.889  -3.502   4.827  0.00  0.00     0.058 C 
BRANCH   8   9
ATOM      9  C   UNL d   1      -3.224  -2.889   3.599  0.00  0.00     0.007 C 
ATOM     10  N   UNL d   1      -2.212  -3.527   3.101  0.00  0.00    -0.266 N 
ATOM     11  HN  UNL d   1      -1.868  -4.401   3.499  1.00  0.00     0.194 HD
ATOM     12  C   UNL d   1      -3.817  -1.613   3.062  0.00  0.00     0.065 C 
BRANCH  10  13
ATOM     13  O   UNL d   1      -1.617  -2.925   1.967  0.00  0.00    -0.195 OA
BRANCH  13  14
ATOM     14  C   UNL d   1      -0.527  -3.684   1.617  0.00  0.00     0.315 C 
ATOM     15  O   UNL d   1      -0.131  -4.694   2.190  0.00  0.00    -0.257 OA
BRANCH  14  16
ATOM     16  C   UNL d   1       0.192  -3.176   0.410  0.00  0.00     0.041 A 
ATOM     17  C   UNL d   1      -0.163  -2.024  -0.302  0.00  0.00     0.020 A 
ATOM     18  C   UNL d   1       0.583  -1.638  -1.430  0.00  0.00     0.037 A 
ATOM     19  C   UNL d   1       1.687  -2.402  -1.843  0.00  0.00     0.102 A 
ATOM     20  C   UNL d   1       2.049  -3.552  -1.139  0.00  0.00     0.037 A 
ATOM     21  C   UNL d   1       1.302  -3.931  -0.021  0.00  0.00     0.020 A 
BRANCH  19  22
ATOM     22  N   UNL d   1       2.468  -2.007  -3.025  0.00  0.00    -0.116 N 
ATOM     23  O   UNL d   1       3.440  -2.709  -3.334  0.00  0.00    -0.532 OA
ATOM     24  O   UNL d   1       2.103  -0.994  -3.639  0.00  0.00    -0.532 OA
ENDBRANCH  19  22
ENDBRANCH  14  16
ENDBRANCH  13  14
ENDBRANCH  10  13
ENDBRANCH   8   9
ENDBRANCH   7   8
ENDBRANCH   5   7
BRANCH   1  25
ATOM     25  O   UNL d   1      -7.678  -4.415   8.639  0.00  0.00    -0.353 OA
ATOM     26  C   UNL d   1      -7.318  -3.062   8.884  0.00  0.00     0.210 C 
ENDBRANCH   1  25
BRANCH   2  27
ATOM     27  O   UNL d   1      -7.420  -7.040   8.904  0.00  0.00    -0.344 OA
BRANCH  27  28
ATOM     28  C   UNL d   1      -6.901  -8.325   9.253  0.00  0.00     0.214 C 
BRANCH  28  29
ATOM     29  C   UNL d   1      -7.175  -8.663  10.702  0.00  0.00    -0.032 A 
ATOM     30  C   UNL d   1      -6.223  -9.399  11.428  0.00  0.00     0.035 A 
ATOM     31  C   UNL d   1      -6.460  -9.768  12.757  0.00  0.00     0.056 A 
ATOM     32 CL   UNL d   1      -5.228 -10.667  13.570  0.00  0.00    -0.083 Cl
ATOM     33  C   UNL d   1      -7.663  -9.413  13.371  0.00  0.00     0.055 A 
ATOM     34  C   UNL d   1      -8.622  -8.693  12.653  0.00  0.00     0.026 A 
ATOM     35 CL   UNL d   1      -8.027  -9.837  15.006  0.00  0.00    -0.083 Cl
ATOM     36  C   UNL d   1      -8.382  -8.324  11.325  0.00  0.00     0.011 A 
ENDBRANCH  28  29
ENDBRANCH  27  28
ENDBRANCH   2  27
TORSDOF 11
