REMARK  2 active torsions:
REMARK  status: ('A' for Active; 'I' for Inactive)
REMARK    1  A    between atoms: N_3  and  C_1 
REMARK       I    between atoms: C_2  and  N_3 
REMARK       I    between atoms: N_9  and  C_2 
REMARK    2  A    between atoms: N_8  and  N_9 
ROOT
ATOM      1  C   UNL d   1      -2.596  -3.589  -0.057  0.00  0.00     0.336 C 
ATOM      2  N   UNL d   1      -3.706  -4.254   0.378  0.00  0.00    -0.292 N 
ATOM      3  N   UNL d   1      -1.375  -4.210   0.114  0.00  0.00    -0.271 N 
ATOM      4  O   UNL d   1      -2.752  -2.480  -0.573  0.00  0.00    -0.246 OA
ATOM      5  H   UNL d   1      -4.560  -3.736   0.229  0.00  0.00     0.172 HD
ATOM      6  H   UNL d   1      -1.384  -5.065   0.667  0.00  0.00     0.185 HD
ENDROOT
BRANCH   2   7
ATOM      7  C   UNL d   1      -3.789  -5.435   1.075  0.00  0.00     0.132 A 
ATOM      8  N   UNL d   1      -2.750  -6.220   1.394  0.00  0.00    -0.245 N 
ATOM      9  O   UNL d   1      -3.273  -7.277   2.114  0.00  0.00    -0.241 OA
ATOM     10  HN  UNL d   1      -1.770  -6.067   1.154  1.00  0.00     0.196 HD
ATOM     11  C   UNL d   1      -4.619  -7.121   2.231  0.00  0.00     0.076 A 
ATOM     12  C   UNL d   1      -4.996  -5.975   1.578  0.00  0.00     0.084 A 
ATOM     13  C   UNL d   1      -5.336  -8.151   3.003  0.00  0.00     0.079 C 
ENDBRANCH   2   7
BRANCH   3  14
ATOM     14  N   UNL d   1      -0.207  -3.418   0.067  0.00  0.00    -0.223 NA
ATOM     15  C   UNL d   1       0.506  -3.516  -1.218  0.00  0.00     0.140 C 
ATOM     16  C   UNL d   1       1.476  -4.703  -1.324  0.00  0.00     0.183 C 
ATOM     17  O   UNL d   1       2.354  -4.785  -0.194  0.00  0.00    -0.389 OA
ATOM     18  C   UNL d   1       1.590  -4.890   1.013  0.00  0.00     0.183 C 
ATOM     19  C   UNL d   1       0.699  -3.658   1.200  0.00  0.00     0.140 C 
ENDBRANCH   3  14
TORSDOF 2
