REMARK  4 active torsions:
REMARK  status: ('A' for Active; 'I' for Inactive)
REMARK    1  A    between atoms: C_3  and  C_1 
REMARK    2  A    between atoms: C_7  and  C_1 
REMARK    3  A    between atoms: N_10  and  C_2 
REMARK    4  A    between atoms: N_4  and  C_3 
ROOT
ATOM      1  C   UNL d   1       0.946   0.056  -0.063  0.00  0.00     0.068 C 
ATOM      2  C   UNL d   1       0.313  -1.139  -0.110  0.00  0.00     0.108 C 
ENDROOT
BRANCH   1   3
ATOM      3  C   UNL d   1       2.466   0.056  -0.063  0.00  0.00    -0.033 C 
BRANCH   3   4
ATOM      4  N   UNL d   1       3.727   0.056  -0.063  0.00  0.00    -0.365 N 
ATOM      5  HN2 UNL d   1       2.707   0.056  -0.063  1.00  0.00     0.165 HD
ATOM      6  HN1 UNL d   1       4.747   0.056  -0.063  1.00  0.00     0.165 HD
ENDBRANCH   3   4
ENDBRANCH   1   3
BRANCH   1   7
ATOM      7  C   UNL d   1       0.218   1.349  -0.075  0.00  0.00     0.053 A 
ATOM      8  N   UNL d   1      -1.140   1.286  -0.070  0.00  0.00    -0.365 N 
ATOM      9  C   UNL d   1      -1.835   2.444  -0.058  0.00  0.00     0.088 A 
ATOM     10  HN  UNL d   1      -1.622   0.387  -0.074  1.00  0.00     0.165 HD
ATOM     11  C   UNL d   1      -1.245   3.693  -0.053  0.00  0.00     0.017 A 
ATOM     12  C   UNL d   1       0.141   3.757  -0.060  0.00  0.00     0.004 A 
ATOM     13  C   UNL d   1       0.883   2.576  -0.071  0.00  0.00     0.031 A 
ENDBRANCH   1   7
BRANCH   2  14
ATOM     14  N   UNL d   1       0.772  -2.460  -0.067  0.00  0.00    -0.397 N 
ATOM     15  C   UNL d   1       2.048  -2.895   0.505  0.00  0.00     0.148 C 
ATOM     16  C   UNL d   1      -0.006  -3.550  -0.663  0.00  0.00     0.148 C 
ENDBRANCH   2  14
TORSDOF 4
