REMARK  5 active torsions:
REMARK  status: ('A' for Active; 'I' for Inactive)
REMARK    1  A    between atoms: C_7  and  C_1 
REMARK    2  A    between atoms: O_12  and  C_2 
REMARK    3  A    between atoms: C_4  and  C_14 
REMARK       I    between atoms: N_11  and  C_7 
REMARK    4  A    between atoms: C_10  and  O_12 
REMARK    5  A    between atoms: C_14  and  N_11 
ROOT
ATOM      1  C   UNL d   1      -0.591   2.382  -0.079  0.00  0.00     0.275 C 
ATOM      2  N   UNL d   1      -1.880   2.814   0.110  0.00  0.00    -0.351 N 
ATOM      3  O   UNL d   1      -0.323   1.200  -0.272  0.00  0.00    -0.265 OA
ATOM      4  H   UNL d   1      -2.042   3.798   0.286  0.00  0.00     0.163 HD
ENDROOT
BRANCH   1   5
ATOM      5  C   UNL d   1       0.419   3.421  -0.083  0.00  0.00     0.145 A 
ATOM      6  O   UNL d   1       0.201   4.654   0.481  0.00  0.00    -0.282 OA
ATOM      7  C   UNL d   1       1.367   5.356   0.378  0.00  0.00     0.191 A 
ATOM      8  C   UNL d   1       2.292   4.630  -0.342  0.00  0.00     0.067 A 
ATOM      9  C   UNL d   1       1.705   3.376  -0.600  0.00  0.00     0.048 A 
BRANCH   7  10
ATOM     10  O   UNL d   1       1.368   6.545   0.985  0.00  0.00    -0.288 OA
BRANCH  10  11
ATOM     11  C   UNL d   1       2.547   7.081   1.462  0.00  0.00     0.081 A 
ATOM     12  C   UNL d   1       2.706   8.468   1.392  0.00  0.00     0.061 A 
ATOM     13  C   UNL d   1       3.870   9.058   1.894  0.00  0.00     0.038 A 
ATOM     14 CL   UNL d   1       4.069  10.766   1.809  0.00  0.00    -0.084 Cl
ATOM     15  C   UNL d   1       4.877   8.282   2.466  0.00  0.00     0.048 A 
ATOM     16  C   UNL d   1       4.703   6.905   2.550  0.00  0.00     0.038 A 
ATOM     17  C   UNL d   1       3.540   6.303   2.069  0.00  0.00     0.061 A 
ATOM     18 CL   UNL d   1       5.934   5.929   3.251  0.00  0.00    -0.084 Cl
ENDBRANCH  10  11
ENDBRANCH   7  10
ENDBRANCH   1   5
BRANCH   2  19
ATOM     19  C   UNL d   1      -3.029   1.940   0.036  0.00  0.00     0.164 C 
BRANCH  19  20
ATOM     20  C   UNL d   1      -3.952   2.039   1.229  0.00  0.00    -0.004 A 
ATOM     21  C   UNL d   1      -4.180   3.233   1.940  0.00  0.00     0.088 A 
ATOM     22  C   UNL d   1      -5.034   3.258   3.051  0.00  0.00     0.003 A 
ATOM     23  O   UNL d   1      -3.525   4.363   1.521  0.00  0.00    -0.325 OA
ATOM     24  C   UNL d   1      -5.214   4.529   3.824  0.00  0.00     0.212 C 
ATOM     25  C   UNL d   1      -5.737   2.103   3.410  0.00  0.00     0.054 A 
ATOM     26  O   UNL d   1      -4.139   5.422   3.568  0.00  0.00    -0.362 OA
ATOM     27  C   UNL d   1      -3.956   5.560   2.167  0.00  0.00     0.345 C 
ATOM     28  C   UNL d   1      -5.558   0.936   2.680  0.00  0.00     0.117 A 
ATOM     29  C   UNL d   1      -4.676   0.893   1.605  0.00  0.00     0.054 A 
ATOM     30  F   UNL d   1      -6.247  -0.162   3.014  0.00  0.00    -0.206 F 
ENDBRANCH  19  20
ENDBRANCH   2  19
TORSDOF 5
