REMARK  6 active torsions:
REMARK  status: ('A' for Active; 'I' for Inactive)
REMARK    1  A    between atoms: C_3  and  C_1 
REMARK    2  A    between atoms: C_15  and  C_10 
REMARK    3  A    between atoms: N_20  and  C_11 
REMARK    4  A    between atoms: O_23  and  C_15 
REMARK    5  A    between atoms: C_16  and  N_20 
REMARK    6  A    between atoms: C_25  and  O_23 
ROOT
ATOM      1  C   UNL d   1       1.508  -2.651  -0.585  0.00  0.00     0.015 A 
ATOM      2  C   UNL d   1      -0.315  -3.993  -1.558  0.00  0.00     0.113 A 
ATOM      3  C   UNL d   1       0.296  -3.462  -0.483  0.00  0.00     0.044 A 
ATOM      4  N   UNL d   1       1.422  -2.978  -2.924  0.00  0.00    -0.326 N 
ATOM      5  C   UNL d   1       0.269  -3.731  -2.902  0.00  0.00     0.266 A 
ATOM      6  C   UNL d   1       2.043  -2.448  -1.810  0.00  0.00     0.021 A 
ATOM      7  C   UNL d   1      -1.490  -4.786  -1.441  0.00  0.00     0.105 C 
ATOM      8  N   UNL d   1      -2.447  -5.420  -1.278  0.00  0.00    -0.191 NA
ATOM      9  O   UNL d   1      -0.235  -4.150  -3.938  0.00  0.00    -0.267 OA
ATOM     10  C   UNL d   1       3.302  -1.660  -2.052  0.00  0.00     0.069 C 
ATOM     11  H   UNL d   1       1.814  -2.822  -3.846  0.00  0.00     0.169 HD
ENDROOT
BRANCH   1  12
ATOM     12  C   UNL d   1       2.076  -2.111   0.615  0.00  0.00     0.053 A 
ATOM     13  N   UNL d   1       3.089  -2.798   1.254  0.00  0.00    -0.335 N 
ATOM     14  C   UNL d   1       3.411  -2.181   2.370  0.00  0.00     0.148 A 
ATOM     15  HN  UNL d   1       3.523  -3.656   0.911  1.00  0.00     0.168 HD
ATOM     16  S   UNL d   1       2.522  -0.729   2.677  0.00  0.00    -0.064 SA
ATOM     17  C   UNL d   1       1.677  -0.932   1.204  0.00  0.00     0.083 A 
BRANCH  14  18
ATOM     18  N   UNL d   1       4.344  -2.573   3.271  0.00  0.00    -0.345 N 
ATOM     19  H   UNL d   1       4.321  -2.103   4.171  0.00  0.00     0.167 HD
BRANCH  18  20
ATOM     20  C   UNL d   1       5.392  -3.450   3.076  0.00  0.00     0.119 C 
ATOM     21  C   UNL d   1       6.316  -3.855   3.970  0.00  0.00     0.135 C 
ATOM     22  C   UNL d   1       6.265  -3.449   5.341  0.00  0.00     0.107 C 
ATOM     23  N   UNL d   1       6.166  -3.109   6.446  0.00  0.00    -0.191 NA
BRANCH  21  24
ATOM     24  C   UNL d   1       7.365  -4.800   3.511  0.00  0.00     0.305 C 
ATOM     25  O   UNL d   1       7.469  -5.231   2.373  0.00  0.00    -0.258 OA
BRANCH  24  26
ATOM     26  O   UNL d   1       8.131  -5.169   4.568  0.00  0.00    -0.317 OA
BRANCH  26  27
ATOM     27  C   UNL d   1       8.865  -6.393   4.421  0.00  0.00     0.174 C 
ATOM     28  C   UNL d   1       7.950  -7.529   4.842  0.00  0.00     0.034 C 
ENDBRANCH  26  27
ENDBRANCH  24  26
ENDBRANCH  21  24
ENDBRANCH  18  20
ENDBRANCH  14  18
ENDBRANCH   1  12
TORSDOF 6
