REMARK  2 active torsions:
REMARK  status: ('A' for Active; 'I' for Inactive)
REMARK    1  A    between atoms: C_12  and  C_6 
REMARK    2  A    between atoms: C_16  and  C_7 
ROOT
ATOM      1  N   UNL d   1       1.422  -0.638  -0.088  0.00  0.00    -0.348 N 
ATOM      2  HN  UNL d   1       2.306  -1.147  -0.113  1.00  0.00     0.166 HD
ATOM      3  C   UNL d   1       0.229  -1.202  -0.091  0.00  0.00     0.091 A 
ATOM      4  S   UNL d   1      -1.449  -3.432  -0.139  0.00  0.00    -0.085 SA
ATOM      5  C   UNL d   1       0.072  -2.639  -0.076  0.00  0.00     0.039 A 
ATOM      6  C   UNL d   1       1.306   0.745  -0.047  0.00  0.00     0.050 A 
ATOM      7  C   UNL d   1      -0.757  -4.992   0.017  0.00  0.00     0.032 A 
ATOM      8  S   UNL d   1      -1.091  -0.095  -0.081  0.00  0.00    -0.081 SA
ATOM      9  C   UNL d   1       0.009   1.214  -0.048  0.00  0.00     0.082 A 
ATOM     10  C   UNL d   1       1.096  -3.566  -0.001  0.00  0.00     0.023 A 
ATOM     11  C   UNL d   1       0.623  -4.910   0.034  0.00  0.00     0.023 A 
ENDROOT
BRANCH   6  12
ATOM     12  C   UNL d   1       2.481   1.608  -0.031  0.00  0.00    -0.006 A 
ATOM     13  C   UNL d   1       3.658   1.193  -0.670  0.00  0.00     0.053 A 
ATOM     14  C   UNL d   1       4.785   2.018  -0.680  0.00  0.00     0.103 A 
ATOM     15  O   UNL d   1       5.894   1.540  -1.330  0.00  0.00    -0.346 OA
ATOM     16  C   UNL d   1       4.742   3.270  -0.063  0.00  0.00     0.102 A 
ATOM     17  C   UNL d   1       7.063   2.295  -0.994  0.00  0.00     0.202 C 
ATOM     18  C   UNL d   1       6.776   3.787  -1.038  0.00  0.00     0.202 C 
ATOM     19  O   UNL d   1       5.797   4.145  -0.058  0.00  0.00    -0.346 OA
ATOM     20  C   UNL d   1       3.590   3.682   0.600  0.00  0.00     0.040 A 
ATOM     21  C   UNL d   1       2.463   2.855   0.615  0.00  0.00     0.017 A 
ENDBRANCH   6  12
BRANCH   7  22
ATOM     22  C   UNL d   1      -1.593  -6.194   0.110  0.00  0.00     0.049 A 
ATOM     23  N   UNL d   1      -1.027  -7.312  -0.410  0.00  0.00    -0.365 N 
ATOM     24  C   UNL d   1      -1.715  -8.469  -0.289  0.00  0.00     0.088 A 
ATOM     25  HN  UNL d   1      -0.119  -7.281  -0.872  1.00  0.00     0.165 HD
ATOM     26  C   UNL d   1      -2.941  -8.575   0.344  0.00  0.00     0.017 A 
ATOM     27  C   UNL d   1      -3.507  -7.423   0.873  0.00  0.00     0.004 A 
ATOM     28  C   UNL d   1      -2.829  -6.212   0.752  0.00  0.00     0.031 A 
ENDBRANCH   7  22
TORSDOF 2
