REMARK  3 active torsions:
REMARK  status: ('A' for Active; 'I' for Inactive)
REMARK    1  A    between atoms: C_2  and  S_1 
REMARK    2  A    between atoms: C_4  and  S_1 
REMARK    3  A    between atoms: C_3  and  C_5 
ROOT
ATOM      1  C   UNL d   1       0.509  -0.944  -1.537  0.00  0.00     0.134 A 
ATOM      2  C   UNL d   1      -0.244  -2.382  -3.735  0.00  0.00     0.063 A 
ATOM      3  N   UNL d   1       0.753  -2.280  -1.532  0.00  0.00    -0.356 N 
ATOM      4  HN  UNL d   1       1.209  -2.740  -0.744  1.00  0.00     0.166 HD
ATOM      5  C   UNL d   1       0.359  -2.967  -2.627  0.00  0.00     0.105 A 
ATOM      6  C   UNL d   1      -0.475  -0.999  -3.700  0.00  0.00     0.020 A 
ATOM      7  C   UNL d   1      -0.105  -0.262  -2.577  0.00  0.00     0.043 A 
ENDROOT
BRANCH   1   8
ATOM      8  S   UNL d   1       1.011  -0.082  -0.058  0.00  0.00     0.228 S 
ATOM      9  O   UNL d   1       0.287   1.174   0.009  0.00  0.00    -0.215 OA
ATOM     10  O   UNL d   1       1.011  -1.001   1.067  0.00  0.00    -0.215 OA
BRANCH   8  11
ATOM     11  C   UNL d   1       2.719   0.364  -0.294  0.00  0.00     0.106 A 
ATOM     12  S   UNL d   1       3.054   1.427  -1.594  0.00  0.00    -0.090 SA
ATOM     13  C   UNL d   1       4.725   1.453  -1.230  0.00  0.00     0.051 A 
ATOM     14  C   UNL d   1       5.029   0.660  -0.146  0.00  0.00     0.009 A 
ATOM     15  C   UNL d   1       3.870   0.027   0.393  0.00  0.00     0.032 A 
ENDBRANCH   8  11
ENDBRANCH   1   8
BRANCH   2  16
ATOM     16  C   UNL d   1      -0.624  -3.213  -4.923  0.00  0.00     0.418 C 
ATOM     17  F   UNL d   1      -0.326  -4.534  -4.783  0.00  0.00    -0.166 F 
ATOM     18  F   UNL d   1      -1.956  -3.157  -5.194  0.00  0.00    -0.166 F 
ATOM     19  F   UNL d   1       0.007  -2.808  -6.059  0.00  0.00    -0.166 F 
ENDBRANCH   2  16
TORSDOF 3
