REMARK  2 active torsions:
REMARK  status: ('A' for Active; 'I' for Inactive)
REMARK    1  A    between atoms: C_2  and  C_1 
REMARK       I    between atoms: C_5  and  N_3 
REMARK    2  A    between atoms: C_10  and  C_5 
ROOT
ATOM      1  C   UNL d   1      -0.431  -1.586  -0.508  0.00  0.00     0.090 A 
ATOM      2  N   UNL d   1       0.800  -1.018  -0.187  0.00  0.00    -0.216 N 
ATOM      3  C   UNL d   1       2.044  -1.642   0.081  0.00  0.00     0.303 C 
ATOM      4  N   UNL d   1       0.719   0.352  -0.173  0.00  0.00    -0.302 N 
ATOM      5  HN  UNL d   1       1.438   1.016   0.117  1.00  0.00     0.186 HD
ATOM      6  C   UNL d   1      -1.257  -0.531  -0.853  0.00  0.00     0.052 A 
ATOM      7  C   UNL d   1      -0.504   0.624  -0.620  0.00  0.00     0.110 A 
ATOM      8  O   UNL d   1       2.203  -2.761  -0.407  0.00  0.00    -0.263 OA
ENDROOT
BRANCH   1   9
ATOM      9  C   UNL d   1      -0.825  -2.961  -0.346  0.00  0.00     0.091 C 
ATOM     10  N   UNL d   1      -1.654  -3.650  -1.223  0.00  0.00    -0.304 N 
ATOM     11  C   UNL d   1      -2.094  -4.780  -0.537  0.00  0.00     0.112 A 
ATOM     12  C   UNL d   1      -2.071  -3.348  -2.522  0.00  0.00     0.099 A 
ATOM     13  C   UNL d   1      -3.123  -5.554  -1.145  0.00  0.00     0.049 A 
ATOM     14  N   UNL d   1      -1.469  -4.930   0.608  0.00  0.00    -0.344 N 
ATOM     15  C   UNL d   1      -3.572  -5.230  -2.371  0.00  0.00     0.005 A 
ATOM     16  C   UNL d   1      -3.002  -4.117  -3.114  0.00  0.00     0.018 A 
ATOM     17  C   UNL d   1      -0.667  -3.818   0.738  0.00  0.00     0.036 C 
ATOM     18  HN  UNL d   1      -1.558  -5.706   1.263  1.00  0.00     0.167 HD
ATOM     19  C   UNL d   1       0.094  -3.642   2.000  0.00  0.00     0.070 C 
ENDBRANCH   1   9
BRANCH   3  20
ATOM     20  C   UNL d   1       3.041  -1.006   0.917  0.00  0.00     0.169 A 
ATOM     21  O   UNL d   1       4.242  -1.645   1.058  0.00  0.00    -0.233 OA
ATOM     22  N   UNL d   1       5.043  -0.952   1.950  0.00  0.00    -0.272 N 
ATOM     23  C   UNL d   1       4.315   0.094   2.340  0.00  0.00     0.117 A 
ATOM     24  HN  UNL d   1       5.990  -1.191   2.246  1.00  0.00     0.194 HD
ATOM     25  C   UNL d   1       3.057   0.117   1.719  0.00  0.00     0.064 A 
ENDBRANCH   3  20
TORSDOF 2
