REMARK  3 active torsions:
REMARK  status: ('A' for Active; 'I' for Inactive)
REMARK    1  A    between atoms: C_8  and  C_1 
REMARK    2  A    between atoms: C_6  and  C_2 
REMARK    3  A    between atoms: O_14  and  C_8 
ROOT
ATOM      1  C   UNL d   1       0.021  -1.360  -0.026  0.00  0.00     0.100 A 
ATOM      2  C   UNL d   1      -1.299  -0.930  -0.023  0.00  0.00     0.134 A 
ATOM      3  O   UNL d   1      -1.287   0.442  -0.044  0.00  0.00    -0.235 OA
ATOM      4  N   UNL d   1       0.005   0.917  -0.016  0.00  0.00    -0.264 N 
ATOM      5  HN  UNL d   1       0.303   1.892  -0.009  1.00  0.00     0.194 HD
ATOM      6  C   UNL d   1       0.789  -0.164   0.001  0.00  0.00     0.048 A 
ATOM      7  C   UNL d   1       2.263  -0.001   0.002  0.00  0.00     0.071 C 
ENDROOT
BRANCH   2   8
ATOM      8  C   UNL d   1      -2.530  -1.676   0.026  0.00  0.00     0.041 A 
ATOM      9  S   UNL d   1      -3.951  -1.090  -0.737  0.00  0.00    -0.099 SA
ATOM     10  C   UNL d   1      -4.846  -2.477  -0.293  0.00  0.00     0.050 A 
ATOM     11  C   UNL d   1      -4.099  -3.357   0.454  0.00  0.00     0.008 A 
ATOM     12  C   UNL d   1      -2.772  -2.882   0.659  0.00  0.00     0.022 A 
ENDBRANCH   2   8
BRANCH   1  13
ATOM     13  C   UNL d   1       0.474  -2.732  -0.067  0.00  0.00     0.297 C 
ATOM     14  O   UNL d   1      -0.160  -3.645  -0.577  0.00  0.00    -0.259 OA
BRANCH  13  15
ATOM     15  O   UNL d   1       1.678  -2.908   0.551  0.00  0.00    -0.322 OA
ATOM     16  C   UNL d   1       2.088  -4.275   0.618  0.00  0.00     0.213 C 
ENDBRANCH  13  15
ENDBRANCH   1  13
TORSDOF 3
