REMARK  5 active torsions:
REMARK  status: ('A' for Active; 'I' for Inactive)
REMARK    1  A    between atoms: C_19  and  N_1 
REMARK    2  A    between atoms: C_5  and  C_10 
REMARK    3  A    between atoms: C_8  and  N_15 
REMARK    4  A    between atoms: N_15  and  C_22 
REMARK    5  A    between atoms: C_22  and  C_19 
ROOT
ATOM      1  N   UNL d   1       3.232  -1.882  -2.311  0.00  0.00    -0.263 NA
ATOM      2  H   UNL d   1       2.441  -1.310  -2.581  0.00  0.00     0.130 HD
ENDROOT
BRANCH   1   3
ATOM      3  C   UNL d   1       4.134  -1.825  -3.365  0.00  0.00     0.157 A 
ATOM      4  N   UNL d   1       3.640  -1.429  -4.542  0.00  0.00    -0.329 N 
ATOM      5  C   UNL d   1       4.495  -1.369  -5.598  0.00  0.00     0.120 A 
ATOM      6  HN  UNL d   1       2.656  -1.181  -4.645  1.00  0.00     0.168 HD
ATOM      7  C   UNL d   1       5.836  -1.687  -5.473  0.00  0.00     0.051 A 
ATOM      8  C   UNL d   1       6.246  -2.070  -4.222  0.00  0.00     0.093 A 
ATOM      9  N   UNL d   1       5.419  -2.145  -3.168  0.00  0.00    -0.343 N 
ATOM     10  HN  UNL d   1       5.757  -2.436  -2.251  1.00  0.00     0.167 HD
BRANCH   5  11
ATOM     11  C   UNL d   1       3.978  -0.938  -6.960  0.00  0.00     0.432 C 
ATOM     12  F   UNL d   1       2.651  -0.633  -6.991  0.00  0.00    -0.165 F 
ATOM     13  F   UNL d   1       4.624   0.170  -7.430  0.00  0.00    -0.165 F 
ATOM     14  F   UNL d   1       4.164  -1.897  -7.914  0.00  0.00    -0.165 F 
ENDBRANCH   5  11
ENDBRANCH   1   3
BRANCH   1  15
ATOM     15  C   UNL d   1       3.830  -1.581  -1.017  0.00  0.00     0.115 C 
BRANCH  15  16
ATOM     16  C   UNL d   1       2.799  -1.691   0.113  0.00  0.00     0.149 C 
BRANCH  16  17
ATOM     17  N   UNL d   1       1.683  -0.765  -0.015  0.00  0.00    -0.287 N 
ATOM     18  C   UNL d   1       0.380  -1.168  -0.016  0.00  0.00     0.235 A 
ATOM     19  C   UNL d   1      -0.511   0.053  -0.029  0.00  0.00     0.050 A 
ATOM     20  O   UNL d   1      -0.022  -2.322   0.027  0.00  0.00    -0.272 OA
ATOM     21  C   UNL d   1      -1.501   0.012  -1.192  0.00  0.00     0.020 C 
ATOM     22  C   UNL d   1      -1.418   0.079   1.205  0.00  0.00     0.020 C 
ATOM     23  C   UNL d   1       0.463   1.231  -0.087  0.00  0.00     0.122 A 
ATOM     24  C   UNL d   1      -2.691   0.847  -0.737  0.00  0.00     0.001 C 
ATOM     25  C   UNL d   1      -2.649   0.874   0.787  0.00  0.00     0.001 C 
ATOM     26  C   UNL d   1       1.818   0.591   0.023  0.00  0.00     0.227 A 
ATOM     27  O   UNL d   1       2.865   1.213   0.125  0.00  0.00    -0.273 OA
ENDBRANCH  16  17
ENDBRANCH  15  16
ENDBRANCH   1  15
TORSDOF 5
