REMARK  7 active torsions:
REMARK  status: ('A' for Active; 'I' for Inactive)
REMARK    1  A    between atoms: C_12  and  N_1 
REMARK    2  A    between atoms: C_9  and  C_2 
REMARK    3  A    between atoms: S_11  and  C_5 
REMARK    4  A    between atoms: C_8  and  C_10 
REMARK    5  A    between atoms: C_20  and  C_12 
REMARK    6  A    between atoms: C_22  and  C_20 
REMARK    7  A    between atoms: O_21  and  C_22 
ROOT
ATOM      1  N   UNL d   1      -0.225  -1.214   0.065  0.00  0.00    -0.311 N 
ATOM      2  C   UNL d   1       1.010  -0.585  -0.037  0.00  0.00     0.134 A 
ATOM      3  N   UNL d   1       0.802   0.723   0.022  0.00  0.00    -0.283 N 
ATOM      4  HN  UNL d   1       1.530   1.437   0.014  1.00  0.00     0.188 HD
ATOM      5  C   UNL d   1      -1.150  -0.196   0.101  0.00  0.00     0.162 A 
ATOM      6  N   UNL d   1      -0.540   0.963   0.096  0.00  0.00    -0.278 N 
ATOM      7  HN  UNL d   1      -0.987   1.879   0.138  1.00  0.00     0.189 HD
ENDROOT
BRANCH   2   8
ATOM      8  C   UNL d   1       2.352  -1.180  -0.107  0.00  0.00     0.009 A 
ATOM      9  C   UNL d   1       2.644  -2.366  -0.788  0.00  0.00     0.016 A 
ATOM     10  C   UNL d   1       3.929  -2.923  -0.746  0.00  0.00     0.017 A 
ATOM     11  C   UNL d   1       4.967  -2.279  -0.060  0.00  0.00     0.048 A 
ATOM     12  C   UNL d   1       4.702  -1.047   0.548  0.00  0.00     0.017 A 
ATOM     13  C   UNL d   1       3.412  -0.509   0.525  0.00  0.00     0.016 A 
BRANCH  11  14
ATOM     14  C   UNL d   1       6.346  -2.888   0.028  0.00  0.00     0.417 C 
ATOM     15  F   UNL d   1       6.434  -4.118  -0.549  0.00  0.00    -0.166 F 
ATOM     16  F   UNL d   1       7.295  -2.123  -0.579  0.00  0.00    -0.166 F 
ATOM     17  F   UNL d   1       6.762  -3.049   1.313  0.00  0.00    -0.166 F 
ENDBRANCH  11  14
ENDBRANCH   2   8
BRANCH   1  18
ATOM     18  C   UNL d   1      -0.514  -2.633   0.074  0.00  0.00     0.135 C 
BRANCH  18  19
ATOM     19  C   UNL d   1       0.102  -3.461   1.199  0.00  0.00     0.046 C 
BRANCH  19  20
ATOM     20  C   UNL d   1      -0.372  -3.090   2.597  0.00  0.00     0.168 C 
BRANCH  20  21
ATOM     21  O   UNL d   1       0.262  -4.008   3.490  0.00  0.00    -0.396 OA
ATOM     22  C   UNL d   1      -0.071  -3.764   4.848  0.00  0.00     0.201 C 
ENDBRANCH  20  21
ENDBRANCH  19  20
ENDBRANCH  18  19
ENDBRANCH   1  18
BRANCH   5  23
ATOM     23  S   UNL d   1      -2.865  -0.426   0.130  0.00  0.00    -0.097 SA
ATOM     24  C   UNL d   1      -3.442   1.288   0.135  0.00  0.00     0.099 C 
ENDBRANCH   5  23
TORSDOF 7
