REMARK  7 active torsions:
REMARK  status: ('A' for Active; 'I' for Inactive)
REMARK    1  A    between atoms: C_2  and  N_1 
REMARK    2  A    between atoms: O_4  and  C_3 
REMARK    3  A    between atoms: C_6  and  O_4 
REMARK    4  A    between atoms: C_5  and  O_13 
REMARK    5  A    between atoms: C_12  and  C_5 
REMARK    6  A    between atoms: O_13  and  C_22 
REMARK    7  A    between atoms: C_22  and  C_20 
ROOT
ATOM      1  C   UNL d   1       0.276   0.820   0.859  0.00  0.00     0.137 A 
ATOM      2  C   UNL d   1       0.691   2.152   0.922  0.00  0.00     0.109 A 
ATOM      3  C   UNL d   1      -1.002   0.423   1.285  0.00  0.00     0.048 A 
ATOM      4  C   UNL d   1      -0.232   3.112   1.353  0.00  0.00     0.040 A 
ATOM      5  C   UNL d   1      -1.891   1.384   1.781  0.00  0.00    -0.031 A 
ATOM      6  C   UNL d   1      -1.498   2.729   1.801  0.00  0.00     0.012 A 
ENDROOT
BRANCH   5   7
ATOM      7  C   UNL d   1      -3.272   0.993   2.244  0.00  0.00     0.217 C 
BRANCH   7   8
ATOM      8  O   UNL d   1      -4.012   0.424   1.159  0.00  0.00    -0.313 OA
BRANCH   8   9
ATOM      9  C   UNL d   1      -4.623   1.323   0.350  0.00  0.00     0.293 C 
ATOM     10  O   UNL d   1      -4.599   2.537   0.476  0.00  0.00    -0.259 OA
BRANCH   9  11
ATOM     11  C   UNL d   1      -5.360   0.627  -0.739  0.00  0.00     0.039 A 
ATOM     12  C   UNL d   1      -6.043   1.412  -1.680  0.00  0.00     0.019 A 
ATOM     13  C   UNL d   1      -6.774   0.806  -2.705  0.00  0.00     0.025 A 
ATOM     14  C   UNL d   1      -6.823  -0.583  -2.793  0.00  0.00     0.034 A 
ATOM     15  C   UNL d   1      -6.140  -1.374  -1.870  0.00  0.00     0.025 A 
ATOM     16 CL   UNL d   1      -7.738  -1.329  -4.044  0.00  0.00    -0.084 Cl
ATOM     17  C   UNL d   1      -5.407  -0.771  -0.843  0.00  0.00     0.019 A 
ENDBRANCH   9  11
ENDBRANCH   8   9
ENDBRANCH   7   8
ENDBRANCH   5   7
BRANCH   1  18
ATOM     18  N   UNL d   1       1.164  -0.202   0.346  0.00  0.00    -0.113 N 
ATOM     19  O   UNL d   1       2.236  -0.374   0.941  0.00  0.00    -0.532 OA
ATOM     20  O   UNL d   1       0.756  -0.871  -0.611  0.00  0.00    -0.532 OA
ENDBRANCH   1  18
BRANCH   2  21
ATOM     21  O   UNL d   1       1.961   2.491   0.508  0.00  0.00    -0.307 OA
BRANCH  21  22
ATOM     22  C   UNL d   1       2.612   3.519   1.163  0.00  0.00     0.098 A 
ATOM     23  C   UNL d   1       3.358   4.433   0.408  0.00  0.00     0.069 A 
ATOM     24  C   UNL d   1       4.006   5.502   1.034  0.00  0.00     0.050 A 
ATOM     25 CL   UNL d   1       3.481   4.292  -1.308  0.00  0.00    -0.081 Cl
ATOM     26  C   UNL d   1       3.908   5.653   2.415  0.00  0.00     0.035 A 
ATOM     27  C   UNL d   1       3.197   4.731   3.181  0.00  0.00     0.026 A 
ATOM     28 CL   UNL d   1       4.671   6.987   3.187  0.00  0.00    -0.084 Cl
ATOM     29  C   UNL d   1       2.573   3.648   2.559  0.00  0.00     0.041 A 
ENDBRANCH  21  22
ENDBRANCH   2  21
TORSDOF 7
