REMARK  0 active torsions:
REMARK  status: ('A' for Active; 'I' for Inactive)
ROOT
ATOM      1  N   UNL d   1      -0.427   0.168  -0.002  0.00  0.00    -0.256 N 
ATOM      2  C   UNL d   1      -0.051  -1.165  -0.002  0.00  0.00     0.160 A 
ATOM      3  C   UNL d   1       0.531   1.172   0.000  0.00  0.00     0.267 A 
ATOM      4  C   UNL d   1       1.949   0.700   0.001  0.00  0.00     0.060 A 
ATOM      5  C   UNL d   1      -1.840   0.346  -0.002  0.00  0.00     0.063 A 
ATOM      6  N   UNL d   1       1.149  -1.623  -0.000  0.00  0.00    -0.335 N 
ATOM      7  HN  UNL d   1       1.341  -2.624   0.002  1.00  0.00     0.168 HD
ATOM      8  S   UNL d   1      -1.425  -2.250  -0.003  0.00  0.00    -0.051 SA
ATOM      9  C   UNL d   1       2.179  -0.680  -0.000  0.00  0.00     0.050 A 
ATOM     10  C   UNL d   1      -2.531  -0.875  -0.002  0.00  0.00     0.035 A 
ATOM     11  C   UNL d   1      -2.564   1.533  -0.002  0.00  0.00     0.055 A 
ATOM     12  O   UNL d   1       0.307   2.380   0.003  0.00  0.00    -0.267 OA
ATOM     13  C   UNL d   1       3.034   1.593   0.000  0.00  0.00     0.026 A 
ATOM     14  C   UNL d   1       3.488  -1.161   0.000  0.00  0.00     0.031 A 
ATOM     15  C   UNL d   1      -3.916  -0.953  -0.001  0.00  0.00     0.023 A 
ATOM     16  C   UNL d   1      -3.966   1.465  -0.001  0.00  0.00     0.036 A 
ATOM     17  C   UNL d   1       4.351   1.102  -0.001  0.00  0.00    -0.061 A 
ATOM     18  C   UNL d   1      -4.639   0.235  -0.000  0.00  0.00     0.025 A 
ATOM     19  C   UNL d   1       4.567  -0.281  -0.000  0.00  0.00     0.009 A 
ATOM     20 CL   UNL d   1      -4.894   2.916  -0.000  0.00  0.00    -0.084 Cl
ATOM     21  C   UNL d   1       5.545   2.014  -0.003  0.00  0.00     0.048 C 
ENDROOT
TORSDOF 0
