REMARK  8 active torsions:
REMARK  status: ('A' for Active; 'I' for Inactive)
REMARK    1  A    between atoms: C_2  and  C_1 
REMARK    2  A    between atoms: C_3  and  C_1 
REMARK    3  A    between atoms: C_5  and  C_1 
REMARK    4  A    between atoms: O_18  and  C_1 
REMARK       I    between atoms: C_4  and  N_6 
REMARK       I    between atoms: N_10  and  C_4 
REMARK    5  A    between atoms: O_20  and  C_5 
REMARK    6  A    between atoms: N_6  and  C_7 
REMARK    7  A    between atoms: C_19  and  N_10 
REMARK    8  A    between atoms: C_28  and  O_20 
ROOT
ATOM      1  C   UNL d   1       0.857  -0.397   0.243  0.00  0.00    -0.004 A 
ATOM      2  C   UNL d   1      -1.978  -0.158   0.031  0.00  0.00     0.042 A 
ATOM      3  C   UNL d   1       0.159   0.624   0.912  0.00  0.00     0.020 A 
ATOM      4  C   UNL d   1      -1.249   0.751   0.822  0.00  0.00    -0.035 A 
ATOM      5  C   UNL d   1       0.092  -1.353  -0.436  0.00  0.00     0.013 A 
ATOM      6  C   UNL d   1      -1.296  -1.230  -0.545  0.00  0.00     0.031 A 
ATOM      7  C   UNL d   1      -1.909   1.888   1.556  0.00  0.00     0.050 C 
ENDROOT
BRANCH   2   8
ATOM      8  N   UNL d   1      -3.349   0.091  -0.242  0.00  0.00    -0.308 N 
ATOM      9  C   UNL d   1      -4.194  -0.674  -1.033  0.00  0.00     0.325 C 
ATOM     10  N   UNL d   1      -5.292   0.071  -1.446  0.00  0.00    -0.309 N 
ATOM     11  O   UNL d   1      -3.983  -1.837  -1.359  0.00  0.00    -0.247 OA
ATOM     12  H   UNL d   1      -5.235   1.064  -1.286  0.00  0.00     0.170 HD
ATOM     13  H   UNL d   1      -3.758   0.905   0.187  0.00  0.00     0.170 HD
BRANCH  10  14
ATOM     14  C   UNL d   1      -6.332  -0.363  -2.301  0.00  0.00     0.036 A 
ATOM     15  C   UNL d   1      -6.532  -1.697  -2.669  0.00  0.00     0.031 A 
ATOM     16  C   UNL d   1      -7.567  -2.053  -3.540  0.00  0.00     0.026 A 
ATOM     17  C   UNL d   1      -8.415  -1.078  -4.044  0.00  0.00     0.034 A 
ATOM     18  C   UNL d   1      -8.241   0.257  -3.680  0.00  0.00     0.026 A 
ATOM     19 CL   UNL d   1      -9.684  -1.512  -5.121  0.00  0.00    -0.084 Cl
ATOM     20  C   UNL d   1      -7.204   0.611  -2.808  0.00  0.00     0.031 A 
ENDBRANCH  10  14
ENDBRANCH   2   8
BRANCH   1  21
ATOM     21  C   UNL d   1       2.386  -0.390   0.113  0.00  0.00     0.271 C 
BRANCH  21  22
ATOM     22  C   UNL d   1       2.871   0.900  -0.585  0.00  0.00     0.432 C 
ATOM     23  F   UNL d   1       2.095   1.245  -1.641  0.00  0.00    -0.167 F 
ATOM     24  F   UNL d   1       2.912   1.969   0.245  0.00  0.00    -0.167 F 
ATOM     25  F   UNL d   1       4.128   0.734  -1.078  0.00  0.00    -0.167 F 
ENDBRANCH  21  22
BRANCH  21  26
ATOM     26  C   UNL d   1       3.159  -0.401   1.435  0.00  0.00     0.308 C 
ATOM     27  O   UNL d   1       2.726  -0.105   2.540  0.00  0.00    -0.261 OA
BRANCH  26  28
ATOM     28  O   UNL d   1       4.464  -0.750   1.186  0.00  0.00    -0.319 OA
BRANCH  28  29
ATOM     29  C   UNL d   1       5.387  -0.664   2.283  0.00  0.00     0.174 C 
ATOM     30  C   UNL d   1       5.513  -2.014   2.960  0.00  0.00     0.034 C 
ENDBRANCH  28  29
ENDBRANCH  26  28
ENDBRANCH  21  26
BRANCH  21  31
ATOM     31  O   UNL d   1       2.798  -1.567  -0.641  0.00  0.00    -0.368 OA
ATOM     32  H   UNL d   1       3.765  -1.485  -0.766  0.00  0.00     0.212 HD
ENDBRANCH  21  31
ENDBRANCH   1  21
TORSDOF 8
