REMARK  3 active torsions:
REMARK  status: ('A' for Active; 'I' for Inactive)
REMARK    1  A    between atoms: C_2  and  S_1 
REMARK    2  A    between atoms: N_8  and  S_1 
REMARK    3  A    between atoms: C_9  and  N_8 
ROOT
ATOM      1  S   UNL d   1       0.891  -0.017  -0.053  0.00  0.00     0.268 S 
ATOM      2  O   UNL d   1       0.304   1.294  -0.228  0.00  0.00    -0.200 OA
ATOM      3  O   UNL d   1       2.313  -0.229  -0.206  0.00  0.00    -0.200 OA
ENDROOT
BRANCH   1   4
ATOM      4  C   UNL d   1       0.149  -0.930  -1.302  0.00  0.00     0.143 A 
ATOM      5  C   UNL d   1      -1.190  -1.218  -1.435  0.00  0.00     0.145 A 
ATOM      6  N   UNL d   1      -1.349  -1.845  -2.636  0.00  0.00    -0.284 N 
ATOM      7 CL   UNL d   1      -2.527  -0.861  -0.445  0.00  0.00    -0.061 Cl
ATOM      8  C   UNL d   1      -2.552  -2.259  -3.322  0.00  0.00     0.179 C 
ATOM      9  N   UNL d   1      -0.178  -2.026  -3.279  0.00  0.00    -0.301 N 
ATOM     10  C   UNL d   1       0.734  -1.423  -2.499  0.00  0.00     0.048 A 
ATOM     11  HN  UNL d   1      -0.021  -2.513  -4.162  1.00  0.00     0.187 HD
ATOM     12  C   UNL d   1       2.126  -1.346  -3.015  0.00  0.00     0.071 C 
ENDBRANCH   1   4
BRANCH   1  13
ATOM     13  N   UNL d   1       0.411  -0.549   1.482  0.00  0.00    -0.280 N 
ATOM     14  H   UNL d   1      -0.569  -0.328   1.654  0.00  0.00     0.179 HD
BRANCH  13  15
ATOM     15  C   UNL d   1       0.847  -1.837   1.919  0.00  0.00     0.048 A 
ATOM     16  C   UNL d   1       2.107  -2.033   2.505  0.00  0.00    -0.034 A 
ATOM     17  C   UNL d   1       2.500  -3.341   2.844  0.00  0.00     0.015 A 
ATOM     18  C   UNL d   1       3.071  -0.911   2.784  0.00  0.00     0.050 C 
ATOM     19  C   UNL d   1       1.647  -4.433   2.641  0.00  0.00    -0.061 A 
ATOM     20  C   UNL d   1       0.383  -4.211   2.094  0.00  0.00     0.009 A 
ATOM     21  C   UNL d   1       2.106  -5.819   2.988  0.00  0.00     0.048 C 
ATOM     22  C   UNL d   1      -0.012  -2.922   1.732  0.00  0.00     0.031 A 
ENDBRANCH  13  15
ENDBRANCH   1  13
TORSDOF 3
