REMARK  5 active torsions:
REMARK  status: ('A' for Active; 'I' for Inactive)
REMARK       I    between atoms: C_2  and  N_1 
REMARK    1  A    between atoms: C_3  and  N_1 
REMARK    2  A    between atoms: C_8  and  N_1 
REMARK    3  A    between atoms: C_5  and  C_2 
REMARK    4  A    between atoms: C_4  and  C_3 
REMARK    5  A    between atoms: C_13  and  C_8 
ROOT
ATOM      1  N   UNL d   1       0.869   0.070  -0.177  0.00  0.00    -0.314 N 
ATOM      2  C   UNL d   1       0.158   0.226   1.031  0.00  0.00     0.258 C 
ATOM      3  O   UNL d   1       0.747   0.385   2.106  0.00  0.00    -0.267 OA
ENDROOT
BRANCH   1   4
ATOM      4  C   UNL d   1       0.330  -0.379  -1.376  0.00  0.00     0.010 C 
ATOM      5  C   UNL d   1       0.169   0.517  -2.366  0.00  0.00     0.039 C 
BRANCH   4   6
ATOM      6  C   UNL d   1       0.016  -1.815  -1.553  0.00  0.00     0.035 A 
ATOM      7  C   UNL d   1       0.880  -2.937  -1.035  0.00  0.00     0.011 A 
ATOM      8  C   UNL d   1       0.927  -2.586  -2.489  0.00  0.00     0.011 A 
ENDBRANCH   4   6
ENDBRANCH   1   4
BRANCH   1   9
ATOM      9  C   UNL d   1       2.333  -0.059  -0.046  0.00  0.00     0.170 C 
BRANCH   9  10
ATOM     10  C   UNL d   1       3.122   1.207  -0.285  0.00  0.00    -0.040 A 
ATOM     11  C   UNL d   1       3.379   2.098   0.764  0.00  0.00     0.009 A 
ATOM     12  C   UNL d   1       4.242   3.179   0.576  0.00  0.00     0.001 A 
ATOM     13  C   UNL d   1       4.843   3.387  -0.665  0.00  0.00     0.000 A 
ATOM     14  C   UNL d   1       4.562   2.530  -1.727  0.00  0.00     0.001 A 
ATOM     15  C   UNL d   1       3.700   1.449  -1.541  0.00  0.00     0.009 A 
ENDBRANCH   9  10
ENDBRANCH   1   9
BRANCH   2  16
ATOM     16  C   UNL d   1      -1.343   0.219   1.109  0.00  0.00     0.035 A 
ATOM     17  C   UNL d   1      -2.201   0.646   0.095  0.00  0.00     0.059 A 
ATOM     18  C   UNL d   1      -3.580   0.636   0.298  0.00  0.00     0.117 A 
ATOM     19  F   UNL d   1      -4.391   1.030  -0.693  0.00  0.00    -0.206 F 
ATOM     20  C   UNL d   1      -4.136   0.245   1.511  0.00  0.00     0.042 A 
ATOM     21  C   UNL d   1      -3.296  -0.143   2.546  0.00  0.00     0.004 A 
ATOM     22  C   UNL d   1      -1.911  -0.158   2.345  0.00  0.00     0.017 A 
ENDBRANCH   2  16
TORSDOF 5
