REMARK  3 active torsions:
REMARK  status: ('A' for Active; 'I' for Inactive)
REMARK    1  A    between atoms: C_2  and  S_1 
REMARK    2  A    between atoms: O_3  and  S_1 
REMARK    3  A    between atoms: C_6  and  O_3 
ROOT
ATOM      1  S   UNL d   1       1.374  -0.598  -0.289  0.00  0.00     0.304 S 
ATOM      2  O   UNL d   1       2.526  -1.410  -0.621  0.00  0.00    -0.193 OA
ATOM      3  O   UNL d   1       1.577   0.728   0.275  0.00  0.00    -0.193 OA
ENDROOT
BRANCH   1   4
ATOM      4  C   UNL d   1       0.380  -1.490   0.892  0.00  0.00     0.108 A 
ATOM      5  C   UNL d   1       0.279  -2.885   0.892  0.00  0.00     0.059 A 
ATOM      6  C   UNL d   1      -0.455  -3.523   1.903  0.00  0.00     0.049 A 
ATOM      7 CL   UNL d   1       0.958  -3.911  -0.316  0.00  0.00    -0.083 Cl
ATOM      8  C   UNL d   1      -1.097  -2.775   2.887  0.00  0.00     0.035 A 
ATOM      9  C   UNL d   1      -1.020  -1.386   2.878  0.00  0.00     0.025 A 
ATOM     10 CL   UNL d   1      -1.999  -3.570   4.117  0.00  0.00    -0.084 Cl
ATOM     11  C   UNL d   1      -0.277  -0.743   1.887  0.00  0.00     0.029 A 
ENDBRANCH   1   4
BRANCH   1  12
ATOM     12  O   UNL d   1       0.391  -0.464  -1.581  0.00  0.00    -0.228 OA
BRANCH  12  13
ATOM     13  C   UNL d   1       0.744   0.236  -2.712  0.00  0.00     0.102 A 
ATOM     14  C   UNL d   1      -0.247   0.408  -3.709  0.00  0.00     0.027 A 
ATOM     15  C   UNL d   1       0.079   1.080  -4.890  0.00  0.00     0.045 A 
ATOM     16  C   UNL d   1      -1.618   0.030  -3.821  0.00  0.00     0.033 A 
ATOM     17  N   UNL d   1      -1.049   1.094  -5.681  0.00  0.00    -0.365 N 
ATOM     18  C   UNL d   1       1.351   1.603  -5.136  0.00  0.00     0.030 A 
ATOM     19  C   UNL d   1      -2.082   0.459  -5.043  0.00  0.00     0.089 A 
ATOM     20  H   UNL d   1      -1.098   1.510  -6.600  0.00  0.00     0.165 HD
ATOM     21  C   UNL d   1       2.315   1.437  -4.143  0.00  0.00     0.005 A 
ATOM     22  C   UNL d   1       2.021   0.767  -2.953  0.00  0.00     0.039 A 
ENDBRANCH  12  13
ENDBRANCH   1  12
TORSDOF 3
