REMARK  3 active torsions:
REMARK  status: ('A' for Active; 'I' for Inactive)
REMARK    1  A    between atoms: C_4  and  C_7 
REMARK    2  A    between atoms: O_11  and  N_5 
REMARK    3  A    between atoms: C_7  and  O_11 
ROOT
ATOM      1  C   UNL d   1      -0.018  -1.179   0.303  0.00  0.00     0.004 C 
ATOM      2  C   UNL d   1      -0.073  -0.030   1.352  0.00  0.00    -0.031 C 
ATOM      3  C   UNL d   1      -1.228  -0.794  -0.546  0.00  0.00     0.020 C 
ATOM      4  N   UNL d   1      -2.001  -1.671  -1.099  0.00  0.00    -0.265 N 
ATOM      5  HN  UNL d   1      -1.813  -2.673  -1.120  1.00  0.00     0.194 HD
ATOM      6  C   UNL d   1      -0.102   1.067   0.251  0.00  0.00    -0.000 C 
ATOM      7  C   UNL d   1      -1.349   0.714  -0.603  0.00  0.00     0.060 C 
ATOM      8  C   UNL d   1       1.191  -0.810  -0.586  0.00  0.00     0.016 C 
ATOM      9  C   UNL d   1       1.152   0.735  -0.598  0.00  0.00     0.007 C 
ATOM     10  C   UNL d   1      -0.018  -2.597   0.826  0.00  0.00     0.022 C 
ATOM     11  C   UNL d   1       1.149   0.042   2.289  0.00  0.00     0.016 C 
ATOM     12  C   UNL d   1      -1.319  -0.037   2.263  0.00  0.00     0.016 C 
ENDROOT
BRANCH   4  13
ATOM     13  O   UNL d   1      -3.132  -1.062  -1.667  0.00  0.00    -0.195 OA
BRANCH  13  14
ATOM     14  C   UNL d   1      -3.773  -1.973  -2.458  0.00  0.00     0.321 C 
ATOM     15  O   UNL d   1      -3.250  -2.693  -3.295  0.00  0.00    -0.257 OA
BRANCH  14  16
ATOM     16  C   UNL d   1      -5.204  -2.029  -2.099  0.00  0.00     0.118 A 
ATOM     17  C   UNL d   1      -5.910  -3.213  -2.312  0.00  0.00     0.135 A 
ATOM     18  F   UNL d   1      -5.321  -4.289  -2.854  0.00  0.00    -0.205 F 
ATOM     19  C   UNL d   1      -7.250  -3.333  -1.939  0.00  0.00     0.043 A 
ATOM     20  C   UNL d   1      -7.905  -2.260  -1.340  0.00  0.00     0.006 A 
ATOM     21  C   UNL d   1      -7.215  -1.068  -1.127  0.00  0.00     0.043 A 
ATOM     22  C   UNL d   1      -5.876  -0.957  -1.509  0.00  0.00     0.135 A 
ATOM     23  F   UNL d   1      -5.264   0.217  -1.296  0.00  0.00    -0.205 F 
ENDBRANCH  14  16
ENDBRANCH  13  14
ENDBRANCH   4  13
TORSDOF 3
