REMARK  1 active torsions:
REMARK  status: ('A' for Active; 'I' for Inactive)
REMARK    1  A    between atoms: C_4  and  C_1 
ROOT
ATOM      1  C   UNL d   1       1.196  -1.282  -0.018  0.00  0.00     0.077 A 
ATOM      2  N   UNL d   1      -0.201  -1.439  -0.023  0.00  0.00    -0.351 N 
ATOM      3  HN  UNL d   1      -0.686  -2.336  -0.035  1.00  0.00     0.166 HD
ATOM      4  C   UNL d   1       1.596   0.043   0.000  0.00  0.00     0.084 A 
ATOM      5  C   UNL d   1      -0.797  -0.264  -0.010  0.00  0.00     0.047 A 
ATOM      6  S   UNL d   1       0.248   1.096   0.010  0.00  0.00    -0.087 SA
ATOM      7  C   UNL d   1      -2.271  -0.052  -0.012  0.00  0.00     0.076 C 
ENDROOT
BRANCH   1   8
ATOM      8  C   UNL d   1       2.058  -2.464  -0.033  0.00  0.00     0.121 C 
ATOM      9  S   UNL d   1       3.715  -2.357  -0.032  0.00  0.00    -0.059 SA
ATOM     10  N   UNL d   1       1.427  -3.674  -0.047  0.00  0.00    -0.388 N 
ATOM     11  H   UNL d   1       0.413  -3.709  -0.047  0.00  0.00     0.157 HD
ATOM     12  H   UNL d   1       1.960  -4.533  -0.058  0.00  0.00     0.157 HD
ENDBRANCH   1   8
TORSDOF 1
