REMARK  1 active torsions:
REMARK  status: ('A' for Active; 'I' for Inactive)
REMARK    1  A    between atoms: C_13  and  C_7 
ROOT
ATOM      1  C   UNL d   1       1.564  -0.075   0.089  0.00  0.00     0.101 A 
ATOM      2  N   UNL d   1      -0.488   1.189  -0.078  0.00  0.00    -0.299 N 
ATOM      3  N   UNL d   1      -0.607  -1.127   0.034  0.00  0.00    -0.299 N 
ATOM      4  C   UNL d   1       0.879   1.240  -0.022  0.00  0.00     0.263 A 
ATOM      5  C   UNL d   1       0.750  -1.320   0.070  0.00  0.00     0.263 A 
ATOM      6  C   UNL d   1      -1.254   0.065  -0.044  0.00  0.00     0.181 A 
ATOM      7  C   UNL d   1       2.906  -0.050   0.216  0.00  0.00     0.035 C 
ATOM      8  S   UNL d   1      -2.913   0.147  -0.100  0.00  0.00    -0.040 SA
ATOM      9  O   UNL d   1       1.471   2.314  -0.060  0.00  0.00    -0.267 OA
ATOM     10  O   UNL d   1       1.208  -2.456   0.072  0.00  0.00    -0.267 OA
ATOM     11  H   UNL d   1      -0.960   2.082  -0.145  0.00  0.00     0.171 HD
ATOM     12  H   UNL d   1      -1.164  -1.972   0.034  0.00  0.00     0.171 HD
ENDROOT
BRANCH   7  13
ATOM     13  C   UNL d   1       3.784  -1.212   0.362  0.00  0.00    -0.020 A 
ATOM     14  C   UNL d   1       4.095  -1.734   1.615  0.00  0.00     0.099 A 
ATOM     15  N   UNL d   1       4.886  -2.815   1.813  0.00  0.00    -0.374 N 
ATOM     16  C   UNL d   1       5.376  -3.412   0.706  0.00  0.00     0.087 A 
ATOM     17  HN  UNL d   1       5.101  -3.159   2.749  1.00  0.00     0.164 HD
ATOM     18  C   UNL d   1       5.133  -2.966  -0.584  0.00  0.00     0.018 A 
ATOM     19  C   UNL d   1       4.328  -1.843  -0.756  0.00  0.00     0.014 A 
ENDBRANCH   7  13
TORSDOF 1
