REMARK  3 active torsions:
REMARK  status: ('A' for Active; 'I' for Inactive)
REMARK    1  A    between atoms: S_11  and  C_6 
REMARK    2  A    between atoms: C_8  and  C_10 
REMARK    3  A    between atoms: C_10  and  S_11 
ROOT
ATOM      1  N   UNL d   1      -0.707   1.397  -0.288  0.00  0.00    -0.301 N 
ATOM      2  HN  UNL d   1      -1.125   2.315  -0.137  1.00  0.00     0.171 HD
ATOM      3  C   UNL d   1      -1.446   0.234  -0.406  0.00  0.00     0.271 A 
ATOM      4  N   UNL d   1       0.532  -1.194  -0.806  0.00  0.00    -0.298 N 
ATOM      5  HN  UNL d   1       1.023  -2.066  -1.006  1.00  0.00     0.187 HD
ATOM      6  C   UNL d   1       0.565   1.204  -0.388  0.00  0.00     0.162 A 
ATOM      7  C   UNL d   1      -0.767  -1.111  -0.723  0.00  0.00     0.089 A 
ATOM      8  N   UNL d   1       1.171  -0.010  -0.600  0.00  0.00    -0.280 N 
ATOM      9  O   UNL d   1      -2.664   0.219  -0.264  0.00  0.00    -0.266 OA
ATOM     10  C   UNL d   1      -1.614  -2.328  -0.950  0.00  0.00     0.076 C 
ATOM     11  H   UNL d   1       2.187  -0.000  -0.673  0.00  0.00     0.189 HD
ENDROOT
BRANCH   6  12
ATOM     12  S   UNL d   1       1.703   2.528  -0.258  0.00  0.00    -0.088 SA
BRANCH  12  13
ATOM     13  C   UNL d   1       0.595   3.960  -0.097  0.00  0.00     0.126 C 
BRANCH  13  14
ATOM     14  C   UNL d   1       1.387   5.239   0.044  0.00  0.00     0.012 A 
ATOM     15  C   UNL d   1       1.834   5.737   1.277  0.00  0.00     0.044 A 
ATOM     16 CL   UNL d   1       1.482   4.939   2.769  0.00  0.00    -0.084 Cl
ATOM     17  C   UNL d   1       2.596   6.913   1.344  0.00  0.00     0.024 A 
ATOM     18  C   UNL d   1       2.929   7.607   0.181  0.00  0.00     0.005 A 
ATOM     19  C   UNL d   1       2.498   7.125  -1.049  0.00  0.00     0.043 A 
ATOM     20  C   UNL d   1       1.738   5.956  -1.108  0.00  0.00     0.125 A 
ATOM     21  F   UNL d   1       1.344   5.518  -2.312  0.00  0.00    -0.205 F 
ENDBRANCH  13  14
ENDBRANCH  12  13
ENDBRANCH   6  12
TORSDOF 3
