REMARK  2 active torsions:
REMARK  status: ('A' for Active; 'I' for Inactive)
REMARK    1  A    between atoms: N_6  and  C_1 
REMARK       I    between atoms: C_5  and  N_6 
REMARK    2  A    between atoms: C_10  and  C_5 
ROOT
ATOM      1  C   UNL d   1      -2.478  -2.973   0.028  0.00  0.00     0.257 C 
ATOM      2  N   UNL d   1      -2.389  -1.599  -0.050  0.00  0.00    -0.307 N 
ATOM      3  O   UNL d   1      -3.497  -3.650   0.041  0.00  0.00    -0.267 OA
ATOM      4  H   UNL d   1      -1.489  -1.152  -0.117  0.00  0.00     0.170 HD
ENDROOT
BRANCH   1   5
ATOM      5  C   UNL d   1      -1.171  -3.695   0.076  0.00  0.00     0.033 A 
ATOM      6  C   UNL d   1      -1.117  -4.974  -0.499  0.00  0.00     0.038 A 
ATOM      7  C   UNL d   1       0.112  -5.651  -0.509  0.00  0.00     0.033 A 
ATOM      8  S   UNL d   1       0.495  -7.197  -1.169  0.00  0.00    -0.083 SA
ATOM      9  C   UNL d   1       1.263  -5.100   0.057  0.00  0.00     0.049 A 
ATOM     10  C   UNL d   1       2.124  -6.985  -0.689  0.00  0.00     0.139 A 
ATOM     11  N   UNL d   1       2.408  -5.871  -0.053  0.00  0.00    -0.359 N 
ATOM     12  HN  UNL d   1       3.328  -5.615   0.304  1.00  0.00     0.166 HD
ATOM     13  C   UNL d   1       1.176  -3.837   0.677  0.00  0.00     0.032 A 
ATOM     14  C   UNL d   1      -0.040  -3.143   0.685  0.00  0.00     0.019 A 
ENDBRANCH   1   5
BRANCH   2  15
ATOM     15  C   UNL d   1      -3.482  -0.751  -0.022  0.00  0.00     0.130 A 
ATOM     16  N   UNL d   1      -4.765  -1.123   0.007  0.00  0.00    -0.245 N 
ATOM     17  O   UNL d   1      -5.505   0.033   0.128  0.00  0.00    -0.241 OA
ATOM     18  HN  UNL d   1      -5.125  -2.076  -0.049  1.00  0.00     0.196 HD
ATOM     19  C   UNL d   1      -4.668   1.100   0.177  0.00  0.00     0.076 A 
ATOM     20  C   UNL d   1      -3.377   0.662   0.022  0.00  0.00     0.084 A 
ATOM     21  C   UNL d   1      -5.298   2.411   0.412  0.00  0.00     0.079 C 
ENDBRANCH   2  15
TORSDOF 2
