REMARK  5 active torsions:
REMARK  status: ('A' for Active; 'I' for Inactive)
REMARK       I    between atoms: N_2  and  C_1 
REMARK    1  A    between atoms: C_3  and  C_1 
REMARK       I    between atoms: C_5  and  N_2 
REMARK    2  A    between atoms: C_4  and  O_9 
REMARK    3  A    between atoms: O_9  and  C_5 
REMARK    4  A    between atoms: C_10  and  C_7 
REMARK    5  A    between atoms: O_20  and  C_8 
ROOT
ATOM      1  O   UNL d   1       2.549   2.223  -1.415  0.00  0.00    -0.257 OA
ENDROOT
BRANCH   1   2
ATOM      2  C   UNL d   1       3.248   1.157  -0.823  0.00  0.00     0.131 A 
ATOM      3  C   UNL d   1       3.161  -0.124  -1.391  0.00  0.00     0.048 A 
ATOM      4  C   UNL d   1       3.891  -1.192  -0.857  0.00  0.00     0.031 A 
ATOM      5 BR   UNL d   1       2.135  -0.483  -2.955  0.00  0.00    -0.048 Br
ATOM      6  C   UNL d   1       4.753  -1.001   0.234  0.00  0.00    -0.030 A 
ATOM      7  C   UNL d   1       4.871   0.300   0.753  0.00  0.00     0.049 A 
ATOM      8  C   UNL d   1       4.137   1.385   0.239  0.00  0.00     0.104 A 
BRANCH   6   9
ATOM      9  C   UNL d   1       5.544  -2.173   0.772  0.00  0.00     0.141 C 
ATOM     10  S   UNL d   1       5.323  -2.457   2.551  0.00  0.00    -0.148 SA
ATOM     11  C   UNL d   1       6.894  -3.321   2.771  0.00  0.00     0.085 C 
ATOM     12  C   UNL d   1       7.948  -2.509   2.042  0.00  0.00     0.085 C 
ATOM     13  S   UNL d   1       7.326  -2.056   0.395  0.00  0.00    -0.148 SA
ENDBRANCH   6   9
BRANCH   8  14
ATOM     14  O   UNL d   1       4.435   2.554   0.884  0.00  0.00    -0.353 OA
ATOM     15  C   UNL d   1       3.865   3.770   0.428  0.00  0.00     0.210 C 
ENDBRANCH   8  14
ENDBRANCH   1   2
BRANCH   1  16
ATOM     16  C   UNL d   1       1.164   2.230  -1.289  0.00  0.00     0.372 C 
ATOM     17  N   UNL d   1       0.529   3.193  -2.050  0.00  0.00    -0.268 N 
ATOM     18  C   UNL d   1       1.077   3.923  -3.092  0.00  0.00     0.263 C 
ATOM     19  H   UNL d   1      -0.474   3.147  -1.958  0.00  0.00     0.174 HD
ATOM     20  O   UNL d   1       2.252   3.873  -3.428  0.00  0.00    -0.267 OA
ATOM     21  O   UNL d   1       0.511   1.466  -0.583  0.00  0.00    -0.238 OA
BRANCH  18  22
ATOM     22  C   UNL d   1       0.159   4.835  -3.836  0.00  0.00     0.075 A 
ATOM     23  C   UNL d   1       0.589   6.137  -4.162  0.00  0.00     0.051 A 
ATOM     24 CL   UNL d   1       2.072   6.825  -3.590  0.00  0.00    -0.083 Cl
ATOM     25  C   UNL d   1      -0.214   6.983  -4.942  0.00  0.00     0.025 A 
ATOM     26  C   UNL d   1      -1.459   6.555  -5.391  0.00  0.00     0.003 A 
ATOM     27  C   UNL d   1      -1.906   5.281  -5.058  0.00  0.00     0.025 A 
ATOM     28  C   UNL d   1      -1.103   4.419  -4.293  0.00  0.00     0.051 A 
ATOM     29 CL   UNL d   1      -1.753   2.846  -3.987  0.00  0.00    -0.083 Cl
ENDBRANCH  18  22
ENDBRANCH   1  16
TORSDOF 5
