REMARK  3 active torsions:
REMARK  status: ('A' for Active; 'I' for Inactive)
REMARK    1  A    between atoms: C_2  and  N_1 
REMARK    2  A    between atoms: C_8  and  C_3 
REMARK    3  A    between atoms: O_15  and  C_8 
ROOT
ATOM      1  C   UNL d   1      -2.491   0.049  -0.555  0.00  0.00     0.069 A 
ATOM      2  C   UNL d   1      -2.970   0.723  -1.674  0.00  0.00     0.107 A 
ATOM      3  S   UNL d   1      -4.675   0.534  -1.823  0.00  0.00    -0.094 SA
ATOM      4  C   UNL d   1      -3.518  -0.719   0.084  0.00  0.00     0.039 A 
ATOM      5  C   UNL d   1      -4.754  -0.521  -0.487  0.00  0.00     0.053 A 
ENDROOT
BRANCH   1   6
ATOM      6  N   UNL d   1      -1.170   0.057  -0.122  0.00  0.00    -0.243 N 
ATOM      7  C   UNL d   1      -0.445   1.189   0.103  0.00  0.00     0.255 A 
ATOM      8  C   UNL d   1       0.960   0.780   0.211  0.00  0.00     0.087 A 
ATOM      9  O   UNL d   1      -0.806   2.351   0.183  0.00  0.00    -0.268 OA
ATOM     10  C   UNL d   1       1.028  -0.527  -0.052  0.00  0.00     0.012 A 
ATOM     11  C   UNL d   1      -0.349  -1.025  -0.251  0.00  0.00     0.261 A 
ATOM     12  C   UNL d   1       2.231  -1.371  -0.220  0.00  0.00     0.054 C 
ATOM     13  O   UNL d   1      -0.617  -2.178  -0.542  0.00  0.00    -0.267 OA
ENDBRANCH   1   6
BRANCH   2  14
ATOM     14  C   UNL d   1      -2.278   1.461  -2.723  0.00  0.00     0.302 C 
ATOM     15  O   UNL d   1      -2.800   2.155  -3.589  0.00  0.00    -0.259 OA
BRANCH  14  16
ATOM     16  O   UNL d   1      -0.936   1.211  -2.666  0.00  0.00    -0.322 OA
ATOM     17  C   UNL d   1      -0.140   1.890  -3.638  0.00  0.00     0.213 C 
ENDBRANCH  14  16
ENDBRANCH   2  14
TORSDOF 3
