REMARK  0 active torsions:
REMARK  status: ('A' for Active; 'I' for Inactive)
ROOT
ATOM      1  C   UNL d   1      -0.706  -0.457   0.010  0.00  0.00     0.079 A 
ATOM      2  C   UNL d   1       0.698  -0.340   0.002  0.00  0.00     0.079 A 
ATOM      3  C   UNL d   1      -1.497   0.704   0.030  0.00  0.00     0.057 A 
ATOM      4  C   UNL d   1       1.286   0.936   0.009  0.00  0.00     0.057 A 
ATOM      5  C   UNL d   1      -0.900   1.967   0.042  0.00  0.00     0.027 A 
ATOM      6  C   UNL d   1       0.488   2.083   0.030  0.00  0.00     0.027 A 
ATOM      7 CL   UNL d   1      -1.463  -2.022  -0.007  0.00  0.00    -0.081 Cl
ATOM      8 CL   UNL d   1       1.704  -1.758  -0.013  0.00  0.00    -0.081 Cl
ATOM      9 CL   UNL d   1      -3.227   0.655   0.038  0.00  0.00    -0.082 Cl
ATOM     10 CL   UNL d   1       3.000   1.174  -0.011  0.00  0.00    -0.082 Cl
ENDROOT
TORSDOF 0
