REMARK  3 active torsions:
REMARK  status: ('A' for Active; 'I' for Inactive)
REMARK    1  A    between atoms: C_2  and  C_1 
REMARK    2  A    between atoms: C_7  and  C_2 
REMARK    3  A    between atoms: C_8  and  C_3 
ROOT
ATOM      1  C   UNL d   1       0.893  -0.014  -0.123  0.00  0.00     0.096 C 
ATOM      2  C   UNL d   1       0.272  -0.787   0.790  0.00  0.00     0.038 C 
ATOM      3  C   UNL d   1       0.176   0.816  -1.033  0.00  0.00     0.103 C 
ATOM      4  N   UNL d   1      -0.394   1.475  -1.802  0.00  0.00    -0.191 NA
ENDROOT
BRANCH   1   5
ATOM      5  C   UNL d   1       2.388  -0.054  -0.141  0.00  0.00     0.202 C 
ATOM      6  O   UNL d   1       3.034  -0.367   0.859  0.00  0.00    -0.286 OA
BRANCH   5   7
ATOM      7  C   UNL d   1       3.115   0.308  -1.388  0.00  0.00     0.015 A 
ATOM      8  C   UNL d   1       4.349   0.963  -1.277  0.00  0.00     0.015 A 
ATOM      9  C   UNL d   1       5.033   1.366  -2.425  0.00  0.00     0.001 A 
ATOM     10  C   UNL d   1       4.492   1.112  -3.686  0.00  0.00     0.000 A 
ATOM     11  C   UNL d   1       3.289   0.419  -3.803  0.00  0.00     0.001 A 
ATOM     12  C   UNL d   1       2.613  -0.005  -2.658  0.00  0.00     0.015 A 
ENDBRANCH   5   7
ENDBRANCH   1   5
BRANCH   2  13
ATOM     13  C   UNL d   1      -1.185  -0.916   0.873  0.00  0.00    -0.035 A 
ATOM     14  C   UNL d   1      -1.835  -1.884   0.099  0.00  0.00     0.011 A 
ATOM     15  C   UNL d   1      -3.228  -1.968   0.106  0.00  0.00     0.001 A 
ATOM     16  C   UNL d   1      -3.974  -1.089   0.888  0.00  0.00     0.000 A 
ATOM     17  C   UNL d   1      -3.330  -0.130   1.670  0.00  0.00     0.001 A 
ATOM     18  C   UNL d   1      -1.936  -0.043   1.665  0.00  0.00     0.011 A 
ENDBRANCH   2  13
TORSDOF 3
