REMARK  4 active torsions:
REMARK  status: ('A' for Active; 'I' for Inactive)
REMARK    1  A    between atoms: C_15  and  C_7 
REMARK    2  A    between atoms: N_14  and  C_13 
REMARK    3  A    between atoms: C_21  and  N_14 
REMARK    4  A    between atoms: C_18  and  C_21 
ROOT
ATOM      1  N   UNL d   1       7.751   6.163   4.409  0.00  0.00    -0.197 NA
ATOM      2  C   UNL d   1       7.388   5.513   3.523  0.00  0.00     0.060 C 
ATOM      3  C   UNL d   1       6.943   4.671   2.401  0.00  0.00     0.143 C 
ENDROOT
BRANCH   3   4
ATOM      4  C   UNL d   1       6.060   5.452   1.427  0.00  0.00     0.136 C 
BRANCH   4   5
ATOM      5  N   UNL d   1       5.724   4.650   0.232  0.00  0.00    -0.384 N 
ATOM      6  C   UNL d   1       6.329   5.109  -1.018  0.00  0.00     0.149 C 
BRANCH   5   7
ATOM      7  C   UNL d   1       4.898   3.534   0.272  0.00  0.00     0.029 A 
ATOM      8  C   UNL d   1       3.943   3.336   1.284  0.00  0.00     0.030 A 
ATOM      9  C   UNL d   1       3.104   2.206   1.319  0.00  0.00     0.013 A 
ATOM     10  C   UNL d   1       3.195   1.235   0.325  0.00  0.00    -0.035 A 
ATOM     11  C   UNL d   1       4.131   1.399  -0.689  0.00  0.00     0.013 A 
ATOM     12  C   UNL d   1       4.970   2.522  -0.702  0.00  0.00     0.030 A 
BRANCH  10  13
ATOM     13  C   UNL d   1       2.343   0.045   0.329  0.00  0.00     0.034 C 
ATOM     14  C   UNL d   1       2.672  -1.161   0.830  0.00  0.00     0.101 C 
ATOM     15  C   UNL d   1       1.703  -2.263   0.604  0.00  0.00     0.265 C 
ATOM     16  C   UNL d   1       3.943  -1.453   1.544  0.00  0.00     0.265 C 
ATOM     17  N   UNL d   1       2.126  -3.502   0.995  0.00  0.00    -0.275 N 
ATOM     18  O   UNL d   1       0.599  -2.105   0.093  0.00  0.00    -0.267 OA
ATOM     19  C   UNL d   1       3.315  -3.808   1.577  0.00  0.00     0.329 C 
ATOM     20  H   UNL d   1       1.483  -4.267   0.849  0.00  0.00     0.173 HD
ATOM     21  N   UNL d   1       4.178  -2.778   1.782  0.00  0.00    -0.275 N 
ATOM     22  O   UNL d   1       3.589  -4.954   1.915  0.00  0.00    -0.246 OA
ATOM     23  H   UNL d   1       5.035  -2.998   2.270  0.00  0.00     0.173 HD
ATOM     24  O   UNL d   1       4.737  -0.608   1.937  0.00  0.00    -0.267 OA
ENDBRANCH  10  13
ENDBRANCH   5   7
ENDBRANCH   4   5
ENDBRANCH   3   4
TORSDOF 4
