REMARK  2 active torsions:
REMARK  status: ('A' for Active; 'I' for Inactive)
REMARK       I    between atoms: N_2  and  C_1 
REMARK    1  A    between atoms: C_5  and  C_1 
REMARK    2  A    between atoms: C_3  and  N_2 
ROOT
ATOM      1  C   UNL d   1       2.313  -0.010   0.081  0.00  0.00     0.256 C 
ATOM      2  N   UNL d   1       3.023  -1.181   0.256  0.00  0.00    -0.322 N 
ATOM      3  O   UNL d   1       1.130   0.077  -0.237  0.00  0.00    -0.267 OA
ATOM      4  H   UNL d   1       3.843  -1.141   0.847  0.00  0.00     0.169 HD
ENDROOT
BRANCH   2   5
ATOM      5  C   UNL d   1       2.579  -2.453  -0.168  0.00  0.00     0.041 A 
ATOM      6  C   UNL d   1       2.938  -3.610   0.545  0.00  0.00    -0.035 A 
ATOM      7  C   UNL d   1       3.604  -3.586   1.893  0.00  0.00     0.050 C 
ATOM      8  C   UNL d   1       2.579  -4.869   0.024  0.00  0.00     0.009 A 
ATOM      9  C   UNL d   1       1.867  -4.978  -1.171  0.00  0.00     0.001 A 
ATOM     10  C   UNL d   1       1.491  -3.829  -1.856  0.00  0.00     0.002 A 
ATOM     11  C   UNL d   1       1.841  -2.575  -1.354  0.00  0.00     0.030 A 
ENDBRANCH   2   5
BRANCH   1  12
ATOM     12  C   UNL d   1       3.065   1.236   0.347  0.00  0.00     0.032 A 
ATOM     13  C   UNL d   1       4.316   1.442  -0.244  0.00  0.00     0.017 A 
ATOM     14  C   UNL d   1       4.949   2.678  -0.107  0.00  0.00     0.001 A 
ATOM     15  C   UNL d   1       4.341   3.698   0.627  0.00  0.00     0.000 A 
ATOM     16  C   UNL d   1       3.101   3.486   1.232  0.00  0.00     0.001 A 
ATOM     17  C   UNL d   1       2.456   2.257   1.087  0.00  0.00     0.017 A 
ENDBRANCH   1  12
TORSDOF 2
