REMARK  4 active torsions:
REMARK  status: ('A' for Active; 'I' for Inactive)
REMARK    1  A    between atoms: C_6  and  N_1 
REMARK    2  A    between atoms: C_2  and  C_3 
REMARK    3  A    between atoms: C_8  and  O_12 
REMARK    4  A    between atoms: O_12  and  C_18 
ROOT
ATOM      1  C   UNL d   1      -0.417  -3.671   7.408  0.00  0.00     0.063 A 
ATOM      2  N   UNL d   1      -0.028  -3.463   5.034  0.00  0.00    -0.346 N 
ATOM      3  HN  UNL d   1       0.618  -3.433   4.246  1.00  0.00     0.167 HD
ATOM      4  C   UNL d   1      -1.365  -3.372   4.853  0.00  0.00     0.147 A 
ATOM      5  C   UNL d   1       0.416  -3.597   6.303  0.00  0.00     0.106 A 
ATOM      6  C   UNL d   1      -1.800  -3.644   7.181  0.00  0.00     0.022 A 
ATOM      7  C   UNL d   1      -2.285  -3.496   5.882  0.00  0.00     0.057 A 
ENDROOT
BRANCH   4   8
ATOM      8  O   UNL d   1      -1.863  -3.135   3.580  0.00  0.00    -0.294 OA
BRANCH   8   9
ATOM      9  C   UNL d   1      -1.087  -2.397   2.710  0.00  0.00     0.077 A 
ATOM     10  C   UNL d   1      -1.200  -2.717   1.354  0.00  0.00     0.040 A 
ATOM     11  C   UNL d   1      -0.473  -2.001   0.398  0.00  0.00     0.039 A 
ATOM     12  C   UNL d   1       0.365  -0.955   0.807  0.00  0.00     0.103 A 
ATOM     13  C   UNL d   1       0.471  -0.616   2.160  0.00  0.00     0.039 A 
ATOM     14  C   UNL d   1      -0.274  -1.326   3.104  0.00  0.00     0.040 A 
BRANCH  12  15
ATOM     15  N   UNL d   1       1.131  -0.195  -0.189  0.00  0.00    -0.116 N 
ATOM     16  O   UNL d   1       1.847   0.731   0.215  0.00  0.00    -0.532 OA
ATOM     17  O   UNL d   1       1.009  -0.522  -1.378  0.00  0.00    -0.532 OA
ENDBRANCH  12  15
ENDBRANCH   8   9
ENDBRANCH   4   8
BRANCH   1  18
ATOM     18  C   UNL d   1       0.163  -3.753   8.785  0.00  0.00     0.418 C 
ATOM     19  F   UNL d   1       1.525  -3.732   8.803  0.00  0.00    -0.166 F 
ATOM     20  F   UNL d   1      -0.232  -2.717   9.575  0.00  0.00    -0.166 F 
ATOM     21  F   UNL d   1      -0.202  -4.887   9.442  0.00  0.00    -0.166 F 
ENDBRANCH   1  18
TORSDOF 4
