REMARK  4 active torsions:
REMARK  status: ('A' for Active; 'I' for Inactive)
REMARK    1  A    between atoms: C_10  and  N_1 
REMARK    2  A    between atoms: C_7  and  C_5 
REMARK       I    between atoms: C_9  and  N_12 
REMARK       I    between atoms: N_13  and  C_9 
REMARK    3  A    between atoms: N_12  and  C_23 
REMARK    4  A    between atoms: C_24  and  N_13 
ROOT
ATOM      1  C   UNL d   1       2.011  -1.558   0.384  0.00  0.00     0.057 A 
ATOM      2  C   UNL d   1       2.000  -2.869  -0.109  0.00  0.00     0.034 A 
ATOM      3  C   UNL d   1       3.220  -0.998   0.800  0.00  0.00     0.034 A 
ATOM      4  C   UNL d   1       4.426  -3.003   0.139  0.00  0.00     0.036 A 
ATOM      5  C   UNL d   1       3.205  -3.582  -0.234  0.00  0.00     0.032 A 
ATOM      6  C   UNL d   1       4.409  -1.725   0.701  0.00  0.00     0.032 A 
ENDROOT
BRANCH   1   7
ATOM      7  N   UNL d   1       0.842  -0.745   0.394  0.00  0.00    -0.255 N 
ATOM      8  C   UNL d   1      -0.497  -1.106   0.446  0.00  0.00     0.076 C 
ATOM      9  C   UNL d   1      -1.200   0.018   0.058  0.00  0.00     0.069 C 
ATOM     10  C   UNL d   1      -1.036  -2.330   0.971  0.00  0.00     0.033 A 
ATOM     11  C   UNL d   1      -0.255   1.070   0.018  0.00  0.00     0.135 C 
ATOM     12  N   UNL d   1       0.978   0.608   0.290  0.00  0.00    -0.289 N 
ATOM     13  HN  UNL d   1       1.834   1.153   0.396  1.00  0.00     0.187 HD
ATOM     14  S   UNL d   1      -2.477  -3.021   0.351  0.00  0.00    -0.100 SA
ATOM     15  C   UNL d   1      -0.574  -3.036   2.066  0.00  0.00     0.021 A 
ATOM     16  C   UNL d   1      -2.516  -4.209   1.580  0.00  0.00     0.050 A 
ATOM     17  C   UNL d   1      -1.433  -4.115   2.423  0.00  0.00     0.008 A 
BRANCH  11  18
ATOM     18  C   UNL d   1      -0.570   2.524  -0.209  0.00  0.00     0.434 C 
ATOM     19  F   UNL d   1       0.514   3.340  -0.154  0.00  0.00    -0.165 F 
ATOM     20  F   UNL d   1      -1.152   2.724  -1.423  0.00  0.00    -0.165 F 
ATOM     21  F   UNL d   1      -1.455   2.986   0.717  0.00  0.00    -0.165 F 
ENDBRANCH  11  18
ENDBRANCH   1   7
BRANCH   4  22
ATOM     22  N   UNL d   1       5.619  -3.714  -0.152  0.00  0.00    -0.309 N 
ATOM     23  C   UNL d   1       6.912  -3.232   0.010  0.00  0.00     0.325 C 
ATOM     24  N   UNL d   1       7.841  -4.021  -0.653  0.00  0.00    -0.309 N 
ATOM     25  O   UNL d   1       7.192  -2.211   0.625  0.00  0.00    -0.247 OA
ATOM     26  H   UNL d   1       7.511  -4.872  -1.077  0.00  0.00     0.170 HD
ATOM     27  H   UNL d   1       5.509  -4.608  -0.603  0.00  0.00     0.170 HD
BRANCH  24  28
ATOM     28  C   UNL d   1       9.210  -3.705  -0.865  0.00  0.00     0.036 A 
ATOM     29  C   UNL d   1       9.826  -2.546  -0.383  0.00  0.00     0.029 A 
ATOM     30  C   UNL d   1      11.163  -2.268  -0.682  0.00  0.00     0.002 A 
ATOM     31  C   UNL d   1      11.902  -3.146  -1.464  0.00  0.00     0.000 A 
ATOM     32  C   UNL d   1      11.305  -4.312  -1.938  0.00  0.00     0.002 A 
ATOM     33  C   UNL d   1       9.967  -4.592  -1.637  0.00  0.00     0.029 A 
ENDBRANCH  24  28
ENDBRANCH   4  22
TORSDOF 4
