REMARK  4 active torsions:
REMARK  status: ('A' for Active; 'I' for Inactive)
REMARK    1  A    between atoms: C_2  and  C_1 
REMARK    2  A    between atoms: N_15  and  C_7 
REMARK    3  A    between atoms: C_18  and  C_14 
REMARK    4  A    between atoms: O_17  and  C_18 
ROOT
ATOM      1  C   UNL d   1       2.036  -2.483  -0.031  0.00  0.00     0.135 A 
ATOM      2  N   UNL d   1       2.921  -2.642   0.975  0.00  0.00    -0.327 N 
ATOM      3  HN  UNL d   1       2.961  -1.971   1.742  1.00  0.00     0.169 HD
ATOM      4  C   UNL d   1       3.751  -3.703   0.947  0.00  0.00     0.105 A 
ATOM      5  N   UNL d   1       1.912  -3.303  -1.088  0.00  0.00    -0.342 N 
ATOM      6  HN  UNL d   1       1.233  -3.131  -1.830  1.00  0.00     0.167 HD
ATOM      7  C   UNL d   1       3.668  -4.593  -0.110  0.00  0.00     0.075 A 
ATOM      8  C   UNL d   1       2.735  -4.362  -1.108  0.00  0.00     0.038 A 
ENDROOT
BRANCH   1   9
ATOM      9  C   UNL d   1       1.151  -1.315   0.011  0.00  0.00     0.084 A 
ATOM     10  N   UNL d   1       0.172  -1.074  -0.956  0.00  0.00    -0.351 N 
ATOM     11  C   UNL d   1      -0.477   0.035  -0.682  0.00  0.00     0.047 A 
ATOM     12  HN  UNL d   1      -0.012  -1.673  -1.761  1.00  0.00     0.166 HD
ATOM     13  C   UNL d   1      -1.589   0.580  -1.506  0.00  0.00     0.076 C 
ATOM     14  S   UNL d   1       0.041   0.864   0.731  0.00  0.00    -0.087 SA
ATOM     15  C   UNL d   1       1.216  -0.354   1.003  0.00  0.00     0.084 A 
ENDBRANCH   1   9
BRANCH   4  16
ATOM     16  N   UNL d   1       4.694  -3.828   1.953  0.00  0.00    -0.376 N 
ATOM     17  C   UNL d   1       4.705  -2.856   3.042  0.00  0.00     0.150 C 
ATOM     18  C   UNL d   1       5.500  -5.018   2.182  0.00  0.00     0.150 C 
ENDBRANCH   4  16
BRANCH   8  19
ATOM     19  C   UNL d   1       2.645  -5.289  -2.294  0.00  0.00     0.224 C 
BRANCH  19  20
ATOM     20  O   UNL d   1       2.406  -6.627  -1.847  0.00  0.00    -0.390 OA
ATOM     21  C   UNL d   1       2.273  -7.521  -2.943  0.00  0.00     0.201 C 
ENDBRANCH  19  20
ENDBRANCH   8  19
TORSDOF 4
