REMARK  4 active torsions:
REMARK  status: ('A' for Active; 'I' for Inactive)
REMARK    1  A    between atoms: C_2  and  S_1 
REMARK    2  A    between atoms: C_14  and  S_1 
REMARK    3  A    between atoms: C_3  and  N_7 
REMARK    4  A    between atoms: N_7  and  C_4 
ROOT
ATOM      1  C   UNL d   1       0.363   1.617  -0.175  0.00  0.00     0.155 C 
ATOM      2  C   UNL d   1      -0.441   1.890  -1.217  0.00  0.00     0.140 C 
ATOM      3  C   UNL d   1       0.877   0.325   0.079  0.00  0.00     0.113 C 
ATOM      4  N   UNL d   1       1.300  -0.747   0.217  0.00  0.00    -0.191 NA
ENDROOT
BRANCH   1   5
ATOM      5  S   UNL d   1       0.822   2.891   0.914  0.00  0.00     0.190 S 
ATOM      6  O   UNL d   1       1.043   2.313   2.228  0.00  0.00    -0.222 OA
ATOM      7  O   UNL d   1      -0.093   4.011   0.782  0.00  0.00    -0.222 OA
BRANCH   5   8
ATOM      8  C   UNL d   1       2.426   3.425   0.292  0.00  0.00     0.106 C 
ATOM      9  C   UNL d   1       2.332   4.039  -1.102  0.00  0.00     0.026 C 
ATOM     10  C   UNL d   1       3.048   4.436   1.258  0.00  0.00     0.026 C 
ENDBRANCH   5   8
ENDBRANCH   1   5
BRANCH   2  11
ATOM     11  N   UNL d   1      -0.919   1.029  -2.173  0.00  0.00    -0.200 N 
ATOM     12  H   UNL d   1      -0.761   0.031  -2.103  0.00  0.00     0.183 HD
BRANCH  11  13
ATOM     13  C   UNL d   1      -1.672   1.334  -3.304  0.00  0.00     0.681 A 
ATOM     14  N   UNL d   1      -1.959   2.609  -3.614  0.00  0.00    -0.202 N 
ATOM     15  C   UNL d   1      -2.678   2.817  -4.735  0.00  0.00     0.107 A 
ATOM     16  HN  UNL d   1      -1.647   3.383  -3.029  1.00  0.00     0.183 HD
ATOM     17  C   UNL d   1      -3.117   1.808  -5.554  0.00  0.00     0.035 A 
ATOM     18  C   UNL d   1      -2.772   0.542  -5.155  0.00  0.00     0.107 A 
ATOM     19  N   UNL d   1      -2.053   0.283  -4.046  0.00  0.00    -0.202 N 
ATOM     20  HN  UNL d   1      -1.808  -0.672  -3.782  1.00  0.00     0.183 HD
ENDBRANCH  11  13
ENDBRANCH   2  11
TORSDOF 4
