REMARK  6 active torsions:
REMARK  status: ('A' for Active; 'I' for Inactive)
REMARK    1  A    between atoms: N_8  and  C_1 
REMARK    2  A    between atoms: S_2  and  N_7 
REMARK    3  A    between atoms: C_11  and  S_2 
REMARK    4  A    between atoms: C_10  and  C_3 
REMARK       I    between atoms: N_7  and  C_9 
REMARK       I    between atoms: C_9  and  N_8 
REMARK    5  A    between atoms: O_22  and  C_10 
REMARK    6  A    between atoms: C_27  and  O_22 
ROOT
ATOM      1  N   UNL d   1       6.021  -0.809  -0.659  0.00  0.00    -0.232 N 
ATOM      2  N   UNL d   1       3.641  -1.140  -0.662  0.00  0.00    -0.301 N 
ATOM      3  C   UNL d   1       4.732  -0.298  -0.792  0.00  0.00     0.334 C 
ATOM      4  O   UNL d   1       4.699   0.896  -1.055  0.00  0.00    -0.246 OA
ATOM      5  H   UNL d   1       6.718  -0.067  -0.625  0.00  0.00     0.183 HD
ATOM      6  H   UNL d   1       3.822  -2.135  -0.559  0.00  0.00     0.171 HD
ENDROOT
BRANCH   2   7
ATOM      7  C   UNL d   1       2.299  -0.731  -0.626  0.00  0.00     0.095 A 
ATOM      8  C   UNL d   1       1.126  -1.492  -0.676  0.00  0.00     0.080 A 
ATOM      9  C   UNL d   1      -0.046  -0.641  -0.484  0.00  0.00    -0.022 A 
ATOM     10  C   UNL d   1      -1.495  -1.051  -0.403  0.00  0.00     0.071 C 
ATOM     11  C   UNL d   1       0.289   0.685  -0.325  0.00  0.00     0.020 A 
ATOM     12  C   UNL d   1      -2.441   0.173  -0.461  0.00  0.00     0.277 C 
ATOM     13  N   UNL d   1      -2.012   1.349   0.326  0.00  0.00     0.089 N 
ATOM     14  C   UNL d   1      -0.680   1.817  -0.120  0.00  0.00     0.318 C 
ATOM     15  C   UNL d   1      -2.034   1.090   1.764  0.00  0.00     0.310 C 
ATOM     16  S   UNL d   1       1.951   0.935  -0.413  0.00  0.00    -0.073 SA
BRANCH   8  17
ATOM     17  C   UNL d   1       1.021  -2.938  -0.912  0.00  0.00     0.296 C 
ATOM     18  O   UNL d   1      -0.054  -3.527  -0.963  0.00  0.00    -0.259 OA
BRANCH  17  19
ATOM     19  O   UNL d   1       2.222  -3.559  -1.114  0.00  0.00    -0.318 OA
BRANCH  19  20
ATOM     20  C   UNL d   1       2.123  -4.946  -1.483  0.00  0.00     0.174 C 
ATOM     21  C   UNL d   1       1.880  -5.830  -0.271  0.00  0.00     0.034 C 
ENDBRANCH  19  20
ENDBRANCH  17  19
ENDBRANCH   8  17
ENDBRANCH   2   7
BRANCH   1  22
ATOM     22  S   UNL d   1       6.587  -2.243  -0.088  0.00  0.00     0.266 S 
ATOM     23  O   UNL d   1       7.612  -1.929   0.878  0.00  0.00    -0.200 OA
ATOM     24  O   UNL d   1       5.463  -3.105   0.219  0.00  0.00    -0.200 OA
BRANCH  22  25
ATOM     25  C   UNL d   1       7.379  -2.889  -1.542  0.00  0.00     0.080 A 
ATOM     26  C   UNL d   1       8.773  -2.989  -1.616  0.00  0.00     0.026 A 
ATOM     27  C   UNL d   1       9.364  -3.423  -2.807  0.00  0.00     0.008 A 
ATOM     28  C   UNL d   1       8.571  -3.746  -3.918  0.00  0.00    -0.062 A 
ATOM     29  C   UNL d   1       7.176  -3.687  -3.807  0.00  0.00     0.008 A 
ATOM     30  C   UNL d   1       9.211  -4.165  -5.211  0.00  0.00     0.048 C 
ATOM     31  C   UNL d   1       6.580  -3.259  -2.622  0.00  0.00     0.026 A 
ENDBRANCH  22  25
ENDBRANCH   1  22
TORSDOF 6
