REMARK  6 active torsions:
REMARK  status: ('A' for Active; 'I' for Inactive)
REMARK    1  A    between atoms: N_2  and  S_1 
REMARK    2  A    between atoms: C_4  and  N_2 
REMARK    3  A    between atoms: C_9  and  N_2 
REMARK    4  A    between atoms: C_5  and  C_3 
REMARK    5  A    between atoms: O_17  and  C_5 
REMARK    6  A    between atoms: C_12  and  C_9 
ROOT
ATOM      1  N   UNL d   1       0.597  -1.525  -0.196  0.00  0.00    -0.271 N 
ENDROOT
BRANCH   1   2
ATOM      2  S   UNL d   1       1.286   0.004  -0.059  0.00  0.00     0.229 S 
ATOM      3  O   UNL d   1       2.394   0.092  -0.986  0.00  0.00    -0.206 OA
ATOM      4  O   UNL d   1       1.468   0.317   1.345  0.00  0.00    -0.206 OA
ATOM      5  C   UNL d   1       0.017   1.086  -0.682  0.00  0.00     0.186 C 
ENDBRANCH   1   2
BRANCH   1   6
ATOM      6  C   UNL d   1      -0.220  -2.042   0.870  0.00  0.00     0.061 A 
ATOM      7  C   UNL d   1      -1.619  -1.912   0.961  0.00  0.00     0.067 A 
ATOM      8  C   UNL d   1      -2.305  -2.535   2.023  0.00  0.00     0.020 A 
ATOM      9  C   UNL d   1      -1.615  -3.264   2.990  0.00  0.00     0.001 A 
ATOM     10  C   UNL d   1      -0.232  -3.366   2.919  0.00  0.00     0.002 A 
ATOM     11  C   UNL d   1       0.459  -2.749   1.875  0.00  0.00     0.031 A 
BRANCH   7  12
ATOM     12  C   UNL d   1      -2.423  -1.162  -0.037  0.00  0.00     0.295 C 
ATOM     13  O   UNL d   1      -2.124  -1.029  -1.212  0.00  0.00    -0.259 OA
BRANCH  12  14
ATOM     14  O   UNL d   1      -3.501  -0.614   0.576  0.00  0.00    -0.322 OA
ATOM     15  C   UNL d   1      -4.382   0.155  -0.250  0.00  0.00     0.213 C 
ENDBRANCH  12  14
ENDBRANCH   7  12
ENDBRANCH   1   6
BRANCH   1  16
ATOM     16  C   UNL d   1       0.626  -2.222  -1.499  0.00  0.00     0.180 C 
BRANCH  16  17
ATOM     17  C   UNL d   1       1.913  -2.991  -1.753  0.00  0.00    -0.037 A 
ATOM     18  C   UNL d   1       2.287  -4.069  -0.935  0.00  0.00     0.034 A 
ATOM     19  C   UNL d   1       3.494  -4.750  -1.142  0.00  0.00     0.056 A 
ATOM     20 CL   UNL d   1       3.885  -6.036  -0.055  0.00  0.00    -0.083 Cl
ATOM     21  C   UNL d   1       4.334  -4.377  -2.194  0.00  0.00     0.055 A 
ATOM     22  C   UNL d   1       3.959  -3.326  -3.034  0.00  0.00     0.026 A 
ATOM     23 CL   UNL d   1       5.837  -5.169  -2.510  0.00  0.00    -0.083 Cl
ATOM     24  C   UNL d   1       2.762  -2.636  -2.812  0.00  0.00     0.011 A 
ENDBRANCH  16  17
ENDBRANCH   1  16
TORSDOF 6
