REMARK  4 active torsions:
REMARK  status: ('A' for Active; 'I' for Inactive)
REMARK    1  A    between atoms: C_11  and  C_5 
REMARK    2  A    between atoms: N_14  and  C_7 
REMARK    3  A    between atoms: C_8  and  S_12 
REMARK    4  A    between atoms: S_12  and  C_11 
ROOT
ATOM      1  C   UNL d   1      -0.609   1.098   0.102  0.00  0.00     0.073 A 
ATOM      2  N   UNL d   1      -0.439  -1.179  -0.219  0.00  0.00    -0.300 N 
ATOM      3  HN  UNL d   1      -0.651  -2.173  -0.305  1.00  0.00     0.186 HD
ATOM      4  C   UNL d   1       0.801   0.787  -0.226  0.00  0.00     0.273 A 
ATOM      5  C   UNL d   1      -1.273  -0.226   0.138  0.00  0.00     0.052 A 
ATOM      6  N   UNL d   1       0.772  -0.575  -0.454  0.00  0.00    -0.266 N 
ATOM      7  C   UNL d   1      -0.989   2.371   0.260  0.00  0.00     0.103 C 
ATOM      8  O   UNL d   1       1.746   1.547  -0.307  0.00  0.00    -0.266 OA
ATOM      9  H   UNL d   1       1.584  -1.126  -0.707  0.00  0.00     0.190 HD
ENDROOT
BRANCH   5  10
ATOM     10  C   UNL d   1      -2.690  -0.446   0.608  0.00  0.00     0.140 C 
BRANCH  10  11
ATOM     11  S   UNL d   1      -3.110  -2.223   0.650  0.00  0.00    -0.106 SA
BRANCH  11  12
ATOM     12  C   UNL d   1      -4.826  -2.162   1.123  0.00  0.00     0.069 A 
ATOM     13  N   UNL d   1      -5.340  -0.990   1.558  0.00  0.00    -0.361 N 
ATOM     14  C   UNL d   1      -6.639  -0.999   1.944  0.00  0.00     0.089 A 
ATOM     15  HN  UNL d   1      -4.778  -0.140   1.594  1.00  0.00     0.165 HD
ATOM     16  C   UNL d   1      -7.453  -2.119   1.906  0.00  0.00     0.017 A 
ATOM     17  C   UNL d   1      -6.907  -3.309   1.446  0.00  0.00     0.004 A 
ATOM     18  C   UNL d   1      -5.573  -3.335   1.050  0.00  0.00     0.037 A 
ENDBRANCH  11  12
ENDBRANCH  10  11
ENDBRANCH   5  10
BRANCH   7  19
ATOM     19  N   UNL d   1      -2.226   2.990   0.407  0.00  0.00    -0.398 N 
ATOM     20  C   UNL d   1      -3.355   2.672  -0.473  0.00  0.00     0.148 C 
ATOM     21  C   UNL d   1      -2.318   4.327   1.014  0.00  0.00     0.148 C 
ENDBRANCH   7  19
TORSDOF 4
