REMARK  3 active torsions:
REMARK  status: ('A' for Active; 'I' for Inactive)
REMARK    1  A    between atoms: C_10  and  C_1 
REMARK    2  A    between atoms: C_7  and  C_6 
REMARK    3  A    between atoms: O_16  and  C_9 
ROOT
ATOM      1  C   UNL d   1       1.021  -1.144   0.025  0.00  0.00     0.135 A 
ATOM      2  N   UNL d   1      -0.324  -1.125   0.002  0.00  0.00    -0.321 N 
ATOM      3  HN  UNL d   1      -0.879  -1.981  -0.006  1.00  0.00     0.169 HD
ATOM      4  N   UNL d   1       1.785  -0.028   0.035  0.00  0.00    -0.337 N 
ATOM      5  HN  UNL d   1       2.803  -0.089   0.051  1.00  0.00     0.167 HD
ATOM      6  C   UNL d   1       1.157   1.178   0.023  0.00  0.00     0.122 A 
ATOM      7  C   UNL d   1      -0.218   1.276  -0.000  0.00  0.00     0.090 A 
ATOM      8  C   UNL d   1      -0.885   0.083  -0.010  0.00  0.00     0.143 A 
ENDROOT
BRANCH   1   9
ATOM      9  C   UNL d   1       1.727  -2.452   0.043  0.00  0.00     0.076 A 
ATOM     10  N   UNL d   1       0.967  -3.585   0.061  0.00  0.00    -0.363 N 
ATOM     11  C   UNL d   1       1.605  -4.777   0.081  0.00  0.00     0.088 A 
ATOM     12  HN  UNL d   1      -0.052  -3.534   0.059  1.00  0.00     0.165 HD
ATOM     13  C   UNL d   1       2.982  -4.917   0.084  0.00  0.00     0.017 A 
ATOM     14  C   UNL d   1       3.755  -3.766   0.065  0.00  0.00     0.004 A 
ATOM     15  C   UNL d   1       3.125  -2.525   0.044  0.00  0.00     0.033 A 
ENDBRANCH   1   9
BRANCH   8  16
ATOM     16  O   UNL d   1      -2.242   0.064  -0.034  0.00  0.00    -0.346 OA
ATOM     17  H   UNL d   1      -2.404  -0.899  -0.036  0.00  0.00     0.219 HD
ENDBRANCH   8  16
BRANCH   6  18
ATOM     18  C   UNL d   1       1.991   2.446   0.034  0.00  0.00     0.432 C 
ATOM     19  F   UNL d   1       3.336   2.223   0.059  0.00  0.00    -0.165 F 
ATOM     20  F   UNL d   1       1.766   3.228  -1.060  0.00  0.00    -0.165 F 
ATOM     21  F   UNL d   1       1.726   3.236   1.113  0.00  0.00    -0.165 F 
ENDBRANCH   6  18
TORSDOF 3
