REMARK  4 active torsions:
REMARK  status: ('A' for Active; 'I' for Inactive)
REMARK    1  A    between atoms: N_4  and  C_1 
REMARK    2  A    between atoms: N_12  and  C_2 
REMARK    3  A    between atoms: C_8  and  C_5 
REMARK    4  A    between atoms: C_14  and  N_12 
ROOT
ATOM      1  C   UNL d   1      -1.459   4.541   0.442  0.00  0.00    -0.098 C 
ATOM      2  C   UNL d   1      -1.636   5.728   0.349  0.00  0.00     0.014 C 
ATOM      3  C   UNL d   1      -1.323   3.087   0.583  0.00  0.00     0.214 C 
ENDROOT
BRANCH   3   4
ATOM      4  N   UNL d   1      -0.087   2.618  -0.034  0.00  0.00    -0.372 N 
ATOM      5  H   UNL d   1       0.680   3.292   0.053  0.00  0.00     0.161 HD
BRANCH   4   6
ATOM      6  C   UNL d   1       0.241   1.287  -0.028  0.00  0.00     0.104 A 
ATOM      7  C   UNL d   1       1.504   0.703  -0.048  0.00  0.00     0.137 A 
ATOM      8  C   UNL d   1       1.438  -0.735  -0.038  0.00  0.00     0.061 A 
ATOM      9  C   UNL d   1       0.145  -1.220  -0.027  0.00  0.00     0.054 A 
ATOM     10  S   UNL d   1      -0.970   0.059  -0.034  0.00  0.00    -0.067 SA
BRANCH   7  11
ATOM     11  N   UNL d   1       2.751   1.440  -0.053  0.00  0.00    -0.113 N 
ATOM     12  O   UNL d   1       2.695   2.676   0.007  0.00  0.00    -0.532 OA
ATOM     13  O   UNL d   1       3.791   0.771  -0.100  0.00  0.00    -0.532 OA
ENDBRANCH   7  11
BRANCH   9  14
ATOM     14  C   UNL d   1      -0.251  -2.625  -0.010  0.00  0.00     0.162 C 
ATOM     15  O   UNL d   1       0.595  -3.524   0.015  0.00  0.00    -0.292 OA
ATOM     16  C   UNL d   1      -1.711  -3.022  -0.027  0.00  0.00     0.097 C 
ENDBRANCH   9  14
ENDBRANCH   4   6
ENDBRANCH   3   4
TORSDOF 4
