REMARK  1 active torsions:
REMARK  status: ('A' for Active; 'I' for Inactive)
REMARK    1  A    between atoms: C_11  and  C_6 
ROOT
ATOM      1  C   UNL d   1       1.932   1.424  -0.069  0.00  0.00     0.026 C 
ATOM      2  N   UNL d   1       0.851   1.472  -0.757  0.00  0.00    -0.357 N 
ATOM      3  HN  UNL d   1       0.804   2.163  -1.506  1.00  0.00     0.166 HD
ATOM      4  C   UNL d   1       2.354   0.394   0.928  0.00  0.00     0.055 C 
ATOM      5  S   UNL d   1       0.790  -1.866   0.518  0.00  0.00    -0.117 SA
ATOM      6  C   UNL d   1       2.351  -1.011   0.374  0.00  0.00     0.095 C 
ATOM      7  C   UNL d   1       2.866   2.567   0.043  0.00  0.00    -0.007 A 
ATOM      8  C   UNL d   1      -0.282   0.648  -0.564  0.00  0.00     0.049 A 
ATOM      9  C   UNL d   1      -0.418  -0.689  -0.123  0.00  0.00     0.028 A 
ATOM     10  C   UNL d   1       1.745   0.888   2.232  0.00  0.00     0.017 C 
ATOM     11  C   UNL d   1       3.195   2.883   1.390  0.00  0.00    -0.046 A 
ATOM     12  C   UNL d   1       2.382   2.280   2.546  0.00  0.00     0.040 C 
ATOM     13  C   UNL d   1       3.681   2.926  -1.024  0.00  0.00     0.014 A 
ATOM     14  C   UNL d   1      -1.481   1.362  -0.823  0.00  0.00     0.031 A 
ATOM     15  C   UNL d   1      -1.719  -1.259  -0.063  0.00  0.00     0.021 A 
ATOM     16  C   UNL d   1       4.391   3.558   1.640  0.00  0.00     0.008 A 
ATOM     17  C   UNL d   1       4.885   3.577  -0.745  0.00  0.00     0.001 A 
ATOM     18  C   UNL d   1      -2.755   0.804  -0.698  0.00  0.00     0.002 A 
ATOM     19  C   UNL d   1      -2.873  -0.525  -0.343  0.00  0.00     0.002 A 
ATOM     20  C   UNL d   1       5.241   3.877   0.579  0.00  0.00     0.001 A 
ENDROOT
BRANCH   6  21
ATOM     21  C   UNL d   1       3.567  -1.682   1.058  0.00  0.00    -0.043 A 
ATOM     22  C   UNL d   1       4.831  -1.480   0.462  0.00  0.00     0.009 A 
ATOM     23  C   UNL d   1       6.005  -1.573   1.214  0.00  0.00     0.007 A 
ATOM     24  C   UNL d   1       5.952  -1.915   2.568  0.00  0.00    -0.062 A 
ATOM     25  C   UNL d   1       4.710  -2.208   3.143  0.00  0.00     0.007 A 
ATOM     26  C   UNL d   1       7.201  -1.861   3.397  0.00  0.00     0.048 C 
ATOM     27  C   UNL d   1       3.528  -2.102   2.397  0.00  0.00     0.009 A 
ENDBRANCH   6  21
TORSDOF 1
