REMARK  6 active torsions:
REMARK  status: ('A' for Active; 'I' for Inactive)
REMARK    1  A    between atoms: N_2  and  S_1 
REMARK    2  A    between atoms: C_3  and  S_1 
REMARK    3  A    between atoms: C_6  and  N_2 
REMARK    4  A    between atoms: C_4  and  C_7 
REMARK    5  A    between atoms: C_5  and  C_8 
REMARK    6  A    between atoms: C_14  and  C_6 
ROOT
ATOM      1  S   UNL d   1       0.887   0.010  -0.012  0.00  0.00     0.264 S 
ATOM      2  O   UNL d   1       0.068  -0.194  -1.185  0.00  0.00    -0.200 OA
ATOM      3  O   UNL d   1       2.330   0.061  -0.068  0.00  0.00    -0.200 OA
ENDROOT
BRANCH   1   4
ATOM      4  N   UNL d   1       0.499  -1.166   1.092  0.00  0.00    -0.265 N 
ATOM      5  H   UNL d   1       1.336  -1.633   1.430  0.00  0.00     0.180 HD
BRANCH   4   6
ATOM      6  C   UNL d   1      -0.767  -1.633   1.455  0.00  0.00     0.118 C 
ATOM      7  N   UNL d   1      -1.829  -1.338   0.799  0.00  0.00    -0.384 N 
ATOM      8  H   UNL d   1      -1.596  -0.800  -0.045  0.00  0.00     0.157 HD
ATOM      9  HN  UNL d   1      -2.775  -1.601   1.077  1.00  0.00     0.157 HD
BRANCH   6  10
ATOM     10  C   UNL d   1      -0.807  -2.504   2.662  0.00  0.00     0.008 A 
ATOM     11  C   UNL d   1       0.226  -2.511   3.609  0.00  0.00     0.017 A 
ATOM     12  C   UNL d   1       0.161  -3.366   4.716  0.00  0.00     0.025 A 
ATOM     13  C   UNL d   1      -0.936  -4.208   4.878  0.00  0.00     0.034 A 
ATOM     14  C   UNL d   1      -1.974  -4.202   3.951  0.00  0.00     0.025 A 
ATOM     15 CL   UNL d   1      -1.009  -5.257   6.239  0.00  0.00    -0.084 Cl
ATOM     16  C   UNL d   1      -1.912  -3.349   2.841  0.00  0.00     0.017 A 
ENDBRANCH   6  10
ENDBRANCH   4   6
ENDBRANCH   1   4
BRANCH   1  17
ATOM     17  C   UNL d   1       0.347   1.508   0.781  0.00  0.00     0.081 A 
ATOM     18  C   UNL d   1       0.765   1.807   2.083  0.00  0.00     0.041 A 
ATOM     19  C   UNL d   1       0.416   3.036   2.665  0.00  0.00     0.050 A 
ATOM     20  C   UNL d   1      -0.351   3.951   1.917  0.00  0.00     0.032 A 
ATOM     21  C   UNL d   1      -0.769   3.655   0.607  0.00  0.00     0.050 A 
ATOM     22  C   UNL d   1      -0.433   2.412   0.054  0.00  0.00     0.041 A 
BRANCH  19  23
ATOM     23  C   UNL d   1       0.893   3.415   4.050  0.00  0.00     0.417 C 
ATOM     24  F   UNL d   1       1.638   2.444   4.647  0.00  0.00    -0.166 F 
ATOM     25  F   UNL d   1       1.671   4.531   4.039  0.00  0.00    -0.166 F 
ATOM     26  F   UNL d   1      -0.134   3.678   4.902  0.00  0.00    -0.166 F 
ENDBRANCH  19  23
BRANCH  21  27
ATOM     27  C   UNL d   1      -1.508   4.690  -0.212  0.00  0.00     0.417 C 
ATOM     28  F   UNL d   1      -1.809   4.270  -1.471  0.00  0.00    -0.166 F 
ATOM     29  F   UNL d   1      -2.684   5.066   0.355  0.00  0.00    -0.166 F 
ATOM     30  F   UNL d   1      -0.779   5.830  -0.363  0.00  0.00    -0.166 F 
ENDBRANCH  21  27
ENDBRANCH   1  17
TORSDOF 6
