REMARK  5 active torsions:
REMARK  status: ('A' for Active; 'I' for Inactive)
REMARK    1  A    between atoms: C_8  and  C_1 
REMARK    2  A    between atoms: N_13  and  C_3 
REMARK    3  A    between atoms: N_6  and  C_9 
REMARK    4  A    between atoms: O_17  and  C_8 
REMARK    5  A    between atoms: C_18  and  O_17 
ROOT
ATOM      1  C   UNL d   1       2.461  -0.028  -0.002  0.00  0.00     0.138 A 
ATOM      2  N   UNL d   1       1.602   1.063   0.036  0.00  0.00    -0.344 N 
ATOM      3  C   UNL d   1       1.638  -1.144   0.046  0.00  0.00     0.072 A 
ATOM      4  C   UNL d   1       0.281  -0.742   0.053  0.00  0.00     0.022 A 
ATOM      5  C   UNL d   1       0.275   0.651   0.043  0.00  0.00     0.047 A 
ATOM      6  C   UNL d   1      -0.947  -1.437   0.048  0.00  0.00     0.052 A 
ATOM      7  C   UNL d   1      -2.142  -0.703   0.029  0.00  0.00     0.103 A 
ATOM      8  C   UNL d   1      -0.919   1.393   0.032  0.00  0.00     0.033 A 
ATOM      9  C   UNL d   1      -2.132   0.695   0.023  0.00  0.00     0.038 A 
ATOM     10  C   UNL d   1       1.963   2.468   0.035  0.00  0.00     0.157 C 
ENDROOT
BRANCH   1  11
ATOM     11  C   UNL d   1       3.906   0.036  -0.133  0.00  0.00     0.312 C 
ATOM     12  O   UNL d   1       4.571   1.050  -0.304  0.00  0.00    -0.258 OA
BRANCH  11  13
ATOM     13  O   UNL d   1       4.438  -1.223  -0.136  0.00  0.00    -0.317 OA
BRANCH  13  14
ATOM     14  C   UNL d   1       5.755  -1.346  -0.684  0.00  0.00     0.175 C 
ATOM     15  C   UNL d   1       5.635  -1.478  -2.192  0.00  0.00     0.034 C 
ENDBRANCH  13  14
ENDBRANCH  11  13
ENDBRANCH   1  11
BRANCH   3  16
ATOM     16  N   UNL d   1       2.043  -2.426   0.045  0.00  0.00    -0.396 N 
ATOM     17  H   UNL d   1       3.036  -2.666   0.048  0.00  0.00     0.156 HD
ATOM     18  H   UNL d   1       1.415  -3.219   0.080  0.00  0.00     0.156 HD
ENDBRANCH   3  16
BRANCH   7  19
ATOM     19  N   UNL d   1      -3.422  -1.422   0.006  0.00  0.00    -0.116 N 
ATOM     20  O   UNL d   1      -3.390  -2.661   0.005  0.00  0.00    -0.532 OA
ATOM     21  O   UNL d   1      -4.462  -0.748  -0.010  0.00  0.00    -0.532 OA
ENDBRANCH   7  19
TORSDOF 5
