REMARK  1 active torsions:
REMARK  status: ('A' for Active; 'I' for Inactive)
REMARK    1  A    between atoms: C_6  and  N_1 
ROOT
ATOM      1  N   UNL d   1       1.716  -0.736   0.096  0.00  0.00    -0.252 N 
ATOM      2  C   UNL d   1       1.781   0.639   0.175  0.00  0.00     0.232 C 
ATOM      3  C   UNL d   1       0.422  -1.167  -0.111  0.00  0.00     0.240 C 
ATOM      4  C   UNL d   1      -0.508   0.022  -0.071  0.00  0.00     0.050 C 
ATOM      5  C   UNL d   1       0.421   1.222  -0.085  0.00  0.00     0.123 C 
ATOM      6  O   UNL d   1       2.752   1.362   0.349  0.00  0.00    -0.273 OA
ATOM      7  O   UNL d   1       0.005  -2.312  -0.239  0.00  0.00    -0.272 OA
ATOM      8  C   UNL d   1      -1.521   0.007  -1.216  0.00  0.00     0.020 C 
ATOM      9  C   UNL d   1      -1.405  -0.017   1.171  0.00  0.00     0.020 C 
ATOM     10  C   UNL d   1      -2.622   0.826   0.804  0.00  0.00     0.001 C 
ATOM     11  C   UNL d   1      -2.689   0.851  -0.722  0.00  0.00     0.001 C 
ENDROOT
BRANCH   1  12
ATOM     12  C   UNL d   1       2.851  -1.607   0.185  0.00  0.00     0.045 A 
ATOM     13  C   UNL d   1       4.067  -1.178   0.746  0.00  0.00     0.031 A 
ATOM     14  C   UNL d   1       5.178  -2.028   0.831  0.00  0.00     0.021 A 
ATOM     15  C   UNL d   1       5.096  -3.328   0.347  0.00  0.00     0.011 A 
ATOM     16  C   UNL d   1       3.912  -3.783  -0.214  0.00  0.00     0.021 A 
ATOM     17 BR   UNL d   1       6.593  -4.474   0.452  0.00  0.00    -0.051 Br
ATOM     18  C   UNL d   1       2.802  -2.930  -0.290  0.00  0.00     0.031 A 
ENDBRANCH   1  12
TORSDOF 1
