REMARK  10 active torsions:
REMARK  status: ('A' for Active; 'I' for Inactive)
REMARK    1  A    between atoms: C_2  and  C_1 
REMARK    2  A    between atoms: C_3  and  C_1 
REMARK    3  A    between atoms: N_6  and  C_4 
REMARK    4  A    between atoms: N_7  and  C_5 
REMARK    5  A    between atoms: C_19  and  N_6 
REMARK    6  A    between atoms: C_20  and  N_7 
REMARK    7  A    between atoms: O_17  and  C_24 
REMARK    8  A    between atoms: O_18  and  C_23 
REMARK    9  A    between atoms: C_24  and  C_19 
REMARK   10  A    between atoms: C_23  and  C_20 
ROOT
ATOM      1  C   UNL d   1       1.167   0.146   0.022  0.00  0.00     0.192 C 
ATOM      2  O   UNL d   1       2.395   0.202   0.057  0.00  0.00    -0.287 OA
ENDROOT
BRANCH   1   3
ATOM      3  C   UNL d   1       0.369   0.830   1.077  0.00  0.00     0.015 A 
ATOM      4  C   UNL d   1      -0.848   1.440   0.787  0.00  0.00     0.018 A 
ATOM      5  C   UNL d   1      -1.608   2.020   1.816  0.00  0.00     0.030 A 
ATOM      6  C   UNL d   1      -1.187   2.020   3.157  0.00  0.00     0.029 A 
ATOM      7  C   UNL d   1       0.080   1.459   3.400  0.00  0.00     0.030 A 
ATOM      8  C   UNL d   1       0.853   0.874   2.383  0.00  0.00     0.018 A 
BRANCH   6   9
ATOM      9  N   UNL d   1      -1.985   2.515   4.179  0.00  0.00    -0.383 N 
ATOM     10  C   UNL d   1      -3.407   2.788   3.986  0.00  0.00     0.150 C 
BRANCH   9  11
ATOM     11  C   UNL d   1      -1.425   2.955   5.468  0.00  0.00     0.148 C 
BRANCH  11  12
ATOM     12  C   UNL d   1      -0.639   4.266   5.348  0.00  0.00     0.183 C 
BRANCH  12  13
ATOM     13  O   UNL d   1      -0.286   4.741   6.646  0.00  0.00    -0.399 OA
ATOM     14  H   UNL d   1       0.211   5.567   6.516  0.00  0.00     0.209 HD
ENDBRANCH  12  13
ENDBRANCH  11  12
ENDBRANCH   9  11
ENDBRANCH   6   9
ENDBRANCH   1   3
BRANCH   1  15
ATOM     15  C   UNL d   1       0.494  -0.604  -1.073  0.00  0.00     0.015 A 
ATOM     16  C   UNL d   1      -0.686  -1.315  -0.853  0.00  0.00     0.018 A 
ATOM     17  C   UNL d   1      -1.330  -1.957  -1.923  0.00  0.00     0.030 A 
ATOM     18  C   UNL d   1      -0.829  -1.928  -3.236  0.00  0.00     0.029 A 
ATOM     19  C   UNL d   1       0.393  -1.252  -3.407  0.00  0.00     0.030 A 
ATOM     20  C   UNL d   1       1.054  -0.608  -2.347  0.00  0.00     0.018 A 
BRANCH  18  21
ATOM     21  N   UNL d   1      -1.518  -2.490  -4.306  0.00  0.00    -0.383 N 
ATOM     22  C   UNL d   1      -2.860  -3.047  -4.137  0.00  0.00     0.150 C 
BRANCH  21  23
ATOM     23  C   UNL d   1      -0.824  -2.917  -5.540  0.00  0.00     0.148 C 
BRANCH  23  24
ATOM     24  C   UNL d   1       0.114  -4.115  -5.329  0.00  0.00     0.183 C 
BRANCH  24  25
ATOM     25  O   UNL d   1      -0.612  -5.296  -4.987  0.00  0.00    -0.399 OA
ATOM     26  H   UNL d   1       0.042  -5.935  -4.655  0.00  0.00     0.209 HD
ENDBRANCH  24  25
ENDBRANCH  23  24
ENDBRANCH  21  23
ENDBRANCH  18  21
ENDBRANCH   1  15
TORSDOF 10
