REMARK  3 active torsions:
REMARK  status: ('A' for Active; 'I' for Inactive)
REMARK    1  A    between atoms: C_6  and  C_1 
REMARK    2  A    between atoms: C_13  and  C_3 
REMARK    3  A    between atoms: S_15  and  C_5 
ROOT
ATOM      1  C   UNL d   1       1.314  -1.201   0.060  0.00  0.00     0.047 A 
ATOM      2  C   UNL d   1      -0.724  -0.053  -0.059  0.00  0.00     0.080 A 
ATOM      3  C   UNL d   1      -0.072  -1.357  -0.033  0.00  0.00     0.016 A 
ATOM      4  S   UNL d   1       1.778   0.452  -0.001  0.00  0.00    -0.079 SA
ATOM      5  C   UNL d   1       0.168   1.000   0.001  0.00  0.00     0.063 A 
ATOM      6  C   UNL d   1      -2.141   0.159  -0.142  0.00  0.00     0.102 C 
ATOM      7  N   UNL d   1      -3.288   0.342  -0.216  0.00  0.00    -0.191 NA
ENDROOT
BRANCH   3   8
ATOM      8  C   UNL d   1      -0.758  -2.667  -0.131  0.00  0.00    -0.023 A 
ATOM      9  C   UNL d   1      -0.255  -3.700  -0.938  0.00  0.00     0.012 A 
ATOM     10  C   UNL d   1      -0.857  -4.962  -0.963  0.00  0.00     0.001 A 
ATOM     11  C   UNL d   1      -2.035  -5.185  -0.259  0.00  0.00     0.000 A 
ATOM     12  C   UNL d   1      -2.599  -4.149   0.479  0.00  0.00     0.001 A 
ATOM     13  C   UNL d   1      -1.953  -2.910   0.563  0.00  0.00     0.012 A 
ENDBRANCH   3   8
BRANCH   5  14
ATOM     14  S   UNL d   1      -0.167   2.730   0.114  0.00  0.00    -0.126 SA
ATOM     15  C   UNL d   1      -0.852   3.083  -1.519  0.00  0.00     0.096 C 
ENDBRANCH   5  14
BRANCH   1  16
ATOM     16  C   UNL d   1       2.378  -2.271   0.202  0.00  0.00     0.067 A 
ATOM     17  N   UNL d   1       2.132  -3.489   0.699  0.00  0.00    -0.300 N 
ATOM     18  N   UNL d   1       3.288  -4.151   0.571  0.00  0.00    -0.311 N 
ATOM     19  HN  UNL d   1       1.256  -3.837   1.089  1.00  0.00     0.187 HD
ATOM     20  C   UNL d   1       4.291  -3.392   0.051  0.00  0.00     0.109 A 
ATOM     21  H   UNL d   1       3.313  -5.127   0.848  0.00  0.00     0.186 HD
ATOM     22  C   UNL d   1       3.743  -2.150  -0.167  0.00  0.00     0.051 A 
ENDBRANCH   1  16
TORSDOF 3
