REMARK  4 active torsions:
REMARK  status: ('A' for Active; 'I' for Inactive)
REMARK    1  A    between atoms: S_3  and  C_1 
REMARK    2  A    between atoms: C_9  and  N_2 
REMARK    3  A    between atoms: C_5  and  S_3 
REMARK    4  A    between atoms: N_4  and  C_6 
ROOT
ATOM      1  C   UNL d   1       1.016  -0.742   0.252  0.00  0.00     0.157 A 
ATOM      2  N   UNL d   1      -0.313  -1.138   0.106  0.00  0.00    -0.299 N 
ATOM      3  N   UNL d   1       1.152   0.567   0.296  0.00  0.00    -0.345 N 
ATOM      4  HN  UNL d   1       2.018   1.095   0.394  1.00  0.00     0.167 HD
ATOM      5  C   UNL d   1      -1.028   0.048   0.082  0.00  0.00     0.116 A 
ATOM      6  C   UNL d   1      -0.112   1.065   0.182  0.00  0.00     0.108 A 
ENDROOT
BRANCH   1   7
ATOM      7  S   UNL d   1       2.384  -1.811   0.301  0.00  0.00    -0.033 SA
BRANCH   7   8
ATOM      8  C   UNL d   1       2.836  -1.804  -1.423  0.00  0.00     0.110 A 
ATOM      9  C   UNL d   1       4.153  -1.806  -1.868  0.00  0.00     0.136 A 
ATOM     10  C   UNL d   1       4.447  -1.797  -3.235  0.00  0.00     0.040 A 
ATOM     11  C   UNL d   1       3.393  -1.800  -4.140  0.00  0.00     0.020 A 
ATOM     12  C   UNL d   1       2.102  -1.821  -3.636  0.00  0.00     0.089 A 
ATOM     13  N   UNL d   1       1.807  -1.834  -2.315  0.00  0.00    -0.358 N 
ATOM     14  HN  UNL d   1       0.839  -1.865  -1.996  1.00  0.00     0.166 HD
BRANCH   9  15
ATOM     15  N   UNL d   1       5.255  -1.850  -0.940  0.00  0.00    -0.113 N 
ATOM     16  O   UNL d   1       5.370  -2.866  -0.242  0.00  0.00    -0.532 OA
ATOM     17  O   UNL d   1       6.050  -0.902  -0.969  0.00  0.00    -0.532 OA
ENDBRANCH   9  15
ENDBRANCH   7   8
ENDBRANCH   1   7
BRANCH   2  18
ATOM     18  C   UNL d   1      -0.886  -2.446   0.086  0.00  0.00     0.062 A 
ATOM     19  C   UNL d   1      -1.989  -2.775  -0.725  0.00  0.00     0.061 A 
ATOM     20 CL   UNL d   1      -2.675  -1.728  -1.922  0.00  0.00    -0.082 Cl
ATOM     21  C   UNL d   1      -2.537  -4.066  -0.671  0.00  0.00     0.026 A 
ATOM     22  C   UNL d   1      -1.992  -5.038   0.164  0.00  0.00     0.002 A 
ATOM     23  C   UNL d   1      -0.901  -4.724   0.964  0.00  0.00     0.002 A 
ATOM     24  C   UNL d   1      -0.360  -3.435   0.937  0.00  0.00     0.032 A 
ENDBRANCH   2  18
TORSDOF 4
