REMARK  2 active torsions:
REMARK  status: ('A' for Active; 'I' for Inactive)
REMARK    1  A    between atoms: S_12  and  C_3 
REMARK    2  A    between atoms: C_4  and  C_5 
ROOT
ATOM      1  N   UNL d   1       1.232   0.529   0.015  0.00  0.00    -0.336 N 
ATOM      2  HN  UNL d   1       2.163   0.947   0.025  1.00  0.00     0.168 HD
ATOM      3  C   UNL d   1       0.124   1.284   0.052  0.00  0.00     0.144 A 
ATOM      4  C   UNL d   1       1.060  -0.808  -0.036  0.00  0.00     0.052 A 
ATOM      5  N   UNL d   1      -1.130   0.802   0.062  0.00  0.00    -0.347 N 
ATOM      6  HN  UNL d   1      -1.942   1.418   0.092  1.00  0.00     0.167 HD
ATOM      7  C   UNL d   1      -0.189  -1.395  -0.021  0.00  0.00     0.048 A 
ATOM      8  C   UNL d   1      -1.257  -0.534   0.029  0.00  0.00     0.092 A 
ENDROOT
BRANCH   4   9
ATOM      9  C   UNL d   1       2.312  -1.576  -0.097  0.00  0.00     0.031 A 
ATOM     10  S   UNL d   1       2.375  -3.123  -0.851  0.00  0.00    -0.100 SA
ATOM     11  C   UNL d   1       4.046  -3.294  -0.542  0.00  0.00     0.050 A 
ATOM     12  C   UNL d   1       4.562  -2.204   0.119  0.00  0.00     0.008 A 
ATOM     13  C   UNL d   1       3.567  -1.214   0.366  0.00  0.00     0.021 A 
ENDBRANCH   4   9
BRANCH   3  14
ATOM     14  S   UNL d   1       0.368   3.045   0.086  0.00  0.00    -0.098 SA
ATOM     15  C   UNL d   1      -1.351   3.610   0.061  0.00  0.00     0.099 C 
ENDBRANCH   3  14
TORSDOF 2
