REMARK  6 active torsions:
REMARK  status: ('A' for Active; 'I' for Inactive)
REMARK    1  A    between atoms: N_2  and  S_1 
REMARK    2  A    between atoms: C_6  and  S_1 
REMARK       I    between atoms: C_5  and  N_2 
REMARK       I    between atoms: C_3  and  N_4 
REMARK    3  A    between atoms: O_7  and  C_3 
REMARK       I    between atoms: N_10  and  C_5 
REMARK    4  A    between atoms: C_15  and  O_7 
REMARK    5  A    between atoms: C_18  and  N_10 
REMARK    6  A    between atoms: C_24  and  C_18 
ROOT
ATOM      1  N   UNL d   1      -0.079  -1.757   0.790  0.00  0.00    -0.232 N 
ATOM      2  C   UNL d   1       0.933  -0.815   0.908  0.00  0.00     0.329 C 
ATOM      3  N   UNL d   1       1.070  -0.148   2.086  0.00  0.00    -0.342 N 
ATOM      4  O   UNL d   1       1.649  -0.621  -0.064  0.00  0.00    -0.246 OA
ATOM      5  H   UNL d   1       0.001  -2.335  -0.043  0.00  0.00     0.183 HD
ATOM      6  H   UNL d   1       0.460  -0.404   2.860  0.00  0.00     0.164 HD
ENDROOT
BRANCH   3   7
ATOM      7  C   UNL d   1       1.945   1.000   2.220  0.00  0.00     0.129 C 
BRANCH   7   8
ATOM      8  C   UNL d   1       2.919   0.920   3.409  0.00  0.00     0.006 C 
ATOM      9  C   UNL d   1       3.769   2.206   3.480  0.00  0.00     0.026 C 
ATOM     10  C   UNL d   1       4.837   2.254   2.386  0.00  0.00     0.128 C 
ATOM     11  N   UNL d   1       5.670   1.064   2.436  0.00  0.00    -0.328 N 
ATOM     12  C   UNL d   1       7.045   1.202   2.532  0.00  0.00     0.363 C 
ATOM     13  C   UNL d   1       4.965  -0.213   2.335  0.00  0.00     0.128 C 
ATOM     14  O   UNL d   1       7.609   2.284   2.654  0.00  0.00    -0.238 OA
ATOM     15  C   UNL d   1       3.851  -0.308   3.383  0.00  0.00     0.026 C 
BRANCH  12  16
ATOM     16  O   UNL d   1       7.700   0.011   2.499  0.00  0.00    -0.294 OA
BRANCH  16  17
ATOM     17  C   UNL d   1       9.133  -0.063   2.739  0.00  0.00     0.061 C 
ATOM     18  C   UNL d   1       9.480   0.456   4.141  0.00  0.00     0.046 C 
ATOM     19  C   UNL d   1       9.467  -1.563   2.666  0.00  0.00     0.046 C 
ATOM     20  C   UNL d   1       9.938   0.668   1.657  0.00  0.00     0.046 C 
ENDBRANCH  16  17
ENDBRANCH  12  16
ENDBRANCH   7   8
ENDBRANCH   3   7
BRANCH   1  21
ATOM     21  S   UNL d   1      -1.084  -2.390   1.934  0.00  0.00     0.266 S 
ATOM     22  O   UNL d   1      -0.673  -1.908   3.234  0.00  0.00    -0.200 OA
ATOM     23  O   UNL d   1      -1.194  -3.801   1.634  0.00  0.00    -0.200 OA
BRANCH  21  24
ATOM     24  C   UNL d   1      -2.679  -1.675   1.611  0.00  0.00     0.080 A 
ATOM     25  C   UNL d   1      -2.879  -0.685   0.649  0.00  0.00     0.026 A 
ATOM     26  C   UNL d   1      -4.175  -0.193   0.433  0.00  0.00     0.008 A 
ATOM     27  C   UNL d   1      -5.262  -0.688   1.170  0.00  0.00    -0.062 A 
ATOM     28  C   UNL d   1      -5.041  -1.674   2.137  0.00  0.00     0.008 A 
ATOM     29  C   UNL d   1      -6.648  -0.172   0.911  0.00  0.00     0.048 C 
ATOM     30  C   UNL d   1      -3.755  -2.167   2.357  0.00  0.00     0.026 A 
ENDBRANCH  21  24
ENDBRANCH   1  21
TORSDOF 6
