REMARK  3 active torsions:
REMARK  status: ('A' for Active; 'I' for Inactive)
REMARK    1  A    between atoms: S_7  and  C_1 
REMARK    2  A    between atoms: C_9  and  S_7 
REMARK    3  A    between atoms: C_11  and  C_9 
ROOT
ATOM      1  C   UNL d   1      -1.527  -0.467   0.015  0.00  0.00     0.041 C 
ATOM      2  C   UNL d   1      -0.558  -1.373   0.155  0.00  0.00     0.075 C 
ATOM      3  S   UNL d   1      -1.248   1.187  -0.373  0.00  0.00    -0.113 SA
ATOM      4  C   UNL d   1       0.886  -1.119   0.034  0.00  0.00     0.152 C 
ATOM      5  C   UNL d   1       0.517   1.478  -0.056  0.00  0.00     0.013 C 
ATOM      6  C   UNL d   1       1.445   0.264  -0.168  0.00  0.00     0.103 C 
ATOM      7  O   UNL d   1       1.640  -2.091   0.079  0.00  0.00    -0.293 OA
ATOM      8  C   UNL d   1       0.659   2.146   1.322  0.00  0.00     0.027 C 
ATOM      9  C   UNL d   1       0.923   2.499  -1.139  0.00  0.00     0.027 C 
ENDROOT
BRANCH   1  10
ATOM     10  S   UNL d   1      -3.176  -1.002   0.266  0.00  0.00    -0.118 SA
BRANCH  10  11
ATOM     11  C   UNL d   1      -4.017  -0.418  -1.242  0.00  0.00     0.118 C 
BRANCH  11  12
ATOM     12  C   UNL d   1      -5.512  -0.623  -1.151  0.00  0.00    -0.049 A 
ATOM     13  C   UNL d   1      -6.336   0.396  -0.643  0.00  0.00     0.009 A 
ATOM     14  C   UNL d   1      -7.718   0.211  -0.548  0.00  0.00     0.024 A 
ATOM     15  C   UNL d   1      -8.283  -0.995  -0.954  0.00  0.00     0.034 A 
ATOM     16  C   UNL d   1      -7.480  -2.018  -1.452  0.00  0.00     0.024 A 
ATOM     17 CL   UNL d   1      -9.985  -1.224  -0.835  0.00  0.00    -0.084 Cl
ATOM     18  C   UNL d   1      -6.097  -1.833  -1.549  0.00  0.00     0.009 A 
ENDBRANCH  11  12
ENDBRANCH  10  11
ENDBRANCH   1  10
TORSDOF 3
