REMARK  5 active torsions:
REMARK  status: ('A' for Active; 'I' for Inactive)
REMARK    1  A    between atoms: C_5  and  C_1 
REMARK    2  A    between atoms: C_9  and  C_2 
REMARK    3  A    between atoms: C_6  and  C_7 
REMARK       I    between atoms: N_11  and  C_9 
REMARK    4  A    between atoms: N_12  and  N_11 
REMARK    5  A    between atoms: C_13  and  N_12 
ROOT
ATOM      1  C   UNL d   1       0.326  -2.635  -0.133  0.00  0.00     0.271 C 
ATOM      2  N   UNL d   1      -0.663  -3.619  -0.097  0.00  0.00    -0.282 N 
ATOM      3  O   UNL d   1       1.524  -2.909  -0.195  0.00  0.00    -0.266 OA
ATOM      4  H   UNL d   1      -1.558  -3.347   0.293  0.00  0.00     0.184 HD
ENDROOT
BRANCH   1   5
ATOM      5  C   UNL d   1      -0.141  -1.268  -0.025  0.00  0.00     0.094 A 
ATOM      6  C   UNL d   1      -1.233  -0.564  -0.638  0.00  0.00     0.088 A 
ATOM      7  N   UNL d   1      -1.191   0.732  -0.280  0.00  0.00    -0.259 N 
ATOM      8  O   UNL d   1      -0.154   0.875   0.601  0.00  0.00    -0.241 OA
ATOM      9  HN  UNL d   1      -1.815   1.470  -0.605  1.00  0.00     0.195 HD
ATOM     10  C   UNL d   1       0.477  -0.312   0.759  0.00  0.00     0.090 A 
ATOM     11  C   UNL d   1       1.607  -0.304   1.707  0.00  0.00     0.080 C 
BRANCH   6  12
ATOM     12  C   UNL d   1      -2.259  -1.019  -1.583  0.00  0.00     0.054 A 
ATOM     13  C   UNL d   1      -3.591  -0.563  -1.546  0.00  0.00     0.049 A 
ATOM     14 CL   UNL d   1      -4.218   0.486  -0.312  0.00  0.00    -0.083 Cl
ATOM     15  C   UNL d   1      -4.524  -0.981  -2.508  0.00  0.00     0.025 A 
ATOM     16  C   UNL d   1      -4.157  -1.880  -3.507  0.00  0.00     0.005 A 
ATOM     17  C   UNL d   1      -2.850  -2.350  -3.549  0.00  0.00     0.043 A 
ATOM     18  C   UNL d   1      -1.920  -1.907  -2.612  0.00  0.00     0.130 A 
ATOM     19  F   UNL d   1      -0.661  -2.356  -2.739  0.00  0.00    -0.205 F 
ENDBRANCH   6  12
ENDBRANCH   1   5
BRANCH   2  20
ATOM     20  N   UNL d   1      -0.184  -4.907   0.252  0.00  0.00    -0.202 NA
ATOM     21  H   UNL d   1       0.569  -5.168  -0.392  0.00  0.00     0.153 HD
BRANCH  20  22
ATOM     22  C   UNL d   1      -1.137  -5.935   0.439  0.00  0.00     0.042 A 
ATOM     23  C   UNL d   1      -2.231  -5.880   1.323  0.00  0.00     0.070 A 
ATOM     24  C   UNL d   1      -3.011  -7.049   1.522  0.00  0.00     0.018 A 
ATOM     25  C   UNL d   1      -2.724  -8.246   0.875  0.00  0.00     0.001 A 
ATOM     26  C   UNL d   1      -1.649  -8.304   0.004  0.00  0.00     0.002 A 
ATOM     27  C   UNL d   1      -0.867  -7.165  -0.206  0.00  0.00     0.026 A 
BRANCH  23  28
ATOM     28  C   UNL d   1      -2.634  -4.698   2.175  0.00  0.00     0.419 C 
ATOM     29  F   UNL d   1      -1.992  -3.525   1.927  0.00  0.00    -0.166 F 
ATOM     30  F   UNL d   1      -3.957  -4.401   2.010  0.00  0.00    -0.166 F 
ATOM     31  F   UNL d   1      -2.476  -4.936   3.507  0.00  0.00    -0.166 F 
ENDBRANCH  23  28
ENDBRANCH  20  22
ENDBRANCH   2  20
TORSDOF 5
