REMARK  3 active torsions:
REMARK  status: ('A' for Active; 'I' for Inactive)
REMARK    1  A    between atoms: C_6  and  C_1 
REMARK    2  A    between atoms: N_4  and  C_2 
REMARK    3  A    between atoms: O_13  and  C_6 
ROOT
ATOM      1  C   UNL d   1      -0.805   1.377  -0.011  0.00  0.00     0.107 A 
ATOM      2  C   UNL d   1       0.588   1.353  -0.020  0.00  0.00     0.068 A 
ATOM      3  S   UNL d   1      -1.461  -0.207   0.032  0.00  0.00    -0.093 SA
ATOM      4  C   UNL d   1       1.113  -0.002  -0.028  0.00  0.00    -0.027 A 
ATOM      5  C   UNL d   1       0.079  -0.921  -0.019  0.00  0.00     0.059 A 
ATOM      6  C   UNL d   1       2.541  -0.451   0.027  0.00  0.00     0.051 C 
ENDROOT
BRANCH   2   7
ATOM      7  N   UNL d   1       1.396   2.543  -0.003  0.00  0.00    -0.331 N 
ATOM      8  C   UNL d   1       2.616   2.724  -0.624  0.00  0.00     0.096 A 
ATOM      9  C   UNL d   1       3.076   3.997  -0.364  0.00  0.00     0.019 A 
ATOM     10  C   UNL d   1       2.114   4.630   0.447  0.00  0.00     0.019 A 
ATOM     11  C   UNL d   1       1.102   3.720   0.659  0.00  0.00     0.096 A 
ENDBRANCH   2   7
BRANCH   1  12
ATOM     12  C   UNL d   1      -1.706   2.508  -0.160  0.00  0.00     0.302 C 
ATOM     13  O   UNL d   1      -1.473   3.517  -0.820  0.00  0.00    -0.259 OA
BRANCH  12  14
ATOM     14  O   UNL d   1      -2.849   2.333   0.568  0.00  0.00    -0.322 OA
ATOM     15  C   UNL d   1      -3.737   3.449   0.522  0.00  0.00     0.213 C 
ENDBRANCH  12  14
ENDBRANCH   1  12
TORSDOF 3
