REMARK  3 active torsions:
REMARK  status: ('A' for Active; 'I' for Inactive)
REMARK    1  A    between atoms: C_2  and  S_1 
REMARK    2  A    between atoms: N_8  and  S_1 
REMARK    3  A    between atoms: C_11  and  N_8 
ROOT
ATOM      1  S   UNL d   1       0.957   0.038   0.017  0.00  0.00     0.250 S 
ATOM      2  O   UNL d   1       0.280  -0.419   1.213  0.00  0.00    -0.205 OA
ATOM      3  O   UNL d   1       2.398   0.009  -0.070  0.00  0.00    -0.205 OA
ENDROOT
BRANCH   1   4
ATOM      4  C   UNL d   1       0.503   1.670  -0.156  0.00  0.00     0.130 A 
ATOM      5  C   UNL d   1       1.195   2.688  -0.768  0.00  0.00     0.097 A 
ATOM      6  O   UNL d   1       0.442   3.822  -0.717  0.00  0.00    -0.241 OA
ATOM      7  C   UNL d   1       2.494   2.830  -1.451  0.00  0.00     0.081 C 
ATOM      8  N   UNL d   1      -0.754   3.559  -0.079  0.00  0.00    -0.264 N 
ATOM      9  C   UNL d   1      -0.714   2.263   0.260  0.00  0.00     0.054 A 
ATOM     10  HN  UNL d   1      -1.513   4.217   0.098  1.00  0.00     0.194 HD
ATOM     11  C   UNL d   1      -1.870   1.658   0.964  0.00  0.00     0.072 C 
ENDBRANCH   1   4
BRANCH   1  12
ATOM     12  N   UNL d   1       0.307  -0.857  -1.267  0.00  0.00    -0.181 NA
ATOM     13  H   UNL d   1       0.360  -1.848  -1.033  0.00  0.00     0.146 HD
BRANCH  12  14
ATOM     14  C   UNL d   1       0.768  -0.549  -2.581  0.00  0.00     0.022 A 
ATOM     15  C   UNL d   1       1.954  -1.084  -3.080  0.00  0.00     0.024 A 
ATOM     16  C   UNL d   1       2.342  -0.802  -4.394  0.00  0.00     0.002 A 
ATOM     17  C   UNL d   1       1.549   0.020  -5.196  0.00  0.00     0.000 A 
ATOM     18  C   UNL d   1       0.379   0.577  -4.681  0.00  0.00     0.002 A 
ATOM     19  C   UNL d   1      -0.008   0.298  -3.370  0.00  0.00     0.024 A 
ENDBRANCH  12  14
ENDBRANCH   1  12
TORSDOF 3
