REMARK  2 active torsions:
REMARK  status: ('A' for Active; 'I' for Inactive)
REMARK    1  A    between atoms: C_6  and  N_1 
REMARK    2  A    between atoms: C_8  and  C_6 
ROOT
ATOM      1  N   UNL d   1       1.592  -0.984  -0.052  0.00  0.00    -0.286 N 
ATOM      2  C   UNL d   1       1.185  -0.199   1.006  0.00  0.00     0.373 A 
ATOM      3  O   UNL d   1       0.764   1.064   0.565  0.00  0.00    -0.259 OA
ATOM      4  C   UNL d   1       1.474  -0.236  -1.200  0.00  0.00     0.073 A 
ATOM      5  C   UNL d   1       0.968   0.986  -0.803  0.00  0.00     0.107 A 
ATOM      6  O   UNL d   1       1.181  -0.524   2.187  0.00  0.00    -0.237 OA
ATOM      7  C   UNL d   1       1.761  -0.517  -2.519  0.00  0.00     0.033 A 
ATOM      8  C   UNL d   1       0.713   1.995  -1.706  0.00  0.00     0.040 A 
ATOM      9  C   UNL d   1       1.511   0.493  -3.454  0.00  0.00     0.002 A 
ATOM     10  C   UNL d   1       0.989   1.738  -3.052  0.00  0.00     0.003 A 
ENDROOT
BRANCH   1  11
ATOM     11  C   UNL d   1       2.128  -2.317   0.053  0.00  0.00     0.173 C 
BRANCH  11  12
ATOM     12  C   UNL d   1       3.639  -2.338   0.036  0.00  0.00    -0.040 A 
ATOM     13  C   UNL d   1       4.368  -1.759   1.087  0.00  0.00     0.009 A 
ATOM     14  C   UNL d   1       5.762  -1.740   1.057  0.00  0.00     0.001 A 
ATOM     15  C   UNL d   1       6.444  -2.307  -0.018  0.00  0.00     0.000 A 
ATOM     16  C   UNL d   1       5.733  -2.903  -1.057  0.00  0.00     0.001 A 
ATOM     17  C   UNL d   1       4.337  -2.921  -1.030  0.00  0.00     0.009 A 
ENDBRANCH  11  12
ENDBRANCH   1  11
TORSDOF 2
