REMARK  8 active torsions:
REMARK  status: ('A' for Active; 'I' for Inactive)
REMARK    1  A    between atoms: C_2  and  S_1 
REMARK    2  A    between atoms: C_9  and  S_1 
REMARK    3  A    between atoms: C_6  and  C_3 
REMARK    4  A    between atoms: C_10  and  C_14 
REMARK    5  A    between atoms: O_15  and  C_10 
REMARK    6  A    between atoms: O_12  and  C_11 
REMARK    7  A    between atoms: C_14  and  O_12 
REMARK    8  A    between atoms: C_20  and  O_15 
ROOT
ATOM      1  C   UNL d   1      -1.449  -1.450  -2.562  0.00  0.00     0.144 C 
ATOM      2  C   UNL d   1      -0.724  -1.642  -1.437  0.00  0.00     0.049 C 
ATOM      3  C   UNL d   1      -0.814  -1.174  -3.793  0.00  0.00     0.112 C 
ATOM      4  N   UNL d   1      -0.269  -0.968  -4.797  0.00  0.00    -0.191 NA
ENDROOT
BRANCH   1   5
ATOM      5  S   UNL d   1      -3.166  -1.655  -2.534  0.00  0.00     0.216 S 
ATOM      6  O   UNL d   1      -3.759  -0.701  -1.601  0.00  0.00    -0.216 OA
ATOM      7  O   UNL d   1      -3.459  -3.075  -2.390  0.00  0.00    -0.216 OA
BRANCH   5   8
ATOM      8  C   UNL d   1      -3.843  -1.174  -4.120  0.00  0.00     0.065 A 
ATOM      9  C   UNL d   1      -4.567  -2.114  -4.865  0.00  0.00     0.024 A 
ATOM     10  C   UNL d   1      -5.358  -1.686  -5.932  0.00  0.00     0.002 A 
ATOM     11  C   UNL d   1      -5.414  -0.332  -6.263  0.00  0.00     0.000 A 
ATOM     12  C   UNL d   1      -4.659   0.597  -5.545  0.00  0.00     0.002 A 
ATOM     13  C   UNL d   1      -3.875   0.181  -4.466  0.00  0.00     0.024 A 
ENDBRANCH   5   8
ENDBRANCH   1   5
BRANCH   2  14
ATOM     14  C   UNL d   1      -1.226  -2.147  -0.142  0.00  0.00    -0.001 A 
ATOM     15  C   UNL d   1      -1.776  -1.340   0.874  0.00  0.00     0.079 A 
ATOM     16  C   UNL d   1      -2.221  -1.943   2.059  0.00  0.00     0.037 A 
ATOM     17  C   UNL d   1      -2.145  -3.326   2.233  0.00  0.00     0.003 A 
ATOM     18  C   UNL d   1      -1.613  -4.124   1.229  0.00  0.00     0.001 A 
ATOM     19  C   UNL d   1      -1.153  -3.538   0.050  0.00  0.00     0.014 A 
BRANCH  15  20
ATOM     20  O   UNL d   1      -1.799   0.020   0.682  0.00  0.00    -0.341 OA
BRANCH  20  21
ATOM     21  C   UNL d   1      -2.909   0.716   1.258  0.00  0.00     0.286 C 
BRANCH  21  22
ATOM     22  C   UNL d   1      -2.726   1.252   2.684  0.00  0.00     0.283 C 
ATOM     23  O   UNL d   1      -1.741   1.089   3.390  0.00  0.00    -0.263 OA
BRANCH  22  24
ATOM     24  O   UNL d   1      -3.859   1.913   3.074  0.00  0.00    -0.320 OA
BRANCH  24  25
ATOM     25  C   UNL d   1      -3.897   2.374   4.436  0.00  0.00     0.174 C 
ATOM     26  C   UNL d   1      -3.204   3.717   4.580  0.00  0.00     0.034 C 
ENDBRANCH  24  25
ENDBRANCH  22  24
ENDBRANCH  21  22
ENDBRANCH  20  21
ENDBRANCH  15  20
ENDBRANCH   2  14
TORSDOF 8
