REMARK  4 active torsions:
REMARK  status: ('A' for Active; 'I' for Inactive)
REMARK    1  A    between atoms: C_9  and  C_14 
REMARK    2  A    between atoms: O_16  and  C_9 
REMARK    3  A    between atoms: O_13  and  C_12 
REMARK    4  A    between atoms: C_14  and  O_13 
ROOT
ATOM      1  C   UNL d   1       0.396   0.800  -0.013  0.00  0.00     0.092 A 
ATOM      2  C   UNL d   1      -0.536  -1.487  -0.001  0.00  0.00    -0.043 A 
ATOM      3  O   UNL d   1      -0.910   1.331  -0.012  0.00  0.00    -0.275 OA
ATOM      4  C   UNL d   1      -2.020   0.504  -0.003  0.00  0.00     0.288 A 
ATOM      5  C   UNL d   1       0.623  -0.580   0.005  0.00  0.00     0.004 A 
ATOM      6  C   UNL d   1      -1.764  -0.943  -0.004  0.00  0.00     0.090 A 
ATOM      7  C   UNL d   1       1.434   1.740  -0.037  0.00  0.00     0.075 A 
ATOM      8  C   UNL d   1       1.956  -1.004   0.026  0.00  0.00     0.017 A 
ATOM      9  O   UNL d   1      -3.164   0.940   0.003  0.00  0.00    -0.260 OA
ATOM     10  C   UNL d   1       2.751   1.294  -0.053  0.00  0.00     0.072 A 
ATOM     11  C   UNL d   1       3.006  -0.075   0.005  0.00  0.00     0.038 A 
ATOM     12  C   UNL d   1      -0.400  -2.982  -0.015  0.00  0.00     0.049 C 
ENDROOT
BRANCH  10  13
ATOM     13  O   UNL d   1       3.861   2.090  -0.107  0.00  0.00    -0.341 OA
BRANCH  13  14
ATOM     14  C   UNL d   1       3.680   3.372  -0.720  0.00  0.00     0.285 C 
BRANCH  14  15
ATOM     15  C   UNL d   1       5.024   3.841  -1.255  0.00  0.00     0.164 C 
ATOM     16  O   UNL d   1       5.193   4.895  -1.851  0.00  0.00    -0.648 OA
BRANCH  15  17
ATOM     17  O   UNL d   1       6.034   2.967  -1.018  0.00  0.00    -0.775 OA
ATOM     18  H   UNL d   1       5.686   2.189  -0.529  0.00  0.00     0.167 HD
ENDBRANCH  15  17
ENDBRANCH  14  15
ENDBRANCH  13  14
ENDBRANCH  10  13
TORSDOF 4
