REMARK  1 active torsions:
REMARK  status: ('A' for Active; 'I' for Inactive)
REMARK    1  A    between atoms: C_12  and  C_5 
ROOT
ATOM      1  N   UNL d   1       1.408  -0.608   0.051  0.00  0.00    -0.347 N 
ATOM      2  HN  UNL d   1       2.290  -1.117   0.119  1.00  0.00     0.167 HD
ATOM      3  C   UNL d   1       0.215  -1.166   0.005  0.00  0.00     0.111 A 
ATOM      4  C   UNL d   1       0.025  -2.587   0.025  0.00  0.00     0.134 A 
ATOM      5  C   UNL d   1       1.289   0.774  -0.007  0.00  0.00     0.050 A 
ATOM      6  S   UNL d   1      -1.108  -0.076  -0.073  0.00  0.00    -0.079 SA
ATOM      7  C   UNL d   1      -0.011   1.240  -0.052  0.00  0.00     0.082 A 
ATOM      8  N   UNL d   1      -1.063  -4.569  -0.005  0.00  0.00    -0.272 N 
ATOM      9  HN  UNL d   1      -1.804  -5.268  -0.042  1.00  0.00     0.194 HD
ATOM     10  O   UNL d   1      -1.204  -3.192  -0.053  0.00  0.00    -0.236 OA
ATOM     11  C   UNL d   1       0.976  -3.584   0.118  0.00  0.00     0.061 A 
ATOM     12  C   UNL d   1       0.248  -4.784   0.098  0.00  0.00     0.117 A 
ENDROOT
BRANCH   5  13
ATOM     13  C   UNL d   1       2.466   1.638   0.001  0.00  0.00    -0.009 A 
ATOM     14  C   UNL d   1       2.454   2.901  -0.612  0.00  0.00     0.015 A 
ATOM     15  C   UNL d   1       3.595   3.711  -0.598  0.00  0.00     0.024 A 
ATOM     16  C   UNL d   1       4.756   3.261   0.026  0.00  0.00     0.034 A 
ATOM     17  C   UNL d   1       4.788   2.008   0.633  0.00  0.00     0.024 A 
ATOM     18 CL   UNL d   1       6.158   4.258   0.040  0.00  0.00    -0.084 Cl
ATOM     19  C   UNL d   1       3.647   1.198   0.616  0.00  0.00     0.015 A 
ENDBRANCH   5  13
TORSDOF 1
