REMARK  5 active torsions:
REMARK  status: ('A' for Active; 'I' for Inactive)
REMARK    1  A    between atoms: C_7  and  C_1 
REMARK    2  A    between atoms: S_8  and  C_2 
REMARK    3  A    between atoms: C_6  and  C_4 
REMARK    4  A    between atoms: O_12  and  C_6 
REMARK    5  A    between atoms: C_15  and  O_12 
ROOT
ATOM      1  C   UNL d   1       1.266   0.076  -0.126  0.00  0.00     0.040 A 
ATOM      2  C   UNL d   1       0.283  -0.908  -0.128  0.00  0.00     0.056 A 
ATOM      3  C   UNL d   1       0.687   1.413  -0.032  0.00  0.00    -0.023 A 
ATOM      4  C   UNL d   1      -0.701   1.376   0.030  0.00  0.00     0.088 A 
ATOM      5  S   UNL d   1      -1.278  -0.226  -0.016  0.00  0.00    -0.076 SA
ATOM      6  C   UNL d   1       1.483   2.687   0.007  0.00  0.00     0.051 C 
ENDROOT
BRANCH   4   7
ATOM      7  C   UNL d   1      -1.617   2.507   0.152  0.00  0.00     0.300 C 
ATOM      8  O   UNL d   1      -1.279   3.685   0.195  0.00  0.00    -0.259 OA
BRANCH   7   9
ATOM      9  O   UNL d   1      -2.910   2.086   0.285  0.00  0.00    -0.317 OA
BRANCH   9  10
ATOM     10  C   UNL d   1      -3.846   3.081   0.719  0.00  0.00     0.174 C 
ATOM     11  C   UNL d   1      -3.858   3.100   2.236  0.00  0.00     0.034 C 
ENDBRANCH   9  10
ENDBRANCH   7   9
ENDBRANCH   4   7
BRANCH   1  12
ATOM     12  C   UNL d   1       2.711  -0.175  -0.258  0.00  0.00     0.158 C 
ATOM     13  O   UNL d   1       3.388   0.487  -1.049  0.00  0.00    -0.293 OA
ATOM     14  C   UNL d   1       3.399  -1.174   0.637  0.00  0.00     0.097 C 
ENDBRANCH   1  12
BRANCH   2  15
ATOM     15  S   UNL d   1       0.544  -2.654  -0.296  0.00  0.00    -0.126 SA
ATOM     16  C   UNL d   1      -1.095  -3.383  -0.079  0.00  0.00     0.096 C 
ENDBRANCH   2  15
TORSDOF 5
