REMARK  7 active torsions:
REMARK  status: ('A' for Active; 'I' for Inactive)
REMARK    1  A    between atoms: C_3  and  N_1 
REMARK    2  A    between atoms: C_22  and  N_4 
REMARK    3  A    between atoms: O_20  and  C_6 
REMARK    4  A    between atoms: C_13  and  C_9 
REMARK    5  A    between atoms: C_16  and  C_10 
REMARK    6  A    between atoms: C_28  and  C_22 
REMARK    7  A    between atoms: C_29  and  C_28 
ROOT
ATOM      1  N   UNL d   1      -0.757  -1.036  -0.001  0.00  0.00    -0.248 N 
ATOM      2  C   UNL d   1       0.644  -1.071   0.125  0.00  0.00     0.329 C 
ATOM      3  N   UNL d   1       1.091   0.260   0.122  0.00  0.00    -0.321 N 
ATOM      4  C   UNL d   1      -1.230   0.317   0.132  0.00  0.00     0.259 C 
ATOM      5  C   UNL d   1       0.006   1.163  -0.239  0.00  0.00     0.171 C 
ATOM      6  O   UNL d   1       1.390  -2.034   0.205  0.00  0.00    -0.246 OA
ENDROOT
BRANCH   1   7
ATOM      7  C   UNL d   1      -1.527  -2.071  -0.488  0.00  0.00     0.173 A 
ATOM      8  S   UNL d   1      -0.871  -3.608  -0.822  0.00  0.00    -0.037 SA
ATOM      9  C   UNL d   1      -2.420  -4.088  -1.404  0.00  0.00     0.077 A 
ATOM     10  N   UNL d   1      -3.310  -3.115  -1.360  0.00  0.00    -0.295 N 
ATOM     11  N   UNL d   1      -2.795  -1.955  -0.819  0.00  0.00    -0.279 N 
ATOM     12  HN  UNL d   1      -4.270  -3.210  -1.689  1.00  0.00     0.187 HD
ATOM     13  HN  UNL d   1      -3.338  -1.101  -0.690  1.00  0.00     0.189 HD
BRANCH   9  14
ATOM     14  C   UNL d   1      -2.703  -5.513  -1.854  0.00  0.00    -0.001 C 
ATOM     15  C   UNL d   1      -2.474  -6.483  -0.680  0.00  0.00     0.021 C 
ATOM     16  C   UNL d   1      -4.173  -5.639  -2.304  0.00  0.00     0.021 C 
ATOM     17  C   UNL d   1      -1.807  -5.920  -3.039  0.00  0.00     0.021 C 
ENDBRANCH   9  14
ENDBRANCH   1   7
BRANCH   4  18
ATOM     18  O   UNL d   1      -1.575   0.528   1.501  0.00  0.00    -0.374 OA
ATOM     19  H   UNL d   1      -0.893   0.069   2.023  0.00  0.00     0.212 HD
ENDBRANCH   4  18
BRANCH   3  20
ATOM     20  C   UNL d   1       2.487   0.656   0.201  0.00  0.00     0.128 C 
BRANCH  20  21
ATOM     21  C   UNL d   1       2.780   1.560   1.399  0.00  0.00     0.020 C 
BRANCH  21  22
ATOM     22  C   UNL d   1       2.503   0.879   2.742  0.00  0.00    -0.003 C 
ATOM     23  C   UNL d   1       2.828   1.804   3.905  0.00  0.00     0.005 C 
ENDBRANCH  21  22
ENDBRANCH  20  21
ENDBRANCH   3  20
BRANCH   5  24
ATOM     24  C   UNL d   1       0.021   1.545  -1.716  0.00  0.00    -0.029 A 
ATOM     25  C   UNL d   1      -0.009   0.583  -2.745  0.00  0.00     0.035 A 
ATOM     26  C   UNL d   1      -0.063   0.960  -4.093  0.00  0.00     0.056 A 
ATOM     27 CL   UNL d   1      -0.132  -0.300  -5.274  0.00  0.00    -0.083 Cl
ATOM     28  C   UNL d   1      -0.068   2.312  -4.434  0.00  0.00     0.055 A 
ATOM     29  C   UNL d   1      -0.020   3.277  -3.424  0.00  0.00     0.026 A 
ATOM     30 CL   UNL d   1      -0.135   2.856  -6.071  0.00  0.00    -0.083 Cl
ATOM     31  C   UNL d   1       0.022   2.898  -2.079  0.00  0.00     0.011 A 
ENDBRANCH   5  24
TORSDOF 7
