REMARK  3 active torsions:
REMARK  status: ('A' for Active; 'I' for Inactive)
REMARK    1  A    between atoms: S_5  and  C_1 
REMARK    2  A    between atoms: C_7  and  C_2 
REMARK       I    between atoms: N_8  and  C_7 
REMARK       I    between atoms: C_9  and  N_8 
REMARK       I    between atoms: N_10  and  C_9 
REMARK    3  A    between atoms: C_11  and  N_10 
ROOT
ATOM      1  C   UNL d   1      -2.433  -2.393  -0.347  0.00  0.00     0.267 C 
ATOM      2  N   UNL d   1      -3.811  -2.387  -0.550  0.00  0.00    -0.274 N 
ATOM      3  C   UNL d   1      -4.745  -3.393  -0.738  0.00  0.00     0.327 C 
ATOM      4  N   UNL d   1      -4.305  -4.694  -0.659  0.00  0.00    -0.307 N 
ATOM      5  O   UNL d   1      -1.810  -3.461  -0.335  0.00  0.00    -0.267 OA
ATOM      6  O   UNL d   1      -5.896  -3.049  -1.003  0.00  0.00    -0.247 OA
ATOM      7  H   UNL d   1      -4.244  -1.479  -0.624  0.00  0.00     0.173 HD
ATOM      8  H   UNL d   1      -3.332  -4.818  -0.925  0.00  0.00     0.170 HD
ENDROOT
BRANCH   1   9
ATOM      9  C   UNL d   1      -1.775  -1.071  -0.189  0.00  0.00     0.081 A 
ATOM     10  S   UNL d   1      -2.671   0.410  -0.246  0.00  0.00    -0.071 SA
ATOM     11  C   UNL d   1      -1.279   1.401  -0.057  0.00  0.00     0.111 A 
ATOM     12  C   UNL d   1      -0.149   0.616   0.043  0.00  0.00    -0.000 A 
ATOM     13  C   UNL d   1      -0.420  -0.797   0.010  0.00  0.00    -0.023 A 
ATOM     14  C   UNL d   1       1.190   1.109   0.141  0.00  0.00     0.010 C 
ATOM     15  C   UNL d   1       0.695  -1.802   0.179  0.00  0.00     0.045 C 
ATOM     16  C   UNL d   1       2.123  -1.211   0.121  0.00  0.00     0.032 C 
ATOM     17  C   UNL d   1       2.245   0.284   0.177  0.00  0.00    -0.025 C 
BRANCH  11  18
ATOM     18  S   UNL d   1      -1.507   3.179  -0.122  0.00  0.00     0.179 S 
ATOM     19  O   UNL d   1      -0.315   3.756   0.466  0.00  0.00    -0.222 OA
ATOM     20  O   UNL d   1      -1.886   3.459  -1.493  0.00  0.00    -0.222 OA
ATOM     21  C   UNL d   1      -2.855   3.591   0.943  0.00  0.00     0.167 C 
ENDBRANCH  11  18
ENDBRANCH   1   9
BRANCH   4  22
ATOM     22  C   UNL d   1      -5.147  -5.850  -0.717  0.00  0.00     0.058 A 
ATOM     23  C   UNL d   1      -6.381  -6.003  -0.049  0.00  0.00     0.060 A 
ATOM     24 CL   UNL d   1      -6.995  -4.854   1.094  0.00  0.00    -0.082 Cl
ATOM     25  C   UNL d   1      -7.117  -7.197  -0.162  0.00  0.00     0.026 A 
ATOM     26  C   UNL d   1      -6.639  -8.261  -0.925  0.00  0.00     0.002 A 
ATOM     27  C   UNL d   1      -5.413  -8.137  -1.567  0.00  0.00     0.002 A 
ATOM     28  C   UNL d   1      -4.669  -6.950  -1.454  0.00  0.00     0.031 A 
ENDBRANCH   4  22
TORSDOF 3
