REMARK  5 active torsions:
REMARK  status: ('A' for Active; 'I' for Inactive)
REMARK    1  A    between atoms: C_4  and  C_1 
REMARK    2  A    between atoms: O_9  and  C_2 
REMARK    3  A    between atoms: O_8  and  C_4 
REMARK    4  A    between atoms: C_7  and  O_9 
REMARK    5  A    between atoms: C_16  and  O_8 
ROOT
ATOM      1  C   UNL d   1      -0.023   1.178  -0.196  0.00  0.00     0.153 A 
ATOM      2  C   UNL d   1      -0.070  -1.022  -0.119  0.00  0.00     0.191 A 
ATOM      3  O   UNL d   1      -0.862   0.091  -0.182  0.00  0.00    -0.281 OA
ATOM      4  C   UNL d   1       1.291   0.747  -0.167  0.00  0.00     0.048 A 
ATOM      5  C   UNL d   1       1.261  -0.662  -0.167  0.00  0.00     0.067 A 
ENDROOT
BRANCH   1   6
ATOM      6  C   UNL d   1      -0.526   2.533  -0.228  0.00  0.00     0.322 C 
ATOM      7  O   UNL d   1       0.190   3.519  -0.109  0.00  0.00    -0.257 OA
BRANCH   6   8
ATOM      8  O   UNL d   1      -1.903   2.546  -0.458  0.00  0.00    -0.273 OA
BRANCH   8   9
ATOM      9  C   UNL d   1      -2.667   3.711  -0.726  0.00  0.00     0.079 A 
ATOM     10  C   UNL d   1      -3.972   3.467  -1.165  0.00  0.00     0.039 A 
ATOM     11  C   UNL d   1      -4.806   4.537  -1.504  0.00  0.00     0.026 A 
ATOM     12  C   UNL d   1      -4.333   5.844  -1.401  0.00  0.00     0.034 A 
ATOM     13  C   UNL d   1      -3.038   6.089  -0.949  0.00  0.00     0.026 A 
ATOM     14 CL   UNL d   1      -5.349   7.161  -1.839  0.00  0.00    -0.084 Cl
ATOM     15  C   UNL d   1      -2.204   5.020  -0.604  0.00  0.00     0.039 A 
ENDBRANCH   8   9
ENDBRANCH   6   8
ENDBRANCH   1   6
BRANCH   2  16
ATOM     16  O   UNL d   1      -0.735  -2.173  -0.008  0.00  0.00    -0.288 OA
BRANCH  16  17
ATOM     17  C   UNL d   1      -0.117  -3.263   0.568  0.00  0.00     0.081 A 
ATOM     18  C   UNL d   1       0.685  -3.148   1.708  0.00  0.00     0.061 A 
ATOM     19  C   UNL d   1       1.315  -4.274   2.231  0.00  0.00     0.038 A 
ATOM     20 CL   UNL d   1       2.358  -4.106   3.588  0.00  0.00    -0.084 Cl
ATOM     21  C   UNL d   1       1.116  -5.526   1.658  0.00  0.00     0.048 A 
ATOM     22  C   UNL d   1       0.272  -5.642   0.554  0.00  0.00     0.038 A 
ATOM     23  C   UNL d   1      -0.348  -4.519   0.004  0.00  0.00     0.061 A 
ATOM     24 CL   UNL d   1      -0.003  -7.196  -0.136  0.00  0.00    -0.084 Cl
ENDBRANCH  16  17
ENDBRANCH   2  16
TORSDOF 5
