REMARK  9 active torsions:
REMARK  status: ('A' for Active; 'I' for Inactive)
REMARK    1  A    between atoms: N_6  and  S_1 
REMARK    2  A    between atoms: C_9  and  S_1 
REMARK    3  A    between atoms: C_2  and  C_5 
REMARK       I    between atoms: C_5  and  N_10 
REMARK    4  A    between atoms: N_10  and  N_6 
REMARK    5  A    between atoms: C_7  and  C_11 
REMARK    6  A    between atoms: C_8  and  C_12 
REMARK    7  A    between atoms: C_35  and  C_14 
REMARK    8  A    between atoms: C_21  and  O_34 
REMARK    9  A    between atoms: O_34  and  C_35 
ROOT
ATOM      1  C   UNL d   1       0.489   2.404  -3.000  0.00  0.00     0.287 C 
ATOM      2  N   UNL d   1       0.880   1.875  -1.780  0.00  0.00    -0.255 N 
ATOM      3  O   UNL d   1      -0.299   1.822  -3.742  0.00  0.00    -0.264 OA
ATOM      4  H   UNL d   1       1.462   2.395  -1.132  0.00  0.00     0.191 HD
ENDROOT
BRANCH   2   5
ATOM      5  N   UNL d   1       0.348   0.609  -1.289  0.00  0.00    -0.220 N 
ATOM      6  H   UNL d   1      -0.342   0.093  -1.841  0.00  0.00     0.200 HD
BRANCH   5   7
ATOM      7  S   UNL d   1       0.789   0.183   0.280  0.00  0.00     0.276 S 
ATOM      8  O   UNL d   1       0.196   1.165   1.164  0.00  0.00    -0.199 OA
ATOM      9  O   UNL d   1       2.223  -0.019   0.278  0.00  0.00    -0.199 OA
BRANCH   7  10
ATOM     10  C   UNL d   1       0.018  -1.385   0.599  0.00  0.00     0.082 A 
ATOM     11  C   UNL d   1       0.699  -2.562   0.263  0.00  0.00     0.041 A 
ATOM     12  C   UNL d   1       0.235  -3.804   0.726  0.00  0.00     0.050 A 
ATOM     13  C   UNL d   1      -0.921  -3.842   1.529  0.00  0.00     0.032 A 
ATOM     14  C   UNL d   1      -1.603  -2.663   1.884  0.00  0.00     0.050 A 
ATOM     15  C   UNL d   1      -1.130  -1.433   1.401  0.00  0.00     0.041 A 
BRANCH  12  16
ATOM     16  C   UNL d   1       0.990  -5.083   0.439  0.00  0.00     0.417 C 
ATOM     17  F   UNL d   1       2.119  -4.894  -0.296  0.00  0.00    -0.166 F 
ATOM     18  F   UNL d   1       1.385  -5.715   1.579  0.00  0.00    -0.166 F 
ATOM     19  F   UNL d   1       0.238  -5.984  -0.249  0.00  0.00    -0.166 F 
ENDBRANCH  12  16
BRANCH  14  20
ATOM     20  C   UNL d   1      -2.778  -2.732   2.836  0.00  0.00     0.417 C 
ATOM     21  F   UNL d   1      -3.298  -1.513   3.145  0.00  0.00    -0.166 F 
ATOM     22  F   UNL d   1      -3.807  -3.468   2.339  0.00  0.00    -0.166 F 
ATOM     23  F   UNL d   1      -2.442  -3.308   4.024  0.00  0.00    -0.166 F 
ENDBRANCH  14  20
ENDBRANCH   7  10
ENDBRANCH   5   7
ENDBRANCH   2   5
BRANCH   1  24
ATOM     24  C   UNL d   1       1.075   3.728  -3.293  0.00  0.00     0.109 A 
ATOM     25  N   UNL d   1       0.443   4.633  -4.153  0.00  0.00    -0.347 N 
ATOM     26  C   UNL d   1       1.099   5.777  -4.198  0.00  0.00     0.075 A 
ATOM     27  HN  UNL d   1      -0.410   4.434  -4.676  1.00  0.00     0.166 HD
ATOM     28  S   UNL d   1       2.551   5.820  -3.280  0.00  0.00    -0.084 SA
ATOM     29  C   UNL d   1       2.263   4.213  -2.766  0.00  0.00     0.086 A 
BRANCH  26  30
ATOM     30  C   UNL d   1       0.676   6.989  -4.979  0.00  0.00     0.240 C 
BRANCH  30  31
ATOM     31  O   UNL d   1      -0.149   7.775  -4.115  0.00  0.00    -0.345 OA
BRANCH  31  32
ATOM     32  C   UNL d   1      -0.696   8.917  -4.637  0.00  0.00     0.072 A 
ATOM     33  C   UNL d   1      -0.430   9.452  -5.897  0.00  0.00     0.060 A 
ATOM     34  C   UNL d   1      -1.060  10.635  -6.296  0.00  0.00     0.038 A 
ATOM     35 CL   UNL d   1      -0.724  11.290  -7.853  0.00  0.00    -0.084 Cl
ATOM     36  C   UNL d   1      -1.952  11.292  -5.455  0.00  0.00     0.048 A 
ATOM     37  C   UNL d   1      -2.212  10.756  -4.198  0.00  0.00     0.038 A 
ATOM     38  C   UNL d   1      -1.587   9.577  -3.786  0.00  0.00     0.060 A 
ATOM     39 CL   UNL d   1      -3.312  11.553  -3.143  0.00  0.00    -0.084 Cl
ENDBRANCH  31  32
ENDBRANCH  30  31
ENDBRANCH  26  30
ENDBRANCH   1  24
TORSDOF 9
