REMARK  2 active torsions:
REMARK  status: ('A' for Active; 'I' for Inactive)
REMARK    1  A    between atoms: C_8  and  C_1 
REMARK    2  A    between atoms: C_7  and  C_2 
ROOT
ATOM      1  C   UNL d   1      -0.620   1.336   0.008  0.00  0.00     0.004 A 
ATOM      2  C   UNL d   1      -0.652  -1.276  -0.004  0.00  0.00     0.004 A 
ATOM      3  C   UNL d   1      -1.397   0.041   0.015  0.00  0.00     0.186 A 
ATOM      4  C   UNL d   1       0.720   1.264   0.003  0.00  0.00     0.066 A 
ATOM      5  C   UNL d   1       0.690  -1.238   0.004  0.00  0.00     0.066 A 
ATOM      6  C   UNL d   1       1.465   0.005   0.013  0.00  0.00     0.173 A 
ATOM      7  O   UNL d   1      -2.622   0.054   0.036  0.00  0.00    -0.287 OA
ATOM      8  O   UNL d   1       2.687  -0.012   0.024  0.00  0.00    -0.288 OA
ENDROOT
BRANCH   1   9
ATOM      9  C   UNL d   1      -1.390   2.679   0.023  0.00  0.00    -0.020 C 
ATOM     10  C   UNL d   1      -2.238   2.807   1.306  0.00  0.00     0.019 C 
ATOM     11  C   UNL d   1      -0.445   3.913   0.005  0.00  0.00     0.019 C 
ATOM     12  C   UNL d   1      -2.299   2.824  -1.217  0.00  0.00     0.019 C 
ENDBRANCH   1   9
BRANCH   2  13
ATOM     13  C   UNL d   1      -1.453  -2.600  -0.045  0.00  0.00    -0.020 C 
ATOM     14  C   UNL d   1      -2.327  -2.668  -1.315  0.00  0.00     0.019 C 
ATOM     15  C   UNL d   1      -0.537  -3.855  -0.085  0.00  0.00     0.019 C 
ATOM     16  C   UNL d   1      -2.341  -2.761   1.207  0.00  0.00     0.019 C 
ENDBRANCH   2  13
TORSDOF 2
