REMARK  4 active torsions:
REMARK  status: ('A' for Active; 'I' for Inactive)
REMARK    1  A    between atoms: C_2  and  S_1 
REMARK    2  A    between atoms: C_6  and  S_1 
REMARK    3  A    between atoms: N_3  and  C_4 
REMARK    4  A    between atoms: C_5  and  C_7 
ROOT
ATOM      1  C   UNL d   1       0.642   1.219   1.036  0.00  0.00     0.161 C 
ATOM      2  C   UNL d   1      -0.160   2.111   0.415  0.00  0.00     0.126 C 
ATOM      3  C   UNL d   1       1.203   0.081   0.421  0.00  0.00     0.113 C 
ATOM      4  N   UNL d   1       1.654  -0.870  -0.066  0.00  0.00    -0.191 NA
ENDROOT
BRANCH   1   5
ATOM      5  S   UNL d   1       0.872   1.362   2.748  0.00  0.00     0.233 S 
ATOM      6  O   UNL d   1      -0.111   0.505   3.399  0.00  0.00    -0.215 OA
ATOM      7  O   UNL d   1       0.958   2.759   3.145  0.00  0.00    -0.215 OA
BRANCH   5   8
ATOM      8  C   UNL d   1       2.479   0.629   3.083  0.00  0.00     0.134 A 
ATOM      9  N   UNL d   1       3.517   1.250   2.465  0.00  0.00    -0.356 N 
ATOM     10  C   UNL d   1       4.753   0.775   2.754  0.00  0.00     0.105 A 
ATOM     11  HN  UNL d   1       3.375   2.029   1.821  1.00  0.00     0.166 HD
ATOM     12  C   UNL d   1       4.999  -0.293   3.611  0.00  0.00     0.063 A 
ATOM     13  C   UNL d   1       3.893  -0.923   4.200  0.00  0.00     0.020 A 
ATOM     14  C   UNL d   1       2.606  -0.456   3.938  0.00  0.00     0.043 A 
BRANCH  12  15
ATOM     15  C   UNL d   1       6.402  -0.740   3.905  0.00  0.00     0.418 C 
ATOM     16  F   UNL d   1       7.352  -0.020   3.249  0.00  0.00    -0.166 F 
ATOM     17  F   UNL d   1       6.709  -0.643   5.228  0.00  0.00    -0.166 F 
ATOM     18  F   UNL d   1       6.617  -2.041   3.567  0.00  0.00    -0.166 F 
ENDBRANCH  12  15
ENDBRANCH   5   8
ENDBRANCH   1   5
BRANCH   2  19
ATOM     19  N   UNL d   1      -0.650   2.149  -0.887  0.00  0.00    -0.354 N 
ATOM     20  C   UNL d   1      -1.521   3.138  -1.427  0.00  0.00     0.040 A 
ATOM     21  C   UNL d   1      -2.115   2.732  -2.628  0.00  0.00    -0.030 A 
ATOM     22  C   UNL d   1      -1.808   4.402  -0.930  0.00  0.00     0.030 A 
ATOM     23  C   UNL d   1      -3.005   3.531  -3.332  0.00  0.00     0.009 A 
ATOM     24  C   UNL d   1      -1.602   1.395  -3.025  0.00  0.00     0.061 C 
ATOM     25  C   UNL d   1      -3.309   4.787  -2.815  0.00  0.00     0.001 A 
ATOM     26  C   UNL d   1      -2.708   5.223  -1.626  0.00  0.00     0.002 A 
ATOM     27  C   UNL d   1      -0.863   0.963  -1.753  0.00  0.00     0.133 C 
ENDBRANCH   2  19
TORSDOF 4
