REMARK  3 active torsions:
REMARK  status: ('A' for Active; 'I' for Inactive)
REMARK    1  A    between atoms: N_2  and  C_1 
REMARK    2  A    between atoms: N_3  and  C_6 
REMARK    3  A    between atoms: N_8  and  C_4 
ROOT
ATOM      1  C   UNL d   1      -1.840  -0.006  -0.002  0.00  0.00     0.131 A 
ATOM      2  C   UNL d   1      -1.197  -1.258  -0.058  0.00  0.00     0.064 A 
ATOM      3  C   UNL d   1      -1.141   1.212   0.041  0.00  0.00     0.075 A 
ATOM      4  C   UNL d   1       0.254   1.189   0.034  0.00  0.00     0.111 A 
ATOM      5  C   UNL d   1       0.214  -1.214  -0.018  0.00  0.00     0.041 A 
ATOM      6  C   UNL d   1       0.962  -0.018   0.018  0.00  0.00    -0.027 A 
ATOM      7  C   UNL d   1       2.461  -0.137   0.025  0.00  0.00     0.050 C 
ENDROOT
BRANCH   2   8
ATOM      8  N   UNL d   1      -1.791  -2.496  -0.173  0.00  0.00    -0.379 N 
ATOM      9  C   UNL d   1      -2.999  -2.818  -0.929  0.00  0.00     0.123 C 
ATOM     10  C   UNL d   1      -3.748  -3.779  -0.016  0.00  0.00     0.021 C 
ATOM     11  C   UNL d   1      -2.627  -4.563   0.647  0.00  0.00     0.021 C 
ATOM     12  C   UNL d   1      -1.507  -3.537   0.825  0.00  0.00     0.123 C 
ENDBRANCH   2   8
BRANCH   1  13
ATOM     13  N   UNL d   1      -3.281   0.105   0.118  0.00  0.00    -0.113 N 
ATOM     14  O   UNL d   1      -3.814  -0.387   1.121  0.00  0.00    -0.532 OA
ATOM     15  O   UNL d   1      -3.867   0.735  -0.775  0.00  0.00    -0.532 OA
ENDBRANCH   1  13
BRANCH   4  16
ATOM     16  N   UNL d   1       0.936   2.471   0.050  0.00  0.00    -0.115 N 
ATOM     17  O   UNL d   1       0.684   3.225   1.000  0.00  0.00    -0.532 OA
ATOM     18  O   UNL d   1       1.684   2.730  -0.898  0.00  0.00    -0.532 OA
ENDBRANCH   4  16
TORSDOF 3
