REMARK  8 active torsions:
REMARK  status: ('A' for Active; 'I' for Inactive)
REMARK    1  A    between atoms: N_2  and  S_1 
REMARK    2  A    between atoms: C_3  and  S_1 
REMARK    3  A    between atoms: C_16  and  N_4 
REMARK    4  A    between atoms: C_15  and  C_16 
REMARK    5  A    between atoms: C_26  and  C_25 
REMARK    6  A    between atoms: C_27  and  C_26 
REMARK    7  A    between atoms: C_29  and  C_27 
REMARK    8  A    between atoms: C_28  and  C_29 
ROOT
ATOM      1  N   UNL d   1       0.416  -0.694  -0.952  0.00  0.00    -0.303 N 
ATOM      2  N   UNL d   1      -0.940  -3.253  -0.396  0.00  0.00     0.095 N 
ATOM      3  C   UNL d   1      -1.058  -0.773  -0.914  0.00  0.00     0.165 C 
ATOM      4  C   UNL d   1       1.018  -1.949  -1.458  0.00  0.00     0.165 C 
ATOM      5  C   UNL d   1       0.511  -3.181  -0.672  0.00  0.00     0.293 C 
ATOM      6  C   UNL d   1      -1.517  -1.940  -0.037  0.00  0.00     0.293 C 
ENDROOT
BRANCH   1   7
ATOM      7  S   UNL d   1       1.233   0.219   0.213  0.00  0.00     0.260 S 
ATOM      8  O   UNL d   1       0.369   1.293   0.639  0.00  0.00    -0.200 OA
ATOM      9  O   UNL d   1       2.552   0.506  -0.321  0.00  0.00    -0.200 OA
BRANCH   7  10
ATOM     10  C   UNL d   1       1.478  -0.859   1.618  0.00  0.00     0.079 A 
ATOM     11  C   UNL d   1       2.648  -1.617   1.700  0.00  0.00     0.026 A 
ATOM     12  C   UNL d   1       2.867  -2.451   2.797  0.00  0.00     0.009 A 
ATOM     13  C   UNL d   1       1.929  -2.521   3.837  0.00  0.00    -0.058 A 
ATOM     14  C   UNL d   1       0.784  -1.712   3.773  0.00  0.00     0.009 A 
ATOM     15  C   UNL d   1       0.565  -0.871   2.673  0.00  0.00     0.026 A 
BRANCH  13  16
ATOM     16  C   UNL d   1       2.189  -3.423   5.022  0.00  0.00     0.038 C 
BRANCH  16  17
ATOM     17  C   UNL d   1       1.097  -4.463   5.303  0.00  0.00     0.005 C 
BRANCH  17  18
ATOM     18  C   UNL d   1       0.893  -5.456   4.156  0.00  0.00    -0.000 C 
BRANCH  18  19
ATOM     19  C   UNL d   1      -0.170  -6.496   4.517  0.00  0.00    -0.005 C 
ATOM     20  C   UNL d   1      -0.426  -7.454   3.368  0.00  0.00     0.005 C 
ENDBRANCH  18  19
ENDBRANCH  17  18
ENDBRANCH  16  17
ENDBRANCH  13  16
ENDBRANCH   7  10
ENDBRANCH   1   7
BRANCH   2  21
ATOM     21  C   UNL d   1      -1.678  -3.865  -1.498  0.00  0.00     0.311 C 
BRANCH  21  22
ATOM     22  C   UNL d   1      -1.558  -5.375  -1.578  0.00  0.00    -0.027 A 
ATOM     23  C   UNL d   1      -1.983  -5.982  -2.768  0.00  0.00     0.048 A 
ATOM     24  C   UNL d   1      -2.300  -7.316  -2.713  0.00  0.00     0.105 A 
ATOM     25  O   UNL d   1      -2.989  -7.997  -3.672  0.00  0.00    -0.323 OA
ATOM     26  C   UNL d   1      -2.115  -8.072  -1.578  0.00  0.00     0.105 A 
ATOM     27  C   UNL d   1      -3.504  -9.065  -2.853  0.00  0.00     0.352 C 
ATOM     28  O   UNL d   1      -2.679  -9.306  -1.693  0.00  0.00    -0.323 OA
ATOM     29  C   UNL d   1      -1.545  -7.548  -0.438  0.00  0.00     0.040 A 
ATOM     30  C   UNL d   1      -1.298  -6.170  -0.437  0.00  0.00     0.012 A 
ENDBRANCH  21  22
ENDBRANCH   2  21
TORSDOF 8
