REMARK  4 active torsions:
REMARK  status: ('A' for Active; 'I' for Inactive)
REMARK       I    between atoms: N_2  and  C_1 
REMARK    1  A    between atoms: C_3  and  C_1 
REMARK    2  A    between atoms: C_6  and  N_2 
REMARK    3  A    between atoms: O_13  and  C_5 
REMARK    4  A    between atoms: O_15  and  C_7 
ROOT
ATOM      1  C   UNL d   1       1.135  -0.101  -0.166  0.00  0.00     0.256 C 
ATOM      2  N   UNL d   1       0.474   0.811  -0.972  0.00  0.00    -0.323 N 
ATOM      3  O   UNL d   1       2.350  -0.198  -0.023  0.00  0.00    -0.267 OA
ATOM      4  H   UNL d   1      -0.528   0.894  -0.858  0.00  0.00     0.169 HD
ENDROOT
BRANCH   1   5
ATOM      5  C   UNL d   1       0.283  -0.989   0.664  0.00  0.00     0.035 A 
ATOM      6  C   UNL d   1       0.762  -1.331   1.937  0.00  0.00     0.056 A 
ATOM      7  C   UNL d   1       0.054  -2.196   2.779  0.00  0.00     0.102 A 
ATOM      8  C   UNL d   1      -1.157  -2.741   2.317  0.00  0.00     0.101 A 
ATOM      9  C   UNL d   1      -1.631  -2.392   1.038  0.00  0.00     0.040 A 
ATOM     10  C   UNL d   1      -0.922  -1.521   0.209  0.00  0.00     0.020 A 
BRANCH   7  11
ATOM     11  O   UNL d   1       0.494  -2.529   4.033  0.00  0.00    -0.353 OA
ATOM     12  C   UNL d   1       1.733  -1.988   4.479  0.00  0.00     0.210 C 
ENDBRANCH   7  11
BRANCH   8  13
ATOM     13  O   UNL d   1      -1.998  -3.619   2.952  0.00  0.00    -0.353 OA
ATOM     14  C   UNL d   1      -1.636  -4.110   4.235  0.00  0.00     0.210 C 
ENDBRANCH   8  13
ENDBRANCH   1   5
BRANCH   2  15
ATOM     15  C   UNL d   1       1.100   1.791  -1.778  0.00  0.00     0.036 A 
ATOM     16  C   UNL d   1       2.465   1.774  -2.088  0.00  0.00     0.053 A 
ATOM     17  C   UNL d   1       3.031   2.807  -2.833  0.00  0.00     0.036 A 
ATOM     18 CL   UNL d   1       4.717   2.781  -3.184  0.00  0.00    -0.084 Cl
ATOM     19  C   UNL d   1       2.249   3.862  -3.292  0.00  0.00     0.024 A 
ATOM     20  C   UNL d   1       0.882   3.871  -3.018  0.00  0.00     0.004 A 
ATOM     21  C   UNL d   1       0.308   2.835  -2.272  0.00  0.00     0.029 A 
ENDBRANCH   2  15
TORSDOF 4
