REMARK  3 active torsions:
REMARK  status: ('A' for Active; 'I' for Inactive)
REMARK    1  A    between atoms: C_2  and  S_1 
REMARK    2  A    between atoms: N_9  and  S_1 
REMARK    3  A    between atoms: C_13  and  N_9 
ROOT
ATOM      1  S   UNL d   1       0.739   0.058   0.039  0.00  0.00     0.261 S 
ATOM      2  O   UNL d   1       0.424  -0.600   1.282  0.00  0.00    -0.200 OA
ATOM      3  O   UNL d   1       2.097   0.416  -0.314  0.00  0.00    -0.200 OA
ENDROOT
BRANCH   1   4
ATOM      4  C   UNL d   1      -0.240   1.501  -0.047  0.00  0.00     0.110 A 
ATOM      5  C   UNL d   1      -1.644   1.470  -0.054  0.00  0.00     0.108 A 
ATOM      6  C   UNL d   1      -2.429   2.700  -0.016  0.00  0.00     0.086 A 
ATOM      7  N   UNL d   1      -2.501   0.440  -0.089  0.00  0.00    -0.238 N 
ATOM      8  N   UNL d   1      -3.726   2.374  -0.023  0.00  0.00    -0.239 N 
ATOM      9  C   UNL d   1      -1.837   3.977   0.026  0.00  0.00     0.034 A 
ATOM     10  O   UNL d   1      -3.769   0.993  -0.069  0.00  0.00    -0.156 OA
ATOM     11  HN  UNL d   1      -4.520   3.013   0.001  1.00  0.00     0.197 HD
ATOM     12  C   UNL d   1      -0.429   3.978   0.003  0.00  0.00     0.004 A 
ATOM     13  C   UNL d   1       0.343   2.788  -0.035  0.00  0.00     0.028 A 
ATOM     14  HN  UNL d   1      -2.266  -0.552  -0.125  1.00  0.00     0.197 HD
ENDBRANCH   1   4
BRANCH   1  15
ATOM     15  N   UNL d   1       0.142  -0.925  -1.190  0.00  0.00    -0.310 N 
ATOM     16  H   UNL d   1      -0.253  -1.778  -0.783  0.00  0.00     0.172 HD
BRANCH  15  17
ATOM     17  C   UNL d   1       0.891  -1.062  -2.452  0.00  0.00     0.108 C 
ATOM     18  C   UNL d   1       0.841   0.206  -3.288  0.00  0.00     0.166 C 
ATOM     19  S   UNL d   1       1.210  -0.340  -4.940  0.00  0.00     0.146 S 
ATOM     20  O   UNL d   1       2.642  -0.260  -5.141  0.00  0.00    -0.228 OA
ATOM     21  O   UNL d   1       0.266   0.270  -5.852  0.00  0.00    -0.228 OA
ATOM     22  C   UNL d   1       0.774  -2.053  -4.709  0.00  0.00     0.142 C 
ATOM     23  C   UNL d   1       0.220  -2.156  -3.295  0.00  0.00     0.041 C 
ENDBRANCH  15  17
ENDBRANCH   1  15
TORSDOF 3
