REMARK  3 active torsions:
REMARK  status: ('A' for Active; 'I' for Inactive)
REMARK    1  A    between atoms: N_2  and  S_1 
REMARK    2  A    between atoms: C_7  and  S_1 
REMARK    3  A    between atoms: C_10  and  C_3 
ROOT
ATOM      1  S   UNL d   1       0.913   0.031  -0.093  0.00  0.00     0.268 S 
ATOM      2  O   UNL d   1       0.029  -1.108  -0.233  0.00  0.00    -0.200 OA
ATOM      3  O   UNL d   1       0.960   0.839   1.111  0.00  0.00    -0.200 OA
ENDROOT
BRANCH   1   4
ATOM      4  N   UNL d   1       0.474   1.099  -1.347  0.00  0.00    -0.257 N 
ATOM      5  C   UNL d   1       0.660   2.459  -1.315  0.00  0.00     0.123 A 
ATOM      6  C   UNL d   1       0.224   2.980  -2.524  0.00  0.00     0.027 A 
ATOM      7  C   UNL d   1      -0.217   1.859  -3.301  0.00  0.00     0.035 A 
ATOM      8  C   UNL d   1      -0.016   0.710  -2.564  0.00  0.00     0.110 A 
BRANCH   6   9
ATOM      9  C   UNL d   1       0.200   4.384  -2.948  0.00  0.00     0.157 C 
ATOM     10  O   UNL d   1      -0.252   4.694  -4.050  0.00  0.00    -0.293 OA
ATOM     11  C   UNL d   1       0.757   5.460  -2.046  0.00  0.00     0.097 C 
ENDBRANCH   6   9
ENDBRANCH   1   4
BRANCH   1  12
ATOM     12  C   UNL d   1       2.571  -0.476  -0.468  0.00  0.00     0.080 A 
ATOM     13  C   UNL d   1       3.589   0.479  -0.562  0.00  0.00     0.027 A 
ATOM     14  C   UNL d   1       4.898   0.067  -0.824  0.00  0.00     0.025 A 
ATOM     15  C   UNL d   1       5.184  -1.290  -0.979  0.00  0.00     0.034 A 
ATOM     16  C   UNL d   1       4.174  -2.244  -0.861  0.00  0.00     0.025 A 
ATOM     17 CL   UNL d   1       6.797  -1.790  -1.309  0.00  0.00    -0.084 Cl
ATOM     18  C   UNL d   1       2.862  -1.840  -0.599  0.00  0.00     0.027 A 
ENDBRANCH   1  12
TORSDOF 3
