REMARK  3 active torsions:
REMARK  status: ('A' for Active; 'I' for Inactive)
REMARK       I    between atoms: N_3  and  C_1 
REMARK       I    between atoms: N_5  and  C_1 
REMARK    1  A    between atoms: C_2  and  C_10 
REMARK    2  A    between atoms: C_11  and  N_3 
REMARK    3  A    between atoms: C_10  and  N_5 
ROOT
ATOM      1  C   UNL d   1       0.954   0.027  -0.014  0.00  0.00     0.316 C 
ATOM      2  N   UNL d   1       0.266   0.422  -1.134  0.00  0.00    -0.339 N 
ATOM      3  N   UNL d   1       0.102  -0.373   0.980  0.00  0.00    -0.337 N 
ATOM      4  O   UNL d   1       2.175   0.014   0.085  0.00  0.00    -0.247 OA
ATOM      5  H   UNL d   1      -0.692   0.704  -0.974  0.00  0.00     0.164 HD
ATOM      6  H   UNL d   1      -0.807  -0.698   0.684  0.00  0.00     0.164 HD
ENDROOT
BRANCH   2   7
ATOM      7  C   UNL d   1       0.938   0.954  -2.316  0.00  0.00     0.086 C 
ATOM      8  C   UNL d   1       1.144   2.473  -2.214  0.00  0.00     0.025 C 
ATOM      9  C   UNL d   1      -0.159   3.258  -2.366  0.00  0.00     0.002 C 
ATOM     10  C   UNL d   1      -0.901   2.885  -3.647  0.00  0.00     0.000 C 
ATOM     11  C   UNL d   1      -1.137   1.382  -3.746  0.00  0.00     0.002 C 
ATOM     12  C   UNL d   1       0.165   0.595  -3.595  0.00  0.00     0.025 C 
ENDBRANCH   2   7
BRANCH   3  13
ATOM     13  C   UNL d   1       0.626  -0.994   2.179  0.00  0.00     0.189 C 
BRANCH  13  14
ATOM     14  C   UNL d   1      -0.517  -1.443   3.015  0.00  0.00     0.070 A 
ATOM     15  O   UNL d   1      -1.333  -2.397   2.473  0.00  0.00    -0.325 OA
ATOM     16  C   UNL d   1      -2.310  -2.650   3.383  0.00  0.00     0.142 A 
ATOM     17  C   UNL d   1      -2.139  -1.871   4.502  0.00  0.00     0.027 A 
ATOM     18  C   UNL d   1      -0.978  -1.092   4.269  0.00  0.00     0.036 A 
ENDBRANCH  13  14
ENDBRANCH   3  13
TORSDOF 3
