REMARK  4 active torsions:
REMARK  status: ('A' for Active; 'I' for Inactive)
REMARK    1  A    between atoms: N_5  and  C_1 
REMARK       I    between atoms: C_8  and  N_5 
REMARK    2  A    between atoms: C_11  and  C_8 
REMARK    3  A    between atoms: S_9  and  C_11 
REMARK    4  A    between atoms: C_12  and  S_9 
ROOT
ATOM      1  N   UNL d   1      -1.526  -3.231   1.026  0.00  0.00    -0.311 N 
ATOM      2  C   UNL d   1      -2.433  -3.041  -0.004  0.00  0.00     0.232 C 
ATOM      3  O   UNL d   1      -2.340  -2.220  -0.915  0.00  0.00    -0.272 OA
ATOM      4  H   UNL d   1      -1.718  -3.951   1.709  0.00  0.00     0.170 HD
ENDROOT
BRANCH   2   5
ATOM      5  C   UNL d   1      -3.679  -3.909   0.114  0.00  0.00     0.182 C 
BRANCH   5   6
ATOM      6  S   UNL d   1      -3.211  -5.673   0.182  0.00  0.00    -0.121 SA
BRANCH   6   7
ATOM      7  C   UNL d   1      -4.784  -6.510   0.053  0.00  0.00     0.001 A 
ATOM      8  C   UNL d   1      -4.796  -7.756  -0.592  0.00  0.00     0.020 A 
ATOM      9  C   UNL d   1      -5.963  -8.523  -0.652  0.00  0.00     0.025 A 
ATOM     10  C   UNL d   1      -7.129  -8.048  -0.062  0.00  0.00     0.034 A 
ATOM     11  C   UNL d   1      -7.139  -6.808   0.573  0.00  0.00     0.025 A 
ATOM     12 CL   UNL d   1      -8.558  -9.005  -0.098  0.00  0.00    -0.084 Cl
ATOM     13  C   UNL d   1      -5.968  -6.040   0.631  0.00  0.00     0.020 A 
ENDBRANCH   6   7
ENDBRANCH   5   6
ENDBRANCH   2   5
BRANCH   1  14
ATOM     14  C   UNL d   1      -0.310  -2.580   1.132  0.00  0.00     0.130 A 
ATOM     15  N   UNL d   1       0.167  -1.674   0.276  0.00  0.00    -0.245 N 
ATOM     16  O   UNL d   1       1.405  -1.299   0.748  0.00  0.00    -0.241 OA
ATOM     17  HN  UNL d   1      -0.296  -1.328  -0.565  1.00  0.00     0.196 HD
ATOM     18  C   UNL d   1       1.673  -1.970   1.897  0.00  0.00     0.076 A 
ATOM     19  C   UNL d   1       0.616  -2.797   2.185  0.00  0.00     0.084 A 
ATOM     20  C   UNL d   1       2.966  -1.669   2.534  0.00  0.00     0.079 C 
ENDBRANCH   1  14
TORSDOF 4
