REMARK  7 active torsions:
REMARK  status: ('A' for Active; 'I' for Inactive)
REMARK    1  A    between atoms: C_6  and  C_1 
REMARK    2  A    between atoms: C_10  and  N_2 
REMARK    3  A    between atoms: C_17  and  C_3 
REMARK       I    between atoms: N_8  and  C_6 
REMARK    4  A    between atoms: C_9  and  N_8 
REMARK    5  A    between atoms: O_19  and  C_14 
REMARK    6  A    between atoms: O_18  and  C_15 
REMARK    7  A    between atoms: C_24  and  C_17 
ROOT
ATOM      1  C   UNL d   1      -0.162   1.058   0.159  0.00  0.00     0.073 C 
ATOM      2  N   UNL d   1       0.883  -0.919   0.206  0.00  0.00    -0.260 N 
ATOM      3  C   UNL d   1       1.112   0.475   0.266  0.00  0.00     0.051 C 
ATOM      4  N   UNL d   1      -0.438  -1.205   0.281  0.00  0.00    -0.304 N 
ATOM      5  HN  UNL d   1      -0.870  -2.117   0.426  1.00  0.00     0.186 HD
ATOM      6  C   UNL d   1      -1.045  -0.044   0.125  0.00  0.00     0.126 C 
ENDROOT
BRANCH   1   7
ATOM      7  C   UNL d   1      -0.706   2.416   0.121  0.00  0.00     0.259 C 
ATOM      8  N   UNL d   1       0.107   3.461   0.509  0.00  0.00    -0.323 N 
ATOM      9  H   UNL d   1       1.052   3.241   0.775  0.00  0.00     0.169 HD
ATOM     10  O   UNL d   1      -1.866   2.555  -0.255  0.00  0.00    -0.267 OA
BRANCH   8  11
ATOM     11  C   UNL d   1      -0.225   4.839   0.462  0.00  0.00     0.040 A 
ATOM     12  C   UNL d   1      -1.511   5.315   0.189  0.00  0.00     0.066 A 
ATOM     13  C   UNL d   1      -1.750   6.680   0.029  0.00  0.00     0.073 A 
ATOM     14  C   UNL d   1      -0.721   7.598   0.226  0.00  0.00     0.073 A 
ATOM     15  C   UNL d   1       0.561   7.146   0.539  0.00  0.00     0.073 A 
ATOM     16  C   UNL d   1       0.800   5.771   0.661  0.00  0.00     0.066 A 
BRANCH  13  17
ATOM     17  O   UNL d   1      -2.965   7.215  -0.313  0.00  0.00    -0.356 OA
ATOM     18  C   UNL d   1      -3.767   6.379  -1.148  0.00  0.00     0.210 C 
ENDBRANCH  13  17
BRANCH  15  19
ATOM     19  O   UNL d   1       1.660   7.943   0.730  0.00  0.00    -0.356 OA
ATOM     20  C   UNL d   1       1.493   9.329   0.454  0.00  0.00     0.210 C 
ENDBRANCH  15  19
ENDBRANCH   8  11
ENDBRANCH   1   7
BRANCH   3  21
ATOM     21  C   UNL d   1       2.456   1.066   0.605  0.00  0.00     0.060 C 
BRANCH  21  22
ATOM     22  C   UNL d   1       3.322   1.618  -0.533  0.00  0.00     0.002 C 
ATOM     23  C   UNL d   1       2.692   2.651  -1.447  0.00  0.00     0.005 C 
ENDBRANCH  21  22
ENDBRANCH   3  21
BRANCH   2  24
ATOM     24  C   UNL d   1       1.756  -2.037   0.047  0.00  0.00     0.056 A 
ATOM     25  C   UNL d   1       1.334  -3.291   0.527  0.00  0.00     0.031 A 
ATOM     26  C   UNL d   1       2.078  -4.443   0.271  0.00  0.00     0.002 A 
ATOM     27  C   UNL d   1       3.244  -4.360  -0.481  0.00  0.00     0.000 A 
ATOM     28  C   UNL d   1       3.672  -3.123  -0.962  0.00  0.00     0.002 A 
ATOM     29  C   UNL d   1       2.933  -1.965  -0.697  0.00  0.00     0.031 A 
ENDBRANCH   2  24
TORSDOF 7
