REMARK  6 active torsions:
REMARK  status: ('A' for Active; 'I' for Inactive)
REMARK    1  A    between atoms: C_3  and  C_1 
REMARK    2  A    between atoms: C_13  and  C_2 
REMARK    3  A    between atoms: S_4  and  N_14 
REMARK    4  A    between atoms: C_23  and  S_4 
REMARK    5  A    between atoms: C_5  and  C_10 
REMARK       I    between atoms: N_18  and  C_13 
REMARK    6  A    between atoms: N_14  and  N_18 
ROOT
ATOM      1  C   UNL d   1       0.021  -1.506  -0.138  0.00  0.00     0.057 C 
ATOM      2  C   UNL d   1      -1.310  -0.989   0.002  0.00  0.00     0.139 C 
ATOM      3  N   UNL d   1      -1.285   0.358  -0.039  0.00  0.00    -0.255 N 
ATOM      4  HN  UNL d   1      -2.094   0.980  -0.040  1.00  0.00     0.195 HD
ATOM      5  O   UNL d   1       0.022   0.735  -0.077  0.00  0.00    -0.241 OA
ATOM      6  C   UNL d   1       0.809  -0.362  -0.099  0.00  0.00     0.087 C 
ATOM      7  C   UNL d   1       2.254  -0.059  -0.046  0.00  0.00     0.080 C 
ENDROOT
BRANCH   2   8
ATOM      8  C   UNL d   1      -2.619  -1.582   0.263  0.00  0.00     0.290 C 
ATOM      9  N   UNL d   1      -2.616  -2.830   0.840  0.00  0.00    -0.255 N 
ATOM     10  H   UNL d   1      -1.812  -3.460   0.796  0.00  0.00     0.191 HD
ATOM     11  O   UNL d   1      -3.680  -0.968   0.113  0.00  0.00    -0.264 OA
BRANCH   9  12
ATOM     12  N   UNL d   1      -3.844  -3.263   1.469  0.00  0.00    -0.220 N 
ATOM     13  H   UNL d   1      -4.670  -2.656   1.419  0.00  0.00     0.200 HD
BRANCH  12  14
ATOM     14  S   UNL d   1      -4.087  -4.858   1.879  0.00  0.00     0.276 S 
ATOM     15  O   UNL d   1      -5.434  -4.977   2.401  0.00  0.00    -0.199 OA
ATOM     16  O   UNL d   1      -3.656  -5.656   0.763  0.00  0.00    -0.199 OA
BRANCH  14  17
ATOM     17  C   UNL d   1      -2.963  -5.067   3.247  0.00  0.00     0.081 A 
ATOM     18  C   UNL d   1      -3.385  -4.756   4.541  0.00  0.00     0.027 A 
ATOM     19  C   UNL d   1      -2.527  -4.996   5.616  0.00  0.00     0.025 A 
ATOM     20  C   UNL d   1      -1.269  -5.555   5.410  0.00  0.00     0.034 A 
ATOM     21  C   UNL d   1      -0.837  -5.859   4.122  0.00  0.00     0.025 A 
ATOM     22 CL   UNL d   1      -0.241  -5.879   6.750  0.00  0.00    -0.084 Cl
ATOM     23  C   UNL d   1      -1.692  -5.597   3.044  0.00  0.00     0.027 A 
ENDBRANCH  14  17
ENDBRANCH  12  14
ENDBRANCH   9  12
ENDBRANCH   2   8
BRANCH   1  24
ATOM     24  C   UNL d   1       0.523  -2.893  -0.265  0.00  0.00     0.055 A 
ATOM     25  N   UNL d   1      -0.271  -4.024  -0.041  0.00  0.00    -0.347 N 
ATOM     26  C   UNL d   1       0.459  -5.135  -0.189  0.00  0.00     0.102 A 
ATOM     27  HN  UNL d   1      -1.262  -4.003   0.200  1.00  0.00     0.167 HD
ATOM     28  S   UNL d   1       2.110  -4.868  -0.602  0.00  0.00    -0.080 SA
ATOM     29  C   UNL d   1       1.823  -3.195  -0.634  0.00  0.00     0.082 A 
BRANCH  26  30
ATOM     30  C   UNL d   1      -0.040  -6.559   0.053  0.00  0.00     0.073 A 
ATOM     31  N   UNL d   1      -1.380  -6.892   0.030  0.00  0.00    -0.352 N 
ATOM     32  C   UNL d   1      -1.581  -8.101   0.516  0.00  0.00     0.047 A 
ATOM     33  HN  UNL d   1      -2.119  -6.282  -0.318  1.00  0.00     0.166 HD
ATOM     34  C   UNL d   1      -2.917  -8.667   0.875  0.00  0.00     0.076 C 
ATOM     35  S   UNL d   1      -0.151  -8.976   0.883  0.00  0.00    -0.087 SA
ATOM     36  C   UNL d   1       0.783  -7.604   0.434  0.00  0.00     0.083 A 
ENDBRANCH  26  30
ENDBRANCH   1  24
TORSDOF 6
