REMARK  2 active torsions:
REMARK  status: ('A' for Active; 'I' for Inactive)
REMARK    1  A    between atoms: C_6  and  C_1 
REMARK    2  A    between atoms: C_7  and  C_3 
ROOT
ATOM      1  C   UNL d   1      -2.411  -0.183  -0.095  0.00  0.00     0.055 A 
ATOM      2  N   UNL d   1      -1.605   0.934  -0.147  0.00  0.00    -0.354 N 
ATOM      3  C   UNL d   1      -1.550  -1.286   0.003  0.00  0.00     0.014 A 
ATOM      4  C   UNL d   1      -0.201  -0.778   0.013  0.00  0.00     0.004 A 
ATOM      5  C   UNL d   1      -0.275   0.610  -0.078  0.00  0.00     0.043 A 
ATOM      6  C   UNL d   1       1.081  -1.367   0.105  0.00  0.00     0.014 A 
ATOM      7  C   UNL d   1       0.856   1.435  -0.092  0.00  0.00     0.030 A 
ATOM      8  C   UNL d   1       2.225  -0.562   0.080  0.00  0.00     0.001 A 
ATOM      9  C   UNL d   1       2.110   0.821  -0.016  0.00  0.00     0.002 A 
ATOM     10  H   UNL d   1      -1.954   1.878  -0.237  0.00  0.00     0.166 HD
ENDROOT
BRANCH   1  11
ATOM     11  C   UNL d   1      -3.876  -0.068  -0.139  0.00  0.00    -0.009 A 
ATOM     12  C   UNL d   1      -4.649  -0.951  -0.904  0.00  0.00     0.014 A 
ATOM     13  C   UNL d   1      -6.044  -0.932  -0.828  0.00  0.00     0.001 A 
ATOM     14  C   UNL d   1      -6.685   0.004  -0.021  0.00  0.00     0.000 A 
ATOM     15  C   UNL d   1      -5.932   0.929   0.699  0.00  0.00     0.001 A 
ATOM     16  C   UNL d   1      -4.536   0.893   0.643  0.00  0.00     0.014 A 
ENDBRANCH   1  11
BRANCH   3  17
ATOM     17  C   UNL d   1      -1.982  -2.684   0.076  0.00  0.00    -0.023 A 
ATOM     18  C   UNL d   1      -1.322  -3.665  -0.682  0.00  0.00     0.012 A 
ATOM     19  C   UNL d   1      -1.742  -4.997  -0.649  0.00  0.00     0.001 A 
ATOM     20  C   UNL d   1      -2.846  -5.363   0.117  0.00  0.00     0.000 A 
ATOM     21  C   UNL d   1      -3.510  -4.403   0.876  0.00  0.00     0.001 A 
ATOM     22  C   UNL d   1      -3.063  -3.079   0.877  0.00  0.00     0.012 A 
ENDBRANCH   3  17
TORSDOF 2
