REMARK  1 active torsions:
REMARK  status: ('A' for Active; 'I' for Inactive)
REMARK    1  A    between atoms: C_11  and  C_2 
ROOT
ATOM      1  C   UNL d   1       0.174  -0.732   0.040  0.00  0.00     0.031 A 
ATOM      2  C   UNL d   1       1.469  -1.187   0.039  0.00  0.00     0.121 A 
ATOM      3  O   UNL d   1       2.287  -0.090   0.065  0.00  0.00    -0.236 OA
ATOM      4  N   UNL d   1       1.544   1.077   0.060  0.00  0.00    -0.260 N 
ATOM      5  HN  UNL d   1       1.906   2.030   0.071  1.00  0.00     0.195 HD
ATOM      6  C   UNL d   1       0.254   0.710   0.038  0.00  0.00     0.068 A 
ATOM      7  C   UNL d   1      -0.993  -1.496   0.047  0.00  0.00     0.040 A 
ATOM      8  C   UNL d   1      -0.911   1.498   0.019  0.00  0.00     0.034 A 
ATOM      9  C   UNL d   1      -2.140  -0.680   0.020  0.00  0.00     0.035 A 
ATOM     10  C   UNL d   1      -2.109   0.748   0.004  0.00  0.00     0.026 A 
ATOM     11 CL   UNL d   1      -3.684  -1.459   0.002  0.00  0.00    -0.084 Cl
ENDROOT
BRANCH   2  12
ATOM     12  C   UNL d   1       2.151  -2.476  -0.005  0.00  0.00     0.001 A 
ATOM     13  C   UNL d   1       1.593  -3.565  -0.692  0.00  0.00     0.014 A 
ATOM     14  C   UNL d   1       2.241  -4.803  -0.723  0.00  0.00     0.001 A 
ATOM     15  C   UNL d   1       3.464  -4.965  -0.079  0.00  0.00     0.000 A 
ATOM     16  C   UNL d   1       4.042  -3.891   0.592  0.00  0.00     0.001 A 
ATOM     17  C   UNL d   1       3.389  -2.655   0.629  0.00  0.00     0.014 A 
ENDBRANCH   2  12
TORSDOF 1
