REMARK  8 active torsions:
REMARK  status: ('A' for Active; 'I' for Inactive)
REMARK    1  A    between atoms: O_11  and  C_3 
REMARK    2  A    between atoms: O_25  and  C_4 
REMARK    3  A    between atoms: S_14  and  C_5 
REMARK    4  A    between atoms: C_6  and  C_12 
REMARK    5  A    between atoms: C_9  and  C_13 
REMARK    6  A    between atoms: C_16  and  O_11 
REMARK    7  A    between atoms: C_26  and  S_14 
REMARK    8  A    between atoms: C_27  and  C_26 
ROOT
ATOM      1  N   UNL d   1      -0.607   1.316   0.269  0.00  0.00    -0.315 N 
ATOM      2  HN  UNL d   1      -1.044   2.233   0.362  1.00  0.00     0.170 HD
ATOM      3  C   UNL d   1      -0.797  -1.087   0.115  0.00  0.00     0.149 A 
ATOM      4  C   UNL d   1      -1.328   0.182   0.283  0.00  0.00     0.178 A 
ATOM      5  C   UNL d   1       0.715   1.175   0.128  0.00  0.00     0.146 A 
ATOM      6  N   UNL d   1       1.346  -0.004   0.014  0.00  0.00    -0.338 N 
ATOM      7  HN  UNL d   1       2.360  -0.055  -0.075  1.00  0.00     0.168 HD
ATOM      8  C   UNL d   1       0.585  -1.122   0.022  0.00  0.00     0.045 A 
ATOM      9  C   UNL d   1       1.330  -2.425  -0.038  0.00  0.00     0.071 C 
ENDROOT
BRANCH   5  10
ATOM     10  S   UNL d   1       1.742   2.615   0.066  0.00  0.00    -0.089 SA
BRANCH  10  11
ATOM     11  C   UNL d   1       0.807   3.719   1.171  0.00  0.00     0.121 C 
BRANCH  11  12
ATOM     12  C   UNL d   1       1.576   5.002   1.404  0.00  0.00    -0.048 A 
ATOM     13  C   UNL d   1       1.445   6.078   0.515  0.00  0.00     0.009 A 
ATOM     14  C   UNL d   1       2.213   7.235   0.679  0.00  0.00     0.017 A 
ATOM     15  C   UNL d   1       3.130   7.338   1.735  0.00  0.00     0.047 A 
ATOM     16  C   UNL d   1       3.248   6.267   2.635  0.00  0.00     0.017 A 
ATOM     17  C   UNL d   1       2.481   5.110   2.468  0.00  0.00     0.009 A 
BRANCH  15  18
ATOM     18  C   UNL d   1       3.994   8.563   1.902  0.00  0.00     0.417 C 
ATOM     19  F   UNL d   1       3.809   9.500   0.930  0.00  0.00    -0.166 F 
ATOM     20  F   UNL d   1       3.770   9.205   3.083  0.00  0.00    -0.166 F 
ATOM     21  F   UNL d   1       5.324   8.269   1.885  0.00  0.00    -0.166 F 
ENDBRANCH  15  18
ENDBRANCH  11  12
ENDBRANCH  10  11
ENDBRANCH   5  10
BRANCH   4  22
ATOM     22  O   UNL d   1      -2.652   0.405   0.533  0.00  0.00    -0.344 OA
ATOM     23  H   UNL d   1      -3.062  -0.440   0.772  0.00  0.00     0.219 HD
ENDBRANCH   4  22
BRANCH   3  24
ATOM     24  O   UNL d   1      -1.460  -2.281   0.172  0.00  0.00    -0.304 OA
BRANCH  24  25
ATOM     25  C   UNL d   1      -2.666  -2.479  -0.457  0.00  0.00     0.077 A 
ATOM     26  C   UNL d   1      -3.138  -1.767  -1.560  0.00  0.00     0.053 A 
ATOM     27  C   UNL d   1      -4.434  -2.006  -2.054  0.00  0.00     0.050 A 
ATOM     28  C   UNL d   1      -5.217  -3.013  -1.466  0.00  0.00     0.016 A 
ATOM     29  C   UNL d   1      -4.719  -3.768  -0.408  0.00  0.00     0.004 A 
ATOM     30  C   UNL d   1      -3.446  -3.500   0.094  0.00  0.00     0.037 A 
BRANCH  27  31
ATOM     31  C   UNL d   1      -5.011  -1.176  -3.178  0.00  0.00     0.417 C 
ATOM     32  F   UNL d   1      -4.148  -0.244  -3.665  0.00  0.00    -0.166 F 
ATOM     33  F   UNL d   1      -5.386  -1.934  -4.245  0.00  0.00    -0.166 F 
ATOM     34  F   UNL d   1      -6.122  -0.494  -2.793  0.00  0.00    -0.166 F 
ENDBRANCH  27  31
ENDBRANCH  24  25
ENDBRANCH   3  24
TORSDOF 8
