REMARK  3 active torsions:
REMARK  status: ('A' for Active; 'I' for Inactive)
REMARK    1  A    between atoms: C_3  and  C_1 
REMARK       I    between atoms: N_9  and  C_3 
REMARK    2  A    between atoms: C_8  and  N_10 
REMARK    3  A    between atoms: N_10  and  N_9 
ROOT
ATOM      1  C   UNL d   1      -0.047  -2.469  -0.643  0.00  0.00     0.276 C 
ATOM      2  N   UNL d   1       0.785  -3.496  -0.190  0.00  0.00    -0.282 N 
ATOM      3  O   UNL d   1       0.389  -1.312  -0.688  0.00  0.00    -0.266 OA
ATOM      4  H   UNL d   1       0.390  -4.347   0.197  0.00  0.00     0.184 HD
ENDROOT
BRANCH   2   5
ATOM      5  N   UNL d   1       2.063  -3.127   0.297  0.00  0.00    -0.201 NA
ATOM      6  H   UNL d   1       2.348  -2.229  -0.122  0.00  0.00     0.153 HD
BRANCH   5   7
ATOM      7  C   UNL d   1       3.103  -4.093   0.135  0.00  0.00     0.051 A 
ATOM      8  C   UNL d   1       4.117  -4.053   1.115  0.00  0.00     0.050 A 
ATOM      9  C   UNL d   1       5.199  -4.938   1.087  0.00  0.00     0.035 A 
ATOM     10 CL   UNL d   1       6.383  -4.883   2.333  0.00  0.00    -0.084 Cl
ATOM     11  C   UNL d   1       5.329  -5.856   0.051  0.00  0.00     0.026 A 
ATOM     12  C   UNL d   1       4.376  -5.868  -0.969  0.00  0.00     0.027 A 
ATOM     13  C   UNL d   1       3.280  -4.983  -0.943  0.00  0.00     0.057 A 
ATOM     14 CL   UNL d   1       2.231  -5.037  -2.317  0.00  0.00    -0.082 Cl
ENDBRANCH   5   7
ENDBRANCH   2   5
BRANCH   1  15
ATOM     15  C   UNL d   1      -1.393  -2.815  -1.054  0.00  0.00     0.111 A 
ATOM     16  C   UNL d   1      -2.421  -2.005  -1.534  0.00  0.00     0.043 A 
ATOM     17  N   UNL d   1      -3.587  -2.686  -1.881  0.00  0.00    -0.296 N 
ATOM     18  C   UNL d   1      -2.441  -0.531  -1.728  0.00  0.00     0.071 C 
ATOM     19  N   UNL d   1      -3.477  -3.986  -1.673  0.00  0.00    -0.061 NA
ATOM     20  HN  UNL d   1      -4.424  -2.235  -2.250  1.00  0.00     0.183 HD
ATOM     21  S   UNL d   1      -1.988  -4.423  -1.072  0.00  0.00     0.007 SA
ENDBRANCH   1  15
TORSDOF 3
