REMARK  4 active torsions:
REMARK  status: ('A' for Active; 'I' for Inactive)
REMARK    1  A    between atoms: C_2  and  S_1 
REMARK    2  A    between atoms: C_6  and  S_1 
REMARK    3  A    between atoms: C_7  and  C_3 
REMARK    4  A    between atoms: O_8  and  N_4 
ROOT
ATOM      1  C   UNL d   1       0.307   1.600  -0.319  0.00  0.00     0.013 A 
ATOM      2  C   UNL d   1      -1.032   1.744  -0.727  0.00  0.00    -0.002 A 
ATOM      3  C   UNL d   1      -1.556   3.025  -0.966  0.00  0.00     0.014 A 
ATOM      4  C   UNL d   1       1.117   2.747  -0.254  0.00  0.00     0.019 A 
ATOM      5  C   UNL d   1      -0.750   4.156  -0.846  0.00  0.00     0.001 A 
ATOM      6  C   UNL d   1       0.592   4.015  -0.508  0.00  0.00     0.001 A 
ENDROOT
BRANCH   1   7
ATOM      7  S   UNL d   1       1.075   0.037   0.103  0.00  0.00    -0.120 SA
BRANCH   7   8
ATOM      8  C   UNL d   1       0.808  -0.061   1.943  0.00  0.00     0.002 C 
ATOM      9  C   UNL d   1      -0.684  -0.017   2.293  0.00  0.00     0.026 C 
ATOM     10  C   UNL d   1       1.379  -1.418   2.392  0.00  0.00     0.026 C 
ATOM     11  C   UNL d   1       1.564   1.056   2.673  0.00  0.00     0.026 C 
ENDBRANCH   7   8
ENDBRANCH   1   7
BRANCH   2  12
ATOM     12  C   UNL d   1      -1.920   0.576  -0.933  0.00  0.00     0.126 C 
ATOM     13  N   UNL d   1      -3.167   0.714  -1.265  0.00  0.00    -0.280 N 
ATOM     14  HN  UNL d   1      -3.648   1.603  -1.402  1.00  0.00     0.193 HD
BRANCH  13  15
ATOM     15  O   UNL d   1      -3.748  -0.551  -1.404  0.00  0.00    -0.290 OA
ATOM     16  H   UNL d   1      -4.653  -0.335  -1.694  0.00  0.00     0.244 HD
ENDBRANCH  13  15
ENDBRANCH   2  12
TORSDOF 4
