REMARK  6 active torsions:
REMARK  status: ('A' for Active; 'I' for Inactive)
REMARK    1  A    between atoms: C_5  and  N_1 
REMARK    2  A    between atoms: N_2  and  C_3 
REMARK       I    between atoms: C_8  and  N_2 
REMARK    3  A    between atoms: C_3  and  N_10 
REMARK    4  A    between atoms: C_4  and  C_7 
REMARK       I    between atoms: N_6  and  C_4 
REMARK    5  A    between atoms: N_10  and  N_6 
REMARK    6  A    between atoms: C_19  and  C_8 
ROOT
ATOM      1  C   UNL d   1       0.236   4.013  -2.401  0.00  0.00     0.270 C 
ATOM      2  N   UNL d   1      -0.576   4.963  -2.982  0.00  0.00    -0.264 N 
ATOM      3  O   UNL d   1       1.201   3.586  -3.037  0.00  0.00    -0.266 OA
ATOM      4  H   UNL d   1      -0.130   5.433  -3.771  0.00  0.00     0.190 HD
ENDROOT
BRANCH   2   5
ATOM      5  N   UNL d   1      -1.692   5.565  -2.420  0.00  0.00    -0.273 N 
ATOM      6  H   UNL d   1      -2.420   4.921  -2.112  0.00  0.00     0.189 HD
BRANCH   5   7
ATOM      7  C   UNL d   1      -2.143   6.788  -2.804  0.00  0.00     0.193 C 
ATOM      8  S   UNL d   1      -3.757   7.160  -2.558  0.00  0.00    -0.039 SA
BRANCH   7   9
ATOM      9  N   UNL d   1      -1.349   7.747  -3.379  0.00  0.00    -0.303 N 
ATOM     10  C   UNL d   1       0.026   7.872  -3.583  0.00  0.00     0.223 C 
ATOM     11  O   UNL d   1       0.863   6.998  -3.397  0.00  0.00    -0.273 OA
ATOM     12  H   UNL d   1      -1.886   8.577  -3.596  0.00  0.00     0.171 HD
BRANCH  10  13
ATOM     13  C   UNL d   1       0.428   9.199  -4.188  0.00  0.00     0.099 C 
ATOM     14  C   UNL d   1       0.340   9.132  -5.700  0.00  0.00     0.014 C 
ENDBRANCH  10  13
ENDBRANCH   7   9
ENDBRANCH   5   7
ENDBRANCH   2   5
BRANCH   1  15
ATOM     15  C   UNL d   1      -0.022   3.440  -1.055  0.00  0.00     0.036 A 
ATOM     16  C   UNL d   1       0.461   2.143  -0.815  0.00  0.00     0.053 A 
ATOM     17  C   UNL d   1       0.292   1.553   0.442  0.00  0.00     0.103 A 
ATOM     18  C   UNL d   1      -0.361   2.244   1.469  0.00  0.00     0.036 A 
ATOM     19  C   UNL d   1      -0.812   3.545   1.241  0.00  0.00     0.003 A 
ATOM     20  C   UNL d   1      -0.626   4.147  -0.008  0.00  0.00     0.017 A 
BRANCH  17  21
ATOM     21  N   UNL d   1       0.816   0.203   0.689  0.00  0.00    -0.116 N 
ATOM     22  O   UNL d   1       1.427  -0.359  -0.229  0.00  0.00    -0.532 OA
ATOM     23  O   UNL d   1       0.614  -0.294   1.807  0.00  0.00    -0.532 OA
ENDBRANCH  17  21
ENDBRANCH   1  15
TORSDOF 6
