REMARK  6 active torsions:
REMARK  status: ('A' for Active; 'I' for Inactive)
REMARK    1  A    between atoms: N_10  and  C_1 
REMARK    2  A    between atoms: C_12  and  C_1 
REMARK    3  A    between atoms: O_11  and  N_2 
REMARK    4  A    between atoms: C_4  and  C_13 
REMARK    5  A    between atoms: S_9  and  C_12 
REMARK    6  A    between atoms: C_13  and  S_9 
ROOT
ATOM      1  C   UNL d   1       0.374  -0.169  -2.659  0.00  0.00     0.104 C 
ATOM      2  N   UNL d   1       0.874  -1.091  -3.429  0.00  0.00    -0.257 N 
ATOM      3  HN  UNL d   1       1.128  -2.029  -3.122  1.00  0.00     0.195 HD
ENDROOT
BRANCH   1   4
ATOM      4  N   UNL d   1       0.032   1.085  -3.104  0.00  0.00    -0.387 N 
ATOM      5  H   UNL d   1       0.431   1.302  -4.011  0.00  0.00     0.157 HD
ATOM      6  H   UNL d   1       0.016   1.841  -2.432  0.00  0.00     0.157 HD
ENDBRANCH   1   4
BRANCH   1   7
ATOM      7  C   UNL d   1       0.184  -0.507  -1.185  0.00  0.00     0.151 C 
BRANCH   7   8
ATOM      8  S   UNL d   1      -1.544  -0.273  -0.670  0.00  0.00    -0.155 SA
BRANCH   8   9
ATOM      9  C   UNL d   1      -2.327  -1.525  -1.743  0.00  0.00     0.139 C 
BRANCH   9  10
ATOM     10  C   UNL d   1      -3.799  -1.548  -1.536  0.00  0.00     0.061 A 
ATOM     11  O   UNL d   1      -4.338  -2.721  -1.090  0.00  0.00    -0.326 OA
ATOM     12  C   UNL d   1      -5.678  -2.528  -0.988  0.00  0.00     0.142 A 
ATOM     13  C   UNL d   1      -6.013  -1.250  -1.368  0.00  0.00     0.027 A 
ATOM     14  C   UNL d   1      -4.800  -0.617  -1.728  0.00  0.00     0.035 A 
ENDBRANCH   9  10
ENDBRANCH   8   9
ENDBRANCH   7   8
ENDBRANCH   1   7
BRANCH   2  15
ATOM     15  O   UNL d   1       1.015  -0.615  -4.744  0.00  0.00    -0.288 OA
ATOM     16  H   UNL d   1       1.353  -1.402  -5.212  0.00  0.00     0.244 HD
ENDBRANCH   2  15
TORSDOF 6
