REMARK  3 active torsions:
REMARK  status: ('A' for Active; 'I' for Inactive)
REMARK    1  A    between atoms: C_2  and  C_1 
REMARK    2  A    between atoms: O_8  and  C_1 
REMARK    3  A    between atoms: C_10  and  O_8 
ROOT
ATOM      1  C   UNL d   1       0.250  -0.894  -0.932  0.00  0.00     0.157 C 
ATOM      2  O   UNL d   1      -1.537  -3.084  -0.222  0.00  0.00    -0.310 OA
ATOM      3  C   UNL d   1       0.723  -2.317  -0.730  0.00  0.00    -0.006 A 
ATOM      4  C   UNL d   1      -1.256  -0.787  -0.995  0.00  0.00    -0.006 A 
ATOM      5  C   UNL d   1      -2.050  -1.880  -0.640  0.00  0.00     0.083 A 
ATOM      6  C   UNL d   1      -0.195  -3.316  -0.396  0.00  0.00     0.083 A 
ATOM      7  C   UNL d   1      -1.882   0.389  -1.442  0.00  0.00     0.011 A 
ATOM      8  C   UNL d   1       2.070  -2.666  -0.919  0.00  0.00     0.011 A 
ATOM      9  C   UNL d   1       0.224  -4.638  -0.238  0.00  0.00     0.038 A 
ATOM     10  C   UNL d   1      -3.442  -1.799  -0.713  0.00  0.00     0.038 A 
ATOM     11  C   UNL d   1       2.486  -3.990  -0.770  0.00  0.00     0.001 A 
ATOM     12  C   UNL d   1      -3.273   0.467  -1.520  0.00  0.00     0.001 A 
ATOM     13  C   UNL d   1      -4.054  -0.626  -1.155  0.00  0.00     0.003 A 
ATOM     14  C   UNL d   1       1.563  -4.977  -0.429  0.00  0.00     0.003 A 
ENDROOT
BRANCH   1  15
ATOM     15  C   UNL d   1       0.861   0.130   0.021  0.00  0.00     0.277 C 
ATOM     16  O   UNL d   1       1.033   1.300  -0.306  0.00  0.00    -0.264 OA
BRANCH  15  17
ATOM     17  O   UNL d   1       1.177  -0.420   1.270  0.00  0.00    -0.278 OA
BRANCH  17  18
ATOM     18  C   UNL d   1       1.950   0.221   2.276  0.00  0.00     0.080 A 
ATOM     19  C   UNL d   1       2.340  -0.597   3.341  0.00  0.00     0.049 A 
ATOM     20  C   UNL d   1       3.210  -0.113   4.338  0.00  0.00    -0.023 A 
ATOM     21  C   UNL d   1       3.648  -0.921   5.401  0.00  0.00     0.012 A 
ATOM     22  C   UNL d   1       3.678   1.220   4.256  0.00  0.00    -0.026 A 
ATOM     23  C   UNL d   1       4.556  -0.434   6.345  0.00  0.00     0.001 A 
ATOM     24  C   UNL d   1       5.035   0.870   6.246  0.00  0.00     0.001 A 
ATOM     25  C   UNL d   1       4.589   1.695   5.214  0.00  0.00     0.012 A 
ATOM     26  C   UNL d   1       3.231   2.039   3.210  0.00  0.00     0.015 A 
ATOM     27  C   UNL d   1       2.370   1.546   2.225  0.00  0.00     0.038 A 
ENDBRANCH  17  18
ENDBRANCH  15  17
ENDBRANCH   1  15
TORSDOF 3
