REMARK  4 active torsions:
REMARK  status: ('A' for Active; 'I' for Inactive)
REMARK    1  A    between atoms: C_5  and  C_1 
REMARK    2  A    between atoms: C_7  and  C_2 
REMARK       I    between atoms: N_9  and  C_7 
REMARK    3  A    between atoms: N_14  and  N_9 
REMARK    4  A    between atoms: C_17  and  N_14 
ROOT
ATOM      1  C   UNL d   1      -1.273  -0.718  -0.453  0.00  0.00     0.088 A 
ATOM      2  C   UNL d   1      -0.142  -1.387   0.137  0.00  0.00     0.094 A 
ATOM      3  N   UNL d   1      -1.170   0.606  -0.242  0.00  0.00    -0.259 N 
ATOM      4  HN  UNL d   1      -1.815   1.322  -0.575  1.00  0.00     0.195 HD
ATOM      5  O   UNL d   1      -0.041   0.815   0.501  0.00  0.00    -0.241 OA
ATOM      6  C   UNL d   1       0.583  -0.364   0.721  0.00  0.00     0.090 A 
ATOM      7  C   UNL d   1       1.824  -0.275   1.516  0.00  0.00     0.080 C 
ENDROOT
BRANCH   2   8
ATOM      8  C   UNL d   1       0.271  -2.776   0.139  0.00  0.00     0.271 C 
ATOM      9  N   UNL d   1      -0.740  -3.698   0.397  0.00  0.00    -0.282 N 
ATOM     10  H   UNL d   1      -1.536  -3.388   0.937  0.00  0.00     0.184 HD
ATOM     11  O   UNL d   1       1.444  -3.112  -0.024  0.00  0.00    -0.266 OA
BRANCH   9  12
ATOM     12  N   UNL d   1      -0.312  -5.018   0.644  0.00  0.00    -0.203 NA
ATOM     13  H   UNL d   1       0.587  -5.226   0.191  0.00  0.00     0.153 HD
BRANCH  12  14
ATOM     14  C   UNL d   1      -1.266  -6.050   0.496  0.00  0.00     0.029 A 
ATOM     15  C   UNL d   1      -0.817  -7.378   0.562  0.00  0.00     0.049 A 
ATOM     16  C   UNL d   1      -1.716  -8.452   0.612  0.00  0.00     0.041 A 
ATOM     17 CL   UNL d   1      -1.065 -10.051   0.701  0.00  0.00    -0.084 Cl
ATOM     18  C   UNL d   1      -3.099  -8.226   0.617  0.00  0.00    -0.040 A 
ATOM     19  C   UNL d   1      -3.551  -6.904   0.527  0.00  0.00     0.010 A 
ATOM     20  C   UNL d   1      -4.095  -9.345   0.731  0.00  0.00     0.050 C 
ATOM     21  C   UNL d   1      -2.648  -5.834   0.477  0.00  0.00     0.026 A 
ENDBRANCH  12  14
ENDBRANCH   9  12
ENDBRANCH   2   8
BRANCH   1  22
ATOM     22  C   UNL d   1      -2.392  -1.235  -1.256  0.00  0.00     0.054 A 
ATOM     23  C   UNL d   1      -2.180  -2.287  -2.159  0.00  0.00     0.130 A 
ATOM     24  F   UNL d   1      -0.963  -2.826  -2.309  0.00  0.00    -0.205 F 
ATOM     25  C   UNL d   1      -3.204  -2.804  -2.956  0.00  0.00     0.043 A 
ATOM     26  C   UNL d   1      -4.472  -2.241  -2.909  0.00  0.00     0.005 A 
ATOM     27  C   UNL d   1      -4.712  -1.177  -2.045  0.00  0.00     0.025 A 
ATOM     28  C   UNL d   1      -3.692  -0.686  -1.212  0.00  0.00     0.049 A 
ATOM     29 CL   UNL d   1      -4.174   0.578  -0.127  0.00  0.00    -0.083 Cl
ENDBRANCH   1  22
TORSDOF 4
