REMARK  2 active torsions:
REMARK  status: ('A' for Active; 'I' for Inactive)
REMARK    1  A    between atoms: C_7  and  C_1 
REMARK    2  A    between atoms: C_8  and  C_2 
ROOT
ATOM      1  C   UNL d   1       0.007  -1.141  -0.000  0.00  0.00     0.085 A 
ATOM      2  C   UNL d   1       1.247   0.720   0.040  0.00  0.00     0.154 A 
ATOM      3  C   UNL d   1       1.333  -0.651   0.133  0.00  0.00     0.073 A 
ATOM      4  N   UNL d   1      -0.844  -0.121  -0.207  0.00  0.00    -0.296 N 
ATOM      5  HN  UNL d   1      -1.843  -0.175  -0.408  1.00  0.00     0.187 HD
ATOM      6  N   UNL d   1      -0.087   0.984  -0.092  0.00  0.00    -0.291 N 
ATOM      7 BR   UNL d   1       2.910  -1.651   0.309  0.00  0.00    -0.046 Br
ATOM      8  C   UNL d   1      -0.732   2.280  -0.100  0.00  0.00     0.178 C 
ENDROOT
BRANCH   1   9
ATOM      9  C   UNL d   1      -0.523  -2.550   0.066  0.00  0.00     0.035 A 
ATOM     10  S   UNL d   1       0.256  -3.878   0.808  0.00  0.00    -0.081 SA
ATOM     11  C   UNL d   1      -1.046  -4.907   0.479  0.00  0.00     0.052 A 
ATOM     12 BR   UNL d   1      -1.095  -6.699   1.022  0.00  0.00    -0.043 Br
ATOM     13  C   UNL d   1      -2.054  -4.298  -0.220  0.00  0.00     0.028 A 
ATOM     14  C   UNL d   1      -1.758  -2.917  -0.441  0.00  0.00     0.023 A 
ENDBRANCH   1   9
BRANCH   2  15
ATOM     15  C   UNL d   1       2.244   1.798   0.058  0.00  0.00     0.435 C 
ATOM     16  F   UNL d   1       3.523   1.363   0.121  0.00  0.00    -0.165 F 
ATOM     17  F   UNL d   1       2.149   2.575  -1.051  0.00  0.00    -0.165 F 
ATOM     18  F   UNL d   1       2.056   2.621   1.121  0.00  0.00    -0.165 F 
ENDBRANCH   2  15
TORSDOF 2
