REMARK  7 active torsions:
REMARK  status: ('A' for Active; 'I' for Inactive)
REMARK    1  A    between atoms: O_9  and  C_3 
REMARK    2  A    between atoms: O_20  and  C_4 
REMARK    3  A    between atoms: S_14  and  C_5 
REMARK    4  A    between atoms: C_21  and  O_9 
REMARK    5  A    between atoms: C_10  and  C_13 
REMARK    6  A    between atoms: C_13  and  C_16 
REMARK    7  A    between atoms: C_16  and  S_14 
ROOT
ATOM      1  N   UNL d   1      -0.573   1.249   0.391  0.00  0.00    -0.315 N 
ATOM      2  HN  UNL d   1      -0.996   2.167   0.525  1.00  0.00     0.170 HD
ATOM      3  C   UNL d   1      -0.804  -1.127   0.049  0.00  0.00     0.149 A 
ATOM      4  C   UNL d   1      -1.317   0.137   0.290  0.00  0.00     0.178 A 
ATOM      5  C   UNL d   1       0.751   1.091   0.306  0.00  0.00     0.146 A 
ATOM      6  N   UNL d   1       1.366  -0.088   0.140  0.00  0.00    -0.338 N 
ATOM      7  HN  UNL d   1       2.383  -0.157   0.108  1.00  0.00     0.168 HD
ATOM      8  C   UNL d   1       0.582  -1.184   0.017  0.00  0.00     0.045 A 
ATOM      9  C   UNL d   1       1.304  -2.495  -0.091  0.00  0.00     0.071 C 
ENDROOT
BRANCH   5  10
ATOM     10  S   UNL d   1       1.745   2.542   0.544  0.00  0.00    -0.086 SA
BRANCH  10  11
ATOM     11  C   UNL d   1       3.395   1.808   0.377  0.00  0.00     0.166 C 
BRANCH  11  12
ATOM     12  C   UNL d   1       4.447   2.866   0.626  0.00  0.00     0.169 C 
ATOM     13  O   UNL d   1       4.924   3.515  -0.304  0.00  0.00    -0.291 OA
BRANCH  12  14
ATOM     14  C   UNL d   1       4.935   3.136   2.016  0.00  0.00     0.014 A 
ATOM     15  C   UNL d   1       4.439   2.470   3.142  0.00  0.00     0.060 A 
ATOM     16  C   UNL d   1       4.955   2.768   4.402  0.00  0.00     0.155 A 
ATOM     17  F   UNL d   1       4.481   2.116   5.471  0.00  0.00    -0.203 F 
ATOM     18  C   UNL d   1       5.955   3.725   4.556  0.00  0.00     0.154 A 
ATOM     19  C   UNL d   1       6.452   4.397   3.450  0.00  0.00     0.046 A 
ATOM     20  F   UNL d   1       6.442   4.002   5.773  0.00  0.00    -0.203 F 
ATOM     21  C   UNL d   1       5.944   4.103   2.181  0.00  0.00     0.018 A 
ENDBRANCH  12  14
ENDBRANCH  11  12
ENDBRANCH  10  11
ENDBRANCH   5  10
BRANCH   4  22
ATOM     22  O   UNL d   1      -2.640   0.379   0.514  0.00  0.00    -0.344 OA
ATOM     23  H   UNL d   1      -3.074  -0.459   0.731  0.00  0.00     0.219 HD
ENDBRANCH   4  22
BRANCH   3  24
ATOM     24  O   UNL d   1      -1.483  -2.311  -0.036  0.00  0.00    -0.304 OA
BRANCH  24  25
ATOM     25  C   UNL d   1      -2.714  -2.393  -0.638  0.00  0.00     0.076 A 
ATOM     26  C   UNL d   1      -3.142  -1.599  -1.704  0.00  0.00     0.039 A 
ATOM     27  C   UNL d   1      -4.461  -1.702  -2.159  0.00  0.00     0.026 A 
ATOM     28  C   UNL d   1      -5.326  -2.633  -1.585  0.00  0.00     0.034 A 
ATOM     29  C   UNL d   1      -4.878  -3.483  -0.577  0.00  0.00     0.026 A 
ATOM     30 CL   UNL d   1      -6.960  -2.724  -2.113  0.00  0.00    -0.084 Cl
ATOM     31  C   UNL d   1      -3.569  -3.365  -0.108  0.00  0.00     0.039 A 
ENDBRANCH  24  25
ENDBRANCH   3  24
TORSDOF 7
