REMARK  4 active torsions:
REMARK  status: ('A' for Active; 'I' for Inactive)
REMARK    1  A    between atoms: S_2  and  C_1 
REMARK    2  A    between atoms: C_11  and  S_2 
REMARK    3  A    between atoms: C_7  and  C_3 
REMARK    4  A    between atoms: S_13  and  C_5 
REMARK       I    between atoms: N_10  and  C_7 
ROOT
ATOM      1  C   UNL d   1       1.500  -0.757  -0.024  0.00  0.00     0.084 C 
ATOM      2  C   UNL d   1       0.118   1.157  -0.100  0.00  0.00     0.075 C 
ATOM      3  C   UNL d   1       1.403   0.656  -0.220  0.00  0.00     0.050 C 
ATOM      4  C   UNL d   1       0.241  -1.332   0.059  0.00  0.00     0.063 C 
ATOM      5  S   UNL d   1      -0.961  -0.103   0.268  0.00  0.00    -0.076 SA
ENDROOT
BRANCH   1   6
ATOM      6  S   UNL d   1       3.012  -1.605   0.014  0.00  0.00     0.180 S 
ATOM      7  O   UNL d   1       3.038  -2.208   1.331  0.00  0.00    -0.222 OA
ATOM      8  O   UNL d   1       2.982  -2.396  -1.201  0.00  0.00    -0.222 OA
BRANCH   6   9
ATOM      9  C   UNL d   1       4.380  -0.455  -0.089  0.00  0.00     0.105 C 
ATOM     10  C   UNL d   1       4.489   0.464   1.128  0.00  0.00     0.026 C 
ATOM     11  C   UNL d   1       5.684  -1.251  -0.215  0.00  0.00     0.026 C 
ENDBRANCH   6   9
ENDBRANCH   1   6
BRANCH   4  12
ATOM     12  S   UNL d   1      -0.344  -2.990  -0.085  0.00  0.00    -0.126 SA
ATOM     13  C   UNL d   1       0.755  -4.015   0.897  0.00  0.00     0.096 C 
ENDBRANCH   4  12
BRANCH   2  14
ATOM     14  C   UNL d   1      -0.208   2.584  -0.100  0.00  0.00     0.260 C 
ATOM     15  N   UNL d   1      -1.443   3.081  -0.535  0.00  0.00    -0.356 N 
ATOM     16  C   UNL d   1      -1.691   4.512  -0.396  0.00  0.00     0.152 C 
ATOM     17  C   UNL d   1      -2.477   2.357  -1.260  0.00  0.00     0.152 C 
ATOM     18  O   UNL d   1       0.666   3.376   0.270  0.00  0.00    -0.267 OA
ENDBRANCH   2  14
TORSDOF 4
