REMARK  0 active torsions:
REMARK  status: ('A' for Active; 'I' for Inactive)
ROOT
ATOM      1  N   UNL d   1      -1.300   1.758  -0.014  0.00  0.00    -0.355 N 
ATOM      2  C   UNL d   1      -0.035  -0.075   0.006  0.00  0.00     0.005 A 
ATOM      3  C   UNL d   1       0.003   1.320   0.006  0.00  0.00     0.043 A 
ATOM      4  C   UNL d   1      -1.412  -0.466   0.005  0.00  0.00     0.003 A 
ATOM      5  C   UNL d   1      -2.178   0.699  -0.011  0.00  0.00     0.043 A 
ATOM      6  C   UNL d   1       1.183  -0.785   0.013  0.00  0.00     0.038 A 
ATOM      7  C   UNL d   1       1.200   2.047   0.024  0.00  0.00     0.032 A 
ATOM      8  C   UNL d   1       2.384  -0.070   0.025  0.00  0.00     0.035 A 
ATOM      9  C   UNL d   1       2.396   1.322   0.035  0.00  0.00     0.026 A 
ATOM     10 CL   UNL d   1       3.878  -0.930   0.030  0.00  0.00    -0.084 Cl
ATOM     11  C   UNL d   1      -2.078  -1.709   0.020  0.00  0.00     0.014 A 
ATOM     12  C   UNL d   1      -3.578   0.686  -0.018  0.00  0.00     0.030 A 
ATOM     13  C   UNL d   1      -3.478  -1.740   0.023  0.00  0.00     0.001 A 
ATOM     14  C   UNL d   1      -4.214  -0.558   0.002  0.00  0.00     0.002 A 
ATOM     15  H   UNL d   1      -1.578   2.729  -0.022  0.00  0.00     0.166 HD
ENDROOT
TORSDOF 0
