REMARK  4 active torsions:
REMARK  status: ('A' for Active; 'I' for Inactive)
REMARK    1  A    between atoms: C_7  and  C_1 
REMARK    2  A    between atoms: C_12  and  N_2 
REMARK    3  A    between atoms: O_15  and  C_7 
REMARK    4  A    between atoms: O_16  and  C_13 
ROOT
ATOM      1  C   UNL d   1       2.493   0.698  -0.038  0.00  0.00     0.115 A 
ATOM      2  N   UNL d   1       1.294   1.446  -0.045  0.00  0.00    -0.341 N 
ATOM      3  C   UNL d   1       2.533  -0.644  -0.026  0.00  0.00     0.091 A 
ATOM      4  C   UNL d   1       0.047   0.749  -0.053  0.00  0.00     0.049 A 
ATOM      5  C   UNL d   1       0.018  -0.660  -0.025  0.00  0.00     0.043 A 
ATOM      6  C   UNL d   1       1.285  -1.412  -0.008  0.00  0.00     0.186 A 
ATOM      7  C   UNL d   1      -1.205   1.387  -0.091  0.00  0.00     0.033 A 
ATOM      8  C   UNL d   1      -1.187  -1.384  -0.004  0.00  0.00     0.054 A 
ATOM      9  O   UNL d   1       1.317  -2.639   0.020  0.00  0.00    -0.287 OA
ATOM     10  C   UNL d   1      -2.408  -0.720  -0.032  0.00  0.00     0.069 A 
ATOM     11  C   UNL d   1      -2.412   0.669  -0.083  0.00  0.00     0.039 A 
ENDROOT
BRANCH   1  12
ATOM     12  C   UNL d   1       3.889   1.275  -0.023  0.00  0.00     0.309 C 
ATOM     13  O   UNL d   1       4.866   0.668   0.396  0.00  0.00    -0.258 OA
BRANCH  12  14
ATOM     14  O   UNL d   1       3.948   2.515  -0.572  0.00  0.00    -0.321 OA
ATOM     15  C   UNL d   1       5.268   3.067  -0.583  0.00  0.00     0.213 C 
ENDBRANCH  12  14
ENDBRANCH   1  12
BRANCH   2  16
ATOM     16  C   UNL d   1       1.237   2.906   0.168  0.00  0.00     0.125 C 
ATOM     17  C   UNL d   1       1.039   3.666  -1.140  0.00  0.00     0.027 C 
ENDBRANCH   2  16
BRANCH  10  18
ATOM     18  O   UNL d   1      -3.511  -1.525  -0.007  0.00  0.00    -0.356 OA
ATOM     19  C   UNL d   1      -4.777  -0.882  -0.104  0.00  0.00     0.210 C 
ENDBRANCH  10  18
TORSDOF 4
