REMARK  2 active torsions:
REMARK  status: ('A' for Active; 'I' for Inactive)
REMARK    1  A    between atoms: C_7  and  C_2 
REMARK    2  A    between atoms: S_11  and  C_5 
ROOT
ATOM      1  C   UNL d   1      -0.402  -0.064   0.154  0.00  0.00     0.108 A 
ATOM      2  C   UNL d   1       0.566  -1.097  -0.045  0.00  0.00     0.083 A 
ATOM      3  N   UNL d   1       1.787  -0.562  -0.215  0.00  0.00    -0.297 N 
ATOM      4  HN  UNL d   1       2.660  -1.051  -0.413  1.00  0.00     0.187 HD
ATOM      5  C   UNL d   1       0.301   1.120   0.109  0.00  0.00     0.107 A 
ATOM      6  N   UNL d   1       1.604   0.757  -0.065  0.00  0.00    -0.292 N 
ATOM      7  C   UNL d   1      -1.803  -0.226   0.342  0.00  0.00     0.104 C 
ATOM      8  N   UNL d   1      -2.952  -0.354   0.458  0.00  0.00    -0.191 NA
ATOM      9  H   UNL d   1       2.411   1.369  -0.113  0.00  0.00     0.187 HD
ENDROOT
BRANCH   2  10
ATOM     10  C   UNL d   1       0.358  -2.551  -0.138  0.00  0.00     0.015 A 
ATOM     11  C   UNL d   1       1.211  -3.494   0.469  0.00  0.00     0.046 A 
ATOM     12 CL   UNL d   1       2.552  -3.061   1.476  0.00  0.00    -0.083 Cl
ATOM     13  C   UNL d   1       0.973  -4.869   0.315  0.00  0.00     0.025 A 
ATOM     14  C   UNL d   1      -0.120  -5.322  -0.420  0.00  0.00     0.002 A 
ATOM     15  C   UNL d   1      -0.978  -4.404  -1.013  0.00  0.00     0.001 A 
ATOM     16  C   UNL d   1      -0.735  -3.035  -0.884  0.00  0.00     0.015 A 
ENDBRANCH   2  10
BRANCH   5  17
ATOM     17  S   UNL d   1      -0.029   2.815   0.221  0.00  0.00    -0.114 SA
ATOM     18  C   UNL d   1      -1.825   2.942   0.123  0.00  0.00     0.097 C 
ENDBRANCH   5  17
TORSDOF 2
