REMARK  5 active torsions:
REMARK  status: ('A' for Active; 'I' for Inactive)
REMARK    1  A    between atoms: S_14  and  C_3 
REMARK    2  A    between atoms: O_17  and  N_9 
REMARK    3  A    between atoms: C_11  and  C_15 
REMARK       I    between atoms: N_13  and  C_11 
REMARK    4  A    between atoms: C_19  and  N_13 
REMARK    5  A    between atoms: C_15  and  O_17 
ROOT
ATOM      1  C   UNL d   1       0.218  -0.783   0.275  0.00  0.00     0.021 A 
ATOM      2  C   UNL d   1       0.537   0.633   0.157  0.00  0.00    -0.015 A 
ATOM      3  C   UNL d   1       1.357  -1.574   0.187  0.00  0.00     0.055 A 
ATOM      4  S   UNL d   1       2.772  -0.605  -0.028  0.00  0.00    -0.070 SA
ATOM      5  C   UNL d   1       1.886   0.824  -0.004  0.00  0.00     0.083 A 
ATOM      6  C   UNL d   1      -1.179  -1.175   0.487  0.00  0.00     0.045 C 
ATOM      7  C   UNL d   1      -0.507   1.720   0.205  0.00  0.00     0.050 C 
ATOM      8  C   UNL d   1      -1.898   1.226   0.685  0.00  0.00    -0.038 C 
ATOM      9  N   UNL d   1      -1.444  -2.303   1.063  0.00  0.00    -0.270 N 
ATOM     10  HN  UNL d   1      -0.726  -2.963   1.365  1.00  0.00     0.194 HD
ATOM     11  C   UNL d   1      -2.219  -0.150   0.061  0.00  0.00     0.069 C 
ATOM     12 CL   UNL d   1       2.709   2.325  -0.177  0.00  0.00    -0.076 Cl
ATOM     13  C   UNL d   1      -2.971   2.232   0.232  0.00  0.00     0.015 C 
ATOM     14  C   UNL d   1      -1.944   1.140   2.226  0.00  0.00     0.015 C 
ENDROOT
BRANCH   9  15
ATOM     15  O   UNL d   1      -2.824  -2.526   1.230  0.00  0.00    -0.271 OA
BRANCH  15  16
ATOM     16  C   UNL d   1      -2.977  -3.740   1.950  0.00  0.00     0.304 C 
BRANCH  16  17
ATOM     17  C   UNL d   1      -4.415  -4.179   2.219  0.00  0.00     0.248 C 
ATOM     18  N   UNL d   1      -5.402  -3.393   1.658  0.00  0.00    -0.325 N 
ATOM     19  H   UNL d   1      -5.085  -2.661   1.030  0.00  0.00     0.169 HD
ATOM     20  O   UNL d   1      -4.601  -5.191   2.896  0.00  0.00    -0.271 OA
BRANCH  18  21
ATOM     21  C   UNL d   1      -6.798  -3.592   1.772  0.00  0.00     0.034 A 
ATOM     22  C   UNL d   1      -7.379  -4.465   2.699  0.00  0.00     0.029 A 
ATOM     23  C   UNL d   1      -8.765  -4.647   2.743  0.00  0.00     0.002 A 
ATOM     24  C   UNL d   1      -9.589  -3.957   1.861  0.00  0.00     0.000 A 
ATOM     25  C   UNL d   1      -9.026  -3.069   0.947  0.00  0.00     0.002 A 
ATOM     26  C   UNL d   1      -7.639  -2.879   0.911  0.00  0.00     0.029 A 
ENDBRANCH  18  21
ENDBRANCH  16  17
ENDBRANCH  15  16
ENDBRANCH   9  15
BRANCH   3  27
ATOM     27  S   UNL d   1       1.604  -3.318   0.300  0.00  0.00    -0.126 SA
ATOM     28  C   UNL d   1       0.316  -4.029  -0.737  0.00  0.00     0.096 C 
ENDBRANCH   3  27
TORSDOF 5
