REMARK  4 active torsions:
REMARK  status: ('A' for Active; 'I' for Inactive)
REMARK    1  A    between atoms: C_3  and  C_1 
REMARK    2  A    between atoms: C_2  and  C_4 
REMARK    3  A    between atoms: C_4  and  C_7 
REMARK    4  A    between atoms: N_12  and  C_5 
ROOT
ATOM      1  C   UNL d   1       0.720   0.811  -1.033  0.00  0.00     0.048 A 
ATOM      2  C   UNL d   1      -0.130   0.426  -2.085  0.00  0.00     0.031 A 
ATOM      3  C   UNL d   1      -0.532   1.344  -3.073  0.00  0.00     0.015 A 
ATOM      4  C   UNL d   1       1.159   2.141  -0.971  0.00  0.00     0.016 A 
ATOM      5  C   UNL d   1      -0.062   2.661  -2.995  0.00  0.00     0.015 A 
ATOM      6  C   UNL d   1       0.774   3.057  -1.946  0.00  0.00     0.002 A 
ENDROOT
BRANCH   3   7
ATOM      7  C   UNL d   1      -1.440   0.843  -4.155  0.00  0.00     0.183 C 
ATOM      8  O   UNL d   1      -1.723  -0.352  -4.199  0.00  0.00    -0.288 OA
BRANCH   7   9
ATOM      9  C   UNL d   1      -1.994   1.803  -5.151  0.00  0.00     0.072 C 
ATOM     10  C   UNL d   1      -2.804   1.378  -6.130  0.00  0.00     0.088 C 
BRANCH  10  11
ATOM     11  N   UNL d   1      -3.433   2.101  -7.138  0.00  0.00    -0.398 N 
ATOM     12  C   UNL d   1      -3.309   3.543  -7.336  0.00  0.00     0.148 C 
ATOM     13  C   UNL d   1      -4.269   1.437  -8.142  0.00  0.00     0.148 C 
ENDBRANCH  10  11
ENDBRANCH   7   9
ENDBRANCH   3   7
BRANCH   1  14
ATOM     14  C   UNL d   1       1.171  -0.175   0.018  0.00  0.00     0.417 C 
ATOM     15  F   UNL d   1       0.703  -1.438  -0.174  0.00  0.00    -0.166 F 
ATOM     16  F   UNL d   1       0.776   0.185   1.270  0.00  0.00    -0.166 F 
ATOM     17  F   UNL d   1       2.528  -0.284   0.073  0.00  0.00    -0.166 F 
ENDBRANCH   1  14
TORSDOF 4
