REMARK  3 active torsions:
REMARK  status: ('A' for Active; 'I' for Inactive)
REMARK    1  A    between atoms: C_2  and  C_1 
REMARK    2  A    between atoms: C_4  and  C_3 
REMARK    3  A    between atoms: S_16  and  C_6 
ROOT
ATOM      1  C   UNL d   1      -0.683   1.249   0.004  0.00  0.00     0.082 A 
ATOM      2  C   UNL d   1      -0.697  -1.192   0.004  0.00  0.00     0.064 A 
ATOM      3  C   UNL d   1      -1.383   0.026   0.004  0.00  0.00     0.036 A 
ATOM      4  C   UNL d   1       0.708   1.201   0.004  0.00  0.00     0.082 A 
ATOM      5  N   UNL d   1       1.383   0.024   0.004  0.00  0.00    -0.359 N 
ATOM      6  HN  UNL d   1       2.403   0.012   0.003  1.00  0.00     0.166 HD
ATOM      7  C   UNL d   1       0.683  -1.133   0.004  0.00  0.00     0.105 A 
ENDROOT
BRANCH   1   8
ATOM      8  C   UNL d   1      -1.432   2.545   0.005  0.00  0.00     0.420 C 
ATOM      9  F   UNL d   1      -2.786   2.386   0.006  0.00  0.00    -0.166 F 
ATOM     10  F   UNL d   1      -1.154   3.315   1.092  0.00  0.00    -0.166 F 
ATOM     11  F   UNL d   1      -1.155   3.316  -1.081  0.00  0.00    -0.166 F 
ENDBRANCH   1   8
BRANCH   4  12
ATOM     12  S   UNL d   1       1.784   2.619   0.002  0.00  0.00    -0.125 SA
ATOM     13  H   UNL d   1       0.861   3.589   0.009  0.00  0.00     0.108 HD
ENDBRANCH   4  12
BRANCH   2  14
ATOM     14  C   UNL d   1      -1.387  -2.521   0.004  0.00  0.00     0.418 C 
ATOM     15  F   UNL d   1      -2.745  -2.420   0.006  0.00  0.00    -0.166 F 
ATOM     16  F   UNL d   1      -1.070  -3.273  -1.085  0.00  0.00    -0.166 F 
ATOM     17  F   UNL d   1      -1.067  -3.275   1.090  0.00  0.00    -0.166 F 
ENDBRANCH   2  14
TORSDOF 3
