REMARK  5 active torsions:
REMARK  status: ('A' for Active; 'I' for Inactive)
REMARK    1  A    between atoms: N_6  and  S_1 
REMARK    2  A    between atoms: O_7  and  S_1 
REMARK    3  A    between atoms: S_2  and  N_3 
REMARK    4  A    between atoms: C_10  and  S_2 
REMARK       I    between atoms: N_3  and  C_5 
REMARK       I    between atoms: C_5  and  N_6 
REMARK    5  A    between atoms: C_8  and  O_7 
ROOT
ATOM      1  N   UNL d   1       1.818   2.655   0.439  0.00  0.00    -0.264 N 
ATOM      2  HN  UNL d   1       2.687   3.180   0.350  1.00  0.00     0.180 HD
ATOM      3  C   UNL d   1       1.002   2.507  -0.672  0.00  0.00     0.342 C 
ATOM      4  N   UNL d   1       0.998   1.239  -1.200  0.00  0.00    -0.212 N 
ATOM      5  O   UNL d   1       0.364   3.436  -1.140  0.00  0.00    -0.245 OA
ATOM      6  H   UNL d   1       1.753   0.642  -0.883  0.00  0.00     0.185 HD
ENDROOT
BRANCH   1   7
ATOM      7  S   UNL d   1       1.448   2.050   1.799  0.00  0.00     0.056 S 
ATOM      8  O   UNL d   1       1.352   0.616   2.013  0.00  0.00    -0.245 OA
ATOM      9  C   UNL d   1       2.612   2.661   2.992  0.00  0.00     0.142 C 
BRANCH   7  10
ATOM     10  C   UNL d   1      -0.107   2.755   2.316  0.00  0.00     0.038 A 
ATOM     11  C   UNL d   1      -1.167   1.908   2.656  0.00  0.00     0.023 A 
ATOM     12  C   UNL d   1      -2.414   2.453   2.965  0.00  0.00     0.025 A 
ATOM     13  C   UNL d   1      -2.594   3.836   2.940  0.00  0.00     0.034 A 
ATOM     14  C   UNL d   1      -1.524   4.682   2.640  0.00  0.00     0.025 A 
ATOM     15 CL   UNL d   1      -4.149   4.501   3.252  0.00  0.00    -0.084 Cl
ATOM     16  C   UNL d   1      -0.274   4.144   2.325  0.00  0.00     0.023 A 
ENDBRANCH   7  10
ENDBRANCH   1   7
BRANCH   4  17
ATOM     17  S   UNL d   1       0.360   0.877  -2.671  0.00  0.00     0.370 S 
ATOM     18  O   UNL d   1       1.291   1.291  -3.703  0.00  0.00    -0.175 OA
ATOM     19  O   UNL d   1      -1.013   1.336  -2.685  0.00  0.00    -0.175 OA
BRANCH  17  20
ATOM     20  O   UNL d   1       0.284  -0.746  -2.627  0.00  0.00    -0.215 OA
BRANCH  20  21
ATOM     21  C   UNL d   1       1.240  -1.619  -3.075  0.00  0.00     0.112 A 
ATOM     22  C   UNL d   1       2.635  -1.528  -2.966  0.00  0.00     0.070 A 
ATOM     23  C   UNL d   1       3.443  -2.592  -3.392  0.00  0.00     0.050 A 
ATOM     24 CL   UNL d   1       3.478  -0.231  -2.203  0.00  0.00    -0.081 Cl
ATOM     25  C   UNL d   1       2.869  -3.762  -3.880  0.00  0.00     0.035 A 
ATOM     26  C   UNL d   1       1.488  -3.880  -3.966  0.00  0.00     0.026 A 
ATOM     27 CL   UNL d   1       3.873  -5.082  -4.334  0.00  0.00    -0.084 Cl
ATOM     28  C   UNL d   1       0.682  -2.810  -3.573  0.00  0.00     0.041 A 
ENDBRANCH  20  21
ENDBRANCH  17  20
ENDBRANCH   4  17
TORSDOF 5
