REMARK  4 active torsions:
REMARK  status: ('A' for Active; 'I' for Inactive)
REMARK    1  A    between atoms: N_4  and  C_1 
REMARK    2  A    between atoms: C_5  and  S_12 
REMARK    3  A    between atoms: S_12  and  C_6 
REMARK    4  A    between atoms: C_18  and  C_7 
ROOT
ATOM      1  N   UNL d   1       2.476  -3.515   0.943  0.00  0.00    -0.320 N 
ATOM      2  C   UNL d   1       1.526  -3.568  -0.028  0.00  0.00     0.167 A 
ATOM      3  C   UNL d   1       3.539  -4.258   0.490  0.00  0.00     0.132 A 
ATOM      4  N   UNL d   1       3.240  -4.684  -0.727  0.00  0.00    -0.283 N 
ATOM      5  HN  UNL d   1       3.850  -5.240  -1.327  1.00  0.00     0.188 HD
ATOM      6  N   UNL d   1       1.968  -4.254  -1.050  0.00  0.00    -0.278 N 
ATOM      7  HN  UNL d   1       1.468  -4.437  -1.921  1.00  0.00     0.189 HD
ATOM      8  H   UNL d   1       2.383  -3.061   1.835  0.00  0.00     0.169 HD
ENDROOT
BRANCH   2   9
ATOM      9  S   UNL d   1      -0.042  -2.922   0.248  0.00  0.00    -0.027 SA
BRANCH   9  10
ATOM     10  C   UNL d   1      -0.088  -1.834  -1.120  0.00  0.00     0.121 A 
ATOM     11  S   UNL d   1      -1.259  -1.984  -2.368  0.00  0.00    -0.039 SA
ATOM     12  C   UNL d   1      -0.672  -0.545  -3.053  0.00  0.00     0.161 A 
ATOM     13  C   UNL d   1       0.374  -0.041  -2.317  0.00  0.00     0.133 A 
ATOM     14  N   UNL d   1       0.700  -0.780  -1.190  0.00  0.00    -0.352 N 
ATOM     15  HN  UNL d   1       1.433  -0.544  -0.521  1.00  0.00     0.166 HD
BRANCH  12  16
ATOM     16  N   UNL d   1      -1.254   0.026  -4.225  0.00  0.00    -0.107 N 
ATOM     17  O   UNL d   1      -0.765   1.096  -4.612  0.00  0.00    -0.531 OA
ATOM     18  O   UNL d   1      -2.201  -0.565  -4.757  0.00  0.00    -0.531 OA
ENDBRANCH  12  16
ENDBRANCH   9  10
ENDBRANCH   2   9
BRANCH   3  19
ATOM     19  C   UNL d   1       4.755  -4.542   1.257  0.00  0.00     0.009 A 
ATOM     20  C   UNL d   1       4.996  -3.981   2.522  0.00  0.00     0.015 A 
ATOM     21  C   UNL d   1       6.159  -4.294   3.234  0.00  0.00     0.001 A 
ATOM     22  C   UNL d   1       7.097  -5.170   2.695  0.00  0.00     0.000 A 
ATOM     23  C   UNL d   1       6.875  -5.733   1.441  0.00  0.00     0.001 A 
ATOM     24  C   UNL d   1       5.714  -5.420   0.729  0.00  0.00     0.015 A 
ENDBRANCH   3  19
TORSDOF 4
