REMARK  4 active torsions:
REMARK  status: ('A' for Active; 'I' for Inactive)
REMARK       I    between atoms: N_3  and  C_1 
REMARK       I    between atoms: N_10  and  C_1 
REMARK    1  A    between atoms: C_2  and  N_3 
REMARK    2  A    between atoms: C_13  and  N_10 
REMARK    3  A    between atoms: C_14  and  C_13 
REMARK    4  A    between atoms: C_15  and  C_14 
ROOT
ATOM      1  C   UNL d   1       1.017   0.142   0.028  0.00  0.00     0.320 C 
ATOM      2  N   UNL d   1       0.409  -0.680   0.953  0.00  0.00    -0.309 N 
ATOM      3  O   UNL d   1       0.458   0.764  -0.867  0.00  0.00    -0.247 OA
ATOM      4  N   UNL d   1       2.386   0.174   0.193  0.00  0.00    -0.343 N 
ATOM      5  H   UNL d   1       0.982  -0.981   1.725  0.00  0.00     0.170 HD
ATOM      6  H   UNL d   1       2.816  -0.454   0.853  0.00  0.00     0.164 HD
ENDROOT
BRANCH   2   7
ATOM      7  C   UNL d   1      -0.944  -1.093   0.962  0.00  0.00     0.039 A 
ATOM      8  C   UNL d   1      -1.852  -0.791  -0.057  0.00  0.00     0.053 A 
ATOM      9  C   UNL d   1      -3.165  -1.267   0.001  0.00  0.00     0.037 A 
ATOM     10 CL   UNL d   1      -4.265  -0.895  -1.271  0.00  0.00    -0.084 Cl
ATOM     11  C   UNL d   1      -3.594  -2.046   1.070  0.00  0.00     0.048 A 
ATOM     12  C   UNL d   1      -2.694  -2.345   2.086  0.00  0.00     0.037 A 
ATOM     13  C   UNL d   1      -1.377  -1.877   2.039  0.00  0.00     0.053 A 
ATOM     14 CL   UNL d   1      -3.207  -3.312   3.415  0.00  0.00    -0.084 Cl
ENDBRANCH   2   7
BRANCH   4  15
ATOM     15  C   UNL d   1       3.239   0.781  -0.813  0.00  0.00     0.124 C 
BRANCH  15  16
ATOM     16  C   UNL d   1       3.679   2.195  -0.441  0.00  0.00     0.019 C 
BRANCH  16  17
ATOM     17  C   UNL d   1       4.532   2.796  -1.561  0.00  0.00    -0.003 C 
ATOM     18  C   UNL d   1       5.040   4.188  -1.220  0.00  0.00     0.005 C 
ENDBRANCH  16  17
ENDBRANCH  15  16
ENDBRANCH   4  15
TORSDOF 4
