REMARK  3 active torsions:
REMARK  status: ('A' for Active; 'I' for Inactive)
REMARK    1  A    between atoms: N_2  and  S_1 
REMARK    2  A    between atoms: C_6  and  S_1 
REMARK    3  A    between atoms: C_8  and  C_3 
ROOT
ATOM      1  S   UNL d   1       1.130  -0.157  -0.011  0.00  0.00     0.269 S 
ATOM      2  O   UNL d   1       1.508   1.204  -0.320  0.00  0.00    -0.200 OA
ATOM      3  O   UNL d   1       2.129  -1.108   0.451  0.00  0.00    -0.200 OA
ENDROOT
BRANCH   1   4
ATOM      4  N   UNL d   1       0.511  -0.837  -1.458  0.00  0.00    -0.243 N 
ATOM      5  C   UNL d   1      -0.202  -0.208  -2.469  0.00  0.00     0.095 A 
ATOM      6  C   UNL d   1      -0.337  -1.163  -3.478  0.00  0.00     0.036 A 
ATOM      7  C   UNL d   1       0.216  -2.384  -3.033  0.00  0.00     0.021 A 
ATOM      8  C   UNL d   1       0.701  -2.165  -1.769  0.00  0.00     0.110 A 
BRANCH   5   9
ATOM      9  C   UNL d   1      -0.714   1.151  -2.473  0.00  0.00     0.173 C 
ATOM     10  O   UNL d   1      -0.874   1.811  -1.451  0.00  0.00    -0.291 OA
ATOM     11  C   UNL d   1      -1.205   1.708  -3.791  0.00  0.00     0.098 C 
ENDBRANCH   5   9
ENDBRANCH   1   4
BRANCH   1  12
ATOM     12  C   UNL d   1      -0.205  -0.204   1.156  0.00  0.00     0.080 A 
ATOM     13  C   UNL d   1      -0.463  -1.396   1.848  0.00  0.00     0.025 A 
ATOM     14  C   UNL d   1      -1.435  -1.420   2.850  0.00  0.00     0.002 A 
ATOM     15  C   UNL d   1      -2.147  -0.262   3.160  0.00  0.00     0.000 A 
ATOM     16  C   UNL d   1      -1.884   0.925   2.476  0.00  0.00     0.002 A 
ATOM     17  C   UNL d   1      -0.902   0.960   1.483  0.00  0.00     0.025 A 
ENDBRANCH   1  12
TORSDOF 3
