REMARK  5 active torsions:
REMARK  status: ('A' for Active; 'I' for Inactive)
REMARK    1  A    between atoms: C_3  and  S_1 
REMARK    2  A    between atoms: C_4  and  S_1 
REMARK    3  A    between atoms: S_2  and  C_5 
REMARK    4  A    between atoms: C_11  and  S_2 
REMARK    5  A    between atoms: C_5  and  C_4 
ROOT
ATOM      1  C   UNL d   1       0.943   1.110   2.480  0.00  0.00     0.161 C 
ENDROOT
BRANCH   1   2
ATOM      2  S   UNL d   1       0.251   2.407   3.468  0.00  0.00     0.176 S 
ATOM      3  O   UNL d   1       0.623   3.670   2.858  0.00  0.00    -0.223 OA
ATOM      4  O   UNL d   1      -1.144   2.084   3.698  0.00  0.00    -0.223 OA
BRANCH   2   5
ATOM      5  C   UNL d   1       1.099   2.301   5.024  0.00  0.00     0.059 A 
ATOM      6  C   UNL d   1       2.280   3.025   5.213  0.00  0.00     0.023 A 
ATOM      7  C   UNL d   1       2.900   3.017   6.463  0.00  0.00     0.002 A 
ATOM      8  C   UNL d   1       2.336   2.297   7.517  0.00  0.00     0.000 A 
ATOM      9  C   UNL d   1       1.153   1.581   7.326  0.00  0.00     0.002 A 
ATOM     10  C   UNL d   1       0.526   1.583   6.079  0.00  0.00     0.023 A 
ENDBRANCH   2   5
ENDBRANCH   1   2
BRANCH   1  11
ATOM     11  C   UNL d   1       0.372   1.195   1.076  0.00  0.00     0.161 C 
BRANCH  11  12
ATOM     12  S   UNL d   1       1.021  -0.107   0.071  0.00  0.00     0.182 S 
ATOM     13  O   UNL d   1       2.435   0.119  -0.142  0.00  0.00    -0.222 OA
ATOM     14  O   UNL d   1       0.520  -1.367   0.584  0.00  0.00    -0.222 OA
BRANCH  12  15
ATOM     15  C   UNL d   1       0.241   0.082  -1.516  0.00  0.00     0.099 A 
ATOM     16  S   UNL d   1       0.478   1.575  -2.319  0.00  0.00    -0.090 SA
ATOM     17  C   UNL d   1      -0.462   1.080  -3.660  0.00  0.00     0.051 A 
ATOM     18  C   UNL d   1      -0.942  -0.201  -3.509  0.00  0.00     0.009 A 
ATOM     19  C   UNL d   1      -0.535  -0.778  -2.270  0.00  0.00     0.031 A 
ENDBRANCH  12  15
ENDBRANCH  11  12
ENDBRANCH   1  11
TORSDOF 5
