REMARK  5 active torsions:
REMARK  status: ('A' for Active; 'I' for Inactive)
REMARK    1  A    between atoms: C_2  and  C_1 
REMARK       I    between atoms: N_5  and  C_2 
REMARK    2  A    between atoms: C_3  and  O_9 
REMARK       I    between atoms: C_4  and  N_6 
REMARK    3  A    between atoms: C_7  and  C_4 
REMARK    4  A    between atoms: N_6  and  N_5 
REMARK    5  A    between atoms: O_9  and  C_17 
ROOT
ATOM      1  C   UNL d   1      -1.965  -5.102  -0.014  0.00  0.00     0.270 C 
ATOM      2  N   UNL d   1      -1.298  -3.921   0.230  0.00  0.00    -0.263 N 
ATOM      3  O   UNL d   1      -3.159  -5.152  -0.303  0.00  0.00    -0.266 OA
ATOM      4  H   UNL d   1      -0.367  -3.856   0.635  0.00  0.00     0.190 HD
ENDROOT
BRANCH   1   5
ATOM      5  C   UNL d   1      -1.169  -6.353   0.099  0.00  0.00     0.033 A 
ATOM      6  C   UNL d   1      -1.816  -7.529   0.496  0.00  0.00     0.020 A 
ATOM      7  C   UNL d   1      -1.119  -8.744   0.543  0.00  0.00     0.038 A 
ATOM      8  C   UNL d   1       0.218  -8.796   0.147  0.00  0.00     0.078 A 
ATOM      9  C   UNL d   1       0.868  -7.610  -0.216  0.00  0.00     0.038 A 
ATOM     10  C   UNL d   1       0.183  -6.392  -0.248  0.00  0.00     0.020 A 
BRANCH   8  11
ATOM     11  O   UNL d   1       1.002  -9.905   0.071  0.00  0.00    -0.255 OA
BRANCH  11  12
ATOM     12  C   UNL d   1       0.398 -11.184  -0.045  0.00  0.00     0.530 C 
ATOM     13  F   UNL d   1      -0.829 -11.150  -0.607  0.00  0.00    -0.144 F 
ATOM     14  F   UNL d   1       1.185 -11.955  -0.830  0.00  0.00    -0.144 F 
ATOM     15  F   UNL d   1       0.316 -11.764   1.170  0.00  0.00    -0.144 F 
ENDBRANCH  11  12
ENDBRANCH   8  11
ENDBRANCH   1   5
BRANCH   2  16
ATOM     16  N   UNL d   1      -2.028  -2.731   0.154  0.00  0.00    -0.263 N 
ATOM     17  C   UNL d   1      -1.405  -1.542   0.466  0.00  0.00     0.273 C 
ATOM     18  O   UNL d   1      -0.235  -1.495   0.838  0.00  0.00    -0.266 OA
ATOM     19  H   UNL d   1      -2.995  -2.808  -0.163  0.00  0.00     0.190 HD
BRANCH  17  20
ATOM     20  C   UNL d   1      -2.212  -0.295   0.337  0.00  0.00     0.072 A 
ATOM     21  C   UNL d   1      -3.555  -0.300  -0.042  0.00  0.00     0.132 A 
ATOM     22  F   UNL d   1      -4.194  -1.448  -0.317  0.00  0.00    -0.205 F 
ATOM     23  C   UNL d   1      -4.277   0.887  -0.147  0.00  0.00     0.043 A 
ATOM     24  C   UNL d   1      -3.657   2.105   0.127  0.00  0.00     0.003 A 
ATOM     25  C   UNL d   1      -2.315   2.129   0.504  0.00  0.00     0.001 A 
ATOM     26  C   UNL d   1      -1.593   0.934   0.609  0.00  0.00     0.020 A 
ENDBRANCH  17  20
ENDBRANCH   2  16
TORSDOF 5
