REMARK  4 active torsions:
REMARK  status: ('A' for Active; 'I' for Inactive)
REMARK    1  A    between atoms: C_2  and  C_1 
REMARK       I    between atoms: N_3  and  C_1 
REMARK       I    between atoms: C_5  and  N_3 
REMARK    2  A    between atoms: C_4  and  N_7 
REMARK       I    between atoms: N_7  and  C_5 
REMARK    3  A    between atoms: O_21  and  C_6 
REMARK    4  A    between atoms: O_24  and  C_12 
ROOT
ATOM      1  C   UNL d   1       0.889   0.764  -0.063  0.00  0.00     0.244 C 
ATOM      2  N   UNL d   1       0.230   1.977  -0.161  0.00  0.00    -0.175 NA
ATOM      3  C   UNL d   1       0.861   3.080  -0.651  0.00  0.00     0.305 C 
ATOM      4  N   UNL d   1       1.204   3.023  -1.975  0.00  0.00    -0.310 N 
ATOM      5  O   UNL d   1       1.618   0.281  -0.920  0.00  0.00    -0.273 OA
ATOM      6  O   UNL d   1       1.028   4.041   0.097  0.00  0.00    -0.253 OA
ATOM      7  H   UNL d   1      -0.224   2.240   0.702  0.00  0.00     0.141 HD
ATOM      8  H   UNL d   1       1.600   2.126  -2.252  0.00  0.00     0.170 HD
ENDROOT
BRANCH   1   9
ATOM      9  C   UNL d   1       0.497   0.026   1.169  0.00  0.00     0.094 A 
ATOM     10  C   UNL d   1       1.012   0.436   2.411  0.00  0.00     0.103 A 
ATOM     11  C   UNL d   1       0.457  -0.100   3.582  0.00  0.00     0.045 A 
ATOM     12 BR   UNL d   1       1.116   0.292   5.319  0.00  0.00    -0.048 Br
ATOM     13  C   UNL d   1      -0.621  -0.988   3.506  0.00  0.00     0.025 A 
ATOM     14  C   UNL d   1      -1.109  -1.405   2.266  0.00  0.00     0.039 A 
ATOM     15  C   UNL d   1      -0.523  -0.933   1.089  0.00  0.00     0.086 A 
BRANCH  10  16
ATOM     16  O   UNL d   1       2.121   1.240   2.411  0.00  0.00    -0.353 OA
ATOM     17  C   UNL d   1       1.890   2.564   2.891  0.00  0.00     0.210 C 
ENDBRANCH  10  16
BRANCH  15  18
ATOM     18  O   UNL d   1      -0.992  -1.313  -0.139  0.00  0.00    -0.355 OA
ATOM     19  C   UNL d   1      -1.127  -2.725  -0.301  0.00  0.00     0.210 C 
ENDBRANCH  15  18
ENDBRANCH   1   9
BRANCH   4  20
ATOM     20  C   UNL d   1       1.582   4.172  -2.722  0.00  0.00     0.079 A 
ATOM     21  C   UNL d   1       0.930   5.421  -2.611  0.00  0.00     0.064 A 
ATOM     22  C   UNL d   1       1.405   6.540  -3.305  0.00  0.00     0.050 A 
ATOM     23 CL   UNL d   1      -0.586   5.640  -1.794  0.00  0.00    -0.082 Cl
ATOM     24  C   UNL d   1       2.495   6.418  -4.155  0.00  0.00     0.037 A 
ATOM     25  C   UNL d   1       3.099   5.179  -4.350  0.00  0.00     0.050 A 
ATOM     26 CL   UNL d   1       3.075   7.795  -5.005  0.00  0.00    -0.084 Cl
ATOM     27  C   UNL d   1       2.638   4.063  -3.644  0.00  0.00     0.064 A 
ATOM     28 CL   UNL d   1       3.428   2.549  -3.925  0.00  0.00    -0.082 Cl
ENDBRANCH   4  20
TORSDOF 4
