REMARK  6 active torsions:
REMARK  status: ('A' for Active; 'I' for Inactive)
REMARK    1  A    between atoms: C_5  and  S_1 
REMARK    2  A    between atoms: N_10  and  S_1 
REMARK    3  A    between atoms: S_2  and  C_5 
REMARK    4  A    between atoms: N_11  and  S_2 
REMARK    5  A    between atoms: C_3  and  N_10 
REMARK    6  A    between atoms: C_4  and  N_11 
ROOT
ATOM      1  C   UNL d   1       0.584  -0.978  -1.364  0.00  0.00     0.315 C 
ENDROOT
BRANCH   1   2
ATOM      2  S   UNL d   1       1.023  -0.125  -2.857  0.00  0.00     0.230 S 
ATOM      3  O   UNL d   1       0.267   1.105  -2.965  0.00  0.00    -0.210 OA
ATOM      4  O   UNL d   1       2.459  -0.120  -3.041  0.00  0.00    -0.210 OA
BRANCH   2   5
ATOM      5  N   UNL d   1       0.406  -1.090  -4.108  0.00  0.00    -0.164 NA
ATOM      6  H   UNL d   1       0.654  -0.595  -4.966  0.00  0.00     0.148 HD
BRANCH   5   7
ATOM      7  C   UNL d   1       0.982  -2.383  -4.117  0.00  0.00     0.138 A 
ATOM      8  N   UNL d   1       0.421  -3.350  -3.439  0.00  0.00    -0.339 N 
ATOM      9  C   UNL d   1       1.100  -4.532  -3.691  0.00  0.00     0.051 A 
ATOM     10  HN  UNL d   1      -0.386  -3.250  -2.824  1.00  0.00     0.167 HD
ATOM     11  C   UNL d   1       0.754  -5.808  -3.202  0.00  0.00     0.032 A 
ATOM     12  C   UNL d   1       2.230  -4.410  -4.505  0.00  0.00     0.036 A 
ATOM     13  C   UNL d   1       1.568  -6.909  -3.497  0.00  0.00     0.026 A 
ATOM     14  C   UNL d   1       2.722  -6.743  -4.256  0.00  0.00     0.035 A 
ATOM     15  C   UNL d   1       3.075  -5.498  -4.780  0.00  0.00     0.045 A 
ATOM     16 CL   UNL d   1       3.732  -8.102  -4.570  0.00  0.00    -0.084 Cl
ATOM     17  S   UNL d   1       2.327  -2.788  -5.078  0.00  0.00    -0.057 SA
ENDBRANCH   5   7
ENDBRANCH   2   5
ENDBRANCH   1   2
BRANCH   1  18
ATOM     18  S   UNL d   1       1.088   0.053  -0.008  0.00  0.00     0.230 S 
ATOM     19  O   UNL d   1       0.236   1.221   0.092  0.00  0.00    -0.210 OA
ATOM     20  O   UNL d   1       2.527   0.198  -0.002  0.00  0.00    -0.210 OA
BRANCH  18  21
ATOM     21  N   UNL d   1       0.766  -0.863   1.381  0.00  0.00    -0.164 NA
ATOM     22  H   UNL d   1       1.069  -0.285   2.166  0.00  0.00     0.148 HD
BRANCH  21  23
ATOM     23  C   UNL d   1      -0.608  -1.178   1.510  0.00  0.00     0.138 A 
ATOM     24  N   UNL d   1      -1.097  -2.226   0.902  0.00  0.00    -0.339 N 
ATOM     25  C   UNL d   1      -2.418  -2.396   1.286  0.00  0.00     0.051 A 
ATOM     26  HN  UNL d   1      -0.589  -2.823   0.250  1.00  0.00     0.167 HD
ATOM     27  C   UNL d   1      -3.260  -3.461   0.907  0.00  0.00     0.032 A 
ATOM     28  C   UNL d   1      -2.928  -1.404   2.130  0.00  0.00     0.036 A 
ATOM     29  C   UNL d   1      -4.588  -3.488   1.351  0.00  0.00     0.026 A 
ATOM     30  C   UNL d   1      -5.082  -2.459   2.146  0.00  0.00     0.035 A 
ATOM     31  C   UNL d   1      -4.268  -1.398   2.551  0.00  0.00     0.045 A 
ATOM     32 CL   UNL d   1      -6.726  -2.499   2.658  0.00  0.00    -0.084 Cl
ATOM     33  S   UNL d   1      -1.656  -0.316   2.537  0.00  0.00    -0.057 SA
ENDBRANCH  21  23
ENDBRANCH  18  21
ENDBRANCH   1  18
TORSDOF 6
