REMARK  9 active torsions:
REMARK  status: ('A' for Active; 'I' for Inactive)
REMARK    1  A    between atoms: S_14  and  C_2 
REMARK    2  A    between atoms: C_25  and  C_7 
REMARK    3  A    between atoms: C_16  and  C_10 
REMARK    4  A    between atoms: C_11  and  C_30 
REMARK    5  A    between atoms: C_19  and  S_14 
REMARK    6  A    between atoms: C_15  and  C_19 
REMARK       I    between atoms: N_17  and  C_15 
REMARK    7  A    between atoms: C_24  and  N_17 
REMARK    8  A    between atoms: S_22  and  C_25 
REMARK    9  A    between atoms: C_30  and  S_22 
ROOT
ATOM      1  N   UNL d   1       0.951  -0.055  -0.109  0.00  0.00    -0.319 N 
ATOM      2  C   UNL d   1       0.165   1.029  -0.387  0.00  0.00     0.162 C 
ATOM      3  N   UNL d   1      -1.078   0.751  -0.074  0.00  0.00    -0.278 N 
ATOM      4  HN  UNL d   1      -1.854   1.412  -0.052  1.00  0.00     0.189 HD
ATOM      5  N   UNL d   1      -1.148  -0.582   0.215  0.00  0.00    -0.286 N 
ATOM      6  HN  UNL d   1      -1.994  -1.098   0.458  1.00  0.00     0.188 HD
ATOM      7  C   UNL d   1       0.072  -1.088   0.127  0.00  0.00     0.109 C 
ATOM      8  C   UNL d   1       2.389  -0.114  -0.050  0.00  0.00     0.159 C 
ENDROOT
BRANCH   7   9
ATOM      9  C   UNL d   1       0.433  -2.530   0.174  0.00  0.00     0.152 C 
BRANCH   9  10
ATOM     10  S   UNL d   1       0.750  -3.128   1.856  0.00  0.00    -0.155 SA
BRANCH  10  11
ATOM     11  C   UNL d   1      -0.925  -2.987   2.572  0.00  0.00     0.139 C 
BRANCH  11  12
ATOM     12  C   UNL d   1      -1.976  -3.798   1.871  0.00  0.00     0.060 A 
ATOM     13  N   UNL d   1      -1.900  -5.088   1.607  0.00  0.00    -0.352 N 
ATOM     14  C   UNL d   1      -3.083  -5.538   1.031  0.00  0.00     0.049 A 
ATOM     15  HN  UNL d   1      -1.087  -5.674   1.799  1.00  0.00     0.166 HD
ATOM     16  C   UNL d   1      -4.031  -4.554   0.829  0.00  0.00     0.081 A 
ATOM     17  S   UNL d   1      -3.456  -3.049   1.404  0.00  0.00    -0.086 SA
BRANCH  14  18
ATOM     18  C   UNL d   1      -3.265  -6.942   0.667  0.00  0.00    -0.009 A 
ATOM     19  C   UNL d   1      -4.539  -7.526   0.574  0.00  0.00     0.015 A 
ATOM     20  C   UNL d   1      -4.682  -8.873   0.221  0.00  0.00     0.024 A 
ATOM     21  C   UNL d   1      -3.554  -9.646  -0.038  0.00  0.00     0.034 A 
ATOM     22  C   UNL d   1      -2.282  -9.087   0.058  0.00  0.00     0.024 A 
ATOM     23 CL   UNL d   1      -3.732 -11.301  -0.474  0.00  0.00    -0.084 Cl
ATOM     24  C   UNL d   1      -2.140  -7.742   0.414  0.00  0.00     0.015 A 
ENDBRANCH  14  18
ENDBRANCH  11  12
ENDBRANCH  10  11
ENDBRANCH   9  10
ENDBRANCH   7   9
BRANCH   2  25
ATOM     25  S   UNL d   1       0.730   2.456  -1.175  0.00  0.00    -0.083 SA
BRANCH  25  26
ATOM     26  C   UNL d   1      -0.787   3.441  -1.331  0.00  0.00     0.185 C 
BRANCH  26  27
ATOM     27  C   UNL d   1      -1.694   2.966  -2.462  0.00  0.00     0.231 C 
ATOM     28  N   UNL d   1      -2.403   1.815  -2.172  0.00  0.00    -0.327 N 
ATOM     29  H   UNL d   1      -2.257   1.414  -1.245  0.00  0.00     0.169 HD
ATOM     30  O   UNL d   1      -1.803   3.631  -3.493  0.00  0.00    -0.272 OA
BRANCH  28  31
ATOM     31  C   UNL d   1      -3.303   1.118  -2.995  0.00  0.00     0.034 A 
ATOM     32  C   UNL d   1      -3.462   1.365  -4.360  0.00  0.00     0.031 A 
ATOM     33  C   UNL d   1      -4.385   0.625  -5.108  0.00  0.00     0.026 A 
ATOM     34  C   UNL d   1      -5.160  -0.352  -4.489  0.00  0.00     0.034 A 
ATOM     35  C   UNL d   1      -5.005  -0.614  -3.131  0.00  0.00     0.026 A 
ATOM     36 CL   UNL d   1      -6.311  -1.242  -5.406  0.00  0.00    -0.084 Cl
ATOM     37  C   UNL d   1      -4.066   0.109  -2.390  0.00  0.00     0.031 A 
ENDBRANCH  28  31
ENDBRANCH  26  27
ENDBRANCH  25  26
ENDBRANCH   2  25
TORSDOF 9
