REMARK  4 active torsions:
REMARK  status: ('A' for Active; 'I' for Inactive)
REMARK    1  A    between atoms: N_5  and  C_1 
REMARK    2  A    between atoms: C_4  and  C_8 
REMARK       I    between atoms: C_6  and  N_9 
REMARK    3  A    between atoms: C_7  and  C_6 
REMARK    4  A    between atoms: N_9  and  C_22 
ROOT
ATOM      1  N   UNL d   1       0.223   2.663   0.264  0.00  0.00    -0.254 NA
ATOM      2  C   UNL d   1      -0.531   3.324   1.323  0.00  0.00     0.100 C 
ATOM      3  C   UNL d   1       0.211   3.342  -1.033  0.00  0.00     0.100 C 
ATOM      4  C   UNL d   1       0.039   5.541   0.188  0.00  0.00     0.087 C 
ATOM      5  C   UNL d   1       0.807   4.733  -0.865  0.00  0.00     0.040 C 
ATOM      6  C   UNL d   1      -0.004   4.754   1.509  0.00  0.00     0.040 C 
ENDROOT
BRANCH   1   7
ATOM      7  C   UNL d   1       0.050   1.287   0.146  0.00  0.00     0.159 A 
ATOM      8  N   UNL d   1       0.774   0.657  -0.792  0.00  0.00    -0.329 N 
ATOM      9  C   UNL d   1       0.678  -0.688  -0.911  0.00  0.00     0.120 A 
ATOM     10  HN  UNL d   1       1.389   1.187  -1.409  1.00  0.00     0.168 HD
ATOM     11  C   UNL d   1      -0.168  -1.422  -0.109  0.00  0.00     0.051 A 
ATOM     12  C   UNL d   1      -0.878  -0.705   0.822  0.00  0.00     0.093 A 
ATOM     13  N   UNL d   1      -0.776   0.630   0.972  0.00  0.00    -0.343 N 
ATOM     14  HN  UNL d   1      -1.308   1.123   1.689  1.00  0.00     0.167 HD
BRANCH   9  15
ATOM     15  C   UNL d   1       1.531  -1.393  -1.948  0.00  0.00     0.432 C 
ATOM     16  F   UNL d   1       2.354  -0.569  -2.659  0.00  0.00    -0.165 F 
ATOM     17  F   UNL d   1       2.344  -2.341  -1.395  0.00  0.00    -0.165 F 
ATOM     18  F   UNL d   1       0.780  -2.055  -2.875  0.00  0.00    -0.165 F 
ENDBRANCH   9  15
ENDBRANCH   1   7
BRANCH   4  19
ATOM     19  N   UNL d   1      -1.312   5.904  -0.232  0.00  0.00    -0.352 N 
ATOM     20  C   UNL d   1      -1.608   6.674  -1.339  0.00  0.00     0.258 C 
ATOM     21  O   UNL d   1      -0.742   7.065  -2.114  0.00  0.00    -0.267 OA
ATOM     22  H   UNL d   1      -2.073   5.775   0.424  0.00  0.00     0.163 HD
BRANCH  20  23
ATOM     23  C   UNL d   1      -3.022   6.989  -1.513  0.00  0.00     0.072 A 
ATOM     24  S   UNL d   1      -4.218   6.487  -0.388  0.00  0.00    -0.097 SA
ATOM     25  C   UNL d   1      -5.469   7.244  -1.270  0.00  0.00     0.050 A 
ATOM     26  C   UNL d   1      -4.999   7.857  -2.408  0.00  0.00     0.009 A 
ATOM     27  C   UNL d   1      -3.590   7.702  -2.554  0.00  0.00     0.025 A 
ENDBRANCH  20  23
ENDBRANCH   4  19
TORSDOF 4
