REMARK  6 active torsions:
REMARK  status: ('A' for Active; 'I' for Inactive)
REMARK    1  A    between atoms: C_7  and  C_1 
REMARK    2  A    between atoms: C_10  and  C_2 
REMARK    3  A    between atoms: N_3  and  C_6 
REMARK    4  A    between atoms: C_8  and  C_22 
REMARK    5  A    between atoms: O_19  and  C_10 
REMARK    6  A    between atoms: C_22  and  O_19 
ROOT
ATOM      1  C   UNL d   1       0.309  -4.129   0.672  0.00  0.00     0.298 C 
ATOM      2  O   UNL d   1      -0.292  -4.400   1.704  0.00  0.00    -0.259 OA
ENDROOT
BRANCH   1   3
ATOM      3  C   UNL d   1       1.736  -3.949   0.672  0.00  0.00     0.100 A 
ATOM      4  C   UNL d   1       2.574  -2.776   0.633  0.00  0.00     0.087 A 
ATOM      5  N   UNL d   1       3.842  -3.152   0.890  0.00  0.00    -0.259 N 
ATOM      6  O   UNL d   1       3.864  -4.507   1.028  0.00  0.00    -0.241 OA
ATOM      7  HN  UNL d   1       4.647  -2.529   0.969  1.00  0.00     0.195 HD
ATOM      8  C   UNL d   1       2.608  -4.991   0.930  0.00  0.00     0.091 A 
ATOM      9  C   UNL d   1       2.479  -6.441   1.170  0.00  0.00     0.080 C 
BRANCH   4  10
ATOM     10  C   UNL d   1       2.309  -1.322   0.455  0.00  0.00     0.037 A 
ATOM     11  C   UNL d   1       1.163  -0.664   0.951  0.00  0.00     0.048 A 
ATOM     12 CL   UNL d   1      -0.088  -1.403   1.880  0.00  0.00    -0.083 Cl
ATOM     13  C   UNL d   1       0.983   0.726   0.807  0.00  0.00     0.025 A 
ATOM     14  C   UNL d   1       1.967   1.519   0.242  0.00  0.00     0.003 A 
ATOM     15  C   UNL d   1       3.121   0.917  -0.226  0.00  0.00     0.025 A 
ATOM     16  C   UNL d   1       3.282  -0.480  -0.159  0.00  0.00     0.048 A 
ATOM     17 CL   UNL d   1       4.742  -1.046  -0.918  0.00  0.00    -0.083 Cl
ENDBRANCH   4  10
ENDBRANCH   1   3
BRANCH   1  18
ATOM     18  O   UNL d   1      -0.300  -3.989  -0.551  0.00  0.00    -0.312 OA
BRANCH  18  19
ATOM     19  C   UNL d   1      -1.747  -3.908  -0.506  0.00  0.00     0.227 C 
BRANCH  19  20
ATOM     20  C   UNL d   1      -2.424  -5.256  -0.652  0.00  0.00     0.034 A 
ATOM     21  C   UNL d   1      -3.553  -5.629  -1.384  0.00  0.00     0.055 A 
ATOM     22  C   UNL d   1      -3.843  -7.030  -1.258  0.00  0.00     0.038 A 
ATOM     23  C   UNL d   1      -2.996  -7.671  -0.391  0.00  0.00     0.052 A 
ATOM     24  S   UNL d   1      -1.823  -6.617   0.229  0.00  0.00    -0.102 SA
BRANCH  21  25
ATOM     25  N   UNL d   1      -4.413  -4.783  -2.172  0.00  0.00    -0.319 N 
ATOM     26  C   UNL d   1      -4.915  -5.100  -3.437  0.00  0.00     0.013 A 
ATOM     27  C   UNL d   1      -5.826  -4.131  -3.808  0.00  0.00     0.027 A 
ATOM     28  C   UNL d   1      -4.487  -6.268  -4.262  0.00  0.00     0.068 C 
ATOM     29  C   UNL d   1      -5.887  -3.187  -2.773  0.00  0.00     0.027 A 
ATOM     30  C   UNL d   1      -5.034  -3.602  -1.764  0.00  0.00     0.013 A 
ATOM     31  C   UNL d   1      -4.929  -2.981  -0.415  0.00  0.00     0.068 C 
ENDBRANCH  21  25
ENDBRANCH  19  20
ENDBRANCH  18  19
ENDBRANCH   1  18
TORSDOF 6
