REMARK  6 active torsions:
REMARK  status: ('A' for Active; 'I' for Inactive)
REMARK    1  A    between atoms: C_6  and  C_2 
REMARK    2  A    between atoms: C_7  and  C_3 
REMARK    3  A    between atoms: O_11  and  C_6 
REMARK    4  A    between atoms: C_14  and  O_11 
REMARK    5  A    between atoms: C_15  and  C_14 
REMARK    6  A    between atoms: C_16  and  C_15 
ROOT
ATOM      1  S   UNL d   1      -0.977   0.072   0.109  0.00  0.00    -0.082 SA
ATOM      2  C   UNL d   1       0.225   1.287  -0.014  0.00  0.00     0.081 A 
ATOM      3  C   UNL d   1       0.180  -1.196   0.161  0.00  0.00     0.032 A 
ATOM      4  C   UNL d   1       1.492   0.737   0.048  0.00  0.00     0.026 A 
ATOM      5  C   UNL d   1       1.464  -0.683   0.115  0.00  0.00     0.023 A 
ENDROOT
BRANCH   2   6
ATOM      6  C   UNL d   1      -0.154   2.667  -0.239  0.00  0.00     0.300 C 
ATOM      7  O   UNL d   1      -1.288   3.102  -0.410  0.00  0.00    -0.259 OA
BRANCH   6   8
ATOM      8  O   UNL d   1       0.977   3.421  -0.362  0.00  0.00    -0.317 OA
BRANCH   8   9
ATOM      9  C   UNL d   1       0.902   4.479  -1.321  0.00  0.00     0.179 C 
BRANCH   9  10
ATOM     10  C   UNL d   1       0.894   5.853  -0.664  0.00  0.00     0.026 C 
BRANCH  10  11
ATOM     11  C   UNL d   1       0.997   6.929  -1.745  0.00  0.00    -0.002 C 
ATOM     12  C   UNL d   1       0.993   8.336  -1.178  0.00  0.00     0.005 C 
ENDBRANCH  10  11
ENDBRANCH   9  10
ENDBRANCH   8   9
ENDBRANCH   6   8
ENDBRANCH   2   6
BRANCH   3  13
ATOM     13  C   UNL d   1      -0.214  -2.610   0.211  0.00  0.00     0.049 A 
ATOM     14  N   UNL d   1       0.689  -3.451  -0.355  0.00  0.00    -0.365 N 
ATOM     15  C   UNL d   1       0.413  -4.773  -0.326  0.00  0.00     0.088 A 
ATOM     16  HN  UNL d   1       1.543  -3.098  -0.787  1.00  0.00     0.165 HD
ATOM     17  C   UNL d   1      -0.720  -5.309   0.260  0.00  0.00     0.017 A 
ATOM     18  C   UNL d   1      -1.631  -4.437   0.843  0.00  0.00     0.004 A 
ATOM     19  C   UNL d   1      -1.381  -3.067   0.818  0.00  0.00     0.031 A 
ENDBRANCH   3  13
TORSDOF 6
