REMARK  5 active torsions:
REMARK  status: ('A' for Active; 'I' for Inactive)
REMARK    1  A    between atoms: C_4  and  C_1 
REMARK    2  A    between atoms: N_15  and  C_4 
REMARK    3  A    between atoms: C_6  and  C_9 
REMARK    4  A    between atoms: O_12  and  N_7 
REMARK    5  A    between atoms: C_9  and  O_12 
ROOT
ATOM      1  C   UNL d   1      -2.689  -1.420  -0.001  0.00  0.00     0.127 C 
ATOM      2  N   UNL d   1      -3.881  -0.950  -0.182  0.00  0.00    -0.244 N 
ATOM      3  HN  UNL d   1      -4.701  -1.518  -0.392  1.00  0.00     0.196 HD
ENDROOT
BRANCH   2   4
ATOM      4  O   UNL d   1      -3.891   0.460  -0.048  0.00  0.00    -0.193 OA
BRANCH   4   5
ATOM      5  C   UNL d   1      -5.123   0.947  -0.370  0.00  0.00     0.316 C 
ATOM      6  O   UNL d   1      -6.098   0.306  -0.746  0.00  0.00    -0.257 OA
BRANCH   5   7
ATOM      7  C   UNL d   1      -5.219   2.408  -0.111  0.00  0.00     0.063 A 
ATOM      8  C   UNL d   1      -4.190   3.338  -0.309  0.00  0.00     0.050 A 
ATOM      9 CL   UNL d   1      -2.626   2.922  -0.921  0.00  0.00    -0.083 Cl
ATOM     10  C   UNL d   1      -4.421   4.700  -0.058  0.00  0.00     0.025 A 
ATOM     11  C   UNL d   1      -5.673   5.143   0.374  0.00  0.00     0.002 A 
ATOM     12  C   UNL d   1      -6.704   4.229   0.559  0.00  0.00     0.001 A 
ATOM     13  C   UNL d   1      -6.478   2.873   0.318  0.00  0.00     0.019 A 
ENDBRANCH   5   7
ENDBRANCH   4   5
ENDBRANCH   2   4
BRANCH   1  14
ATOM     14  C   UNL d   1      -2.484  -2.871  -0.067  0.00  0.00     0.097 A 
ATOM     15  N   UNL d   1      -1.258  -3.409   0.087  0.00  0.00    -0.258 N 
ATOM     16  O   UNL d   1      -1.423  -4.778  -0.005  0.00  0.00    -0.242 OA
ATOM     17  HN  UNL d   1      -0.384  -2.907   0.240  1.00  0.00     0.195 HD
ATOM     18  C   UNL d   1      -2.733  -5.065  -0.231  0.00  0.00     0.074 A 
ATOM     19  C   UNL d   1      -3.445  -3.893  -0.292  0.00  0.00     0.069 A 
ATOM     20  C   UNL d   1      -3.075  -6.495  -0.349  0.00  0.00     0.079 C 
ENDBRANCH   1  14
BRANCH   1  21
ATOM     21  N   UNL d   1      -1.541  -0.710   0.238  0.00  0.00    -0.285 NA
ATOM     22  H   UNL d   1      -0.684  -1.210   0.013  0.00  0.00     0.125 HD
ATOM     23  H   UNL d   1      -1.568   0.247  -0.092  0.00  0.00     0.125 HD
ENDBRANCH   1  21
TORSDOF 5
