REMARK  4 active torsions:
REMARK  status: ('A' for Active; 'I' for Inactive)
REMARK    1  A    between atoms: C_10  and  N_3 
REMARK    2  A    between atoms: O_8  and  C_4 
REMARK    3  A    between atoms: C_16  and  O_8 
REMARK    4  A    between atoms: C_11  and  C_12 
ROOT
ATOM      1  C   UNL d   1      -0.491   0.947  -1.569  0.00  0.00     0.291 C 
ATOM      2  C   UNL d   1      -1.209  -0.056  -0.721  0.00  0.00     0.139 C 
ATOM      3  N   UNL d   1       0.775   0.565  -2.033  0.00  0.00    -0.220 N 
ATOM      4  C   UNL d   1      -0.807  -1.337  -0.680  0.00  0.00     0.120 C 
ATOM      5  N   UNL d   1       1.269  -0.715  -1.870  0.00  0.00    -0.299 N 
ATOM      6  HN  UNL d   1       2.191  -0.973  -2.222  1.00  0.00     0.186 HD
ATOM      7  C   UNL d   1       0.525  -1.572  -1.258  0.00  0.00     0.146 C 
ATOM      8  O   UNL d   1      -1.066   2.003  -1.835  0.00  0.00    -0.264 OA
ATOM      9 CL   UNL d   1      -2.581   0.566   0.142  0.00  0.00    -0.075 Cl
ENDROOT
BRANCH   4  10
ATOM     10  O   UNL d   1      -1.395  -2.424  -0.055  0.00  0.00    -0.307 OA
BRANCH  10  11
ATOM     11  C   UNL d   1      -2.764  -2.552  -0.067  0.00  0.00     0.076 C 
ATOM     12  C   UNL d   1      -3.549  -2.285  -1.186  0.00  0.00     0.038 C 
ATOM     13  C   UNL d   1      -4.938  -2.214  -1.050  0.00  0.00     0.011 C 
ATOM     14  C   UNL d   1      -5.570  -2.455   0.188  0.00  0.00    -0.050 C 
ATOM     15  C   UNL d   1      -4.757  -2.873   1.256  0.00  0.00     0.011 C 
ATOM     16  C   UNL d   1      -3.365  -2.920   1.131  0.00  0.00     0.038 C 
BRANCH  14  17
ATOM     17  C   UNL d   1      -7.072  -2.171   0.357  0.00  0.00    -0.024 C 
ATOM     18  C   UNL d   1      -7.620  -2.530   1.756  0.00  0.00     0.019 C 
ATOM     19  C   UNL d   1      -7.314  -0.659   0.149  0.00  0.00     0.019 C 
ATOM     20  C   UNL d   1      -7.899  -2.962  -0.677  0.00  0.00     0.019 C 
ENDBRANCH  14  17
ENDBRANCH  10  11
ENDBRANCH   4  10
BRANCH   3  21
ATOM     21  C   UNL d   1       1.641   1.444  -2.776  0.00  0.00     0.060 A 
ATOM     22  C   UNL d   1       1.433   2.829  -2.838  0.00  0.00     0.031 A 
ATOM     23  C   UNL d   1       2.254   3.663  -3.601  0.00  0.00     0.002 A 
ATOM     24  C   UNL d   1       3.318   3.128  -4.313  0.00  0.00     0.000 A 
ATOM     25  C   UNL d   1       3.572   1.761  -4.247  0.00  0.00     0.002 A 
ATOM     26  C   UNL d   1       2.748   0.932  -3.478  0.00  0.00     0.031 A 
ENDBRANCH   3  21
TORSDOF 4
