REMARK  6 active torsions:
REMARK  status: ('A' for Active; 'I' for Inactive)
REMARK    1  A    between atoms: C_5  and  C_1 
REMARK    2  A    between atoms: N_6  and  C_2 
REMARK       I    between atoms: C_7  and  N_6 
REMARK       I    between atoms: N_10  and  C_7 
REMARK    3  A    between atoms: C_8  and  C_14 
REMARK    4  A    between atoms: C_9  and  C_13 
REMARK    5  A    between atoms: C_13  and  N_10 
REMARK    6  A    between atoms: C_14  and  N_10 
ROOT
ATOM      1  N   UNL d   1       0.599  -1.719  -1.532  0.00  0.00    -0.304 N 
ATOM      2  C   UNL d   1       1.476  -2.553  -0.869  0.00  0.00     0.323 C 
ATOM      3  N   UNL d   1       2.721  -1.973  -0.609  0.00  0.00    -0.325 N 
ATOM      4  O   UNL d   1       1.232  -3.725  -0.598  0.00  0.00    -0.247 OA
ATOM      5  H   UNL d   1       1.071  -1.220  -2.274  0.00  0.00     0.171 HD
ENDROOT
BRANCH   1   6
ATOM      6  C   UNL d   1      -0.683  -2.162  -1.858  0.00  0.00     0.097 A 
ATOM      7  C   UNL d   1      -1.280  -2.215  -3.155  0.00  0.00     0.097 A 
ATOM      8  N   UNL d   1      -2.549  -2.639  -3.080  0.00  0.00    -0.258 N 
ATOM      9  O   UNL d   1      -2.773  -2.931  -1.750  0.00  0.00    -0.240 OA
ATOM     10  HN  UNL d   1      -3.214  -2.728  -3.849  1.00  0.00     0.195 HD
ATOM     11  C   UNL d   1      -1.649  -2.680  -1.024  0.00  0.00     0.101 A 
ATOM     12  C   UNL d   1      -1.739  -2.987   0.416  0.00  0.00     0.081 C 
BRANCH   7  13
ATOM     13  C   UNL d   1      -0.636  -2.011  -4.446  0.00  0.00     0.038 A 
ATOM     14  C   UNL d   1       0.323  -2.933  -4.910  0.00  0.00     0.048 A 
ATOM     15 CL   UNL d   1       0.771  -4.352  -4.021  0.00  0.00    -0.083 Cl
ATOM     16  C   UNL d   1       0.960  -2.749  -6.142  0.00  0.00     0.025 A 
ATOM     17  C   UNL d   1       0.629  -1.663  -6.944  0.00  0.00     0.003 A 
ATOM     18  C   UNL d   1      -0.336  -0.755  -6.511  0.00  0.00     0.025 A 
ATOM     19  C   UNL d   1      -0.962  -0.921  -5.268  0.00  0.00     0.048 A 
ATOM     20 CL   UNL d   1      -2.111   0.286  -4.801  0.00  0.00    -0.083 Cl
ENDBRANCH   7  13
ENDBRANCH   1   6
BRANCH   3  21
ATOM     21  C   UNL d   1       3.813  -2.876  -0.254  0.00  0.00     0.169 C 
BRANCH  21  22
ATOM     22  C   UNL d   1       4.268  -2.974   1.196  0.00  0.00     0.003 A 
ATOM     23  C   UNL d   1       3.456  -2.773   2.332  0.00  0.00     0.043 A 
ATOM     24 CL   UNL d   1       1.791  -2.316   2.291  0.00  0.00    -0.084 Cl
ATOM     25  C   UNL d   1       3.970  -2.938   3.631  0.00  0.00     0.024 A 
ATOM     26  C   UNL d   1       5.290  -3.325   3.837  0.00  0.00     0.003 A 
ATOM     27  C   UNL d   1       6.101  -3.561   2.740  0.00  0.00     0.024 A 
ATOM     28  C   UNL d   1       5.597  -3.399   1.442  0.00  0.00     0.043 A 
ATOM     29 CL   UNL d   1       6.706  -3.778   0.159  0.00  0.00    -0.084 Cl
ENDBRANCH  21  22
ENDBRANCH   3  21
BRANCH   3  30
ATOM     30  C   UNL d   1       2.921  -0.536  -0.414  0.00  0.00     0.169 C 
BRANCH  30  31
ATOM     31  C   UNL d   1       3.474   0.349  -1.518  0.00  0.00     0.003 A 
ATOM     32  C   UNL d   1       3.640   0.016  -2.874  0.00  0.00     0.043 A 
ATOM     33 CL   UNL d   1       3.326  -1.547  -3.530  0.00  0.00    -0.084 Cl
ATOM     34  C   UNL d   1       4.082   0.967  -3.811  0.00  0.00     0.024 A 
ATOM     35  C   UNL d   1       4.383   2.268  -3.429  0.00  0.00     0.003 A 
ATOM     36  C   UNL d   1       4.251   2.626  -2.098  0.00  0.00     0.024 A 
ATOM     37  C   UNL d   1       3.802   1.685  -1.159  0.00  0.00     0.043 A 
ATOM     38 CL   UNL d   1       3.657   2.264   0.471  0.00  0.00    -0.084 Cl
ENDBRANCH  30  31
ENDBRANCH   3  30
TORSDOF 6
