REMARK  4 active torsions:
REMARK  status: ('A' for Active; 'I' for Inactive)
REMARK    1  A    between atoms: S_7  and  C_1 
REMARK    2  A    between atoms: C_10  and  S_7 
REMARK    3  A    between atoms: C_8  and  C_10 
REMARK    4  A    between atoms: O_12  and  C_8 
ROOT
ATOM      1  C   UNL d   1      -1.468  -0.084  -0.074  0.00  0.00     0.007 A 
ATOM      2  C   UNL d   1       1.350   0.093  -0.113  0.00  0.00     0.040 A 
ATOM      3  C   UNL d   1      -0.814   1.163  -0.080  0.00  0.00     0.027 A 
ATOM      4  C   UNL d   1      -0.686  -1.258  -0.116  0.00  0.00    -0.044 A 
ATOM      5  C   UNL d   1       0.719  -1.151  -0.118  0.00  0.00     0.032 A 
ATOM      6  C   UNL d   1       0.592   1.267  -0.110  0.00  0.00    -0.039 A 
ATOM      7 CL   UNL d   1       3.077   0.123  -0.101  0.00  0.00    -0.084 Cl
ATOM      8  C   UNL d   1      -1.246  -2.658  -0.135  0.00  0.00     0.049 C 
ATOM      9  C   UNL d   1       1.241   2.622  -0.131  0.00  0.00     0.050 C 
ENDROOT
BRANCH   1  10
ATOM     10  S   UNL d   1      -3.248  -0.192   0.132  0.00  0.00    -0.120 SA
BRANCH  10  11
ATOM     11  C   UNL d   1      -3.901   1.234  -0.807  0.00  0.00     0.190 C 
BRANCH  11  12
ATOM     12  C   UNL d   1      -5.419   1.155  -0.874  0.00  0.00     0.268 C 
ATOM     13  O   UNL d   1      -6.084   0.133  -0.971  0.00  0.00    -0.264 OA
BRANCH  12  14
ATOM     14  O   UNL d   1      -5.950   2.416  -0.863  0.00  0.00    -0.326 OA
ATOM     15  C   UNL d   1      -7.380   2.442  -0.879  0.00  0.00     0.213 C 
ENDBRANCH  12  14
ENDBRANCH  11  12
ENDBRANCH  10  11
ENDBRANCH   1  10
TORSDOF 4
