REMARK  10 active torsions:
REMARK  status: ('A' for Active; 'I' for Inactive)
REMARK    1  A    between atoms: C_5  and  C_1 
REMARK    2  A    between atoms: N_2  and  C_7 
REMARK    3  A    between atoms: C_3  and  C_12 
REMARK    4  A    between atoms: O_11  and  C_5 
REMARK    5  A    between atoms: O_14  and  C_6 
REMARK    6  A    between atoms: N_8  and  O_11 
REMARK    7  A    between atoms: C_16  and  C_10 
REMARK    8  A    between atoms: N_27  and  C_10 
REMARK    9  A    between atoms: C_28  and  O_14 
REMARK   10  A    between atoms: O_34  and  C_29 
ROOT
ATOM      1  C   UNL d   1       1.277   1.217  -1.088  0.00  0.00     0.318 C 
ATOM      2  O   UNL d   1       0.120   1.510  -1.364  0.00  0.00    -0.257 OA
ENDROOT
BRANCH   1   3
ATOM      3  C   UNL d   1       1.641  -0.074  -0.454  0.00  0.00     0.077 C 
ATOM      4  C   UNL d   1       0.800  -1.171  -0.708  0.00  0.00     0.056 C 
ATOM      5  C   UNL d   1       1.153  -2.441  -0.234  0.00  0.00     0.104 C 
ATOM      6  C   UNL d   1       2.351  -2.637   0.464  0.00  0.00     0.039 C 
ATOM      7  C   UNL d   1       3.151  -1.534   0.767  0.00  0.00     0.041 C 
ATOM      8  C   UNL d   1       2.768  -0.250   0.362  0.00  0.00     0.092 C 
BRANCH   5   9
ATOM      9  N   UNL d   1       0.254  -3.577  -0.459  0.00  0.00    -0.116 N 
ATOM     10  O   UNL d   1      -0.923  -3.327  -0.750  0.00  0.00    -0.532 OA
ATOM     11  O   UNL d   1       0.724  -4.715  -0.325  0.00  0.00    -0.532 OA
ENDBRANCH   5   9
BRANCH   8  12
ATOM     12  O   UNL d   1       3.574   0.779   0.780  0.00  0.00    -0.310 OA
BRANCH  12  13
ATOM     13  C   UNL d   1       3.074   1.694   1.687  0.00  0.00     0.076 A 
ATOM     14  C   UNL d   1       1.821   1.648   2.312  0.00  0.00     0.040 A 
ATOM     15  C   UNL d   1       1.426   2.679   3.175  0.00  0.00     0.039 A 
ATOM     16  C   UNL d   1       2.291   3.743   3.426  0.00  0.00     0.068 A 
ATOM     17  C   UNL d   1       3.559   3.760   2.857  0.00  0.00     0.039 A 
ATOM     18  C   UNL d   1       3.945   2.748   1.979  0.00  0.00     0.040 A 
BRANCH  16  19
ATOM     19  O   UNL d   1       1.990   4.769   4.279  0.00  0.00    -0.356 OA
ATOM     20  C   UNL d   1       0.771   5.430   3.948  0.00  0.00     0.210 C 
ENDBRANCH  16  19
ENDBRANCH  12  13
ENDBRANCH   8  12
ENDBRANCH   1   3
BRANCH   1  21
ATOM     21  O   UNL d   1       2.377   1.958  -1.382  0.00  0.00    -0.193 OA
BRANCH  21  22
ATOM     22  N   UNL d   1       2.570   1.923  -2.780  0.00  0.00    -0.246 N 
ATOM     23  C   UNL d   1       3.081   3.034  -3.221  0.00  0.00     0.109 C 
ATOM     24  HN  UNL d   1       2.336   1.125  -3.371  1.00  0.00     0.196 HD
BRANCH  23  25
ATOM     25  C   UNL d   1       3.393   3.115  -4.685  0.00  0.00     0.004 A 
ATOM     26  C   UNL d   1       3.357   4.338  -5.360  0.00  0.00     0.015 A 
ATOM     27  C   UNL d   1       3.623   4.388  -6.734  0.00  0.00     0.017 A 
ATOM     28  C   UNL d   1       3.931   3.217  -7.446  0.00  0.00     0.048 A 
ATOM     29  C   UNL d   1       3.981   1.996  -6.755  0.00  0.00     0.017 A 
ATOM     30  C   UNL d   1       3.708   1.945  -5.385  0.00  0.00     0.015 A 
BRANCH  28  31
ATOM     31  C   UNL d   1       4.191   3.244  -8.934  0.00  0.00     0.417 C 
ATOM     32  F   UNL d   1       4.086   4.486  -9.484  0.00  0.00    -0.166 F 
ATOM     33  F   UNL d   1       5.439   2.800  -9.252  0.00  0.00    -0.166 F 
ATOM     34  F   UNL d   1       3.326   2.454  -9.627  0.00  0.00    -0.166 F 
ENDBRANCH  28  31
ENDBRANCH  23  25
BRANCH  23  35
ATOM     35  N   UNL d   1       3.349   4.122  -2.426  0.00  0.00    -0.286 NA
ATOM     36  H   UNL d   1       3.313   3.908  -1.435  0.00  0.00     0.125 HD
ATOM     37  H   UNL d   1       4.150   4.688  -2.683  0.00  0.00     0.125 HD
ENDBRANCH  23  35
ENDBRANCH  21  22
ENDBRANCH   1  21
TORSDOF 10
