REMARK  5 active torsions:
REMARK  status: ('A' for Active; 'I' for Inactive)
REMARK    1  A    between atoms: S_7  and  C_1 
REMARK    2  A    between atoms: C_12  and  C_4 
REMARK    3  A    between atoms: C_10  and  S_7 
REMARK    4  A    between atoms: C_8  and  C_10 
REMARK    5  A    between atoms: C_9  and  C_8 
ROOT
ATOM      1  C   UNL d   1      -1.278  -0.623  -0.124  0.00  0.00     0.041 C 
ATOM      2  S   UNL d   1      -1.102   0.954   0.591  0.00  0.00    -0.113 SA
ATOM      3  C   UNL d   1      -0.229  -1.444  -0.252  0.00  0.00     0.075 C 
ATOM      4  C   UNL d   1       0.587   1.418   0.093  0.00  0.00     0.093 C 
ATOM      5  C   UNL d   1       1.156  -1.111   0.130  0.00  0.00     0.152 C 
ATOM      6  C   UNL d   1       1.621   0.314   0.297  0.00  0.00     0.103 C 
ATOM      7  O   UNL d   1       1.947  -2.047   0.285  0.00  0.00    -0.293 OA
ENDROOT
BRANCH   1   8
ATOM      8  S   UNL d   1      -2.887  -1.056  -0.673  0.00  0.00    -0.115 SA
BRANCH   8   9
ATOM      9  C   UNL d   1      -3.028  -2.845  -0.418  0.00  0.00     0.159 C 
BRANCH   9  10
ATOM     10  C   UNL d   1      -4.269  -3.406  -1.107  0.00  0.00     0.143 C 
ATOM     11  O   UNL d   1      -4.178  -3.764  -2.289  0.00  0.00    -0.296 OA
BRANCH  10  12
ATOM     12  C   UNL d   1      -5.629  -3.481  -0.374  0.00  0.00     0.010 C 
ATOM     13  C   UNL d   1      -6.419  -2.200  -0.669  0.00  0.00     0.022 C 
ATOM     14  C   UNL d   1      -6.409  -4.689  -0.938  0.00  0.00     0.022 C 
ATOM     15  C   UNL d   1      -5.516  -3.676   1.143  0.00  0.00     0.022 C 
ENDBRANCH  10  12
ENDBRANCH   9  10
ENDBRANCH   8   9
ENDBRANCH   1   8
BRANCH   4  16
ATOM     16  C   UNL d   1       0.623   2.102  -1.268  0.00  0.00    -0.044 A 
ATOM     17  C   UNL d   1       0.556   3.508  -1.330  0.00  0.00     0.008 A 
ATOM     18  C   UNL d   1       0.580   4.180  -2.555  0.00  0.00     0.001 A 
ATOM     19  C   UNL d   1       0.669   3.454  -3.740  0.00  0.00     0.000 A 
ATOM     20  C   UNL d   1       0.735   2.059  -3.699  0.00  0.00     0.001 A 
ATOM     21  C   UNL d   1       0.711   1.391  -2.471  0.00  0.00     0.008 A 
ENDBRANCH   4  16
TORSDOF 5
