REMARK  8 active torsions:
REMARK  status: ('A' for Active; 'I' for Inactive)
REMARK    1  A    between atoms: C_6  and  C_1 
REMARK    2  A    between atoms: C_5  and  C_2 
REMARK    3  A    between atoms: O_9  and  C_5 
REMARK    4  A    between atoms: C_10  and  O_9 
REMARK    5  A    between atoms: O_23  and  C_11 
REMARK    6  A    between atoms: C_18  and  C_24 
REMARK    7  A    between atoms: C_25  and  C_19 
REMARK    8  A    between atoms: C_24  and  C_25 
ROOT
ATOM      1  C   UNL d   1       0.427  -5.014   1.311  0.00  0.00     0.303 C 
ATOM      2  O   UNL d   1       0.026  -6.175   1.358  0.00  0.00    -0.259 OA
ENDROOT
BRANCH   1   3
ATOM      3  C   UNL d   1       1.442  -4.476   2.223  0.00  0.00     0.100 A 
ATOM      4  C   UNL d   1       2.068  -5.082   3.379  0.00  0.00     0.087 A 
ATOM      5  N   UNL d   1       2.916  -4.206   3.945  0.00  0.00    -0.259 N 
ATOM      6  O   UNL d   1       2.893  -3.077   3.191  0.00  0.00    -0.241 OA
ATOM      7  HN  UNL d   1       3.473  -4.360   4.785  1.00  0.00     0.195 HD
ATOM      8  C   UNL d   1       2.001  -3.212   2.185  0.00  0.00     0.091 A 
ATOM      9  C   UNL d   1       1.860  -1.991   1.373  0.00  0.00     0.080 C 
BRANCH   4  10
ATOM     10  C   UNL d   1       1.905  -6.363   4.089  0.00  0.00     0.037 A 
ATOM     11  C   UNL d   1       3.048  -7.110   4.478  0.00  0.00     0.048 A 
ATOM     12 CL   UNL d   1       4.644  -6.787   3.871  0.00  0.00    -0.083 Cl
ATOM     13  C   UNL d   1       2.957  -8.160   5.405  0.00  0.00     0.025 A 
ATOM     14  C   UNL d   1       1.723  -8.534   5.921  0.00  0.00     0.003 A 
ATOM     15  C   UNL d   1       0.580  -7.858   5.508  0.00  0.00     0.025 A 
ATOM     16  C   UNL d   1       0.668  -6.766   4.626  0.00  0.00     0.048 A 
ATOM     17 CL   UNL d   1      -0.805  -5.891   4.375  0.00  0.00    -0.083 Cl
ENDBRANCH   4  10
ENDBRANCH   1   3
BRANCH   1  18
ATOM     18  O   UNL d   1      -0.050  -4.084   0.369  0.00  0.00    -0.272 OA
BRANCH  18  19
ATOM     19  C   UNL d   1      -1.436  -3.795   0.189  0.00  0.00     0.112 C 
ATOM     20  C   UNL d   1      -1.833  -2.963  -0.867  0.00  0.00     0.102 C 
ATOM     21  C   UNL d   1      -3.121  -2.403  -0.854  0.00  0.00     0.046 C 
ATOM     22  C   UNL d   1      -4.022  -2.650   0.194  0.00  0.00    -0.055 C 
ATOM     23  C   UNL d   1      -3.672  -3.617   1.137  0.00  0.00     0.010 C 
ATOM     24  C   UNL d   1      -2.383  -4.175   1.146  0.00  0.00     0.041 C 
BRANCH  20  25
ATOM     25  O   UNL d   1      -1.127  -2.694  -2.005  0.00  0.00    -0.353 OA
ATOM     26  C   UNL d   1       0.169  -2.155  -1.815  0.00  0.00     0.210 C 
ENDBRANCH  20  25
BRANCH  22  27
ATOM     27  C   UNL d   1      -5.290  -1.819   0.248  0.00  0.00     0.046 C 
BRANCH  27  28
ATOM     28  C   UNL d   1      -6.078  -1.831   1.562  0.00  0.00     0.082 C 
BRANCH  28  29
ATOM     29  C   UNL d   1      -7.049  -0.663   1.653  0.00  0.00     0.123 C 
ATOM     30  O   UNL d   1      -7.204   0.146   0.738  0.00  0.00    -0.298 OA
ATOM     31  C   UNL d   1      -7.811  -0.516   2.946  0.00  0.00     0.091 C 
ENDBRANCH  28  29
ENDBRANCH  27  28
ENDBRANCH  22  27
ENDBRANCH  18  19
ENDBRANCH   1  18
TORSDOF 8
