REMARK  6 active torsions:
REMARK  status: ('A' for Active; 'I' for Inactive)
REMARK    1  A    between atoms: N_2  and  C_1 
REMARK    2  A    between atoms: C_3  and  C_1 
REMARK    3  A    between atoms: C_4  and  C_1 
REMARK    4  A    between atoms: N_6  and  C_1 
REMARK       I    between atoms: C_5  and  N_2 
REMARK    5  A    between atoms: C_8  and  C_5 
REMARK    6  A    between atoms: N_7  and  N_6 
ROOT
ATOM      1  C   UNL d   1       0.891  -0.085   0.040  0.00  0.00     0.298 C 
ENDROOT
BRANCH   1   2
ATOM      2  N   UNL d   1       0.649   0.763   1.251  0.00  0.00    -0.319 N 
ATOM      3  C   UNL d   1       0.792   2.111   1.312  0.00  0.00     0.255 C 
ATOM      4  O   UNL d   1       1.204   2.750   0.339  0.00  0.00    -0.268 OA
ATOM      5  H   UNL d   1       0.478   0.235   2.103  0.00  0.00     0.165 HD
BRANCH   3   6
ATOM      6  C   UNL d   1       0.437   2.831   2.568  0.00  0.00     0.047 A 
ATOM      7  C   UNL d   1       0.593   4.214   2.623  0.00  0.00     0.104 A 
ATOM      8  N   UNL d   1       0.282   4.981   3.697  0.00  0.00    -0.374 N 
ATOM      9  C   UNL d   1      -0.213   4.350   4.778  0.00  0.00     0.087 A 
ATOM     10  HN  UNL d   1       0.418   5.992   3.686  1.00  0.00     0.164 HD
ATOM     11  C   UNL d   1      -0.421   2.982   4.829  0.00  0.00     0.018 A 
ATOM     12  C   UNL d   1      -0.095   2.213   3.709  0.00  0.00     0.020 A 
ENDBRANCH   3   6
ENDBRANCH   1   2
BRANCH   1  13
ATOM     13  C   UNL d   1       0.257   0.485  -1.285  0.00  0.00     0.436 C 
ATOM     14  F   UNL d   1      -0.843   1.239  -1.045  0.00  0.00    -0.167 F 
ATOM     15  F   UNL d   1       1.142   1.271  -1.960  0.00  0.00    -0.167 F 
ATOM     16  F   UNL d   1      -0.106  -0.480  -2.165  0.00  0.00    -0.167 F 
ENDBRANCH   1  13
BRANCH   1  17
ATOM     17  C   UNL d   1       0.167  -1.454   0.215  0.00  0.00     0.436 C 
ATOM     18  F   UNL d   1       0.015  -1.725   1.548  0.00  0.00    -0.167 F 
ATOM     19  F   UNL d   1      -1.083  -1.499  -0.297  0.00  0.00    -0.167 F 
ATOM     20  F   UNL d   1       0.859  -2.493  -0.306  0.00  0.00    -0.167 F 
ENDBRANCH   1  17
BRANCH   1  21
ATOM     21  N   UNL d   1       2.392  -0.177  -0.179  0.00  0.00    -0.215 NA
ATOM     22  H   UNL d   1       2.619   0.746  -0.586  0.00  0.00     0.144 HD
BRANCH  21  23
ATOM     23  N   UNL d   1       3.248  -0.376   1.009  0.00  0.00    -0.246 NA
ATOM     24  C   UNL d   1       3.255  -1.778   1.492  0.00  0.00     0.138 C 
ATOM     25  C   UNL d   1       3.903  -2.822   0.552  0.00  0.00     0.287 C 
ATOM     26  N   UNL d   1       5.282  -2.466   0.174  0.00  0.00     0.086 N 
ATOM     27  C   UNL d   1       5.306  -1.093  -0.363  0.00  0.00     0.287 C 
ATOM     28  C   UNL d   1       5.802  -3.421  -0.806  0.00  0.00     0.310 C 
ATOM     29  C   UNL d   1       4.653  -0.062   0.599  0.00  0.00     0.138 C 
ENDBRANCH  21  23
ENDBRANCH   1  21
TORSDOF 6
