REMARK  5 active torsions:
REMARK  status: ('A' for Active; 'I' for Inactive)
REMARK    1  A    between atoms: C_8  and  C_1 
REMARK    2  A    between atoms: C_6  and  C_3 
REMARK    3  A    between atoms: S_13  and  C_5 
REMARK    4  A    between atoms: C_7  and  C_11 
REMARK    5  A    between atoms: O_18  and  C_8 
ROOT
ATOM      1  C   UNL d   1       1.320  -1.278  -0.088  0.00  0.00     0.094 A 
ATOM      2  C   UNL d   1      -0.670  -0.067   0.170  0.00  0.00     0.081 A 
ATOM      3  C   UNL d   1      -0.067  -1.382   0.015  0.00  0.00     0.020 A 
ATOM      4  S   UNL d   1       1.841   0.358  -0.044  0.00  0.00    -0.075 SA
ATOM      5  C   UNL d   1       0.251   0.955   0.087  0.00  0.00     0.063 A 
ATOM      6  C   UNL d   1      -2.070   0.174   0.378  0.00  0.00     0.102 C 
ATOM      7  N   UNL d   1      -3.209   0.368   0.505  0.00  0.00    -0.191 NA
ENDROOT
BRANCH   3   8
ATOM      8  C   UNL d   1      -0.780  -2.674  -0.024  0.00  0.00    -0.022 A 
ATOM      9  C   UNL d   1      -1.979  -2.795  -0.746  0.00  0.00     0.028 A 
ATOM     10  C   UNL d   1      -2.688  -4.009  -0.796  0.00  0.00     0.048 A 
ATOM     11  C   UNL d   1      -2.147  -5.137  -0.167  0.00  0.00     0.016 A 
ATOM     12  C   UNL d   1      -0.957  -5.035   0.549  0.00  0.00     0.002 A 
ATOM     13  C   UNL d   1      -0.300  -3.806   0.650  0.00  0.00     0.012 A 
BRANCH  10  14
ATOM     14  C   UNL d   1      -4.018  -4.105  -1.504  0.00  0.00     0.417 C 
ATOM     15  F   UNL d   1      -4.461  -2.914  -1.993  0.00  0.00    -0.166 F 
ATOM     16  F   UNL d   1      -3.984  -4.955  -2.567  0.00  0.00    -0.166 F 
ATOM     17  F   UNL d   1      -5.007  -4.564  -0.688  0.00  0.00    -0.166 F 
ENDBRANCH  10  14
ENDBRANCH   3   8
BRANCH   5  18
ATOM     18  S   UNL d   1      -0.031   2.697   0.157  0.00  0.00    -0.126 SA
ATOM     19  C   UNL d   1      -0.915   2.974  -1.399  0.00  0.00     0.096 C 
ENDBRANCH   5  18
BRANCH   1  20
ATOM     20  C   UNL d   1       2.322  -2.316  -0.278  0.00  0.00     0.300 C 
ATOM     21  O   UNL d   1       2.191  -3.312  -0.979  0.00  0.00    -0.259 OA
BRANCH  20  22
ATOM     22  O   UNL d   1       3.410  -2.079   0.514  0.00  0.00    -0.322 OA
ATOM     23  C   UNL d   1       4.385  -3.124   0.508  0.00  0.00     0.213 C 
ENDBRANCH  20  22
ENDBRANCH   1  20
TORSDOF 5
