REMARK  2 active torsions:
REMARK  status: ('A' for Active; 'I' for Inactive)
REMARK    1  A    between atoms: C_9  and  C_1 
REMARK    2  A    between atoms: S_13  and  C_6 
ROOT
ATOM      1  N   UNL d   1       2.062  -3.285  -1.125  0.00  0.00    -0.335 N 
ATOM      2  HN  UNL d   1       1.526  -3.069  -1.966  1.00  0.00     0.168 HD
ATOM      3  C   UNL d   1       2.829  -4.381  -1.035  0.00  0.00     0.141 A 
ATOM      4  C   UNL d   1       2.039  -2.484  -0.037  0.00  0.00     0.062 A 
ATOM      5  N   UNL d   1       3.560  -4.734   0.033  0.00  0.00    -0.347 N 
ATOM      6  HN  UNL d   1       4.124  -5.583   0.043  1.00  0.00     0.167 HD
ATOM      7  C   UNL d   1       2.759  -2.756   1.109  0.00  0.00     0.049 A 
ATOM      8  C   UNL d   1       3.508  -3.905   1.089  0.00  0.00     0.092 A 
ENDROOT
BRANCH   4   9
ATOM      9  C   UNL d   1       1.206  -1.285  -0.109  0.00  0.00     0.066 A 
ATOM     10  N   UNL d   1       1.119  -0.392   0.954  0.00  0.00    -0.352 N 
ATOM     11  C   UNL d   1       0.312   0.601   0.643  0.00  0.00     0.047 A 
ATOM     12  HN  UNL d   1       1.608  -0.491   1.844  1.00  0.00     0.166 HD
ATOM     13  C   UNL d   1      -0.003   1.740   1.546  0.00  0.00     0.076 C 
ATOM     14  S   UNL d   1      -0.390   0.523  -0.923  0.00  0.00    -0.087 SA
ATOM     15  C   UNL d   1       0.449  -0.944  -1.213  0.00  0.00     0.083 A 
ENDBRANCH   4   9
BRANCH   3  16
ATOM     16  S   UNL d   1       2.879  -5.436  -2.451  0.00  0.00    -0.107 SA
ATOM     17  H   UNL d   1       2.106  -4.631  -3.187  0.00  0.00     0.110 HD
ENDBRANCH   3  16
TORSDOF 2
