REMARK  0 active torsions:
REMARK  status: ('A' for Active; 'I' for Inactive)
ROOT
ATOM      1  C   UNL d   1       0.021   0.670   0.027  0.00  0.00     0.034 A 
ATOM      2  C   UNL d   1       2.463   0.721   0.038  0.00  0.00     0.113 A 
ATOM      3  C   UNL d   1       1.289   1.376   0.069  0.00  0.00     0.045 A 
ATOM      4  N   UNL d   1       1.199  -1.361  -0.058  0.00  0.00    -0.325 N 
ATOM      5  C   UNL d   1       2.445  -0.769  -0.035  0.00  0.00     0.266 A 
ATOM      6  C   UNL d   1       0.002  -0.674  -0.031  0.00  0.00     0.026 A 
ATOM      7  C   UNL d   1       3.707   1.406   0.069  0.00  0.00     0.105 C 
ATOM      8  C   UNL d   1      -1.273   1.423  -0.005  0.00  0.00     0.161 C 
ATOM      9  N   UNL d   1       4.694   2.016   0.096  0.00  0.00    -0.191 NA
ATOM     10  O   UNL d   1       3.466  -1.445  -0.075  0.00  0.00    -0.267 OA
ATOM     11  O   UNL d   1      -1.293   2.641   0.157  0.00  0.00    -0.292 OA
ATOM     12  C   UNL d   1      -1.256  -1.505  -0.067  0.00  0.00     0.058 C 
ATOM     13  C   UNL d   1      -2.528   0.645  -0.335  0.00  0.00     0.084 C 
ATOM     14  C   UNL d   1      -2.494  -0.713   0.346  0.00  0.00     0.014 C 
ATOM     15  H   UNL d   1       1.208  -2.374  -0.107  0.00  0.00     0.169 HD
ENDROOT
TORSDOF 0
