REMARK  6 active torsions:
REMARK  status: ('A' for Active; 'I' for Inactive)
REMARK    1  A    between atoms: N_2  and  C_1 
REMARK    2  A    between atoms: C_13  and  C_5 
REMARK    3  A    between atoms: C_6  and  O_14 
REMARK       I    between atoms: N_15  and  C_6 
REMARK    4  A    between atoms: O_14  and  N_9 
REMARK    5  A    between atoms: C_16  and  N_15 
REMARK    6  A    between atoms: C_17  and  C_16 
ROOT
ATOM      1  N   UNL d   1       5.354  -3.195  -0.057  0.00  0.00    -0.267 N 
ATOM      2  HN  UNL d   1       6.298  -3.579  -0.085  1.00  0.00     0.194 HD
ATOM      3  C   UNL d   1       4.271  -3.893  -0.015  0.00  0.00     0.126 C 
ENDROOT
BRANCH   1   4
ATOM      4  O   UNL d   1       5.036  -1.814  -0.057  0.00  0.00    -0.181 OA
BRANCH   4   5
ATOM      5  C   UNL d   1       6.180  -1.041   0.072  0.00  0.00     0.382 C 
ATOM      6  O   UNL d   1       6.128   0.172   0.233  0.00  0.00    -0.236 OA
ATOM      7  N   UNL d   1       7.338  -1.771   0.025  0.00  0.00    -0.335 N 
ATOM      8  H   UNL d   1       7.160  -2.768  -0.034  0.00  0.00     0.164 HD
BRANCH   7   9
ATOM      9  C   UNL d   1       8.622  -1.283   0.457  0.00  0.00     0.124 C 
BRANCH   9  10
ATOM     10  C   UNL d   1       8.824  -1.466   1.961  0.00  0.00     0.015 C 
ATOM     11  C   UNL d   1       8.811  -2.929   2.388  0.00  0.00     0.006 C 
ENDBRANCH   9  10
ENDBRANCH   7   9
ENDBRANCH   4   5
ENDBRANCH   1   4
BRANCH   3  12
ATOM     12  C   UNL d   1       4.423  -5.336   0.009  0.00  0.00    -0.009 A 
ATOM     13  C   UNL d   1       5.674  -6.046   0.029  0.00  0.00     0.057 A 
ATOM     14  C   UNL d   1       5.500  -7.411   0.039  0.00  0.00     0.144 A 
ATOM     15  S   UNL d   1       3.863  -7.859   0.040  0.00  0.00    -0.077 SA
ATOM     16  C   UNL d   1       3.358  -6.218   0.021  0.00  0.00     0.065 A 
BRANCH  14  17
ATOM     17  N   UNL d   1       6.545  -8.402   0.050  0.00  0.00    -0.108 N 
ATOM     18  O   UNL d   1       7.706  -7.974   0.062  0.00  0.00    -0.531 OA
ATOM     19  O   UNL d   1       6.220  -9.597   0.044  0.00  0.00    -0.531 OA
ENDBRANCH  14  17
ENDBRANCH   3  12
TORSDOF 6
