REMARK  3 active torsions:
REMARK  status: ('A' for Active; 'I' for Inactive)
REMARK    1  A    between atoms: C_7  and  C_1 
REMARK    2  A    between atoms: C_9  and  C_7 
REMARK    3  A    between atoms: C_13  and  C_12 
ROOT
ATOM      1  C   UNL d   1       1.566  -0.089   0.116  0.00  0.00     0.100 C 
ATOM      2  N   UNL d   1      -0.481   1.190  -0.053  0.00  0.00    -0.299 N 
ATOM      3  N   UNL d   1      -0.617  -1.124   0.030  0.00  0.00    -0.299 N 
ATOM      4  C   UNL d   1       0.888   1.233   0.003  0.00  0.00     0.263 C 
ATOM      5  C   UNL d   1       0.737  -1.324   0.016  0.00  0.00     0.263 C 
ATOM      6  C   UNL d   1      -1.255   0.074  -0.021  0.00  0.00     0.181 C 
ATOM      7  S   UNL d   1      -2.914   0.165  -0.056  0.00  0.00    -0.040 SA
ATOM      8  O   UNL d   1       1.177  -2.464  -0.097  0.00  0.00    -0.267 OA
ATOM      9  O   UNL d   1       1.483   2.304  -0.033  0.00  0.00    -0.267 OA
ATOM     10  H   UNL d   1      -0.946   2.087  -0.115  0.00  0.00     0.171 HD
ATOM     11  H   UNL d   1      -1.179  -1.965  -0.009  0.00  0.00     0.171 HD
ENDROOT
BRANCH   1  12
ATOM     12  C   UNL d   1       2.901  -0.070   0.316  0.00  0.00     0.023 C 
BRANCH  12  13
ATOM     13  C   UNL d   1       3.776  -1.212   0.478  0.00  0.00     0.002 C 
ATOM     14  C   UNL d   1       5.108  -1.138   0.628  0.00  0.00     0.011 C 
BRANCH  14  15
ATOM     15  C   UNL d   1       5.954  -2.342   0.717  0.00  0.00    -0.036 A 
ATOM     16  C   UNL d   1       5.644  -3.513   0.006  0.00  0.00     0.011 A 
ATOM     17  C   UNL d   1       6.465  -4.639   0.083  0.00  0.00     0.001 A 
ATOM     18  C   UNL d   1       7.621  -4.603   0.856  0.00  0.00     0.000 A 
ATOM     19  C   UNL d   1       7.955  -3.441   1.551  0.00  0.00     0.001 A 
ATOM     20  C   UNL d   1       7.128  -2.315   1.478  0.00  0.00     0.011 A 
ENDBRANCH  14  15
ENDBRANCH  12  13
ENDBRANCH   1  12
TORSDOF 3
