REMARK  0 active torsions:
REMARK  status: ('A' for Active; 'I' for Inactive)
ROOT
ATOM      1  C   UNL d   1       0.635   1.435  -0.206  0.00  0.00     0.193 C 
ATOM      2  S   UNL d   1       1.685   0.130   0.329  0.00  0.00    -0.082 SA
ATOM      3  C   UNL d   1      -0.787   1.335   0.244  0.00  0.00     0.169 C 
ATOM      4  C   UNL d   1       0.714  -1.304  -0.278  0.00  0.00     0.015 C 
ATOM      5  C   UNL d   1      -1.422   0.039  -0.169  0.00  0.00     0.136 C 
ATOM      6  C   UNL d   1      -0.725  -1.236   0.246  0.00  0.00     0.099 C 
ATOM      7  O   UNL d   1       1.082   2.380  -0.843  0.00  0.00    -0.285 OA
ATOM      8  O   UNL d   1      -2.507   0.009  -0.749  0.00  0.00    -0.297 OA
ATOM      9  C   UNL d   1       0.757  -1.343  -1.813  0.00  0.00     0.027 C 
ATOM     10  C   UNL d   1       1.391  -2.569   0.274  0.00  0.00     0.027 C 
ENDROOT
TORSDOF 0
