REMARK  5 active torsions:
REMARK  status: ('A' for Active; 'I' for Inactive)
REMARK    1  A    between atoms: C_2  and  C_1 
REMARK    2  A    between atoms: C_3  and  C_1 
REMARK    3  A    between atoms: N_4  and  C_1 
REMARK    4  A    between atoms: N_5  and  C_1 
REMARK    5  A    between atoms: C_6  and  N_4 
REMARK       I    between atoms: C_7  and  N_5 
ROOT
ATOM      1  C   UNL d   1       0.916   0.098   0.148  0.00  0.00     0.290 C 
ENDROOT
BRANCH   1   2
ATOM      2  C   UNL d   1       0.395  -0.744   1.391  0.00  0.00     0.435 C 
ATOM      3  F   UNL d   1      -0.239  -0.058   2.355  0.00  0.00    -0.167 F 
ATOM      4  F   UNL d   1      -0.458  -1.735   0.995  0.00  0.00    -0.167 F 
ATOM      5  F   UNL d   1       1.407  -1.435   1.992  0.00  0.00    -0.167 F 
ENDBRANCH   1   2
BRANCH   1   6
ATOM      6  C   UNL d   1       0.547   1.633   0.306  0.00  0.00     0.435 C 
ATOM      7  F   UNL d   1       0.080   2.008   1.511  0.00  0.00    -0.167 F 
ATOM      8  F   UNL d   1       1.642   2.416   0.056  0.00  0.00    -0.167 F 
ATOM      9  F   UNL d   1      -0.360   2.053  -0.617  0.00  0.00    -0.167 F 
ENDBRANCH   1   6
BRANCH   1  10
ATOM     10  N   UNL d   1       0.502  -0.492  -1.192  0.00  0.00    -0.248 NA
ATOM     11  H   UNL d   1       0.978  -1.386  -1.320  0.00  0.00     0.131 HD
BRANCH  10  12
ATOM     12  C   UNL d   1      -0.848  -0.664  -1.563  0.00  0.00     0.049 A 
ATOM     13  C   UNL d   1      -1.974  -0.237  -0.836  0.00  0.00     0.137 A 
ATOM     14  F   UNL d   1      -1.827   0.369   0.349  0.00  0.00    -0.204 F 
ATOM     15  C   UNL d   1      -3.278  -0.462  -1.273  0.00  0.00     0.044 A 
ATOM     16  C   UNL d   1      -3.500  -1.107  -2.483  0.00  0.00     0.003 A 
ATOM     17  C   UNL d   1      -2.410  -1.509  -3.251  0.00  0.00     0.002 A 
ATOM     18  C   UNL d   1      -1.102  -1.284  -2.799  0.00  0.00     0.027 A 
ENDBRANCH  10  12
ENDBRANCH   1  10
BRANCH   1  19
ATOM     19  N   UNL d   1       2.391  -0.065  -0.037  0.00  0.00    -0.324 N 
ATOM     20  C   UNL d   1       3.224   0.356   0.978  0.00  0.00     0.215 C 
ATOM     21  O   UNL d   1       2.784   0.786   2.040  0.00  0.00    -0.274 OA
ATOM     22  C   UNL d   1       4.695   0.265   0.683  0.00  0.00     0.117 C 
ATOM     23  H   UNL d   1       2.724   0.049  -0.983  0.00  0.00     0.165 HD
ENDBRANCH   1  19
TORSDOF 5
