REMARK  6 active torsions:
REMARK  status: ('A' for Active; 'I' for Inactive)
REMARK    1  A    between atoms: C_2  and  C_1 
REMARK    2  A    between atoms: C_13  and  C_8 
REMARK    3  A    between atoms: N_9  and  C_12 
REMARK    4  A    between atoms: O_14  and  C_11 
REMARK    5  A    between atoms: C_19  and  O_14 
REMARK    6  A    between atoms: O_29  and  C_25 
ROOT
ATOM      1  C   UNL d   1      -0.696  -2.416  -0.152  0.00  0.00     0.053 A 
ATOM      2  C   UNL d   1      -1.502  -2.909  -1.201  0.00  0.00     0.054 A 
ATOM      3  C   UNL d   1      -0.286  -3.318   0.854  0.00  0.00     0.090 A 
ATOM      4  C   UNL d   1      -1.846  -4.269  -1.262  0.00  0.00     0.104 A 
ATOM      5  C   UNL d   1      -0.580  -4.691   0.736  0.00  0.00     0.041 A 
ATOM      6  C   UNL d   1      -1.374  -5.167  -0.303  0.00  0.00     0.039 A 
ENDROOT
BRANCH   1   7
ATOM      7  C   UNL d   1      -0.257  -1.017  -0.177  0.00  0.00     0.177 A 
ATOM      8  O   UNL d   1      -1.034  -0.131  -0.888  0.00  0.00    -0.273 OA
ATOM      9  C   UNL d   1      -0.293   1.025  -0.823  0.00  0.00     0.174 A 
ATOM     10  N   UNL d   1       0.822   0.864  -0.140  0.00  0.00    -0.277 N 
ATOM     11  N   UNL d   1       0.834  -0.451   0.296  0.00  0.00    -0.277 N 
ATOM     12  HN  UNL d   1       1.538   1.570   0.034  1.00  0.00     0.189 HD
ATOM     13  HN  UNL d   1       1.549  -0.894   0.873  1.00  0.00     0.189 HD
BRANCH   9  14
ATOM     14  C   UNL d   1      -0.810   2.192  -1.535  0.00  0.00     0.019 A 
ATOM     15  C   UNL d   1       0.064   3.200  -1.990  0.00  0.00     0.052 A 
ATOM     16  C   UNL d   1      -0.426   4.306  -2.695  0.00  0.00     0.069 A 
ATOM     17  C   UNL d   1      -1.799   4.420  -2.923  0.00  0.00     0.037 A 
ATOM     18  C   UNL d   1      -2.678   3.443  -2.465  0.00  0.00     0.004 A 
ATOM     19  C   UNL d   1      -2.186   2.332  -1.780  0.00  0.00     0.016 A 
BRANCH  16  20
ATOM     20  O   UNL d   1       0.309   5.333  -3.219  0.00  0.00    -0.356 OA
ATOM     21  C   UNL d   1       1.716   5.304  -3.028  0.00  0.00     0.210 C 
ENDBRANCH  16  20
ENDBRANCH   9  14
ENDBRANCH   1   7
BRANCH   3  22
ATOM     22  O   UNL d   1       0.432  -2.830   1.932  0.00  0.00    -0.308 OA
BRANCH  22  23
ATOM     23  C   UNL d   1       0.309  -3.458   3.150  0.00  0.00     0.093 A 
ATOM     24  C   UNL d   1      -0.907  -3.889   3.688  0.00  0.00     0.064 A 
ATOM     25  C   UNL d   1      -0.906  -4.573   4.901  0.00  0.00     0.052 A 
ATOM     26 CL   UNL d   1      -2.368  -5.208   5.541  0.00  0.00    -0.083 Cl
ATOM     27  C   UNL d   1       0.299  -4.758   5.561  0.00  0.00     0.111 A 
ATOM     28  N   UNL d   1       1.489  -4.305   5.090  0.00  0.00    -0.371 N 
ATOM     29  C   UNL d   1       1.462  -3.660   3.898  0.00  0.00     0.124 A 
ATOM     30  HN  UNL d   1       2.358  -4.442   5.607  1.00  0.00     0.164 HD
ENDBRANCH  22  23
ENDBRANCH   3  22
BRANCH   4  31
ATOM     31  N   UNL d   1      -2.691  -4.766  -2.355  0.00  0.00    -0.116 N 
ATOM     32  O   UNL d   1      -3.071  -3.946  -3.202  0.00  0.00    -0.532 OA
ATOM     33  O   UNL d   1      -2.978  -5.969  -2.361  0.00  0.00    -0.532 OA
ENDBRANCH   4  31
TORSDOF 6
