REMARK  4 active torsions:
REMARK  status: ('A' for Active; 'I' for Inactive)
REMARK    1  A    between atoms: O_5  and  N_1 
REMARK    2  A    between atoms: C_3  and  O_5 
REMARK    3  A    between atoms: C_9  and  C_3 
REMARK    4  A    between atoms: C_4  and  C_8 
ROOT
ATOM      1  N   UNL d   1       0.840  -0.102   0.052  0.00  0.00    -0.261 N 
ATOM      2  HN  UNL d   1       0.322   0.502   0.691  1.00  0.00     0.194 HD
ATOM      3  C   UNL d   1       2.137  -0.163   0.004  0.00  0.00     0.039 C 
ATOM      4  C   UNL d   1       2.884  -1.092  -0.931  0.00  0.00     0.071 C 
ENDROOT
BRANCH   1   5
ATOM      5  O   UNL d   1       0.230  -0.967  -0.881  0.00  0.00    -0.195 OA
BRANCH   5   6
ATOM      6  C   UNL d   1      -1.131  -0.863  -0.797  0.00  0.00     0.315 C 
ATOM      7  O   UNL d   1      -1.777  -0.162  -0.029  0.00  0.00    -0.257 OA
BRANCH   6   8
ATOM      8  C   UNL d   1      -1.785  -1.767  -1.788  0.00  0.00     0.041 A 
ATOM      9  C   UNL d   1      -3.179  -1.908  -1.727  0.00  0.00     0.018 A 
ATOM     10  C   UNL d   1      -3.849  -2.748  -2.622  0.00  0.00     0.007 A 
ATOM     11  C   UNL d   1      -3.138  -3.457  -3.596  0.00  0.00    -0.062 A 
ATOM     12  C   UNL d   1      -1.748  -3.309  -3.665  0.00  0.00     0.007 A 
ATOM     13  C   UNL d   1      -3.870  -4.366  -4.540  0.00  0.00     0.048 C 
ATOM     14  C   UNL d   1      -1.073  -2.470  -2.768  0.00  0.00     0.018 A 
ENDBRANCH   6   8
ENDBRANCH   5   6
ENDBRANCH   1   5
BRANCH   3  15
ATOM     15  C   UNL d   1       2.929   0.724   0.910  0.00  0.00    -0.009 A 
ATOM     16  C   UNL d   1       2.392   1.079   2.156  0.00  0.00     0.059 A 
ATOM     17  C   UNL d   1       3.116   1.911   3.005  0.00  0.00     0.155 A 
ATOM     18  F   UNL d   1       2.605   2.236   4.200  0.00  0.00    -0.203 F 
ATOM     19  C   UNL d   1       4.360   2.401   2.624  0.00  0.00     0.154 A 
ATOM     20  C   UNL d   1       4.896   2.067   1.385  0.00  0.00     0.046 A 
ATOM     21  F   UNL d   1       5.053   3.202   3.444  0.00  0.00    -0.203 F 
ATOM     22  C   UNL d   1       4.179   1.230   0.524  0.00  0.00     0.017 A 
ENDBRANCH   3  15
TORSDOF 4
