REMARK  4 active torsions:
REMARK  status: ('A' for Active; 'I' for Inactive)
REMARK    1  A    between atoms: N_5  and  C_1 
REMARK    2  A    between atoms: C_2  and  C_7 
REMARK       I    between atoms: C_3  and  N_5 
REMARK       I    between atoms: N_9  and  C_3 
REMARK    3  A    between atoms: N_6  and  C_4 
REMARK    4  A    between atoms: C_17  and  N_9 
ROOT
ATOM      1  C   UNL d   1       2.117  -0.120  -0.209  0.00  0.00     0.063 A 
ATOM      2  C   UNL d   1       1.264  -1.196   0.170  0.00  0.00     0.057 A 
ATOM      3  C   UNL d   1       0.291   1.474   0.081  0.00  0.00     0.050 A 
ATOM      4  C   UNL d   1       1.622   1.193  -0.278  0.00  0.00     0.048 A 
ATOM      5  C   UNL d   1      -0.073  -0.896   0.470  0.00  0.00     0.032 A 
ATOM      6  C   UNL d   1      -0.554   0.413   0.431  0.00  0.00     0.018 A 
ENDROOT
BRANCH   1   7
ATOM      7  N   UNL d   1       3.490  -0.357  -0.509  0.00  0.00    -0.307 N 
ATOM      8  C   UNL d   1       4.263  -1.001   0.420  0.00  0.00     0.325 C 
ATOM      9  N   UNL d   1       5.317  -1.757   0.008  0.00  0.00    -0.309 N 
ATOM     10  O   UNL d   1       4.082  -0.909   1.635  0.00  0.00    -0.247 OA
ATOM     11  H   UNL d   1       5.742  -2.171   0.828  0.00  0.00     0.170 HD
ATOM     12  H   UNL d   1       3.994   0.402  -0.938  0.00  0.00     0.170 HD
BRANCH   9  13
ATOM     13  C   UNL d   1       5.726  -2.299  -1.224  0.00  0.00     0.036 A 
ATOM     14  C   UNL d   1       5.296  -1.883  -2.483  0.00  0.00     0.029 A 
ATOM     15  C   UNL d   1       5.730  -2.559  -3.634  0.00  0.00     0.002 A 
ATOM     16  C   UNL d   1       6.582  -3.658  -3.534  0.00  0.00     0.000 A 
ATOM     17  C   UNL d   1       7.020  -4.078  -2.285  0.00  0.00     0.002 A 
ATOM     18  C   UNL d   1       6.607  -3.391  -1.142  0.00  0.00     0.029 A 
ENDBRANCH   9  13
ENDBRANCH   1   7
BRANCH   2  19
ATOM     19  N   UNL d   1       1.749  -2.512   0.226  0.00  0.00    -0.375 N 
ATOM     20  C   UNL d   1       1.958  -3.156  -1.085  0.00  0.00     0.149 C 
ATOM     21  C   UNL d   1       2.780  -4.444  -0.893  0.00  0.00     0.187 C 
ATOM     22  O   UNL d   1       2.165  -5.335   0.055  0.00  0.00    -0.388 OA
ATOM     23  C   UNL d   1       2.047  -4.678   1.331  0.00  0.00     0.187 C 
ATOM     24  C   UNL d   1       1.167  -3.425   1.223  0.00  0.00     0.149 C 
ENDBRANCH   2  19
BRANCH   3  25
ATOM     25  C   UNL d   1      -0.250   2.881   0.122  0.00  0.00     0.417 C 
ATOM     26  F   UNL d   1       0.697   3.840  -0.071  0.00  0.00    -0.166 F 
ATOM     27  F   UNL d   1      -1.203   3.099  -0.826  0.00  0.00    -0.166 F 
ATOM     28  F   UNL d   1      -0.842   3.177   1.314  0.00  0.00    -0.166 F 
ENDBRANCH   3  25
TORSDOF 4
