REMARK  2 active torsions:
REMARK  status: ('A' for Active; 'I' for Inactive)
REMARK    1  A    between atoms: S_4  and  C_2 
REMARK    2  A    between atoms: C_8  and  C_3 
ROOT
ATOM      1  C   UNL d   1      -0.755  -0.025   0.160  0.00  0.00     0.084 A 
ATOM      2  C   UNL d   1       0.096   1.060   0.068  0.00  0.00     0.120 A 
ATOM      3  C   UNL d   1      -0.069  -1.290  -0.000  0.00  0.00     0.005 A 
ATOM      4  S   UNL d   1       1.725   0.570  -0.105  0.00  0.00    -0.088 SA
ATOM      5  C   UNL d   1       1.288  -1.075  -0.182  0.00  0.00     0.065 A 
ATOM      6  C   UNL d   1      -2.172   0.120   0.351  0.00  0.00     0.102 C 
ATOM      7  N   UNL d   1      -3.322   0.178   0.499  0.00  0.00    -0.191 NA
ENDROOT
BRANCH   2   8
ATOM      8  S   UNL d   1      -0.175   2.821   0.029  0.00  0.00     0.179 S 
ATOM      9  O   UNL d   1       0.476   3.290  -1.176  0.00  0.00    -0.222 OA
ATOM     10  O   UNL d   1      -1.596   2.992   0.239  0.00  0.00    -0.222 OA
ATOM     11  C   UNL d   1       0.679   3.457   1.445  0.00  0.00     0.167 C 
ENDBRANCH   2   8
BRANCH   3  12
ATOM     12  C   UNL d   1      -0.646  -2.642  -0.110  0.00  0.00    -0.002 A 
ATOM     13  C   UNL d   1      -0.091  -3.800   0.478  0.00  0.00     0.045 A 
ATOM     14 CL   UNL d   1       1.274  -3.767   1.544  0.00  0.00    -0.083 Cl
ATOM     15  C   UNL d   1      -0.660  -5.064   0.249  0.00  0.00     0.024 A 
ATOM     16  C   UNL d   1      -1.808  -5.197  -0.528  0.00  0.00     0.002 A 
ATOM     17  C   UNL d   1      -2.388  -4.067  -1.089  0.00  0.00     0.001 A 
ATOM     18  C   UNL d   1      -1.803  -2.810  -0.898  0.00  0.00     0.014 A 
ENDBRANCH   3  12
TORSDOF 2
