REMARK  3 active torsions:
REMARK  status: ('A' for Active; 'I' for Inactive)
REMARK    1  A    between atoms: N_2  and  S_1 
REMARK    2  A    between atoms: C_4  and  S_1 
REMARK       I    between atoms: C_5  and  N_2 
REMARK    3  A    between atoms: C_12  and  C_5 
ROOT
ATOM      1  N   UNL d   1       0.522   0.990   0.941  0.00  0.00    -0.279 N 
ATOM      2  HN  UNL d   1      -0.060   1.728   0.544  1.00  0.00     0.179 HD
ATOM      3  C   UNL d   1       0.911   1.036   2.292  0.00  0.00     0.262 C 
ATOM      4  O   UNL d   1       1.970   0.542   2.670  0.00  0.00    -0.267 OA
ENDROOT
BRANCH   1   5
ATOM      5  S   UNL d   1       0.988  -0.190   0.073  0.00  0.00     0.055 S 
ATOM      6  O   UNL d   1       0.580  -1.573   0.213  0.00  0.00    -0.245 OA
ATOM      7  C   UNL d   1       2.743  -0.129  -0.189  0.00  0.00     0.142 C 
BRANCH   5   8
ATOM      8  C   UNL d   1       0.377   0.271  -1.494  0.00  0.00     0.045 A 
ATOM      9  C   UNL d   1      -0.016  -0.679  -2.488  0.00  0.00     0.029 A 
ATOM     10  C   UNL d   1      -0.379  -0.073  -3.671  0.00  0.00     0.051 A 
ATOM     11  S   UNL d   1      -0.258   1.632  -3.581  0.00  0.00    -0.112 SA
ATOM     12  C   UNL d   1       0.291   1.567  -1.959  0.00  0.00     0.071 A 
ENDBRANCH   5   8
ENDBRANCH   1   5
BRANCH   3  13
ATOM     13  C   UNL d   1       0.109   1.769   3.324  0.00  0.00     0.032 A 
ATOM     14  C   UNL d   1       0.574   1.824   4.648  0.00  0.00     0.017 A 
ATOM     15  C   UNL d   1      -0.145   2.522   5.621  0.00  0.00     0.001 A 
ATOM     16  C   UNL d   1      -1.331   3.166   5.276  0.00  0.00     0.000 A 
ATOM     17  C   UNL d   1      -1.806   3.108   3.966  0.00  0.00     0.001 A 
ATOM     18  C   UNL d   1      -1.090   2.410   2.988  0.00  0.00     0.017 A 
ENDBRANCH   3  13
TORSDOF 3
