REMARK  2 active torsions:
REMARK  status: ('A' for Active; 'I' for Inactive)
REMARK    1  A    between atoms: N_2  and  C_1 
REMARK       I    between atoms: C_6  and  N_2 
REMARK    2  A    between atoms: C_7  and  N_2 
REMARK       I    between atoms: N_9  and  C_6 
ROOT
ATOM      1  N   UNL d   1       2.241   1.401  -0.271  0.00  0.00    -0.244 N 
ATOM      2  C   UNL d   1       3.552   0.926  -0.546  0.00  0.00     0.328 C 
ATOM      3  O   UNL d   1       4.572   1.538  -0.226  0.00  0.00    -0.246 OA
ATOM      4  N   UNL d   1       3.623  -0.272  -1.216  0.00  0.00    -0.347 N 
ATOM      5  C   UNL d   1       4.861  -0.975  -1.437  0.00  0.00     0.151 C 
ATOM      6  H   UNL d   1       2.765  -0.791  -1.347  0.00  0.00     0.163 HD
ENDROOT
BRANCH   1   7
ATOM      7  C   UNL d   1       1.083   0.653   0.020  0.00  0.00     0.151 C 
ATOM      8  N   UNL d   1      -0.077   1.181   0.254  0.00  0.00    -0.369 N 
ATOM      9  C   UNL d   1      -1.117   0.146   0.402  0.00  0.00     0.137 C 
ATOM     10  HN  UNL d   1      -0.249   2.184   0.327  1.00  0.00     0.161 HD
ATOM     11  C   UNL d   1      -0.497  -1.182   0.812  0.00  0.00     0.069 C 
ATOM     12  S   UNL d   1       1.134  -1.098   0.048  0.00  0.00    -0.087 SA
ATOM     13  C   UNL d   1      -0.351  -1.339   2.318  0.00  0.00     0.023 C 
ENDBRANCH   1   7
BRANCH   1  14
ATOM     14  C   UNL d   1       2.144   2.836  -0.196  0.00  0.00     0.046 A 
ATOM     15  C   UNL d   1       2.571   3.602  -1.294  0.00  0.00     0.032 A 
ATOM     16  C   UNL d   1       2.443   4.993  -1.285  0.00  0.00     0.026 A 
ATOM     17  C   UNL d   1       1.921   5.630  -0.163  0.00  0.00     0.034 A 
ATOM     18  C   UNL d   1       1.522   4.887   0.948  0.00  0.00     0.026 A 
ATOM     19 CL   UNL d   1       1.761   7.343  -0.151  0.00  0.00    -0.084 Cl
ATOM     20  C   UNL d   1       1.620   3.491   0.927  0.00  0.00     0.032 A 
ENDBRANCH   1  14
TORSDOF 2
