REMARK  6 active torsions:
REMARK  status: ('A' for Active; 'I' for Inactive)
REMARK    1  A    between atoms: C_4  and  C_1 
REMARK    2  A    between atoms: N_21  and  C_4 
REMARK    3  A    between atoms: C_5  and  C_12 
REMARK    4  A    between atoms: O_14  and  N_7 
REMARK    5  A    between atoms: C_11  and  O_14 
REMARK       I    between atoms: N_13  and  C_11 
REMARK    6  A    between atoms: C_17  and  N_13 
ROOT
ATOM      1  C   UNL d   1       5.106  -0.787   0.047  0.00  0.00     0.387 C 
ATOM      2  N   UNL d   1       5.879  -1.930   0.055  0.00  0.00    -0.301 N 
ATOM      3  O   UNL d   1       5.636   0.313   0.183  0.00  0.00    -0.236 OA
ATOM      4  H   UNL d   1       6.839  -1.708   0.287  0.00  0.00     0.171 HD
ENDROOT
BRANCH   1   5
ATOM      5  O   UNL d   1       3.756  -0.971  -0.077  0.00  0.00    -0.179 OA
BRANCH   5   6
ATOM      6  N   UNL d   1       3.114  -0.439   1.061  0.00  0.00    -0.243 N 
ATOM      7  C   UNL d   1       1.834  -0.585   0.962  0.00  0.00     0.126 C 
ATOM      8  HN  UNL d   1       3.592  -0.002   1.849  1.00  0.00     0.196 HD
BRANCH   7   9
ATOM      9  C   UNL d   1       0.986  -0.234   2.104  0.00  0.00     0.079 A 
ATOM     10  N   UNL d   1      -0.408  -0.356   2.032  0.00  0.00    -0.351 N 
ATOM     11  C   UNL d   1      -0.944  -0.066   3.200  0.00  0.00     0.047 A 
ATOM     12  HN  UNL d   1      -0.930  -0.628   1.199  1.00  0.00     0.166 HD
ATOM     13  C   UNL d   1      -2.397  -0.168   3.510  0.00  0.00     0.076 C 
ATOM     14  S   UNL d   1       0.159   0.423   4.423  0.00  0.00    -0.087 SA
ATOM     15  C   UNL d   1       1.456   0.206   3.329  0.00  0.00     0.084 A 
ENDBRANCH   7   9
BRANCH   7  16
ATOM     16  N   UNL d   1       1.108  -1.048  -0.103  0.00  0.00    -0.285 NA
ATOM     17  H   UNL d   1       0.120  -0.803  -0.052  0.00  0.00     0.125 HD
ATOM     18  H   UNL d   1       1.533  -0.858  -1.000  0.00  0.00     0.125 HD
ENDBRANCH   7  16
ENDBRANCH   5   6
ENDBRANCH   1   5
BRANCH   2  19
ATOM     19  C   UNL d   1       5.494  -3.280   0.089  0.00  0.00     0.037 A 
ATOM     20  C   UNL d   1       4.247  -3.749  -0.326  0.00  0.00     0.045 A 
ATOM     21  C   UNL d   1       3.884  -5.096  -0.157  0.00  0.00     0.050 A 
ATOM     22  C   UNL d   1       4.808  -5.986   0.406  0.00  0.00     0.016 A 
ATOM     23  C   UNL d   1       6.077  -5.539   0.771  0.00  0.00     0.003 A 
ATOM     24  C   UNL d   1       6.421  -4.196   0.603  0.00  0.00     0.029 A 
BRANCH  21  25
ATOM     25  C   UNL d   1       2.509  -5.574  -0.555  0.00  0.00     0.417 C 
ATOM     26  F   UNL d   1       1.734  -4.603  -1.115  0.00  0.00    -0.166 F 
ATOM     27  F   UNL d   1       2.553  -6.583  -1.467  0.00  0.00    -0.166 F 
ATOM     28  F   UNL d   1       1.798  -6.055   0.502  0.00  0.00    -0.166 F 
ENDBRANCH  21  25
ENDBRANCH   2  19
TORSDOF 6
