REMARK  3 active torsions:
REMARK  status: ('A' for Active; 'I' for Inactive)
REMARK       I    between atoms: C_5  and  N_1 
REMARK    1  A    between atoms: N_4  and  C_9 
REMARK    2  A    between atoms: C_13  and  C_5 
REMARK    3  A    between atoms: C_10  and  C_6 
ROOT
ATOM      1  N   UNL d   1       0.883  -0.681  -0.009  0.00  0.00    -0.231 N 
ATOM      2  N   UNL d   1       0.897   0.673   0.133  0.00  0.00    -0.291 N 
ATOM      3  HN  UNL d   1       1.711   1.272   0.268  1.00  0.00     0.187 HD
ATOM      4  C   UNL d   1       2.077  -1.431  -0.047  0.00  0.00     0.276 C 
ATOM      5  C   UNL d   1      -0.390   1.052   0.059  0.00  0.00     0.060 A 
ATOM      6  C   UNL d   1      -1.239  -0.080  -0.044  0.00  0.00     0.051 A 
ATOM      7  C   UNL d   1      -0.402  -1.163  -0.116  0.00  0.00     0.122 A 
ATOM      8  O   UNL d   1       1.997  -2.584  -0.471  0.00  0.00    -0.265 OA
ENDROOT
BRANCH   4   9
ATOM      9  C   UNL d   1       3.398  -0.942   0.428  0.00  0.00     0.034 A 
ATOM     10  C   UNL d   1       3.494  -0.087   1.534  0.00  0.00     0.019 A 
ATOM     11  C   UNL d   1       4.749   0.273   2.034  0.00  0.00     0.025 A 
ATOM     12  C   UNL d   1       5.905  -0.223   1.434  0.00  0.00     0.034 A 
ATOM     13  C   UNL d   1       5.819  -1.078   0.335  0.00  0.00     0.025 A 
ATOM     14 CL   UNL d   1       7.445   0.203   2.069  0.00  0.00    -0.084 Cl
ATOM     15  C   UNL d   1       4.565  -1.445  -0.165  0.00  0.00     0.019 A 
ENDBRANCH   4   9
BRANCH   5  16
ATOM     16  C   UNL d   1      -0.784   2.464   0.101  0.00  0.00    -0.006 A 
ATOM     17  C   UNL d   1       0.068   3.431   0.654  0.00  0.00     0.049 A 
ATOM     18  C   UNL d   1      -0.339   4.774   0.708  0.00  0.00     0.103 A 
ATOM     19  C   UNL d   1      -1.584   5.168   0.201  0.00  0.00     0.036 A 
ATOM     20  C   UNL d   1      -2.423   4.212  -0.368  0.00  0.00     0.003 A 
ATOM     21  C   UNL d   1      -2.026   2.873  -0.417  0.00  0.00     0.014 A 
BRANCH  18  22
ATOM     22  N   UNL d   1       0.543   5.779   1.315  0.00  0.00    -0.116 N 
ATOM     23  O   UNL d   1       1.629   5.394   1.772  0.00  0.00    -0.532 OA
ATOM     24  O   UNL d   1       0.147   6.952   1.341  0.00  0.00    -0.532 OA
ENDBRANCH  18  22
ENDBRANCH   5  16
TORSDOF 3
