REMARK  7 active torsions:
REMARK  status: ('A' for Active; 'I' for Inactive)
REMARK    1  A    between atoms: S_5  and  C_1 
REMARK    2  A    between atoms: C_4  and  C_2 
REMARK       I    between atoms: N_7  and  C_4 
REMARK    3  A    between atoms: C_17  and  S_5 
REMARK    4  A    between atoms: C_6  and  N_8 
REMARK    5  A    between atoms: N_16  and  C_6 
REMARK    6  A    between atoms: N_8  and  N_7 
REMARK    7  A    between atoms: C_19  and  C_17 
ROOT
ATOM      1  C   UNL d   1       0.849   1.327  -0.325  0.00  0.00     0.297 C 
ATOM      2  C   UNL d   1      -0.717   1.298  -0.379  0.00  0.00     0.127 C 
ATOM      3  N   UNL d   1       1.404  -0.002   0.060  0.00  0.00     0.103 N 
ATOM      4  C   UNL d   1      -1.191  -0.123   0.024  0.00  0.00     0.005 C 
ATOM      5  C   UNL d   1       0.957  -0.985  -0.955  0.00  0.00     0.274 C 
ATOM      6  C   UNL d   1       0.897  -0.439   1.378  0.00  0.00     0.274 C 
ATOM      7  C   UNL d   1      -0.636  -0.411   1.432  0.00  0.00     0.036 C 
ATOM      8  C   UNL d   1      -0.569  -1.163  -0.926  0.00  0.00     0.036 C 
ENDROOT
BRANCH   2   9
ATOM      9  C   UNL d   1      -1.239   1.703  -1.762  0.00  0.00     0.243 C 
ATOM     10  N   UNL d   1      -2.614   1.723  -1.918  0.00  0.00    -0.267 N 
ATOM     11  H   UNL d   1      -3.286   1.584  -1.167  0.00  0.00     0.190 HD
ATOM     12  O   UNL d   1      -0.501   2.006  -2.704  0.00  0.00    -0.271 OA
BRANCH  10  13
ATOM     13  N   UNL d   1      -3.111   2.211  -3.145  0.00  0.00    -0.274 N 
ATOM     14  H   UNL d   1      -2.394   2.368  -3.853  0.00  0.00     0.189 HD
BRANCH  13  15
ATOM     15  C   UNL d   1      -4.457   2.188  -3.486  0.00  0.00     0.186 C 
ATOM     16  S   UNL d   1      -5.657   1.626  -2.467  0.00  0.00    -0.040 SA
BRANCH  15  17
ATOM     17  N   UNL d   1      -4.655   2.707  -4.754  0.00  0.00    -0.370 N 
ATOM     18  C   UNL d   1      -5.915   2.903  -5.452  0.00  0.00     0.148 C 
ATOM     19  H   UNL d   1      -3.856   3.151  -5.186  0.00  0.00     0.161 HD
ENDBRANCH  15  17
ENDBRANCH  13  15
ENDBRANCH  10  13
ENDBRANCH   2   9
BRANCH   1  20
ATOM     20  S   UNL d   1       1.482   2.667   0.787  0.00  0.00    -0.128 SA
BRANCH  20  21
ATOM     21  C   UNL d   1       3.275   2.403   0.562  0.00  0.00     0.114 C 
BRANCH  21  22
ATOM     22  C   UNL d   1       4.111   3.282   1.468  0.00  0.00    -0.049 A 
ATOM     23  C   UNL d   1       4.520   2.819   2.730  0.00  0.00     0.009 A 
ATOM     24  C   UNL d   1       5.322   3.615   3.556  0.00  0.00     0.024 A 
ATOM     25  C   UNL d   1       5.714   4.880   3.128  0.00  0.00     0.034 A 
ATOM     26  C   UNL d   1       5.311   5.359   1.883  0.00  0.00     0.024 A 
ATOM     27 CL   UNL d   1       6.706   5.857   4.141  0.00  0.00    -0.084 Cl
ATOM     28  C   UNL d   1       4.510   4.563   1.058  0.00  0.00     0.009 A 
ENDBRANCH  21  22
ENDBRANCH  20  21
ENDBRANCH   1  20
TORSDOF 7
