REMARK  2 active torsions:
REMARK  status: ('A' for Active; 'I' for Inactive)
REMARK    1  A    between atoms: C_7  and  C_4 
REMARK    2  A    between atoms: O_10  and  C_9 
ROOT
ATOM      1  C   UNL d   1      -1.059  -0.834   0.233  0.00  0.00     0.045 A 
ATOM      2  C   UNL d   1       0.444  -0.947   0.243  0.00  0.00     0.257 A 
ATOM      3  N   UNL d   1       0.897   0.350   0.071  0.00  0.00    -0.322 N 
ATOM      4  C   UNL d   1      -1.812  -1.943   0.205  0.00  0.00     0.032 C 
ATOM      5  C   UNL d   1      -1.388   0.589   0.132  0.00  0.00     0.006 A 
ATOM      6  C   UNL d   1      -0.163   1.251   0.000  0.00  0.00     0.046 A 
ATOM      7  O   UNL d   1       1.109  -1.959   0.338  0.00  0.00    -0.267 OA
ATOM      8  C   UNL d   1      -2.569   1.307   0.159  0.00  0.00     0.015 A 
ATOM      9  C   UNL d   1      -0.071   2.618  -0.166  0.00  0.00     0.030 A 
ATOM     10  C   UNL d   1      -2.500   2.696   0.006  0.00  0.00     0.001 A 
ATOM     11  C   UNL d   1      -1.265   3.343  -0.170  0.00  0.00     0.002 A 
ATOM     12  H   UNL d   1       1.876   0.583   0.015  0.00  0.00     0.169 HD
ENDROOT
BRANCH   4  13
ATOM     13  C   UNL d   1      -3.263  -1.975   0.012  0.00  0.00    -0.002 A 
ATOM     14  C   UNL d   1      -3.895  -1.907  -1.244  0.00  0.00     0.078 A 
ATOM     15  C   UNL d   1      -5.294  -1.867  -1.308  0.00  0.00     0.037 A 
ATOM     16  C   UNL d   1      -6.069  -1.917  -0.150  0.00  0.00     0.003 A 
ATOM     17  C   UNL d   1      -5.449  -1.995   1.092  0.00  0.00     0.001 A 
ATOM     18  C   UNL d   1      -4.055  -2.025   1.173  0.00  0.00     0.014 A 
BRANCH  14  19
ATOM     19  O   UNL d   1      -3.297  -1.790  -2.471  0.00  0.00    -0.355 OA
ATOM     20  C   UNL d   1      -2.115  -2.550  -2.695  0.00  0.00     0.210 C 
ENDBRANCH  14  19
ENDBRANCH   4  13
TORSDOF 2
