REMARK  5 active torsions:
REMARK  status: ('A' for Active; 'I' for Inactive)
REMARK    1  A    between atoms: N_2  and  S_1 
REMARK    2  A    between atoms: C_7  and  S_1 
REMARK       I    between atoms: C_4  and  N_2 
REMARK    3  A    between atoms: C_5  and  C_4 
REMARK    4  A    between atoms: O_8  and  C_6 
REMARK    5  A    between atoms: C_17  and  O_8 
ROOT
ATOM      1  C   UNL d   1       1.818   1.035   2.901  0.00  0.00     0.084 A 
ATOM      2  C   UNL d   1       1.215   0.568   4.062  0.00  0.00     0.163 A 
ATOM      3  N   UNL d   1       1.864  -0.254   4.938  0.00  0.00    -0.346 N 
ATOM      4  HN  UNL d   1       1.422  -0.533   5.814  1.00  0.00     0.167 HD
ATOM      5  C   UNL d   1       3.112   0.570   2.607  0.00  0.00     0.023 A 
ATOM      6  C   UNL d   1       3.100  -0.691   4.620  0.00  0.00     0.090 A 
ATOM      7  C   UNL d   1       3.754  -0.317   3.465  0.00  0.00     0.018 A 
ENDROOT
BRANCH   1   8
ATOM      8  C   UNL d   1       1.161   1.980   1.955  0.00  0.00     0.267 C 
ATOM      9  N   UNL d   1       1.982   2.797   1.147  0.00  0.00    -0.279 N 
ATOM     10  HN  UNL d   1       2.951   2.521   0.988  1.00  0.00     0.179 HD
ATOM     11  O   UNL d   1      -0.052   1.919   1.805  0.00  0.00    -0.267 OA
BRANCH   9  12
ATOM     12  S   UNL d   1       1.458   4.090   0.498  0.00  0.00     0.055 S 
ATOM     13  O   UNL d   1       0.608   5.058   1.157  0.00  0.00    -0.245 OA
ATOM     14  C   UNL d   1       0.708   3.684  -1.062  0.00  0.00     0.142 C 
BRANCH  12  15
ATOM     15  C   UNL d   1       2.924   4.993  -0.012  0.00  0.00     0.038 A 
ATOM     16  C   UNL d   1       4.054   4.300  -0.459  0.00  0.00     0.023 A 
ATOM     17  C   UNL d   1       5.204   5.011  -0.811  0.00  0.00     0.025 A 
ATOM     18  C   UNL d   1       5.218   6.403  -0.716  0.00  0.00     0.034 A 
ATOM     19  C   UNL d   1       4.088   7.095  -0.277  0.00  0.00     0.025 A 
ATOM     20 CL   UNL d   1       6.642   7.274  -1.133  0.00  0.00    -0.084 Cl
ATOM     21  C   UNL d   1       2.937   6.390   0.080  0.00  0.00     0.023 A 
ENDBRANCH  12  15
ENDBRANCH   9  12
ENDBRANCH   1   8
BRANCH   2  22
ATOM     22  O   UNL d   1      -0.078   0.958   4.388  0.00  0.00    -0.293 OA
BRANCH  22  23
ATOM     23  C   UNL d   1      -0.785   0.127   5.234  0.00  0.00     0.077 A 
ATOM     24  C   UNL d   1      -1.498   0.714   6.282  0.00  0.00     0.037 A 
ATOM     25  C   UNL d   1      -2.194  -0.092   7.187  0.00  0.00     0.003 A 
ATOM     26  C   UNL d   1      -2.187  -1.481   7.043  0.00  0.00     0.000 A 
ATOM     27  C   UNL d   1      -1.511  -2.065   5.974  0.00  0.00     0.003 A 
ATOM     28  C   UNL d   1      -0.833  -1.262   5.057  0.00  0.00     0.037 A 
ENDBRANCH  22  23
ENDBRANCH   2  22
TORSDOF 5
