REMARK  7 active torsions:
REMARK  status: ('A' for Active; 'I' for Inactive)
REMARK    1  A    between atoms: N_10  and  C_3 
REMARK    2  A    between atoms: C_7  and  C_4 
REMARK    3  A    between atoms: C_9  and  C_11 
REMARK    4  A    between atoms: C_11  and  O_25 
REMARK    5  A    between atoms: C_28  and  N_12 
REMARK    6  A    between atoms: O_25  and  C_29 
REMARK    7  A    between atoms: C_29  and  C_28 
ROOT
ATOM      1  N   UNL d   1       0.901  -1.359  -0.150  0.00  0.00    -0.349 N 
ATOM      2  HN  UNL d   1       0.543  -2.313  -0.198  1.00  0.00     0.166 HD
ATOM      3  C   UNL d   1       1.877   1.276  -0.003  0.00  0.00     0.045 A 
ATOM      4  C   UNL d   1       1.199  -0.801   1.048  0.00  0.00     0.119 A 
ATOM      5  C   UNL d   1       1.083  -0.642  -1.279  0.00  0.00     0.084 A 
ATOM      6  C   UNL d   1       1.578   0.680  -1.266  0.00  0.00     0.020 A 
ATOM      7  C   UNL d   1       1.680   0.498   1.148  0.00  0.00     0.064 A 
ATOM      8  C   UNL d   1       0.751  -1.214  -2.509  0.00  0.00     0.143 A 
ATOM      9  F   UNL d   1       0.239  -2.455  -2.550  0.00  0.00    -0.204 F 
ATOM     10  C   UNL d   1       1.698   1.356  -2.512  0.00  0.00     0.016 A 
ATOM     11  C   UNL d   1       1.403   0.743  -3.727  0.00  0.00     0.004 A 
ATOM     12  C   UNL d   1       0.914  -0.550  -3.723  0.00  0.00     0.045 A 
ENDROOT
BRANCH   3  13
ATOM     13  N   UNL d   1       2.267   2.610   0.108  0.00  0.00    -0.377 N 
ATOM     14  C   UNL d   1       1.896   3.391   1.303  0.00  0.00     0.153 C 
ATOM     15  C   UNL d   1       1.803   4.889   0.916  0.00  0.00     0.292 C 
ATOM     16  N   UNL d   1       3.025   5.451   0.278  0.00  0.00     0.093 N 
ATOM     17  C   UNL d   1       3.383   4.569  -0.866  0.00  0.00     0.292 C 
ATOM     18  C   UNL d   1       3.529   3.065  -0.510  0.00  0.00     0.153 C 
BRANCH  16  19
ATOM     19  C   UNL d   1       4.117   5.574   1.258  0.00  0.00     0.299 C 
BRANCH  19  20
ATOM     20  C   UNL d   1       5.382   6.249   0.701  0.00  0.00     0.209 C 
BRANCH  20  21
ATOM     21  O   UNL d   1       6.401   6.350   1.716  0.00  0.00    -0.313 OA
BRANCH  21  22
ATOM     22  C   UNL d   1       7.155   5.215   1.896  0.00  0.00     0.367 C 
ATOM     23  O   UNL d   1       6.955   4.168   1.294  0.00  0.00    -0.255 OA
BRANCH  22  24
ATOM     24  C   UNL d   1       8.252   5.432   2.940  0.00  0.00     0.479 C 
ATOM     25  F   UNL d   1       8.323   6.712   3.408  0.00  0.00    -0.162 F 
ATOM     26  F   UNL d   1       8.074   4.640   4.035  0.00  0.00    -0.162 F 
ATOM     27  F   UNL d   1       9.492   5.139   2.455  0.00  0.00    -0.162 F 
ENDBRANCH  22  24
ENDBRANCH  21  22
ENDBRANCH  20  21
ENDBRANCH  19  20
ENDBRANCH  16  19
ENDBRANCH   3  13
BRANCH   4  28
ATOM     28  C   UNL d   1       1.003  -1.609   2.324  0.00  0.00     0.432 C 
ATOM     29  F   UNL d   1       0.484  -2.854   2.136  0.00  0.00    -0.165 F 
ATOM     30  F   UNL d   1       2.173  -1.793   3.005  0.00  0.00    -0.165 F 
ATOM     31  F   UNL d   1       0.167  -0.989   3.210  0.00  0.00    -0.165 F 
ENDBRANCH   4  28
TORSDOF 7
