REMARK  4 active torsions:
REMARK  status: ('A' for Active; 'I' for Inactive)
REMARK    1  A    between atoms: C_5  and  C_1 
REMARK    2  A    between atoms: N_2  and  C_3 
REMARK    3  A    between atoms: C_4  and  N_2 
REMARK    4  A    between atoms: O_9  and  C_5 
ROOT
ATOM      1  C   UNL d   1      -0.680  -0.749   0.117  0.00  0.00     0.064 A 
ATOM      2  C   UNL d   1       0.626  -1.217  -0.145  0.00  0.00     0.049 A 
ATOM      3  C   UNL d   1      -1.018   0.591  -0.139  0.00  0.00     0.020 A 
ATOM      4  C   UNL d   1       1.566  -0.311  -0.668  0.00  0.00     0.030 A 
ATOM      5  C   UNL d   1      -0.066   1.474  -0.642  0.00  0.00     0.001 A 
ATOM      6  C   UNL d   1       1.225   1.022  -0.907  0.00  0.00     0.002 A 
ENDROOT
BRANCH   2   7
ATOM      7  N   UNL d   1       0.954  -2.588   0.028  0.00  0.00    -0.355 N 
ATOM      8  H   UNL d   1       0.422  -3.152  -0.634  0.00  0.00     0.166 HD
BRANCH   7   9
ATOM      9  C   UNL d   1       2.220  -3.143   0.348  0.00  0.00     0.040 A 
ATOM     10  C   UNL d   1       2.708  -4.320  -0.266  0.00  0.00    -0.014 A 
ATOM     11  C   UNL d   1       3.905  -4.890   0.229  0.00  0.00     0.042 A 
ATOM     12  C   UNL d   1       2.003  -4.987  -1.420  0.00  0.00     0.052 C 
ATOM     13 CL   UNL d   1       4.533  -6.379  -0.396  0.00  0.00    -0.084 Cl
ATOM     14  C   UNL d   1       4.629  -4.282   1.256  0.00  0.00     0.024 A 
ATOM     15  C   UNL d   1       4.180  -3.093   1.811  0.00  0.00     0.004 A 
ATOM     16  C   UNL d   1       2.984  -2.533   1.364  0.00  0.00     0.030 A 
ENDBRANCH   7   9
ENDBRANCH   2   7
BRANCH   1  17
ATOM     17  C   UNL d   1      -1.751  -1.608   0.688  0.00  0.00     0.178 C 
ATOM     18  O   UNL d   1      -2.937  -1.413   0.482  0.00  0.00    -0.646 OA
BRANCH  17  19
ATOM     19  O   UNL d   1      -1.301  -2.580   1.507  0.00  0.00    -0.773 OA
ATOM     20  H   UNL d   1      -0.321  -2.620   1.558  0.00  0.00     0.167 HD
ENDBRANCH  17  19
ENDBRANCH   1  17
TORSDOF 4
