REMARK  8 active torsions:
REMARK  status: ('A' for Active; 'I' for Inactive)
REMARK    1  A    between atoms: C_4  and  C_1 
REMARK    2  A    between atoms: N_2  and  C_7 
REMARK    3  A    between atoms: C_3  and  C_11 
REMARK       I    between atoms: N_9  and  C_4 
REMARK    4  A    between atoms: O_13  and  C_6 
REMARK       I    between atoms: C_8  and  N_10 
REMARK    5  A    between atoms: C_15  and  C_8 
REMARK    6  A    between atoms: N_10  and  N_9 
REMARK    7  A    between atoms: C_27  and  O_13 
REMARK    8  A    between atoms: O_33  and  C_28 
ROOT
ATOM      1  C   UNL d   1       1.560  -0.202   0.264  0.00  0.00     0.069 A 
ATOM      2  C   UNL d   1       0.636  -1.247   0.443  0.00  0.00     0.056 A 
ATOM      3  C   UNL d   1       1.141   1.006  -0.317  0.00  0.00     0.092 A 
ATOM      4  C   UNL d   1      -0.712  -1.049   0.116  0.00  0.00     0.104 A 
ATOM      5  C   UNL d   1      -0.218   1.196  -0.613  0.00  0.00     0.041 A 
ATOM      6  C   UNL d   1      -1.147   0.178  -0.396  0.00  0.00     0.039 A 
ENDROOT
BRANCH   1   7
ATOM      7  C   UNL d   1       2.940  -0.464   0.754  0.00  0.00     0.273 C 
ATOM      8  N   UNL d   1       3.525   0.555   1.467  0.00  0.00    -0.263 N 
ATOM      9  H   UNL d   1       3.109   1.478   1.589  0.00  0.00     0.190 HD
ATOM     10  O   UNL d   1       3.473  -1.552   0.559  0.00  0.00    -0.266 OA
BRANCH   8  11
ATOM     11  N   UNL d   1       4.838   0.409   1.922  0.00  0.00    -0.263 N 
ATOM     12  C   UNL d   1       5.384   1.481   2.598  0.00  0.00     0.270 C 
ATOM     13  O   UNL d   1       4.735   2.508   2.803  0.00  0.00    -0.266 OA
ATOM     14  H   UNL d   1       5.334  -0.422   1.617  0.00  0.00     0.190 HD
BRANCH  12  15
ATOM     15  C   UNL d   1       6.794   1.379   3.077  0.00  0.00     0.033 A 
ATOM     16  C   UNL d   1       7.368   2.532   3.635  0.00  0.00     0.018 A 
ATOM     17  C   UNL d   1       8.677   2.519   4.124  0.00  0.00     0.017 A 
ATOM     18  C   UNL d   1       9.442   1.347   4.068  0.00  0.00     0.048 A 
ATOM     19  C   UNL d   1       8.867   0.192   3.514  0.00  0.00     0.017 A 
ATOM     20  C   UNL d   1       7.552   0.204   3.024  0.00  0.00     0.018 A 
BRANCH  18  21
ATOM     21  C   UNL d   1      10.857   1.317   4.596  0.00  0.00     0.417 C 
ATOM     22  F   UNL d   1      11.278   2.513   5.097  0.00  0.00    -0.166 F 
ATOM     23  F   UNL d   1      11.018   0.414   5.602  0.00  0.00    -0.166 F 
ATOM     24  F   UNL d   1      11.762   0.976   3.637  0.00  0.00    -0.166 F 
ENDBRANCH  18  21
ENDBRANCH  12  15
ENDBRANCH   8  11
ENDBRANCH   1   7
BRANCH   3  25
ATOM     25  O   UNL d   1       1.921   2.112  -0.557  0.00  0.00    -0.310 OA
BRANCH  25  26
ATOM     26  C   UNL d   1       3.124   2.000  -1.214  0.00  0.00     0.076 A 
ATOM     27  C   UNL d   1       3.498   0.961  -2.067  0.00  0.00     0.040 A 
ATOM     28  C   UNL d   1       4.804   0.907  -2.572  0.00  0.00     0.039 A 
ATOM     29  C   UNL d   1       5.724   1.908  -2.252  0.00  0.00     0.068 A 
ATOM     30  C   UNL d   1       5.311   2.997  -1.486  0.00  0.00     0.039 A 
ATOM     31  C   UNL d   1       4.019   3.043  -0.966  0.00  0.00     0.040 A 
BRANCH  29  32
ATOM     32  O   UNL d   1       7.034   1.940  -2.638  0.00  0.00    -0.356 OA
ATOM     33  C   UNL d   1       7.621   0.686  -2.965  0.00  0.00     0.210 C 
ENDBRANCH  29  32
ENDBRANCH  25  26
ENDBRANCH   3  25
BRANCH   4  34
ATOM     34  N   UNL d   1      -1.684  -2.128   0.334  0.00  0.00    -0.116 N 
ATOM     35  O   UNL d   1      -1.241  -3.251   0.609  0.00  0.00    -0.532 OA
ATOM     36  O   UNL d   1      -2.885  -1.848   0.230  0.00  0.00    -0.532 OA
ENDBRANCH   4  34
TORSDOF 8
