REMARK  2 active torsions:
REMARK  status: ('A' for Active; 'I' for Inactive)
REMARK    1  A    between atoms: O_8  and  C_5 
REMARK    2  A    between atoms: O_9  and  C_6 
ROOT
ATOM      1  C   UNL d   1       0.117   0.776   0.023  0.00  0.00     0.008 A 
ATOM      2  C   UNL d   1       0.099  -0.648  -0.007  0.00  0.00    -0.021 A 
ATOM      3  C   UNL d   1       1.409   1.365   0.051  0.00  0.00     0.018 A 
ATOM      4  C   UNL d   1       1.296  -1.388  -0.026  0.00  0.00     0.049 A 
ATOM      5  C   UNL d   1      -1.144   1.454   0.025  0.00  0.00     0.079 A 
ATOM      6  C   UNL d   1       2.543  -0.766  -0.013  0.00  0.00     0.069 A 
ATOM      7  C   UNL d   1       2.594   0.616   0.032  0.00  0.00     0.037 A 
ATOM      8  C   UNL d   1      -1.118  -1.349  -0.018  0.00  0.00     0.012 A 
ATOM      9  C   UNL d   1      -2.331  -0.676  -0.007  0.00  0.00     0.004 A 
ATOM     10  C   UNL d   1      -2.338   0.710   0.011  0.00  0.00     0.037 A 
ENDROOT
BRANCH   5  11
ATOM     11  O   UNL d   1      -1.440   2.791   0.037  0.00  0.00    -0.355 OA
ATOM     12  C   UNL d   1      -0.438   3.783   0.003  0.00  0.00     0.210 C 
ENDBRANCH   5  11
BRANCH   6  13
ATOM     13  O   UNL d   1       3.622  -1.606  -0.044  0.00  0.00    -0.356 OA
ATOM     14  C   UNL d   1       4.904  -0.989  -0.066  0.00  0.00     0.210 C 
ENDBRANCH   6  13
TORSDOF 2
