REMARK  3 active torsions:
REMARK  status: ('A' for Active; 'I' for Inactive)
REMARK    1  A    between atoms: C_3  and  C_1 
REMARK    2  A    between atoms: C_2  and  N_4 
REMARK       I    between atoms: N_7  and  C_3 
REMARK    3  A    between atoms: N_4  and  N_7 
ROOT
ATOM      1  N   UNL d   1       2.383   3.200   0.259  0.00  0.00    -0.200 NA
ATOM      2  H   UNL d   1       2.665   2.351  -0.256  0.00  0.00     0.153 HD
ENDROOT
BRANCH   1   3
ATOM      3  C   UNL d   1       3.295   4.265  -0.016  0.00  0.00     0.073 A 
ATOM      4  C   UNL d   1       4.524   4.261   0.683  0.00  0.00     0.073 A 
ATOM      5 CL   UNL d   1       4.901   3.055   1.865  0.00  0.00    -0.081 Cl
ATOM      6  C   UNL d   1       5.463   5.256   0.439  0.00  0.00     0.113 A 
ATOM      7  N   UNL d   1       5.295   6.243  -0.466  0.00  0.00    -0.372 N 
ATOM      8  C   UNL d   1       4.141   6.211  -1.169  0.00  0.00     0.113 A 
ATOM      9  HN  UNL d   1       5.997   6.969  -0.610  1.00  0.00     0.164 HD
ATOM     10  C   UNL d   1       3.135   5.259  -1.003  0.00  0.00     0.073 A 
ATOM     11 CL   UNL d   1       1.785   5.376  -2.075  0.00  0.00    -0.081 Cl
ENDBRANCH   1   3
BRANCH   1  12
ATOM     12  N   UNL d   1       1.030   3.473   0.032  0.00  0.00    -0.282 N 
ATOM     13  C   UNL d   1       0.257   2.512  -0.611  0.00  0.00     0.274 C 
ATOM     14  O   UNL d   1       0.788   1.487  -1.043  0.00  0.00    -0.266 OA
ATOM     15  H   UNL d   1       0.617   4.271   0.502  0.00  0.00     0.184 HD
BRANCH  13  16
ATOM     16  C   UNL d   1      -1.164   2.817  -0.730  0.00  0.00     0.095 A 
ATOM     17  C   UNL d   1      -2.178   2.018  -1.228  0.00  0.00     0.057 A 
ATOM     18  C   UNL d   1      -3.447   2.670  -1.217  0.00  0.00     0.032 A 
ATOM     19 CL   UNL d   1      -2.030   0.414  -1.815  0.00  0.00    -0.083 Cl
ATOM     20  C   UNL d   1      -3.373   3.946  -0.709  0.00  0.00     0.052 A 
ATOM     21  S   UNL d   1      -1.785   4.348  -0.236  0.00  0.00    -0.095 SA
ENDBRANCH  13  16
ENDBRANCH   1  12
TORSDOF 3
