REMARK  4 active torsions:
REMARK  status: ('A' for Active; 'I' for Inactive)
REMARK    1  A    between atoms: C_2  and  C_1 
REMARK    2  A    between atoms: C_5  and  C_2 
REMARK    3  A    between atoms: N_12  and  N_3 
REMARK    4  A    between atoms: C_15  and  N_12 
ROOT
ATOM      1  C   UNL d   1       0.816  -0.040   0.079  0.00  0.00     0.175 C 
ATOM      2  N   UNL d   1       0.163  -0.646  -0.873  0.00  0.00    -0.287 N 
ATOM      3  HN  UNL d   1       0.673  -1.124  -1.616  1.00  0.00     0.188 HD
ATOM      4  C   UNL d   1       0.073   0.596   1.142  0.00  0.00     0.123 C 
ATOM      5  N   UNL d   1      -0.567   1.103   1.969  0.00  0.00    -0.190 NA
ENDROOT
BRANCH   1   6
ATOM      6  C   UNL d   1       2.317   0.009   0.056  0.00  0.00     0.192 C 
ATOM      7  O   UNL d   1       2.906   0.962   0.545  0.00  0.00    -0.290 OA
BRANCH   6   8
ATOM      8  C   UNL d   1       3.025  -1.141  -0.574  0.00  0.00     0.063 A 
ATOM      9  C   UNL d   1       4.354  -1.604  -0.018  0.00  0.00     0.013 A 
ATOM     10  C   UNL d   1       4.307  -0.904  -1.344  0.00  0.00     0.013 A 
ENDBRANCH   6   8
ENDBRANCH   1   6
BRANCH   2  11
ATOM     11  N   UNL d   1      -1.210  -0.642  -0.878  0.00  0.00    -0.300 N 
ATOM     12  H   UNL d   1      -1.709   0.209  -0.606  0.00  0.00     0.187 HD
BRANCH  11  13
ATOM     13  C   UNL d   1      -1.825  -1.312  -1.961  0.00  0.00     0.049 A 
ATOM     14  C   UNL d   1      -1.235  -2.440  -2.547  0.00  0.00     0.056 A 
ATOM     15  C   UNL d   1      -1.849  -3.107  -3.612  0.00  0.00     0.058 A 
ATOM     16 CL   UNL d   1      -1.039  -4.485  -4.268  0.00  0.00    -0.082 Cl
ATOM     17  C   UNL d   1      -3.074  -2.651  -4.103  0.00  0.00     0.055 A 
ATOM     18  C   UNL d   1      -3.686  -1.542  -3.514  0.00  0.00     0.028 A 
ATOM     19 CL   UNL d   1      -3.883  -3.410  -5.428  0.00  0.00    -0.083 Cl
ATOM     20  C   UNL d   1      -3.072  -0.886  -2.439  0.00  0.00     0.033 A 
ENDBRANCH  11  13
ENDBRANCH   2  11
TORSDOF 4
