REMARK  9 active torsions:
REMARK  status: ('A' for Active; 'I' for Inactive)
REMARK    1  A    between atoms: C_3  and  C_1 
REMARK    2  A    between atoms: O_8  and  C_1 
REMARK    3  A    between atoms: C_2  and  C_4 
REMARK    4  A    between atoms: O_7  and  C_2 
REMARK    5  A    between atoms: C_11  and  C_12 
REMARK    6  A    between atoms: C_15  and  C_11 
REMARK    7  A    between atoms: C_16  and  C_11 
REMARK    8  A    between atoms: C_19  and  C_12 
REMARK    9  A    between atoms: N_20  and  C_19 
ROOT
ATOM      1  C   UNL d   1       2.446  -1.139   2.135  0.00  0.00     0.088 C 
ATOM      2  C   UNL d   1       2.288  -0.148   3.023  0.00  0.00     0.088 C 
ENDROOT
BRANCH   1   3
ATOM      3  C   UNL d   1       3.403  -0.954   1.040  0.00  0.00     0.165 C 
ATOM      4  O   UNL d   1       4.093   0.030   0.842  0.00  0.00    -0.647 OA
BRANCH   3   5
ATOM      5  O   UNL d   1       3.414  -2.015   0.227  0.00  0.00    -0.773 OA
ATOM      6  H   UNL d   1       4.064  -1.784  -0.468  0.00  0.00     0.167 HD
ENDBRANCH   3   5
ENDBRANCH   1   3
BRANCH   2   7
ATOM      7  C   UNL d   1       1.268  -0.279   4.078  0.00  0.00     0.165 C 
ATOM      8  O   UNL d   1       0.547  -1.249   4.225  0.00  0.00    -0.647 OA
BRANCH   7   9
ATOM      9  O   UNL d   1       1.236   0.800   4.882  0.00  0.00    -0.773 OA
ATOM     10  H   UNL d   1       1.845   1.521   4.645  0.00  0.00     0.167 HD
ENDBRANCH   7   9
ENDBRANCH   2   7
TORSDOF 9
