REMARK  10 active torsions:
REMARK  status: ('A' for Active; 'I' for Inactive)
REMARK    1  A    between atoms: C_4  and  C_1 
REMARK    2  A    between atoms: N_6  and  C_2 
REMARK    3  A    between atoms: O_15  and  C_4 
REMARK       I    between atoms: C_9  and  N_6 
REMARK    4  A    between atoms: O_17  and  C_7 
REMARK    5  A    between atoms: O_18  and  C_8 
REMARK    6  A    between atoms: C_19  and  C_9 
REMARK    7  A    between atoms: C_10  and  C_20 
REMARK    8  A    between atoms: O_16  and  C_10 
REMARK    9  A    between atoms: S_14  and  C_19 
REMARK   10  A    between atoms: C_20  and  S_14 
ROOT
ATOM      1  C   UNL d   1       1.437  -0.211   0.156  0.00  0.00     0.067 A 
ATOM      2  C   UNL d   1       0.633  -1.363   0.154  0.00  0.00     0.054 A 
ATOM      3  C   UNL d   1       0.834   1.052   0.165  0.00  0.00     0.060 A 
ATOM      4  C   UNL d   1      -0.766  -1.228   0.093  0.00  0.00     0.070 A 
ATOM      5  C   UNL d   1      -0.559   1.182   0.108  0.00  0.00     0.102 A 
ATOM      6  C   UNL d   1      -1.372   0.038   0.037  0.00  0.00     0.103 A 
ENDROOT
BRANCH   2   7
ATOM      7  N   UNL d   1       1.216  -2.655   0.126  0.00  0.00    -0.325 N 
ATOM      8  C   UNL d   1       0.797  -3.692   0.939  0.00  0.00     0.231 C 
ATOM      9  O   UNL d   1      -0.011  -3.584   1.861  0.00  0.00    -0.272 OA
ATOM     10  H   UNL d   1       2.222  -2.694  -0.063  0.00  0.00     0.169 HD
BRANCH   8  11
ATOM     11  C   UNL d   1       1.512  -5.007   0.680  0.00  0.00     0.177 C 
BRANCH  11  12
ATOM     12  S   UNL d   1       3.314  -4.849   0.873  0.00  0.00    -0.149 SA
BRANCH  12  13
ATOM     13  C   UNL d   1       3.423  -4.165   2.562  0.00  0.00     0.184 C 
BRANCH  13  14
ATOM     14  C   UNL d   1       2.882  -5.121   3.600  0.00  0.00     0.149 C 
ATOM     15  O   UNL d   1       3.522  -6.045   4.081  0.00  0.00    -0.649 OA
BRANCH  14  16
ATOM     16  O   UNL d   1       1.589  -4.896   3.945  0.00  0.00    -0.776 OA
ATOM     17  H   UNL d   1       1.125  -4.163   3.483  0.00  0.00     0.167 HD
ENDBRANCH  14  16
ENDBRANCH  13  14
ENDBRANCH  12  13
ENDBRANCH  11  12
ENDBRANCH   8  11
ENDBRANCH   2   7
BRANCH   1  18
ATOM     18  C   UNL d   1       2.914  -0.329   0.268  0.00  0.00     0.178 C 
ATOM     19  O   UNL d   1       3.454  -1.261   0.840  0.00  0.00    -0.646 OA
BRANCH  18  20
ATOM     20  O   UNL d   1       3.603   0.635  -0.373  0.00  0.00    -0.773 OA
ATOM     21  H   UNL d   1       3.081   1.243  -0.931  0.00  0.00     0.167 HD
ENDBRANCH  18  20
ENDBRANCH   1  18
BRANCH   6  22
ATOM     22  O   UNL d   1      -2.717   0.234  -0.120  0.00  0.00    -0.353 OA
ATOM     23  C   UNL d   1      -3.562  -0.904  -0.235  0.00  0.00     0.210 C 
ENDBRANCH   6  22
BRANCH   5  24
ATOM     24  O   UNL d   1      -0.968   2.491   0.076  0.00  0.00    -0.353 OA
ATOM     25  C   UNL d   1      -2.218   2.785   0.692  0.00  0.00     0.210 C 
ENDBRANCH   5  24
TORSDOF 10
