REMARK  8 active torsions:
REMARK  status: ('A' for Active; 'I' for Inactive)
REMARK    1  A    between atoms: C_2  and  C_1 
REMARK    2  A    between atoms: C_4  and  C_1 
REMARK    3  A    between atoms: C_6  and  C_1 
REMARK    4  A    between atoms: O_13  and  C_1 
REMARK       I    between atoms: C_3  and  N_5 
REMARK    5  A    between atoms: C_7  and  C_3 
REMARK    6  A    between atoms: O_19  and  C_4 
REMARK    7  A    between atoms: N_5  and  C_18 
REMARK    8  A    between atoms: C_25  and  O_19 
ROOT
ATOM      1  C   UNL d   1       0.500  -0.944   0.832  0.00  0.00    -0.005 A 
ATOM      2  C   UNL d   1       0.361  -2.269   0.385  0.00  0.00     0.013 A 
ATOM      3  C   UNL d   1       0.315  -0.708   2.205  0.00  0.00     0.013 A 
ATOM      4  C   UNL d   1      -0.032  -3.069   2.652  0.00  0.00     0.035 A 
ATOM      5  C   UNL d   1       0.057  -1.755   3.099  0.00  0.00     0.030 A 
ATOM      6  C   UNL d   1       0.098  -3.314   1.281  0.00  0.00     0.030 A 
ENDROOT
BRANCH   1   7
ATOM      7  C   UNL d   1       0.893   0.192  -0.131  0.00  0.00     0.271 C 
BRANCH   7   8
ATOM      8  C   UNL d   1      -0.047   0.356  -1.350  0.00  0.00     0.432 C 
ATOM      9  F   UNL d   1       0.563   0.126  -2.537  0.00  0.00    -0.167 F 
ATOM     10  F   UNL d   1      -1.138  -0.443  -1.310  0.00  0.00    -0.167 F 
ATOM     11  F   UNL d   1      -0.512   1.635  -1.417  0.00  0.00    -0.167 F 
ENDBRANCH   7   8
BRANCH   7  12
ATOM     12  C   UNL d   1       2.298  -0.065  -0.719  0.00  0.00     0.308 C 
ATOM     13  O   UNL d   1       2.727  -1.150  -1.092  0.00  0.00    -0.261 OA
BRANCH  12  14
ATOM     14  O   UNL d   1       3.030   1.094  -0.753  0.00  0.00    -0.319 OA
BRANCH  14  15
ATOM     15  C   UNL d   1       4.450   0.931  -0.902  0.00  0.00     0.174 C 
ATOM     16  C   UNL d   1       4.901   1.309  -2.299  0.00  0.00     0.034 C 
ENDBRANCH  14  15
ENDBRANCH  12  14
ENDBRANCH   7  12
BRANCH   7  17
ATOM     17  O   UNL d   1       0.936   1.426   0.647  0.00  0.00    -0.368 OA
ATOM     18  H   UNL d   1       1.209   2.133   0.032  0.00  0.00     0.212 HD
ENDBRANCH   7  17
ENDBRANCH   1   7
BRANCH   4  19
ATOM     19  N   UNL d   1      -0.239  -4.181   3.497  0.00  0.00    -0.323 N 
ATOM     20  C   UNL d   1      -0.303  -4.177   4.880  0.00  0.00     0.256 C 
ATOM     21  O   UNL d   1      -0.203  -3.211   5.626  0.00  0.00    -0.267 OA
ATOM     22  H   UNL d   1      -0.376  -5.064   3.027  0.00  0.00     0.169 HD
BRANCH  20  23
ATOM     23  C   UNL d   1      -0.577  -5.509   5.496  0.00  0.00     0.032 A 
ATOM     24  C   UNL d   1      -0.050  -6.698   4.980  0.00  0.00     0.017 A 
ATOM     25  C   UNL d   1      -0.413  -7.925   5.544  0.00  0.00     0.007 A 
ATOM     26  C   UNL d   1      -1.293  -7.975   6.634  0.00  0.00    -0.062 A 
ATOM     27  C   UNL d   1      -1.771  -6.779   7.181  0.00  0.00     0.007 A 
ATOM     28  C   UNL d   1      -1.759  -9.299   7.167  0.00  0.00     0.048 C 
ATOM     29  C   UNL d   1      -1.409  -5.552   6.622  0.00  0.00     0.017 A 
ENDBRANCH  20  23
ENDBRANCH   4  19
TORSDOF 8
