REMARK  4 active torsions:
REMARK  status: ('A' for Active; 'I' for Inactive)
REMARK    1  A    between atoms: C_8  and  C_1 
REMARK    2  A    between atoms: C_5  and  C_2 
REMARK    3  A    between atoms: C_9  and  C_8 
REMARK    4  A    between atoms: O_13  and  C_8 
ROOT
ATOM      1  C   UNL d   1      -0.026  -1.246   0.053  0.00  0.00     0.036 A 
ATOM      2  C   UNL d   1      -1.362  -0.749   0.282  0.00  0.00     0.078 A 
ATOM      3  N   UNL d   1      -1.338   0.579   0.470  0.00  0.00    -0.260 N 
ATOM      4  HN  UNL d   1      -2.138   1.179   0.671  1.00  0.00     0.195 HD
ATOM      5  O   UNL d   1      -0.032   0.976   0.342  0.00  0.00    -0.242 OA
ATOM      6  C   UNL d   1       0.752  -0.103   0.110  0.00  0.00     0.084 A 
ATOM      7  C   UNL d   1       2.200   0.172   0.001  0.00  0.00     0.079 C 
ENDROOT
BRANCH   1   8
ATOM      8  C   UNL d   1       0.451  -2.650  -0.133  0.00  0.00     0.189 C 
BRANCH   8   9
ATOM      9  C   UNL d   1      -0.195  -3.313  -1.341  0.00  0.00    -0.025 A 
ATOM     10  C   UNL d   1      -0.876  -2.642  -2.371  0.00  0.00     0.013 A 
ATOM     11  C   UNL d   1      -1.486  -3.355  -3.409  0.00  0.00     0.043 A 
ATOM     12  C   UNL d   1      -1.369  -4.736  -3.457  0.00  0.00     0.116 A 
ATOM     13  C   UNL d   1      -0.649  -5.424  -2.492  0.00  0.00     0.043 A 
ATOM     14  F   UNL d   1      -1.956  -5.416  -4.451  0.00  0.00    -0.206 F 
ATOM     15  C   UNL d   1      -0.068  -4.717  -1.438  0.00  0.00     0.013 A 
ENDBRANCH   8   9
BRANCH   8  16
ATOM     16  O   UNL d   1       1.871  -2.733  -0.257  0.00  0.00    -0.386 OA
ATOM     17  H   UNL d   1       2.068  -2.830  -1.206  0.00  0.00     0.210 HD
ENDBRANCH   8  16
ENDBRANCH   1   8
BRANCH   2  18
ATOM     18  C   UNL d   1      -2.636  -1.480   0.327  0.00  0.00     0.015 A 
ATOM     19  C   UNL d   1      -3.789  -1.046  -0.358  0.00  0.00     0.046 A 
ATOM     20 CL   UNL d   1      -3.824   0.353  -1.380  0.00  0.00    -0.083 Cl
ATOM     21  C   UNL d   1      -4.980  -1.783  -0.282  0.00  0.00     0.025 A 
ATOM     22  C   UNL d   1      -5.034  -2.967   0.449  0.00  0.00     0.002 A 
ATOM     23  C   UNL d   1      -3.901  -3.413   1.120  0.00  0.00     0.001 A 
ATOM     24  C   UNL d   1      -2.719  -2.668   1.074  0.00  0.00     0.015 A 
ENDBRANCH   2  18
TORSDOF 4
