REMARK  3 active torsions:
REMARK  status: ('A' for Active; 'I' for Inactive)
REMARK    1  A    between atoms: N_7  and  C_1 
REMARK    2  A    between atoms: C_16  and  C_6 
REMARK       I    between atoms: C_9  and  N_7 
REMARK    3  A    between atoms: C_8  and  C_9 
ROOT
ATOM      1  N   UNL d   1      -0.198  -2.252  -0.160  0.00  0.00    -0.310 N 
ATOM      2  C   UNL d   1      -1.474  -2.930  -0.034  0.00  0.00     0.255 C 
ATOM      3  O   UNL d   1      -2.519  -2.291   0.029  0.00  0.00    -0.270 OA
ATOM      4  H   UNL d   1       0.630  -2.828  -0.268  0.00  0.00     0.170 HD
ENDROOT
BRANCH   1   5
ATOM      5  C   UNL d   1      -0.024  -0.874  -0.066  0.00  0.00     0.126 A 
ATOM      6  C   UNL d   1      -0.994   0.091   0.096  0.00  0.00     0.082 A 
ATOM      7  C   UNL d   1      -0.313   1.337   0.123  0.00  0.00     0.062 A 
ATOM      8  N   UNL d   1       1.005   1.156  -0.036  0.00  0.00    -0.296 N 
ATOM      9  N   UNL d   1       1.162  -0.176  -0.087  0.00  0.00    -0.281 N 
ATOM     10  HN  UNL d   1       1.728   1.872  -0.105  1.00  0.00     0.187 HD
ATOM     11  C   UNL d   1       2.508  -0.696  -0.101  0.00  0.00     0.179 C 
BRANCH   7  12
ATOM     12  C   UNL d   1      -0.889   2.666   0.305  0.00  0.00    -0.008 A 
ATOM     13  C   UNL d   1      -2.042   2.844   1.083  0.00  0.00     0.014 A 
ATOM     14  C   UNL d   1      -2.568   4.120   1.285  0.00  0.00     0.001 A 
ATOM     15  C   UNL d   1      -1.951   5.229   0.708  0.00  0.00     0.000 A 
ATOM     16  C   UNL d   1      -0.811   5.063  -0.075  0.00  0.00     0.001 A 
ATOM     17  C   UNL d   1      -0.280   3.788  -0.274  0.00  0.00     0.014 A 
ENDBRANCH   7  12
ENDBRANCH   1   5
BRANCH   2  18
ATOM     18  C   UNL d   1      -1.438  -4.466   0.004  0.00  0.00     0.245 C 
ATOM     19  O   UNL d   1      -0.127  -5.030  -0.051  0.00  0.00    -0.331 OA
ATOM     20  C   UNL d   1       0.534  -4.819   1.134  0.00  0.00     0.103 A 
ATOM     21  C   UNL d   1       1.922  -4.726   1.049  0.00  0.00     0.040 A 
ATOM     22  C   UNL d   1      -0.137  -4.517   2.324  0.00  0.00     0.102 A 
ATOM     23  C   UNL d   1       2.633  -4.215   2.130  0.00  0.00     0.003 A 
ATOM     24  C   UNL d   1       1.963  -3.857   3.303  0.00  0.00     0.003 A 
ATOM     25  C   UNL d   1       0.582  -4.038   3.411  0.00  0.00     0.039 A 
ATOM     26  O   UNL d   1      -1.499  -4.556   2.449  0.00  0.00    -0.345 OA
ATOM     27  C   UNL d   1      -2.167  -4.967   1.248  0.00  0.00     0.218 C 
ENDBRANCH   2  18
TORSDOF 3
