REMARK  4 active torsions:
REMARK  status: ('A' for Active; 'I' for Inactive)
REMARK    1  A    between atoms: C_8  and  C_1 
REMARK    2  A    between atoms: N_7  and  C_2 
REMARK    3  A    between atoms: C_11  and  C_3 
REMARK       I    between atoms: C_9  and  N_7 
REMARK    4  A    between atoms: C_10  and  C_9 
ROOT
ATOM      1  C   UNL d   1       1.576   0.703  -0.010  0.00  0.00     0.147 A 
ATOM      2  C   UNL d   1       0.189  -1.048   0.210  0.00  0.00     0.138 A 
ATOM      3  C   UNL d   1       1.526  -0.725   0.002  0.00  0.00     0.053 A 
ATOM      4  N   UNL d   1       0.348   1.219   0.170  0.00  0.00    -0.292 N 
ATOM      5  HN  UNL d   1       0.089   2.205   0.186  1.00  0.00     0.187 HD
ATOM      6  N   UNL d   1      -0.470   0.158   0.326  0.00  0.00    -0.280 N 
ATOM      7  C   UNL d   1      -1.885   0.448   0.360  0.00  0.00     0.179 C 
ENDROOT
BRANCH   2   8
ATOM      8  N   UNL d   1      -0.281  -2.361   0.226  0.00  0.00    -0.307 N 
ATOM      9  C   UNL d   1      -1.385  -2.828   1.009  0.00  0.00     0.258 C 
ATOM     10  O   UNL d   1      -1.836  -2.148   1.908  0.00  0.00    -0.267 OA
ATOM     11  H   UNL d   1       0.309  -3.062  -0.196  0.00  0.00     0.170 HD
BRANCH   9  12
ATOM     12  C   UNL d   1      -1.855  -4.197   0.723  0.00  0.00     0.047 A 
ATOM     13  C   UNL d   1      -2.560  -4.877   1.704  0.00  0.00     0.104 A 
ATOM     14  N   UNL d   1      -3.035  -6.135   1.546  0.00  0.00    -0.374 N 
ATOM     15  C   UNL d   1      -2.812  -6.737   0.357  0.00  0.00     0.087 A 
ATOM     16  HN  UNL d   1      -3.541  -6.609   2.294  1.00  0.00     0.164 HD
ATOM     17  C   UNL d   1      -2.131  -6.132  -0.687  0.00  0.00     0.018 A 
ATOM     18  C   UNL d   1      -1.646  -4.838  -0.505  0.00  0.00     0.020 A 
ENDBRANCH   9  12
ENDBRANCH   2   8
BRANCH   3  19
ATOM     19  C   UNL d   1       2.617  -1.691  -0.018  0.00  0.00    -0.020 A 
ATOM     20  C   UNL d   1       2.651  -2.743  -0.946  0.00  0.00     0.015 A 
ATOM     21  C   UNL d   1       3.654  -3.713  -0.872  0.00  0.00     0.043 A 
ATOM     22  C   UNL d   1       4.648  -3.604   0.095  0.00  0.00     0.116 A 
ATOM     23  C   UNL d   1       4.660  -2.542   0.988  0.00  0.00     0.043 A 
ATOM     24  F   UNL d   1       5.605  -4.537   0.164  0.00  0.00    -0.206 F 
ATOM     25  C   UNL d   1       3.640  -1.589   0.939  0.00  0.00     0.015 A 
ENDBRANCH   3  19
BRANCH   1  26
ATOM     26  C   UNL d   1       2.784   1.593  -0.187  0.00  0.00     0.434 C 
ATOM     27  F   UNL d   1       3.847   0.926  -0.710  0.00  0.00    -0.165 F 
ATOM     28  F   UNL d   1       2.545   2.637  -1.023  0.00  0.00    -0.165 F 
ATOM     29  F   UNL d   1       3.201   2.113   0.998  0.00  0.00    -0.165 F 
ENDBRANCH   1  26
TORSDOF 4
