REMARK  4 active torsions:
REMARK  status: ('A' for Active; 'I' for Inactive)
REMARK    1  A    between atoms: C_13  and  C_2 
REMARK    2  A    between atoms: N_11  and  C_6 
REMARK    3  A    between atoms: C_16  and  N_11 
REMARK    4  A    between atoms: C_17  and  C_16 
ROOT
ATOM      1  C   UNL d   1       0.291   0.969   0.022  0.00  0.00     0.048 A 
ATOM      2  C   UNL d   1      -0.957   1.727  -0.021  0.00  0.00    -0.003 A 
ATOM      3  C   UNL d   1      -2.055   0.885  -0.101  0.00  0.00     0.065 A 
ATOM      4  C   UNL d   1       0.027  -0.392  -0.093  0.00  0.00     0.089 A 
ATOM      5  S   UNL d   1      -1.632  -0.763  -0.147  0.00  0.00    -0.082 SA
ATOM      6  C   UNL d   1       1.666   1.301   0.141  0.00  0.00     0.095 A 
ATOM      7  N   UNL d   1       0.920  -1.393  -0.149  0.00  0.00    -0.346 N 
ATOM      8  HN  UNL d   1       0.666  -2.378  -0.224  1.00  0.00     0.167 HD
ATOM      9  N   UNL d   1       2.585   0.313   0.035  0.00  0.00    -0.342 N 
ATOM     10  HN  UNL d   1       3.581   0.532   0.053  1.00  0.00     0.167 HD
ATOM     11  C   UNL d   1       2.175  -0.954  -0.096  0.00  0.00     0.182 A 
ENDROOT
BRANCH   6  12
ATOM     12  N   UNL d   1       2.145   2.570   0.450  0.00  0.00    -0.273 NA
ATOM     13  H   UNL d   1       1.425   3.271   0.573  0.00  0.00     0.129 HD
BRANCH  12  14
ATOM     14  C   UNL d   1       3.237   3.040  -0.396  0.00  0.00     0.151 C 
BRANCH  14  15
ATOM     15  C   UNL d   1       3.767   4.344   0.170  0.00  0.00     0.022 A 
ATOM     16  N   UNL d   1       3.272   5.506  -0.335  0.00  0.00    -0.368 N 
ATOM     17  C   UNL d   1       3.697   6.654   0.240  0.00  0.00     0.088 A 
ATOM     18  HN  UNL d   1       2.610   5.511  -1.111  1.00  0.00     0.165 HD
ATOM     19  C   UNL d   1       4.588   6.705   1.300  0.00  0.00     0.017 A 
ATOM     20  C   UNL d   1       5.080   5.509   1.804  0.00  0.00     0.003 A 
ATOM     21  C   UNL d   1       4.661   4.311   1.235  0.00  0.00     0.026 A 
ENDBRANCH  14  15
ENDBRANCH  12  14
ENDBRANCH   6  12
BRANCH   2  22
ATOM     22  C   UNL d   1      -1.165   3.180  -0.032  0.00  0.00    -0.024 A 
ATOM     23  C   UNL d   1      -0.368   4.010  -0.831  0.00  0.00     0.012 A 
ATOM     24  C   UNL d   1      -0.500   5.399  -0.773  0.00  0.00     0.001 A 
ATOM     25  C   UNL d   1      -1.486   5.973   0.025  0.00  0.00     0.000 A 
ATOM     26  C   UNL d   1      -2.339   5.158   0.765  0.00  0.00     0.001 A 
ATOM     27  C   UNL d   1      -2.171   3.770   0.748  0.00  0.00     0.012 A 
ENDBRANCH   2  22
TORSDOF 4
