REMARK  5 active torsions:
REMARK  status: ('A' for Active; 'I' for Inactive)
REMARK    1  A    between atoms: C_9  and  C_1 
REMARK    2  A    between atoms: C_14  and  C_6 
REMARK    3  A    between atoms: N_13  and  C_8 
REMARK    4  A    between atoms: O_15  and  C_14 
REMARK    5  A    between atoms: C_17  and  O_15 
ROOT
ATOM      1  C   UNL d   1       1.353   0.778   0.004  0.00  0.00     0.066 A 
ATOM      2  N   UNL d   1       1.491  -0.608  -0.022  0.00  0.00    -0.350 N 
ATOM      3  HN  UNL d   1       2.381  -1.107  -0.049  1.00  0.00     0.166 HD
ATOM      4  C   UNL d   1       0.302  -1.180  -0.004  0.00  0.00     0.075 A 
ATOM      5  C   UNL d   1       0.046   1.228   0.009  0.00  0.00     0.083 A 
ATOM      6  S   UNL d   1      -1.037  -0.096   0.018  0.00  0.00    -0.084 SA
ENDROOT
BRANCH   1   7
ATOM      7  C   UNL d   1       2.506   1.675   0.019  0.00  0.00     0.063 A 
ATOM      8  N   UNL d   1       2.246   3.003   0.028  0.00  0.00    -0.331 N 
ATOM      9  C   UNL d   1       3.299   3.818   0.072  0.00  0.00     0.155 A 
ATOM     10  HN  UNL d   1       1.291   3.362   0.003  1.00  0.00     0.168 HD
ATOM     11  N   UNL d   1       4.573   3.422   0.064  0.00  0.00    -0.343 N 
ATOM     12  C   UNL d   1       4.792   2.095   0.051  0.00  0.00     0.093 A 
ATOM     13  HN  UNL d   1       5.342   4.093   0.067  1.00  0.00     0.167 HD
ATOM     14  C   UNL d   1       3.785   1.165   0.032  0.00  0.00     0.049 A 
BRANCH   9  15
ATOM     15  N   UNL d   1       3.054   5.175   0.088  0.00  0.00    -0.274 NA
ATOM     16  H   UNL d   1       2.154   5.372  -0.324  0.00  0.00     0.127 HD
ATOM     17  H   UNL d   1       3.855   5.671  -0.274  0.00  0.00     0.127 HD
ENDBRANCH   9  15
ENDBRANCH   1   7
BRANCH   4  18
ATOM     18  C   UNL d   1       0.055  -2.659  -0.058  0.00  0.00     0.240 C 
BRANCH  18  19
ATOM     19  O   UNL d   1      -0.016  -3.134   1.290  0.00  0.00    -0.345 OA
BRANCH  19  20
ATOM     20  C   UNL d   1      -0.182  -4.486   1.426  0.00  0.00     0.069 A 
ATOM     21  C   UNL d   1       0.321  -5.039   2.606  0.00  0.00     0.038 A 
ATOM     22  C   UNL d   1       0.198  -6.409   2.856  0.00  0.00     0.026 A 
ATOM     23  C   UNL d   1      -0.446  -7.223   1.928  0.00  0.00     0.034 A 
ATOM     24  C   UNL d   1      -0.972  -6.678   0.760  0.00  0.00     0.026 A 
ATOM     25 CL   UNL d   1      -0.601  -8.910   2.227  0.00  0.00    -0.084 Cl
ATOM     26  C   UNL d   1      -0.843  -5.308   0.509  0.00  0.00     0.038 A 
ENDBRANCH  19  20
ENDBRANCH  18  19
ENDBRANCH   4  18
TORSDOF 5
