REMARK  6 active torsions:
REMARK  status: ('A' for Active; 'I' for Inactive)
REMARK    1  A    between atoms: C_11  and  C_1 
REMARK    2  A    between atoms: C_10  and  C_3 
REMARK    3  A    between atoms: N_25  and  C_3 
REMARK    4  A    between atoms: N_4  and  O_16 
REMARK       I    between atoms: C_6  and  N_15 
REMARK    5  A    between atoms: O_16  and  C_6 
REMARK    6  A    between atoms: N_15  and  C_19 
ROOT
ATOM      1  C   UNL d   1       0.773  -1.525  -1.847  0.00  0.00     0.109 C 
ATOM      2  N   UNL d   1       0.473  -2.566  -1.105  0.00  0.00    -0.244 N 
ATOM      3  HN  UNL d   1       0.153  -3.479  -1.427  1.00  0.00     0.196 HD
ENDROOT
BRANCH   2   4
ATOM      4  O   UNL d   1       0.688  -2.158   0.235  0.00  0.00    -0.179 OA
BRANCH   4   5
ATOM      5  C   UNL d   1       0.270  -2.991   1.240  0.00  0.00     0.387 C 
ATOM      6  N   UNL d   1      -0.067  -4.269   0.859  0.00  0.00    -0.301 N 
ATOM      7  H   UNL d   1      -0.005  -4.422  -0.141  0.00  0.00     0.171 HD
ATOM      8  O   UNL d   1       0.264  -2.546   2.382  0.00  0.00    -0.236 OA
BRANCH   6   9
ATOM      9  C   UNL d   1      -0.359  -5.343   1.732  0.00  0.00     0.037 A 
ATOM     10  C   UNL d   1      -0.378  -5.213   3.128  0.00  0.00     0.045 A 
ATOM     11  C   UNL d   1      -0.581  -6.315   3.976  0.00  0.00     0.050 A 
ATOM     12  C   UNL d   1      -0.811  -7.569   3.404  0.00  0.00     0.016 A 
ATOM     13  C   UNL d   1      -0.827  -7.712   2.015  0.00  0.00     0.003 A 
ATOM     14  C   UNL d   1      -0.599  -6.606   1.184  0.00  0.00     0.029 A 
BRANCH  11  15
ATOM     15  C   UNL d   1      -0.542  -6.144   5.476  0.00  0.00     0.417 C 
ATOM     16  F   UNL d   1      -0.118  -4.915   5.882  0.00  0.00    -0.166 F 
ATOM     17  F   UNL d   1       0.292  -7.038   6.079  0.00  0.00    -0.166 F 
ATOM     18  F   UNL d   1      -1.762  -6.327   6.054  0.00  0.00    -0.166 F 
ENDBRANCH  11  15
ENDBRANCH   6   9
ENDBRANCH   4   5
ENDBRANCH   2   4
BRANCH   1  19
ATOM     19  C   UNL d   1       0.633  -1.534  -3.342  0.00  0.00     0.005 A 
ATOM     20  C   UNL d   1      -0.115  -2.507  -4.014  0.00  0.00     0.029 A 
ATOM     21  C   UNL d   1      -0.359  -2.366  -5.392  0.00  0.00    -0.002 A 
ATOM     22  C   UNL d   1      -1.114  -3.361  -6.144  0.00  0.00     0.013 C 
ATOM     23  C   UNL d   1       0.138  -1.249  -6.077  0.00  0.00     0.080 A 
ATOM     24  C   UNL d   1      -1.534  -3.025  -7.371  0.00  0.00     0.011 C 
ATOM     25  C   UNL d   1      -1.268  -1.660  -7.969  0.00  0.00     0.078 C 
ATOM     26  O   UNL d   1      -0.123  -0.995  -7.395  0.00  0.00    -0.336 OA
ATOM     27  C   UNL d   1      -2.501  -0.762  -7.781  0.00  0.00     0.051 C 
ATOM     28  C   UNL d   1      -0.955  -1.778  -9.465  0.00  0.00     0.051 C 
ATOM     29  C   UNL d   1       0.957  -0.331  -5.434  0.00  0.00     0.038 A 
ATOM     30  C   UNL d   1       1.210  -0.479  -4.074  0.00  0.00     0.017 A 
ENDBRANCH   1  19
BRANCH   1  31
ATOM     31  N   UNL d   1       1.194  -0.335  -1.270  0.00  0.00    -0.286 NA
ATOM     32  H   UNL d   1       1.088  -0.347  -0.261  0.00  0.00     0.125 HD
ATOM     33  H   UNL d   1       0.780   0.504  -1.664  0.00  0.00     0.125 HD
ENDBRANCH   1  31
TORSDOF 6
