REMARK  3 active torsions:
REMARK  status: ('A' for Active; 'I' for Inactive)
REMARK    1  A    between atoms: C_9  and  N_3 
REMARK    2  A    between atoms: C_8  and  C_4 
REMARK    3  A    between atoms: O_14  and  C_8 
ROOT
ATOM      1  N   UNL d   1       2.356  -0.707  -0.104  0.00  0.00    -0.284 N 
ATOM      2  HN  UNL d   1       3.244  -1.202  -0.191  1.00  0.00     0.188 HD
ATOM      3  N   UNL d   1       2.334   0.671  -0.028  0.00  0.00    -0.219 N 
ATOM      4  C   UNL d   1       1.234  -1.374  -0.064  0.00  0.00     0.133 A 
ATOM      5  C   UNL d   1       1.147   1.415   0.048  0.00  0.00     0.278 A 
ATOM      6  C   UNL d   1      -0.093  -0.741  -0.001  0.00  0.00     0.015 A 
ATOM      7  C   UNL d   1      -0.114   0.650   0.025  0.00  0.00     0.046 A 
ATOM      8  O   UNL d   1       1.056   2.640   0.093  0.00  0.00    -0.265 OA
ATOM      9  C   UNL d   1      -1.309  -1.437  -0.008  0.00  0.00     0.015 A 
ATOM     10  C   UNL d   1      -1.335   1.345   0.012  0.00  0.00     0.018 A 
ATOM     11  C   UNL d   1      -2.538   0.647  -0.017  0.00  0.00     0.001 A 
ATOM     12  C   UNL d   1      -2.525  -0.743  -0.016  0.00  0.00     0.001 A 
ENDROOT
BRANCH   3  13
ATOM     13  C   UNL d   1       3.635   1.285  -0.044  0.00  0.00     0.060 A 
ATOM     14  C   UNL d   1       3.859   2.571   0.473  0.00  0.00     0.033 A 
ATOM     15  C   UNL d   1       5.123   3.171   0.421  0.00  0.00     0.026 A 
ATOM     16  C   UNL d   1       6.189   2.491  -0.154  0.00  0.00     0.034 A 
ATOM     17  C   UNL d   1       6.003   1.209  -0.661  0.00  0.00     0.026 A 
ATOM     18 CL   UNL d   1       7.735   3.237  -0.241  0.00  0.00    -0.084 Cl
ATOM     19  C   UNL d   1       4.738   0.607  -0.595  0.00  0.00     0.033 A 
ENDBRANCH   3  13
BRANCH   4  20
ATOM     20  C   UNL d   1       1.413  -2.905  -0.103  0.00  0.00     0.196 C 
ATOM     21  O   UNL d   1       0.520  -3.719  -0.012  0.00  0.00    -0.645 OA
BRANCH  20  22
ATOM     22  O   UNL d   1       2.715  -3.222  -0.246  0.00  0.00    -0.772 OA
ATOM     23  H   UNL d   1       3.245  -2.390  -0.252  0.00  0.00     0.167 HD
ENDBRANCH  20  22
ENDBRANCH   4  20
TORSDOF 3
