REMARK  8 active torsions:
REMARK  status: ('A' for Active; 'I' for Inactive)
REMARK    1  A    between atoms: C_7  and  C_1 
REMARK    2  A    between atoms: C_2  and  C_4 
REMARK    3  A    between atoms: C_3  and  C_5 
REMARK    4  A    between atoms: C_6  and  O_17 
REMARK    5  A    between atoms: C_13  and  C_7 
REMARK    6  A    between atoms: N_12  and  C_8 
REMARK    7  A    between atoms: C_14  and  N_12 
REMARK    8  A    between atoms: O_17  and  C_30 
ROOT
ATOM      1  C   UNL d   1       0.973  -0.176  -0.108  0.00  0.00     0.110 C 
ATOM      2  C   UNL d   1       0.282   0.743   0.591  0.00  0.00     0.115 C 
ATOM      3  C   UNL d   1       0.316  -1.174  -0.874  0.00  0.00     0.105 C 
ATOM      4  N   UNL d   1      -0.245  -2.003  -1.457  0.00  0.00    -0.191 NA
ENDROOT
BRANCH   1   5
ATOM      5  C   UNL d   1       2.459  -0.076  -0.088  0.00  0.00     0.204 C 
ATOM      6  O   UNL d   1       3.029   0.999   0.090  0.00  0.00    -0.286 OA
BRANCH   5   7
ATOM      7  C   UNL d   1       3.286  -1.298  -0.295  0.00  0.00     0.016 A 
ATOM      8  C   UNL d   1       4.525  -1.170  -0.939  0.00  0.00     0.018 A 
ATOM      9  C   UNL d   1       5.337  -2.293  -1.159  0.00  0.00     0.038 A 
ATOM     10  C   UNL d   1       4.932  -3.546  -0.704  0.00  0.00     0.078 A 
ATOM     11  C   UNL d   1       3.697  -3.670  -0.060  0.00  0.00     0.038 A 
ATOM     12  C   UNL d   1       2.886  -2.555   0.166  0.00  0.00     0.018 A 
BRANCH  10  13
ATOM     13  O   UNL d   1       5.600  -4.721  -0.849  0.00  0.00    -0.255 OA
BRANCH  13  14
ATOM     14  C   UNL d   1       7.018  -4.727  -0.925  0.00  0.00     0.530 C 
ATOM     15  F   UNL d   1       7.593  -3.570  -0.545  0.00  0.00    -0.144 F 
ATOM     16  F   UNL d   1       7.479  -5.704  -0.110  0.00  0.00    -0.144 F 
ATOM     17  F   UNL d   1       7.399  -5.018  -2.187  0.00  0.00    -0.144 F 
ENDBRANCH  13  14
ENDBRANCH  10  13
ENDBRANCH   5   7
ENDBRANCH   1   5
BRANCH   2  18
ATOM     18  N   UNL d   1      -1.079   0.862   0.793  0.00  0.00    -0.364 N 
ATOM     19  H   UNL d   1      -1.671   0.088   0.498  0.00  0.00     0.165 HD
BRANCH  18  20
ATOM     20  C   UNL d   1      -1.718   1.897   1.494  0.00  0.00     0.033 A 
ATOM     21  C   UNL d   1      -1.199   3.197   1.521  0.00  0.00     0.045 A 
ATOM     22  C   UNL d   1      -1.757   4.198   2.329  0.00  0.00     0.050 A 
ATOM     23  C   UNL d   1      -2.861   3.882   3.131  0.00  0.00     0.032 A 
ATOM     24  C   UNL d   1      -3.399   2.585   3.133  0.00  0.00     0.050 A 
ATOM     25  C   UNL d   1      -2.826   1.607   2.299  0.00  0.00     0.045 A 
BRANCH  22  26
ATOM     26  C   UNL d   1      -1.129   5.570   2.341  0.00  0.00     0.417 C 
ATOM     27  F   UNL d   1      -1.727   6.432   3.208  0.00  0.00    -0.166 F 
ATOM     28  F   UNL d   1       0.184   5.531   2.699  0.00  0.00    -0.166 F 
ATOM     29  F   UNL d   1      -1.170   6.174   1.122  0.00  0.00    -0.166 F 
ENDBRANCH  22  26
BRANCH  24  30
ATOM     30  C   UNL d   1      -4.540   2.217   4.052  0.00  0.00     0.417 C 
ATOM     31  F   UNL d   1      -4.933   3.238   4.864  0.00  0.00    -0.166 F 
ATOM     32  F   UNL d   1      -5.652   1.826   3.374  0.00  0.00    -0.166 F 
ATOM     33  F   UNL d   1      -4.221   1.185   4.880  0.00  0.00    -0.166 F 
ENDBRANCH  24  30
ENDBRANCH  18  20
ENDBRANCH   2  18
TORSDOF 8
