REMARK  4 active torsions:
REMARK  status: ('A' for Active; 'I' for Inactive)
REMARK    1  A    between atoms: O_11  and  C_3 
REMARK    2  A    between atoms: C_7  and  C_4 
REMARK    3  A    between atoms: O_12  and  C_7 
REMARK    4  A    between atoms: C_14  and  O_12 
ROOT
ATOM      1  N   UNL d   1      -0.622   1.241  -0.051  0.00  0.00    -0.317 N 
ATOM      2  HN  UNL d   1      -1.133   2.124  -0.042  1.00  0.00     0.169 HD
ATOM      3  C   UNL d   1      -1.224   0.059  -0.082  0.00  0.00     0.222 A 
ATOM      4  C   UNL d   1       0.729   1.172  -0.034  0.00  0.00     0.113 A 
ATOM      5  N   UNL d   1      -0.655  -1.145  -0.089  0.00  0.00    -0.326 N 
ATOM      6  HN  UNL d   1      -1.208  -2.002  -0.106  1.00  0.00     0.169 HD
ATOM      7  C   UNL d   1       1.442  -0.012  -0.052  0.00  0.00     0.060 A 
ATOM      8  C   UNL d   1       0.693  -1.168  -0.072  0.00  0.00     0.011 A 
ATOM      9  C   UNL d   1       1.348  -2.515  -0.038  0.00  0.00     0.068 C 
ENDROOT
BRANCH   4  10
ATOM     10  C   UNL d   1       1.494   2.446   0.099  0.00  0.00     0.310 C 
ATOM     11  O   UNL d   1       2.714   2.493   0.149  0.00  0.00    -0.258 OA
BRANCH  10  12
ATOM     12  O   UNL d   1       0.644   3.494   0.245  0.00  0.00    -0.317 OA
BRANCH  12  13
ATOM     13  C   UNL d   1       1.240   4.713   0.708  0.00  0.00     0.175 C 
ATOM     14  C   UNL d   1       1.202   4.721   2.225  0.00  0.00     0.034 C 
ENDBRANCH  12  13
ENDBRANCH  10  12
ENDBRANCH   4  10
BRANCH   3  15
ATOM     15  O   UNL d   1      -2.582   0.113  -0.072  0.00  0.00    -0.332 OA
ATOM     16  H   UNL d   1      -2.700   1.076  -0.044  0.00  0.00     0.220 HD
ENDBRANCH   3  15
TORSDOF 4
