REMARK  5 active torsions:
REMARK  status: ('A' for Active; 'I' for Inactive)
REMARK    1  A    between atoms: C_2  and  C_1 
REMARK    2  A    between atoms: C_3  and  C_2 
REMARK    3  A    between atoms: C_5  and  C_4 
REMARK    4  A    between atoms: O_14  and  C_5 
REMARK    5  A    between atoms: O_13  and  C_8 
ROOT
ATOM      1  C   UNL d   1       0.256  -3.555  -0.108  0.00  0.00     0.193 C 
ATOM      2  O   UNL d   1      -0.771  -4.226  -0.118  0.00  0.00    -0.287 OA
ENDROOT
BRANCH   1   3
ATOM      3  C   UNL d   1       0.164  -2.062  -0.232  0.00  0.00     0.016 A 
ATOM      4  C   UNL d   1      -1.048  -1.446   0.100  0.00  0.00     0.025 A 
ATOM      5  C   UNL d   1      -1.151  -0.048   0.153  0.00  0.00    -0.027 A 
ATOM      6  C   UNL d   1      -2.454   0.598   0.533  0.00  0.00     0.051 C 
ATOM      7  C   UNL d   1      -0.016   0.731  -0.117  0.00  0.00     0.077 A 
ATOM      8  C   UNL d   1       1.202   0.141  -0.480  0.00  0.00    -0.027 A 
ATOM      9  C   UNL d   1       1.262  -1.261  -0.582  0.00  0.00     0.025 A 
ATOM     10  C   UNL d   1       2.447   0.947  -0.718  0.00  0.00     0.051 C 
BRANCH   7  11
ATOM     11  O   UNL d   1      -0.152   2.087   0.006  0.00  0.00    -0.360 OA
ATOM     12  H   UNL d   1       0.676   2.527  -0.238  0.00  0.00     0.217 HD
ENDBRANCH   7  11
ENDBRANCH   1   3
BRANCH   1  13
ATOM     13  C   UNL d   1       1.557  -4.229   0.163  0.00  0.00     0.031 A 
ATOM     14  C   UNL d   1       1.893  -5.496  -0.338  0.00  0.00     0.053 A 
ATOM     15  C   UNL d   1       3.131  -6.072   0.013  0.00  0.00     0.018 A 
ATOM     16  C   UNL d   1       4.024  -5.407   0.850  0.00  0.00     0.001 A 
ATOM     17  C   UNL d   1       3.680  -4.172   1.383  0.00  0.00     0.001 A 
ATOM     18  C   UNL d   1       2.450  -3.598   1.057  0.00  0.00     0.016 A 
BRANCH  14  19
ATOM     19  C   UNL d   1       1.018  -6.352  -1.175  0.00  0.00     0.293 C 
ATOM     20  O   UNL d   1       0.999  -7.569  -1.054  0.00  0.00    -0.259 OA
BRANCH  19  21
ATOM     21  O   UNL d   1       0.376  -5.638  -2.128  0.00  0.00    -0.322 OA
ATOM     22  C   UNL d   1      -0.586  -6.395  -2.870  0.00  0.00     0.213 C 
ENDBRANCH  19  21
ENDBRANCH  14  19
ENDBRANCH   1  13
TORSDOF 5
