REMARK  2 active torsions:
REMARK  status: ('A' for Active; 'I' for Inactive)
REMARK    1  A    between atoms: C_2  and  C_1 
REMARK    2  A    between atoms: C_11  and  C_4 
ROOT
ATOM      1  C   UNL d   1      -0.576   2.480  -0.169  0.00  0.00     0.041 A 
ATOM      2  C   UNL d   1      -0.000   3.553   0.548  0.00  0.00     0.050 A 
ATOM      3  C   UNL d   1      -1.685   2.780  -0.994  0.00  0.00     0.050 A 
ATOM      4  C   UNL d   1      -2.187   4.085  -1.095  0.00  0.00     0.048 A 
ATOM      5  C   UNL d   1      -0.495   4.858   0.432  0.00  0.00     0.048 A 
ATOM      6  C   UNL d   1      -1.584   5.117  -0.388  0.00  0.00     0.037 A 
ATOM      7 CL   UNL d   1      -2.479   1.597  -1.985  0.00  0.00    -0.083 Cl
ATOM      8 CL   UNL d   1       1.330   3.349   1.644  0.00  0.00    -0.083 Cl
ATOM      9 CL   UNL d   1      -2.183   6.721  -0.537  0.00  0.00    -0.084 Cl
ENDROOT
BRANCH   1  10
ATOM     10  C   UNL d   1      -0.026   1.124  -0.087  0.00  0.00     0.089 A 
ATOM     11  O   UNL d   1      -0.933   0.110   0.046  0.00  0.00    -0.306 OA
ATOM     12  C   UNL d   1      -0.246  -1.072   0.062  0.00  0.00     0.121 A 
ATOM     13  C   UNL d   1       1.108  -0.812  -0.001  0.00  0.00     0.044 A 
ATOM     14  C   UNL d   1       1.249   0.593  -0.109  0.00  0.00     0.041 A 
BRANCH  12  15
ATOM     15  C   UNL d   1      -0.959  -2.331   0.129  0.00  0.00     0.179 C 
ATOM     16  O   UNL d   1      -0.379  -3.413   0.236  0.00  0.00    -0.291 OA
ATOM     17  C   UNL d   1      -2.464  -2.304   0.009  0.00  0.00     0.099 C 
ENDBRANCH  12  15
ENDBRANCH   1  10
TORSDOF 2
