REMARK  5 active torsions:
REMARK  status: ('A' for Active; 'I' for Inactive)
REMARK    1  A    between atoms: C_4  and  C_1 
REMARK    2  A    between atoms: C_8  and  C_2 
REMARK    3  A    between atoms: O_14  and  C_3 
REMARK       I    between atoms: N_13  and  C_4 
REMARK    4  A    between atoms: O_15  and  C_6 
REMARK    5  A    between atoms: O_16  and  C_7 
ROOT
ATOM      1  C   UNL d   1      -0.761  -0.145   1.196  0.00  0.00     0.112 C 
ATOM      2  C   UNL d   1       0.324  -0.808   0.743  0.00  0.00     0.040 C 
ATOM      3  C   UNL d   1      -1.241  -0.264   2.531  0.00  0.00     0.105 C 
ATOM      4  N   UNL d   1      -1.670  -0.335   3.608  0.00  0.00    -0.191 NA
ENDROOT
BRANCH   1   5
ATOM      5  C   UNL d   1      -1.471   0.730   0.209  0.00  0.00     0.260 C 
ATOM      6  O   UNL d   1      -1.115   0.852  -0.954  0.00  0.00    -0.267 OA
ATOM      7  N   UNL d   1      -2.564   1.405   0.663  0.00  0.00    -0.365 N 
ATOM      8  H   UNL d   1      -2.933   1.364   1.600  0.00  0.00     0.159 HD
ATOM      9  H   UNL d   1      -3.045   1.999  -0.006  0.00  0.00     0.159 HD
ENDBRANCH   1   5
BRANCH   2  10
ATOM     10  C   UNL d   1       1.092  -1.738   1.571  0.00  0.00    -0.029 A 
ATOM     11  C   UNL d   1       0.721  -3.079   1.626  0.00  0.00     0.051 A 
ATOM     12  C   UNL d   1       1.393  -3.978   2.469  0.00  0.00     0.105 A 
ATOM     13  C   UNL d   1       2.468  -3.531   3.274  0.00  0.00     0.135 A 
ATOM     14  C   UNL d   1       2.807  -2.158   3.243  0.00  0.00     0.105 A 
ATOM     15  C   UNL d   1       2.124  -1.284   2.382  0.00  0.00     0.051 A 
BRANCH  12  16
ATOM     16  O   UNL d   1       0.934  -5.267   2.610  0.00  0.00    -0.353 OA
ATOM     17  C   UNL d   1       0.357  -5.853   1.444  0.00  0.00     0.210 C 
ENDBRANCH  12  16
BRANCH  13  18
ATOM     18  O   UNL d   1       3.182  -4.310   4.141  0.00  0.00    -0.351 OA
ATOM     19  C   UNL d   1       3.265  -5.718   3.977  0.00  0.00     0.210 C 
ENDBRANCH  13  18
BRANCH  14  20
ATOM     20  O   UNL d   1       3.714  -1.470   4.008  0.00  0.00    -0.353 OA
ATOM     21  C   UNL d   1       4.733  -2.157   4.713  0.00  0.00     0.210 C 
ENDBRANCH  14  20
ENDBRANCH   2  10
TORSDOF 5
