REMARK  2 active torsions:
REMARK  status: ('A' for Active; 'I' for Inactive)
REMARK    1  A    between atoms: C_7  and  C_1 
REMARK    2  A    between atoms: C_10  and  C_3 
ROOT
ATOM      1  C   UNL d   1      -0.128  -1.131   0.054  0.00  0.00     0.056 A 
ATOM      2  S   UNL d   1       1.424  -0.394   0.007  0.00  0.00    -0.067 SA
ATOM      3  C   UNL d   1       0.712   1.165  -0.043  0.00  0.00     0.092 A 
ATOM      4  N   UNL d   1      -0.606   1.165  -0.051  0.00  0.00    -0.352 N 
ATOM      5  HN  UNL d   1      -1.186   2.003  -0.080  1.00  0.00     0.166 HD
ATOM      6  C   UNL d   1      -1.097  -0.137  -0.012  0.00  0.00     0.025 A 
ATOM      7  C   UNL d   1      -2.574  -0.324  -0.018  0.00  0.00     0.070 C 
ENDROOT
BRANCH   1   8
ATOM      8  C   UNL d   1      -0.263  -2.592   0.124  0.00  0.00     0.054 A 
ATOM      9  N   UNL d   1      -1.364  -3.085  -0.479  0.00  0.00    -0.345 N 
ATOM     10  C   UNL d   1      -1.530  -4.420  -0.451  0.00  0.00     0.077 A 
ATOM     11  HN  UNL d   1      -2.041  -2.473  -0.936  1.00  0.00     0.167 HD
ATOM     12  C   UNL d   1      -2.737  -4.992  -1.124  0.00  0.00     0.089 C 
ATOM     13  N   UNL d   1      -0.687  -5.283   0.143  0.00  0.00    -0.356 N 
ATOM     14  C   UNL d   1       0.391  -4.749   0.741  0.00  0.00     0.091 A 
ATOM     15  HN  UNL d   1      -0.856  -6.289   0.140  1.00  0.00     0.166 HD
ATOM     16  C   UNL d   1       0.655  -3.402   0.763  0.00  0.00     0.048 A 
ENDBRANCH   1   8
BRANCH   3  17
ATOM     17  C   UNL d   1       1.472   2.396  -0.062  0.00  0.00     0.038 A 
ATOM     18  S   UNL d   1       3.191   2.453  -0.106  0.00  0.00    -0.099 SA
ATOM     19  C   UNL d   1       3.217   4.159  -0.099  0.00  0.00     0.050 A 
ATOM     20  C   UNL d   1       1.950   4.693  -0.064  0.00  0.00     0.008 A 
ATOM     21  C   UNL d   1       0.947   3.679  -0.043  0.00  0.00     0.022 A 
ENDBRANCH   3  17
TORSDOF 2
