REMARK  5 active torsions:
REMARK  status: ('A' for Active; 'I' for Inactive)
REMARK    1  A    between atoms: C_12  and  C_3 
REMARK    2  A    between atoms: C_13  and  C_4 
REMARK    3  A    between atoms: C_7  and  C_9 
REMARK    4  A    between atoms: C_14  and  O_17 
REMARK    5  A    between atoms: O_17  and  C_25 
ROOT
ATOM      1  C   UNL d   1       0.543   2.531  -0.018  0.00  0.00     0.010 A 
ATOM      2  C   UNL d   1       1.337   3.050  -1.050  0.00  0.00     0.018 A 
ATOM      3  C   UNL d   1       0.036   3.411   0.950  0.00  0.00     0.018 A 
ATOM      4  C   UNL d   1       1.137   5.281  -0.128  0.00  0.00     0.077 A 
ATOM      5  C   UNL d   1       0.329   4.778   0.892  0.00  0.00     0.038 A 
ATOM      6  C   UNL d   1       1.613   4.417  -1.118  0.00  0.00     0.038 A 
ENDROOT
BRANCH   1   7
ATOM      7  C   UNL d   1       0.253   1.103   0.021  0.00  0.00     0.138 A 
ATOM      8  N   UNL d   1       0.807   0.224  -0.886  0.00  0.00    -0.319 N 
ATOM      9  C   UNL d   1       0.294  -0.929  -0.525  0.00  0.00     0.182 A 
ATOM     10  HN  UNL d   1       1.455   0.421  -1.649  1.00  0.00     0.169 HD
ATOM     11  O   UNL d   1      -0.545  -0.826   0.547  0.00  0.00    -0.217 OA
ATOM     12  N   UNL d   1      -0.570   0.520   0.909  0.00  0.00    -0.242 N 
ATOM     13  HN  UNL d   1      -1.091   0.959   1.668  1.00  0.00     0.196 HD
BRANCH   9  14
ATOM     14  C   UNL d   1       0.508  -2.257  -1.087  0.00  0.00     0.017 A 
ATOM     15  C   UNL d   1       1.438  -2.424  -2.127  0.00  0.00     0.017 A 
ATOM     16  C   UNL d   1       1.681  -3.686  -2.678  0.00  0.00     0.025 A 
ATOM     17  C   UNL d   1       0.992  -4.794  -2.193  0.00  0.00     0.034 A 
ATOM     18  C   UNL d   1       0.059  -4.650  -1.169  0.00  0.00     0.025 A 
ATOM     19 CL   UNL d   1       1.297  -6.350  -2.860  0.00  0.00    -0.084 Cl
ATOM     20  C   UNL d   1      -0.182  -3.386  -0.618  0.00  0.00     0.017 A 
ENDBRANCH   9  14
ENDBRANCH   1   7
BRANCH   4  21
ATOM     21  O   UNL d   1       1.350   6.641  -0.131  0.00  0.00    -0.294 OA
BRANCH  21  22
ATOM     22  C   UNL d   1       2.582   7.111  -0.568  0.00  0.00     0.147 A 
ATOM     23  N   UNL d   1       3.682   6.335  -0.440  0.00  0.00    -0.346 N 
ATOM     24  C   UNL d   1       4.842   6.822  -0.928  0.00  0.00     0.106 A 
ATOM     25  HN  UNL d   1       3.637   5.419   0.007  1.00  0.00     0.167 HD
ATOM     26  C   UNL d   1       4.968   8.069  -1.520  0.00  0.00     0.063 A 
ATOM     27  C   UNL d   1       3.824   8.872  -1.590  0.00  0.00     0.022 A 
ATOM     28  C   UNL d   1       2.610   8.389  -1.104  0.00  0.00     0.057 A 
BRANCH  26  29
ATOM     29  C   UNL d   1       6.287   8.518  -2.070  0.00  0.00     0.418 C 
ATOM     30  F   UNL d   1       7.276   7.593  -1.938  0.00  0.00    -0.166 F 
ATOM     31  F   UNL d   1       6.223   8.805  -3.399  0.00  0.00    -0.166 F 
ATOM     32  F   UNL d   1       6.748   9.648  -1.467  0.00  0.00    -0.166 F 
ENDBRANCH  26  29
ENDBRANCH  21  22
ENDBRANCH   4  21
TORSDOF 5
