REMARK  5 active torsions:
REMARK  status: ('A' for Active; 'I' for Inactive)
REMARK    1  A    between atoms: N_6  and  C_1 
REMARK    2  A    between atoms: C_2  and  C_3 
REMARK       I    between atoms: C_7  and  N_11 
REMARK    3  A    between atoms: O_12  and  C_7 
REMARK    4  A    between atoms: N_11  and  C_22 
REMARK    5  A    between atoms: C_19  and  O_12 
ROOT
ATOM      1  N   UNL d   1       0.433   2.109  -0.401  0.00  0.00    -0.366 N 
ATOM      2  C   UNL d   1       1.528   2.629  -1.208  0.00  0.00     0.126 C 
ATOM      3  C   UNL d   1       0.629   2.358   1.024  0.00  0.00     0.126 C 
ATOM      4  C   UNL d   1       0.417   3.851   1.244  0.00  0.00     0.045 C 
ATOM      5  C   UNL d   1       1.403   4.153  -1.169  0.00  0.00     0.045 C 
ATOM      6  C   UNL d   1       1.153   4.745   0.232  0.00  0.00     0.089 C 
ENDROOT
BRANCH   1   7
ATOM      7  C   UNL d   1      -0.116   0.877  -0.743  0.00  0.00     0.125 A 
ATOM      8  N   UNL d   1       0.670  -0.051  -1.335  0.00  0.00    -0.350 N 
ATOM      9  C   UNL d   1       0.106  -1.227  -1.721  0.00  0.00     0.106 A 
ATOM     10  HN  UNL d   1       1.662   0.127  -1.489  1.00  0.00     0.166 HD
ATOM     11  C   UNL d   1      -1.236  -1.537  -1.567  0.00  0.00     0.065 A 
ATOM     12  C   UNL d   1      -2.046  -0.581  -0.960  0.00  0.00     0.045 A 
ATOM     13  C   UNL d   1      -1.490   0.631  -0.546  0.00  0.00     0.078 A 
ATOM     14 CL   UNL d   1      -2.575   1.812   0.110  0.00  0.00    -0.080 Cl
BRANCH  11  15
ATOM     15  C   UNL d   1      -1.772  -2.844  -2.059  0.00  0.00     0.418 C 
ATOM     16  F   UNL d   1      -3.112  -2.990  -1.850  0.00  0.00    -0.166 F 
ATOM     17  F   UNL d   1      -1.587  -3.013  -3.397  0.00  0.00    -0.166 F 
ATOM     18  F   UNL d   1      -1.184  -3.911  -1.458  0.00  0.00    -0.166 F 
ENDBRANCH  11  15
ENDBRANCH   1   7
BRANCH   6  19
ATOM     19  N   UNL d   1       2.300   5.455   0.795  0.00  0.00    -0.332 N 
ATOM     20  C   UNL d   1       3.470   5.030   1.336  0.00  0.00     0.361 C 
ATOM     21  O   UNL d   1       4.239   5.841   1.830  0.00  0.00    -0.238 OA
ATOM     22  H   UNL d   1       2.217   6.461   0.872  0.00  0.00     0.165 HD
BRANCH  20  23
ATOM     23  O   UNL d   1       3.662   3.691   1.282  0.00  0.00    -0.294 OA
BRANCH  23  24
ATOM     24  C   UNL d   1       4.868   3.135   1.875  0.00  0.00     0.061 C 
ATOM     25  C   UNL d   1       4.941   3.415   3.383  0.00  0.00     0.046 C 
ATOM     26  C   UNL d   1       4.766   1.619   1.658  0.00  0.00     0.046 C 
ATOM     27  C   UNL d   1       6.138   3.632   1.154  0.00  0.00     0.046 C 
ENDBRANCH  23  24
ENDBRANCH  20  23
ENDBRANCH   6  19
TORSDOF 5
