REMARK  5 active torsions:
REMARK  status: ('A' for Active; 'I' for Inactive)
REMARK    1  A    between atoms: C_2  and  C_1 
REMARK    2  A    between atoms: S_14  and  C_8 
REMARK    3  A    between atoms: C_16  and  S_14 
REMARK    4  A    between atoms: C_15  and  C_16 
REMARK    5  A    between atoms: C_18  and  C_15 
ROOT
ATOM      1  C   UNL d   1       0.877   4.927   2.471  0.00  0.00     0.192 A 
ATOM      2  O   UNL d   1       0.911   4.436   1.187  0.00  0.00    -0.266 OA
ATOM      3  N   UNL d   1      -0.198   4.520   3.125  0.00  0.00    -0.275 N 
ATOM      4  HN  UNL d   1      -0.441   4.741   4.090  1.00  0.00     0.189 HD
ATOM      5  C   UNL d   1      -0.247   3.713   1.123  0.00  0.00     0.204 A 
ATOM      6  N   UNL d   1      -0.924   3.742   2.253  0.00  0.00    -0.272 N 
ATOM      7  HN  UNL d   1      -1.813   3.279   2.444  1.00  0.00     0.189 HD
ENDROOT
BRANCH   5   8
ATOM      8  S   UNL d   1      -0.745   2.825  -0.285  0.00  0.00    -0.077 SA
BRANCH   8   9
ATOM      9  C   UNL d   1      -2.551   2.855  -0.038  0.00  0.00     0.166 C 
BRANCH   9  10
ATOM     10  C   UNL d   1      -3.100   4.269  -0.141  0.00  0.00     0.169 C 
ATOM     11  O   UNL d   1      -2.582   5.126  -0.858  0.00  0.00    -0.291 OA
BRANCH  10  12
ATOM     12  C   UNL d   1      -4.342   4.633   0.612  0.00  0.00     0.010 A 
ATOM     13  C   UNL d   1      -5.114   3.700   1.315  0.00  0.00     0.015 A 
ATOM     14  C   UNL d   1      -6.260   4.113   2.002  0.00  0.00     0.001 A 
ATOM     15  C   UNL d   1      -6.649   5.452   1.986  0.00  0.00     0.000 A 
ATOM     16  C   UNL d   1      -5.894   6.384   1.280  0.00  0.00     0.001 A 
ATOM     17  C   UNL d   1      -4.747   5.977   0.597  0.00  0.00     0.015 A 
ENDBRANCH  10  12
ENDBRANCH   9  10
ENDBRANCH   8   9
ENDBRANCH   5   8
BRANCH   1  18
ATOM     18  C   UNL d   1       1.925   5.813   3.068  0.00  0.00     0.092 A 
ATOM     19  N   UNL d   1       3.012   6.283   2.345  0.00  0.00    -0.350 N 
ATOM     20  C   UNL d   1       3.748   7.064   3.107  0.00  0.00     0.047 A 
ATOM     21  HN  UNL d   1       3.211   6.057   1.370  1.00  0.00     0.166 HD
ATOM     22  C   UNL d   1       4.971   7.782   2.654  0.00  0.00     0.076 C 
ATOM     23  S   UNL d   1       3.212   7.236   4.733  0.00  0.00    -0.087 SA
ATOM     24  C   UNL d   1       1.872   6.229   4.383  0.00  0.00     0.085 A 
ENDBRANCH   1  18
TORSDOF 5
