REMARK  3 active torsions:
REMARK  status: ('A' for Active; 'I' for Inactive)
REMARK    1  A    between atoms: C_2  and  S_1 
REMARK    2  A    between atoms: N_8  and  S_1 
REMARK    3  A    between atoms: C_13  and  N_8 
ROOT
ATOM      1  C   UNL d   1      -1.582  -0.970   3.302  0.00  0.00    -0.086 C 
ATOM      2  C   UNL d   1      -2.333  -1.745   3.850  0.00  0.00     0.015 C 
ATOM      3  C   UNL d   1      -0.649  -0.007   2.605  0.00  0.00     0.096 C 
ATOM      4  C   UNL d   1       0.606   0.168   3.469  0.00  0.00     0.053 C 
ATOM      5  C   UNL d   1      -1.370   1.331   2.434  0.00  0.00     0.053 C 
ENDROOT
BRANCH   3   6
ATOM      6  N   UNL d   1      -0.369  -0.569   1.280  0.00  0.00    -0.295 N 
ATOM      7  H   UNL d   1      -0.723  -1.504   1.089  0.00  0.00     0.174 HD
BRANCH   6   8
ATOM      8  S   UNL d   1       0.678  -0.044   0.094  0.00  0.00     0.261 S 
ATOM      9  O   UNL d   1       1.974   0.176   0.693  0.00  0.00    -0.200 OA
ATOM     10  O   UNL d   1       0.569  -1.047  -0.951  0.00  0.00    -0.200 OA
BRANCH   8  11
ATOM     11  C   UNL d   1       0.028   1.505  -0.632  0.00  0.00     0.092 C 
ATOM     12  C   UNL d   1       0.758   2.725  -0.523  0.00  0.00    -0.032 C 
ATOM     13  C   UNL d   1       0.476   3.793  -1.429  0.00  0.00    -0.048 C 
ATOM     14  C   UNL d   1       1.839   2.955   0.504  0.00  0.00     0.050 C 
ATOM     15  C   UNL d   1       1.264   5.092  -1.401  0.00  0.00     0.049 C 
ATOM     16  C   UNL d   1      -0.527   3.650  -2.423  0.00  0.00    -0.049 C 
ATOM     17  C   UNL d   1      -1.298   2.465  -2.480  0.00  0.00    -0.048 C 
ATOM     18  C   UNL d   1      -0.763   4.794  -3.394  0.00  0.00     0.049 C 
ATOM     19  C   UNL d   1      -1.067   1.417  -1.543  0.00  0.00    -0.032 C 
ATOM     20  C   UNL d   1      -2.339   2.322  -3.575  0.00  0.00     0.049 C 
ATOM     21  C   UNL d   1      -2.036   0.256  -1.525  0.00  0.00     0.050 C 
ENDBRANCH   8  11
ENDBRANCH   6   8
ENDBRANCH   3   6
TORSDOF 3
