REMARK  4 active torsions:
REMARK  status: ('A' for Active; 'I' for Inactive)
REMARK    1  A    between atoms: S_12  and  C_2 
REMARK    2  A    between atoms: C_8  and  C_6 
REMARK    3  A    between atoms: C_7  and  C_10 
REMARK    4  A    between atoms: C_17  and  S_12 
ROOT
ATOM      1  C   UNL d   1      -0.075   0.863  -0.050  0.00  0.00     0.030 A 
ATOM      2  C   UNL d   1       1.201   1.525  -0.079  0.00  0.00     0.023 A 
ATOM      3  N   UNL d   1       1.147  -1.247  -0.017  0.00  0.00    -0.352 N 
ATOM      4  HN  UNL d   1       1.124  -2.266   0.005  1.00  0.00     0.166 HD
ATOM      5  C   UNL d   1       0.004  -0.552  -0.027  0.00  0.00     0.047 A 
ATOM      6  C   UNL d   1       2.336  -0.597  -0.035  0.00  0.00     0.118 A 
ATOM      7  C   UNL d   1      -1.403   1.417  -0.035  0.00  0.00     0.049 A 
ATOM      8  C   UNL d   1       2.392   0.784  -0.064  0.00  0.00     0.054 A 
ATOM      9  C   UNL d   1      -2.544   0.606  -0.013  0.00  0.00     0.048 A 
ATOM     10  C   UNL d   1      -1.140  -1.332  -0.005  0.00  0.00     0.054 A 
ATOM     11  C   UNL d   1      -2.405  -0.767  -0.001  0.00  0.00     0.037 A 
ATOM     12 CL   UNL d   1      -1.752   3.115  -0.027  0.00  0.00    -0.083 Cl
ATOM     13 CL   UNL d   1      -3.797  -1.775   0.025  0.00  0.00    -0.084 Cl
ENDROOT
BRANCH   2  14
ATOM     14  S   UNL d   1       1.464   3.302  -0.077  0.00  0.00    -0.072 SA
BRANCH  14  15
ATOM     15  C   UNL d   1       1.385   3.716  -1.814  0.00  0.00     0.074 A 
ATOM     16  N   UNL d   1       1.336   2.719  -2.727  0.00  0.00    -0.359 N 
ATOM     17  C   UNL d   1       1.295   3.070  -4.036  0.00  0.00     0.105 A 
ATOM     18  HN  UNL d   1       1.331   1.739  -2.441  1.00  0.00     0.166 HD
ATOM     19  C   UNL d   1       1.307   4.379  -4.493  0.00  0.00     0.063 A 
ATOM     20  C   UNL d   1       1.361   5.391  -3.533  0.00  0.00     0.020 A 
ATOM     21  C   UNL d   1       1.400   5.058  -2.178  0.00  0.00     0.038 A 
BRANCH  19  22
ATOM     22  C   UNL d   1       1.270   4.687  -5.958  0.00  0.00     0.418 C 
ATOM     23  F   UNL d   1       1.202   3.580  -6.748  0.00  0.00    -0.166 F 
ATOM     24  F   UNL d   1       0.200   5.457  -6.301  0.00  0.00    -0.166 F 
ATOM     25  F   UNL d   1       2.371   5.374  -6.372  0.00  0.00    -0.166 F 
ENDBRANCH  19  22
ENDBRANCH  14  15
ENDBRANCH   2  14
BRANCH   6  26
ATOM     26  C   UNL d   1       3.631  -1.396  -0.012  0.00  0.00     0.432 C 
ATOM     27  F   UNL d   1       3.457  -2.748   0.004  0.00  0.00    -0.165 F 
ATOM     28  F   UNL d   1       4.425  -1.136  -1.091  0.00  0.00    -0.165 F 
ATOM     29  F   UNL d   1       4.398  -1.109   1.081  0.00  0.00    -0.165 F 
ENDBRANCH   6  26
TORSDOF 4
