REMARK  4 active torsions:
REMARK  status: ('A' for Active; 'I' for Inactive)
REMARK    1  A    between atoms: C_9  and  C_1 
REMARK    2  A    between atoms: C_11  and  C_2 
REMARK       I    between atoms: C_7  and  N_8 
REMARK    3  A    between atoms: C_10  and  C_7 
REMARK    4  A    between atoms: N_8  and  C_15 
ROOT
ATOM      1  C   UNL d   1      -2.691   1.222   0.400  0.00  0.00    -0.006 A 
ATOM      2  C   UNL d   1      -2.933   1.814  -0.843  0.00  0.00     0.016 A 
ATOM      3  C   UNL d   1      -3.655   1.366   1.400  0.00  0.00     0.016 A 
ATOM      4  C   UNL d   1      -5.029   2.781  -0.038  0.00  0.00     0.034 A 
ATOM      5  C   UNL d   1      -4.093   2.582  -1.061  0.00  0.00     0.030 A 
ATOM      6  C   UNL d   1      -4.803   2.142   1.185  0.00  0.00     0.030 A 
ENDROOT
BRANCH   1   7
ATOM      7  C   UNL d   1      -1.489   0.436   0.628  0.00  0.00     0.079 A 
ATOM      8  C   UNL d   1      -0.695   0.408   1.767  0.00  0.00     0.115 A 
ATOM      9  O   UNL d   1       0.246  -0.578   1.573  0.00  0.00    -0.295 OA
ATOM     10  C   UNL d   1      -0.035  -1.078   0.333  0.00  0.00     0.121 A 
ATOM     11  N   UNL d   1      -1.027  -0.480  -0.292  0.00  0.00    -0.338 N 
ATOM     12  C   UNL d   1       0.756  -2.247  -0.105  0.00  0.00     0.098 C 
ATOM     13  HN  UNL d   1      -1.373  -0.654  -1.236  1.00  0.00     0.168 HD
BRANCH   8  14
ATOM     14  C   UNL d   1      -0.648   1.105   3.049  0.00  0.00     0.000 A 
ATOM     15  C   UNL d   1      -0.236   0.440   4.214  0.00  0.00     0.014 A 
ATOM     16  C   UNL d   1      -0.329   1.061   5.464  0.00  0.00     0.001 A 
ATOM     17  C   UNL d   1      -0.827   2.358   5.565  0.00  0.00     0.000 A 
ATOM     18  C   UNL d   1      -1.194   3.049   4.414  0.00  0.00     0.001 A 
ATOM     19  C   UNL d   1      -1.087   2.432   3.165  0.00  0.00     0.014 A 
ENDBRANCH   8  14
ENDBRANCH   1   7
BRANCH   4  20
ATOM     20  N   UNL d   1      -6.159   3.610  -0.295  0.00  0.00    -0.327 N 
ATOM     21  C   UNL d   1      -7.095   4.025   0.635  0.00  0.00     0.229 C 
ATOM     22  O   UNL d   1      -7.018   3.785   1.843  0.00  0.00    -0.272 OA
ATOM     23  H   UNL d   1      -6.242   3.965  -1.239  0.00  0.00     0.169 HD
BRANCH  21  24
ATOM     24  C   UNL d   1      -8.274   4.882   0.104  0.00  0.00     0.030 C 
ATOM     25  C   UNL d   1      -9.014   4.183  -1.046  0.00  0.00     0.025 C 
ATOM     26  C   UNL d   1      -9.272   5.093   1.266  0.00  0.00     0.025 C 
ATOM     27  C   UNL d   1      -7.787   6.262  -0.361  0.00  0.00     0.025 C 
ENDBRANCH  21  24
ENDBRANCH   4  20
TORSDOF 4
