REMARK  3 active torsions:
REMARK  status: ('A' for Active; 'I' for Inactive)
REMARK    1  A    between atoms: C_2  and  C_1 
REMARK       I    between atoms: N_5  and  C_2 
REMARK    2  A    between atoms: C_4  and  C_7 
REMARK    3  A    between atoms: C_12  and  N_5 
ROOT
ATOM      1  C   UNL d   1       1.816  -2.976  -0.442  0.00  0.00     0.259 C 
ATOM      2  N   UNL d   1       3.070  -3.200   0.100  0.00  0.00    -0.323 N 
ATOM      3  O   UNL d   1       1.107  -3.818  -0.987  0.00  0.00    -0.267 OA
ATOM      4  H   UNL d   1       3.540  -2.394   0.501  0.00  0.00     0.169 HD
ENDROOT
BRANCH   1   5
ATOM      5  C   UNL d   1       1.260  -1.597  -0.322  0.00  0.00     0.067 A 
ATOM      6  C   UNL d   1       1.985  -0.474   0.049  0.00  0.00     0.090 A 
ATOM      7  C   UNL d   1       1.384   0.779   0.148  0.00  0.00    -0.020 A 
ATOM      8  O   UNL d   1       3.322  -0.442   0.374  0.00  0.00    -0.349 OA
ATOM      9  C   UNL d   1       2.374   1.772   0.623  0.00  0.00     0.068 C 
ATOM     10  C   UNL d   1       0.036   0.959  -0.113  0.00  0.00     0.029 A 
ATOM     11  C   UNL d   1       3.647   0.971   0.366  0.00  0.00     0.180 C 
ATOM     12  C   UNL d   1      -0.706  -0.156  -0.499  0.00  0.00     0.012 A 
ATOM     13  C   UNL d   1      -0.108  -1.419  -0.604  0.00  0.00     0.039 A 
ATOM     14 BR   UNL d   1      -2.551   0.033  -0.866  0.00  0.00    -0.051 Br
ENDBRANCH   1   5
BRANCH   2  15
ATOM     15  C   UNL d   1       3.726  -4.446   0.223  0.00  0.00     0.035 A 
ATOM     16  C   UNL d   1       3.215  -5.646  -0.285  0.00  0.00     0.045 A 
ATOM     17  C   UNL d   1       3.877  -6.869  -0.082  0.00  0.00     0.050 A 
ATOM     18  C   UNL d   1       5.078  -6.878   0.640  0.00  0.00     0.016 A 
ATOM     19  C   UNL d   1       5.609  -5.687   1.133  0.00  0.00     0.003 A 
ATOM     20  C   UNL d   1       4.938  -4.479   0.922  0.00  0.00     0.029 A 
BRANCH  17  21
ATOM     21  C   UNL d   1       3.295  -8.157  -0.609  0.00  0.00     0.417 C 
ATOM     22  F   UNL d   1       2.174  -7.995  -1.365  0.00  0.00    -0.166 F 
ATOM     23  F   UNL d   1       4.174  -8.842  -1.393  0.00  0.00    -0.166 F 
ATOM     24  F   UNL d   1       2.947  -9.015   0.392  0.00  0.00    -0.166 F 
ENDBRANCH  17  21
ENDBRANCH   2  15
TORSDOF 3
