REMARK  2 active torsions:
REMARK  status: ('A' for Active; 'I' for Inactive)
REMARK    1  A    between atoms: C_6  and  N_2 
REMARK    2  A    between atoms: C_5  and  C_8 
ROOT
ATOM      1  N   UNL d   1      -3.005   0.086  -0.536  0.00  0.00    -0.191 NA
ATOM      2  C   UNL d   1      -1.855   0.086  -0.397  0.00  0.00     0.099 C 
ATOM      3  C   UNL d   1      -0.430   0.077  -0.232  0.00  0.00     0.044 A 
ATOM      4  C   UNL d   1       2.352   0.054   0.050  0.00  0.00    -0.021 A 
ATOM      5  C   UNL d   1       0.258  -1.140  -0.146  0.00  0.00     0.023 A 
ATOM      6  C   UNL d   1       0.279   1.283  -0.162  0.00  0.00     0.023 A 
ATOM      7  C   UNL d   1       1.669   1.272  -0.019  0.00  0.00     0.014 A 
ATOM      8  C   UNL d   1       1.648  -1.153  -0.005  0.00  0.00     0.014 A 
ENDROOT
BRANCH   4   9
ATOM      9  C   UNL d   1       3.825   0.012   0.150  0.00  0.00     0.099 C 
ATOM     10  N   UNL d   1       4.535   1.087   0.260  0.00  0.00    -0.365 N 
ATOM     11  HN  UNL d   1       4.082   2.000   0.300  1.00  0.00     0.165 HD
BRANCH  10  12
ATOM     12  C   UNL d   1       5.936   0.989   0.322  0.00  0.00     0.032 A 
ATOM     13  C   UNL d   1       6.688   2.020  -0.254  0.00  0.00     0.031 A 
ATOM     14  C   UNL d   1       8.086   2.005  -0.212  0.00  0.00     0.026 A 
ATOM     15  C   UNL d   1       8.744   0.949   0.411  0.00  0.00     0.034 A 
ATOM     16  C   UNL d   1       8.016  -0.080   1.002  0.00  0.00     0.026 A 
ATOM     17 CL   UNL d   1      10.463   0.919   0.464  0.00  0.00    -0.084 Cl
ATOM     18  C   UNL d   1       6.619  -0.051   0.969  0.00  0.00     0.031 A 
ENDBRANCH  10  12
ENDBRANCH   4   9
TORSDOF 2
