REMARK  5 active torsions:
REMARK  status: ('A' for Active; 'I' for Inactive)
REMARK    1  A    between atoms: C_11  and  N_1 
REMARK    2  A    between atoms: C_3  and  C_2 
REMARK    3  A    between atoms: S_15  and  C_6 
REMARK    4  A    between atoms: C_18  and  S_15 
REMARK    5  A    between atoms: C_21  and  C_18 
ROOT
ATOM      1  N   UNL d   1      -0.332  -1.303  -0.050  0.00  0.00    -0.274 N 
ATOM      2  C   UNL d   1       0.899  -0.676   0.128  0.00  0.00     0.157 C 
ATOM      3  N   UNL d   1       0.719   0.615   0.328  0.00  0.00    -0.281 N 
ATOM      4  HN  UNL d   1       1.440   1.287   0.591  1.00  0.00     0.188 HD
ATOM      5  C   UNL d   1      -1.224  -0.239  -0.128  0.00  0.00     0.168 C 
ATOM      6  N   UNL d   1      -0.603   0.894   0.119  0.00  0.00    -0.278 N 
ATOM      7  HN  UNL d   1      -1.032   1.818   0.149  1.00  0.00     0.189 HD
ENDROOT
BRANCH   5   8
ATOM      8  S   UNL d   1      -2.952  -0.358  -0.268  0.00  0.00    -0.087 SA
BRANCH   8   9
ATOM      9  C   UNL d   1      -3.343   1.258  -1.006  0.00  0.00     0.121 C 
BRANCH   9  10
ATOM     10  C   UNL d   1      -4.833   1.453  -1.164  0.00  0.00    -0.049 A 
ATOM     11  C   UNL d   1      -5.572   2.105  -0.165  0.00  0.00     0.008 A 
ATOM     12  C   UNL d   1      -6.949   2.289  -0.306  0.00  0.00     0.001 A 
ATOM     13  C   UNL d   1      -7.604   1.818  -1.442  0.00  0.00     0.000 A 
ATOM     14  C   UNL d   1      -6.884   1.161  -2.437  0.00  0.00     0.001 A 
ATOM     15  C   UNL d   1      -5.507   0.976  -2.299  0.00  0.00     0.008 A 
ENDBRANCH   9  10
ENDBRANCH   8   9
ENDBRANCH   5   8
BRANCH   1  16
ATOM     16  C   UNL d   1      -0.594  -2.706  -0.024  0.00  0.00     0.046 A 
ATOM     17  C   UNL d   1      -1.585  -3.279  -0.824  0.00  0.00     0.072 A 
ATOM     18  C   UNL d   1      -1.814  -4.653  -0.755  0.00  0.00     0.118 A 
ATOM     19  F   UNL d   1      -2.759  -5.200  -1.531  0.00  0.00    -0.206 F 
ATOM     20  C   UNL d   1      -1.073  -5.470   0.094  0.00  0.00     0.042 A 
ATOM     21  C   UNL d   1      -0.084  -4.909   0.894  0.00  0.00     0.005 A 
ATOM     22  C   UNL d   1       0.152  -3.531   0.840  0.00  0.00     0.030 A 
ENDBRANCH   1  16
BRANCH   2  23
ATOM     23  C   UNL d   1       2.261  -1.282  -0.005  0.00  0.00     0.086 A 
ATOM     24  N   UNL d   1       2.480  -2.454  -0.708  0.00  0.00    -0.351 N 
ATOM     25  C   UNL d   1       3.769  -2.718  -0.750  0.00  0.00     0.047 A 
ATOM     26  HN  UNL d   1       1.751  -3.028  -1.131  1.00  0.00     0.166 HD
ATOM     27  C   UNL d   1       4.370  -3.851  -1.505  0.00  0.00     0.076 C 
ATOM     28  S   UNL d   1       4.771  -1.640   0.138  0.00  0.00    -0.087 SA
ATOM     29  C   UNL d   1       3.393  -0.692   0.517  0.00  0.00     0.085 A 
ENDBRANCH   2  23
TORSDOF 5
