REMARK  3 active torsions:
REMARK  status: ('A' for Active; 'I' for Inactive)
REMARK    1  A    between atoms: S_5  and  C_1 
REMARK    2  A    between atoms: C_7  and  C_2 
REMARK       I    between atoms: N_8  and  C_7 
REMARK    3  A    between atoms: N_15  and  C_10 
ROOT
ATOM      1  C   UNL d   1      -1.173   1.527  -0.067  0.00  0.00     0.111 A 
ATOM      2  C   UNL d   1      -1.705  -0.919  -0.036  0.00  0.00     0.081 A 
ATOM      3  S   UNL d   1      -2.583   0.561  -0.086  0.00  0.00    -0.071 SA
ATOM      4  C   UNL d   1      -0.046   0.730  -0.069  0.00  0.00    -0.000 A 
ATOM      5  C   UNL d   1      -0.335  -0.685  -0.077  0.00  0.00    -0.023 A 
ATOM      6  C   UNL d   1       1.303   1.200  -0.033  0.00  0.00     0.010 C 
ATOM      7  C   UNL d   1       2.343   0.355  -0.045  0.00  0.00    -0.025 C 
ATOM      8  C   UNL d   1       0.763  -1.715  -0.025  0.00  0.00     0.045 C 
ATOM      9  C   UNL d   1       2.197  -1.140  -0.115  0.00  0.00     0.032 C 
ENDROOT
BRANCH   2  10
ATOM     10  C   UNL d   1      -2.506  -2.133   0.099  0.00  0.00     0.264 C 
ATOM     11  N   UNL d   1      -2.000  -3.222  -0.583  0.00  0.00    -0.319 N 
ATOM     12  C   UNL d   1      -2.845  -4.193  -0.714  0.00  0.00     0.180 C 
ATOM     13  HN  UNL d   1      -1.048  -3.258  -0.949  1.00  0.00     0.169 HD
ATOM     14  O   UNL d   1      -3.549  -2.153   0.752  0.00  0.00    -0.267 OA
BRANCH  12  15
ATOM     15  N   UNL d   1      -2.672  -5.420  -1.326  0.00  0.00    -0.386 N 
ATOM     16  C   UNL d   1      -1.471  -5.755  -2.068  0.00  0.00     0.149 C 
ATOM     17  C   UNL d   1      -3.797  -6.330  -1.511  0.00  0.00     0.149 C 
ENDBRANCH  12  15
ENDBRANCH   2  10
BRANCH   1  18
ATOM     18  S   UNL d   1      -1.482   3.286  -0.041  0.00  0.00     0.179 S 
ATOM     19  O   UNL d   1      -0.191   3.924   0.111  0.00  0.00    -0.222 OA
ATOM     20  O   UNL d   1      -2.330   3.560  -1.184  0.00  0.00    -0.222 OA
ATOM     21  C   UNL d   1      -2.405   3.563   1.449  0.00  0.00     0.167 C 
ENDBRANCH   1  18
TORSDOF 3
