REMARK  3 active torsions:
REMARK  status: ('A' for Active; 'I' for Inactive)
REMARK    1  A    between atoms: N_6  and  C_1 
REMARK    2  A    between atoms: C_11  and  C_3 
REMARK       I    between atoms: C_8  and  N_6 
REMARK    3  A    between atoms: C_9  and  C_8 
ROOT
ATOM      1  C   UNL d   1      -1.226   1.088   0.357  0.00  0.00     0.142 A 
ATOM      2  C   UNL d   1      -0.529  -0.052   0.666  0.00  0.00     0.085 A 
ATOM      3  C   UNL d   1      -1.343  -1.148   0.258  0.00  0.00     0.079 A 
ATOM      4  N   UNL d   1      -2.524  -0.679  -0.203  0.00  0.00    -0.297 N 
ATOM      5  HN  UNL d   1      -3.312  -1.224  -0.554  1.00  0.00     0.187 HD
ATOM      6  N   UNL d   1      -2.438   0.659  -0.102  0.00  0.00    -0.284 N 
ATOM      7 BR   UNL d   1       1.138  -0.069   1.534  0.00  0.00    -0.044 Br
ATOM      8  H   UNL d   1      -3.230   1.228  -0.391  0.00  0.00     0.188 HD
ENDROOT
BRANCH   1   9
ATOM      9  N   UNL d   1      -0.730   2.374   0.496  0.00  0.00    -0.307 N 
ATOM     10  C   UNL d   1      -1.540   3.537   0.344  0.00  0.00     0.259 C 
ATOM     11  O   UNL d   1      -2.748   3.421   0.234  0.00  0.00    -0.267 OA
ATOM     12  H   UNL d   1       0.264   2.460   0.683  0.00  0.00     0.170 HD
BRANCH  10  13
ATOM     13  C   UNL d   1      -0.842   4.844   0.415  0.00  0.00     0.054 A 
ATOM     14  C   UNL d   1       0.401   5.076  -0.190  0.00  0.00     0.049 A 
ATOM     15 CL   UNL d   1       1.240   3.877  -1.109  0.00  0.00    -0.083 Cl
ATOM     16  C   UNL d   1       1.006   6.332  -0.086  0.00  0.00     0.025 A 
ATOM     17  C   UNL d   1       0.376   7.358   0.619  0.00  0.00     0.002 A 
ATOM     18  C   UNL d   1      -0.860   7.134   1.220  0.00  0.00     0.001 A 
ATOM     19  C   UNL d   1      -1.475   5.883   1.116  0.00  0.00     0.019 A 
ENDBRANCH  10  13
ENDBRANCH   1   9
BRANCH   3  20
ATOM     20  C   UNL d   1      -1.073  -2.596   0.288  0.00  0.00    -0.007 A 
ATOM     21  C   UNL d   1      -2.134  -3.514   0.361  0.00  0.00     0.014 A 
ATOM     22  C   UNL d   1      -1.892  -4.892   0.403  0.00  0.00     0.001 A 
ATOM     23  C   UNL d   1      -0.586  -5.374   0.378  0.00  0.00     0.000 A 
ATOM     24  C   UNL d   1       0.476  -4.482   0.285  0.00  0.00     0.001 A 
ATOM     25  C   UNL d   1       0.232  -3.108   0.221  0.00  0.00     0.014 A 
ENDBRANCH   3  20
TORSDOF 3
