REMARK  6 active torsions:
REMARK  status: ('A' for Active; 'I' for Inactive)
REMARK    1  A    between atoms: C_3  and  C_1 
REMARK    2  A    between atoms: C_4  and  C_2 
REMARK    3  A    between atoms: O_12  and  C_3 
REMARK    4  A    between atoms: O_14  and  C_7 
REMARK    5  A    between atoms: O_15  and  C_11 
REMARK    6  A    between atoms: C_16  and  O_12 
ROOT
ATOM      1  C   UNL d   1       0.893  -0.909   0.020  0.00  0.00     0.120 C 
ATOM      2  C   UNL d   1       0.454  -0.230   1.096  0.00  0.00     0.043 C 
ATOM      3  C   UNL d   1       1.990  -1.810   0.062  0.00  0.00     0.105 C 
ATOM      4  N   UNL d   1       2.875  -2.563   0.106  0.00  0.00    -0.191 NA
ENDROOT
BRANCH   1   5
ATOM      5  C   UNL d   1       0.114  -0.753  -1.236  0.00  0.00     0.303 C 
ATOM      6  O   UNL d   1      -0.886  -0.058  -1.345  0.00  0.00    -0.258 OA
BRANCH   5   7
ATOM      7  O   UNL d   1       0.624  -1.562  -2.194  0.00  0.00    -0.317 OA
BRANCH   7   8
ATOM      8  C   UNL d   1      -0.245  -1.860  -3.296  0.00  0.00     0.174 C 
ATOM      9  C   UNL d   1      -1.111  -3.043  -2.904  0.00  0.00     0.034 C 
ENDBRANCH   7   8
ENDBRANCH   5   7
ENDBRANCH   1   5
BRANCH   2  10
ATOM     10  C   UNL d   1       1.071  -0.343   2.422  0.00  0.00     0.002 A 
ATOM     11  C   UNL d   1       2.168   0.419   2.847  0.00  0.00     0.078 A 
ATOM     12  C   UNL d   1       2.775   0.115   4.072  0.00  0.00     0.040 A 
ATOM     13  C   UNL d   1       2.280  -0.904   4.892  0.00  0.00     0.039 A 
ATOM     14  C   UNL d   1       1.166  -1.634   4.493  0.00  0.00     0.069 A 
ATOM     15  C   UNL d   1       0.577  -1.362   3.256  0.00  0.00     0.051 A 
BRANCH  11  16
ATOM     16  O   UNL d   1       2.810   1.406   2.148  0.00  0.00    -0.355 OA
ATOM     17  C   UNL d   1       2.001   2.305   1.399  0.00  0.00     0.210 C 
ENDBRANCH  11  16
BRANCH  14  18
ATOM     18  O   UNL d   1       0.596  -2.660   5.194  0.00  0.00    -0.356 OA
ATOM     19  C   UNL d   1       0.809  -2.639   6.601  0.00  0.00     0.210 C 
ENDBRANCH  14  18
ENDBRANCH   2  10
TORSDOF 6
