REMARK  6 active torsions:
REMARK  status: ('A' for Active; 'I' for Inactive)
REMARK    1  A    between atoms: N_2  and  S_1 
REMARK    2  A    between atoms: C_8  and  S_1 
REMARK    3  A    between atoms: C_4  and  N_2 
REMARK    4  A    between atoms: N_5  and  C_4 
REMARK    5  A    between atoms: C_9  and  N_5 
REMARK    6  A    between atoms: O_13  and  C_12 
ROOT
ATOM      1  C   UNL d   1       1.107  -2.669  -1.204  0.00  0.00     0.183 C 
ATOM      2  S   UNL d   1       0.765  -4.309  -1.303  0.00  0.00    -0.040 SA
ENDROOT
BRANCH   1   3
ATOM      3  N   UNL d   1       0.463  -1.871  -0.267  0.00  0.00    -0.289 N 
ATOM      4  HN  UNL d   1       0.209  -0.945  -0.610  1.00  0.00     0.178 HD
BRANCH   3   5
ATOM      5  S   UNL d   1       0.063  -2.132   1.197  0.00  0.00     0.054 S 
ATOM      6  O   UNL d   1      -0.110  -1.068   2.174  0.00  0.00    -0.245 OA
ATOM      7  C   UNL d   1      -1.496  -2.989   1.167  0.00  0.00     0.142 C 
BRANCH   5   8
ATOM      8  C   UNL d   1       1.300  -3.187   1.950  0.00  0.00     0.038 A 
ATOM      9  C   UNL d   1       2.604  -2.683   2.010  0.00  0.00     0.022 A 
ATOM     10  C   UNL d   1       3.615  -3.429   2.627  0.00  0.00     0.001 A 
ATOM     11  C   UNL d   1       3.317  -4.669   3.190  0.00  0.00     0.000 A 
ATOM     12  C   UNL d   1       2.019  -5.169   3.138  0.00  0.00     0.001 A 
ATOM     13  C   UNL d   1       1.001  -4.430   2.513  0.00  0.00     0.022 A 
ENDBRANCH   5   8
ENDBRANCH   3   5
ENDBRANCH   1   3
BRANCH   1  14
ATOM     14  N   UNL d   1       1.926  -2.182  -2.184  0.00  0.00    -0.333 N 
ATOM     15  H   UNL d   1       2.238  -2.924  -2.796  0.00  0.00     0.168 HD
BRANCH  14  16
ATOM     16  C   UNL d   1       2.287  -0.878  -2.577  0.00  0.00     0.036 A 
ATOM     17  C   UNL d   1       1.927   0.301  -1.915  0.00  0.00     0.066 A 
ATOM     18  C   UNL d   1       2.312   1.546  -2.432  0.00  0.00     0.070 A 
ATOM     19  C   UNL d   1       3.054   1.607  -3.616  0.00  0.00     0.037 A 
ATOM     20  C   UNL d   1       3.426   0.443  -4.276  0.00  0.00     0.005 A 
ATOM     21  C   UNL d   1       3.048  -0.792  -3.753  0.00  0.00     0.029 A 
BRANCH  18  22
ATOM     22  O   UNL d   1       2.043   2.775  -1.892  0.00  0.00    -0.356 OA
ATOM     23  C   UNL d   1       1.232   2.814  -0.726  0.00  0.00     0.210 C 
ENDBRANCH  18  22
ENDBRANCH  14  16
ENDBRANCH   1  14
TORSDOF 6
