REMARK  3 active torsions:
REMARK  status: ('A' for Active; 'I' for Inactive)
REMARK    1  A    between atoms: N_2  and  S_1 
REMARK    2  A    between atoms: C_4  and  S_1 
REMARK    3  A    between atoms: C_3  and  N_2 
ROOT
ATOM      1  S   UNL d   1       1.078  -0.081  -0.043  0.00  0.00     0.247 S 
ATOM      2  O   UNL d   1       0.368  -0.545   1.127  0.00  0.00    -0.205 OA
ATOM      3  O   UNL d   1       2.517  -0.177  -0.161  0.00  0.00    -0.205 OA
ENDROOT
BRANCH   1   4
ATOM      4  N   UNL d   1       0.550   1.512  -0.304  0.00  0.00    -0.165 NA
ATOM      5  H   UNL d   1      -0.061   1.715   0.492  0.00  0.00     0.147 HD
BRANCH   4   6
ATOM      6  C   UNL d   1       1.544   2.484  -0.395  0.00  0.00     0.117 A 
ATOM      7  N   UNL d   1       1.880   3.235   0.654  0.00  0.00    -0.249 N 
ATOM      8  O   UNL d   1       2.897   4.064   0.202  0.00  0.00    -0.241 OA
ATOM      9  HN  UNL d   1       1.476   3.206   1.590  1.00  0.00     0.196 HD
ATOM     10  C   UNL d   1       3.100   3.845  -1.125  0.00  0.00     0.075 A 
ATOM     11  C   UNL d   1       2.242   2.863  -1.556  0.00  0.00     0.079 A 
ATOM     12  C   UNL d   1       4.136   4.664  -1.779  0.00  0.00     0.079 C 
ENDBRANCH   4   6
ENDBRANCH   1   4
BRANCH   1  13
ATOM     13  C   UNL d   1       0.408  -0.928  -1.449  0.00  0.00     0.078 A 
ATOM     14  C   UNL d   1       0.893  -0.603  -2.720  0.00  0.00     0.048 A 
ATOM     15  C   UNL d   1       0.407  -1.288  -3.829  0.00  0.00     0.037 A 
ATOM     16 CL   UNL d   1       0.985  -0.877  -5.396  0.00  0.00    -0.084 Cl
ATOM     17  C   UNL d   1      -0.536  -2.302  -3.679  0.00  0.00     0.047 A 
ATOM     18  C   UNL d   1      -0.993  -2.631  -2.403  0.00  0.00     0.037 A 
ATOM     19  C   UNL d   1      -0.529  -1.949  -1.280  0.00  0.00     0.048 A 
ATOM     20 CL   UNL d   1      -2.135  -3.905  -2.215  0.00  0.00    -0.084 Cl
ENDBRANCH   1  13
TORSDOF 3
