REMARK  2 active torsions:
REMARK  status: ('A' for Active; 'I' for Inactive)
REMARK    1  A    between atoms: C_2  and  C_1 
REMARK       I    between atoms: N_3  and  C_1 
REMARK    2  A    between atoms: C_7  and  N_3 
ROOT
ATOM      1  C   UNL d   1       1.084  -0.085  -0.665  0.00  0.00     0.259 C 
ATOM      2  N   UNL d   1       0.220  -1.139  -0.416  0.00  0.00    -0.323 N 
ATOM      3  O   UNL d   1       0.751   1.053  -0.979  0.00  0.00    -0.267 OA
ATOM      4  H   UNL d   1       0.634  -2.016  -0.120  0.00  0.00     0.169 HD
ENDROOT
BRANCH   2   5
ATOM      5  C   UNL d   1      -1.190  -1.124  -0.497  0.00  0.00     0.037 A 
ATOM      6  C   UNL d   1      -1.935  -0.024  -0.930  0.00  0.00     0.069 A 
ATOM      7  C   UNL d   1      -3.330  -0.079  -0.948  0.00  0.00     0.104 A 
ATOM      8  O   UNL d   1      -3.983   1.058  -1.357  0.00  0.00    -0.346 OA
ATOM      9  C   UNL d   1      -3.997  -1.244  -0.565  0.00  0.00     0.102 A 
ATOM     10  C   UNL d   1      -5.353   1.038  -0.947  0.00  0.00     0.202 C 
ATOM     11  C   UNL d   1      -5.990  -0.299  -1.286  0.00  0.00     0.202 C 
ATOM     12  O   UNL d   1      -5.362  -1.367  -0.566  0.00  0.00    -0.346 OA
ATOM     13  C   UNL d   1      -3.266  -2.348  -0.140  0.00  0.00     0.042 A 
ATOM     14  C   UNL d   1      -1.868  -2.289  -0.109  0.00  0.00     0.032 A 
ENDBRANCH   2   5
BRANCH   1  15
ATOM     15  C   UNL d   1       2.546  -0.364  -0.533  0.00  0.00     0.070 A 
ATOM     16  C   UNL d   1       3.066  -1.616  -0.200  0.00  0.00     0.132 A 
ATOM     17  F   UNL d   1       2.256  -2.658   0.045  0.00  0.00    -0.205 F 
ATOM     18  C   UNL d   1       4.443  -1.825  -0.113  0.00  0.00     0.043 A 
ATOM     19  C   UNL d   1       5.323  -0.772  -0.356  0.00  0.00     0.003 A 
ATOM     20  C   UNL d   1       4.825   0.488  -0.680  0.00  0.00     0.001 A 
ATOM     21  C   UNL d   1       3.445   0.691  -0.767  0.00  0.00     0.020 A 
ENDBRANCH   1  15
TORSDOF 2
