REMARK  5 active torsions:
REMARK  status: ('A' for Active; 'I' for Inactive)
REMARK    1  A    between atoms: N_6  and  C_1 
REMARK    2  A    between atoms: C_4  and  N_8 
REMARK    3  A    between atoms: C_5  and  C_11 
REMARK       I    between atoms: C_7  and  N_17 
REMARK       I    between atoms: N_8  and  C_7 
REMARK    4  A    between atoms: C_29  and  C_12 
REMARK    5  A    between atoms: N_17  and  C_26 
ROOT
ATOM      1  N   UNL d   1       0.096   2.550   0.537  0.00  0.00    -0.254 NA
ATOM      2  C   UNL d   1      -0.681   3.348   1.482  0.00  0.00     0.100 C 
ATOM      3  C   UNL d   1       0.087   3.037  -0.842  0.00  0.00     0.100 C 
ATOM      4  C   UNL d   1       0.678   4.442  -0.871  0.00  0.00     0.040 C 
ATOM      5  C   UNL d   1      -0.142   4.782   1.493  0.00  0.00     0.040 C 
ATOM      6  C   UNL d   1      -0.048   5.393   0.089  0.00  0.00     0.088 C 
ENDROOT
BRANCH   6   7
ATOM      7  N   UNL d   1      -1.366   5.798  -0.414  0.00  0.00    -0.338 N 
ATOM      8  C   UNL d   1      -1.633   6.521  -1.548  0.00  0.00     0.321 C 
ATOM      9  N   UNL d   1      -0.562   7.215  -2.039  0.00  0.00    -0.306 N 
ATOM     10  O   UNL d   1      -2.767   6.529  -2.011  0.00  0.00    -0.247 OA
ATOM     11  H   UNL d   1      -0.089   7.710  -1.294  0.00  0.00     0.171 HD
ATOM     12  H   UNL d   1      -2.183   5.285  -0.104  0.00  0.00     0.164 HD
BRANCH   9  13
ATOM     13  C   UNL d   1      -0.568   7.910  -3.275  0.00  0.00     0.071 A 
ATOM     14  C   UNL d   1      -0.186   9.261  -3.264  0.00  0.00     0.039 A 
ATOM     15  C   UNL d   1       0.036   9.964  -4.450  0.00  0.00     0.029 A 
ATOM     16 BR   UNL d   1       0.066  10.202  -1.626  0.00  0.00    -0.049 Br
ATOM     17  C   UNL d   1      -0.056   9.317  -5.687  0.00  0.00    -0.052 A 
ATOM     18  C   UNL d   1      -0.517   7.990  -5.708  0.00  0.00     0.029 A 
ATOM     19  C   UNL d   1      -0.773   7.287  -4.516  0.00  0.00     0.039 A 
ATOM     20 BR   UNL d   1      -1.194   5.440  -4.706  0.00  0.00    -0.049 Br
BRANCH  17  21
ATOM     21  C   UNL d   1       0.405   9.981  -6.976  0.00  0.00     0.010 C 
ATOM     22  C   UNL d   1      -0.712  10.784  -7.638  0.00  0.00     0.015 C 
ATOM     23  C   UNL d   1       1.651  10.856  -6.776  0.00  0.00     0.015 C 
ENDBRANCH  17  21
ENDBRANCH   9  13
ENDBRANCH   6   7
BRANCH   1  24
ATOM     24  C   UNL d   1      -0.069   1.168   0.624  0.00  0.00     0.159 A 
ATOM     25  N   UNL d   1      -0.895   0.650   1.545  0.00  0.00    -0.329 N 
ATOM     26  C   UNL d   1      -1.007  -0.704   1.623  0.00  0.00     0.120 A 
ATOM     27  HN  UNL d   1      -1.426   1.256   2.171  1.00  0.00     0.168 HD
ATOM     28  C   UNL d   1      -0.276  -1.550   0.821  0.00  0.00     0.051 A 
ATOM     29  C   UNL d   1       0.551  -0.938  -0.084  0.00  0.00     0.093 A 
ATOM     30  N   UNL d   1       0.655   0.397  -0.202  0.00  0.00    -0.343 N 
ATOM     31  HN  UNL d   1       1.269   0.813  -0.901  1.00  0.00     0.167 HD
BRANCH  26  32
ATOM     32  C   UNL d   1      -1.970  -1.313   2.632  0.00  0.00     0.432 C 
ATOM     33  F   UNL d   1      -2.729  -0.407   3.311  0.00  0.00    -0.165 F 
ATOM     34  F   UNL d   1      -2.853  -2.171   2.045  0.00  0.00    -0.165 F 
ATOM     35  F   UNL d   1      -1.326  -2.050   3.584  0.00  0.00    -0.165 F 
ENDBRANCH  26  32
ENDBRANCH   1  24
TORSDOF 5
