REMARK  4 active torsions:
REMARK  status: ('A' for Active; 'I' for Inactive)
REMARK    1  A    between atoms: C_3  and  O_14 
REMARK    2  A    between atoms: C_5  and  C_3 
REMARK    3  A    between atoms: O_14  and  N_7 
REMARK    4  A    between atoms: C_15  and  C_16 
ROOT
ATOM      1  N   UNL d   1       4.916  -1.929   0.023  0.00  0.00    -0.268 N 
ATOM      2  HN  UNL d   1       4.256  -2.707   0.026  1.00  0.00     0.194 HD
ATOM      3  C   UNL d   1       4.572  -0.684   0.021  0.00  0.00     0.126 C 
ENDROOT
BRANCH   3   4
ATOM      4  C   UNL d   1       3.146  -0.273  -0.001  0.00  0.00    -0.018 A 
ATOM      5  C   UNL d   1       2.832   1.087  -0.016  0.00  0.00     0.015 A 
ATOM      6  C   UNL d   1       1.494   1.491  -0.054  0.00  0.00     0.038 A 
ATOM      7  C   UNL d   1       0.467   0.546  -0.077  0.00  0.00     0.076 A 
ATOM      8  O   UNL d   1      -0.802   1.055  -0.122  0.00  0.00    -0.340 OA
ATOM      9  C   UNL d   1       0.767  -0.819  -0.081  0.00  0.00    -0.024 A 
ATOM     10  C   UNL d   1      -1.894   0.134   0.062  0.00  0.00     0.061 C 
ATOM     11  C   UNL d   1      -1.625  -1.215  -0.621  0.00  0.00     0.042 C 
ATOM     12  C   UNL d   1      -3.114   0.797  -0.598  0.00  0.00     0.046 C 
ATOM     13  C   UNL d   1      -2.178  -0.007   1.565  0.00  0.00     0.046 C 
ATOM     14  C   UNL d   1      -0.331  -1.842  -0.119  0.00  0.00     0.044 C 
ATOM     15  C   UNL d   1       2.115  -1.224  -0.026  0.00  0.00     0.022 A 
ENDBRANCH   3   4
BRANCH   1  16
ATOM     16  O   UNL d   1       6.327  -2.081   0.021  0.00  0.00    -0.195 OA
BRANCH  16  17
ATOM     17  C   UNL d   1       6.616  -3.421   0.045  0.00  0.00     0.315 C 
ATOM     18  O   UNL d   1       5.810  -4.344   0.105  0.00  0.00    -0.257 OA
BRANCH  17  19
ATOM     19  C   UNL d   1       8.081  -3.704  -0.013  0.00  0.00     0.043 A 
ATOM     20  C   UNL d   1       9.066  -2.716  -0.121  0.00  0.00     0.041 A 
ATOM     21  C   UNL d   1      10.414  -3.089  -0.191  0.00  0.00     0.035 A 
ATOM     22 CL   UNL d   1      11.631  -1.881  -0.340  0.00  0.00    -0.084 Cl
ATOM     23  C   UNL d   1      10.795  -4.433  -0.148  0.00  0.00     0.024 A 
ATOM     24  C   UNL d   1       9.821  -5.419  -0.034  0.00  0.00     0.003 A 
ATOM     25  C   UNL d   1       8.474  -5.055   0.031  0.00  0.00     0.018 A 
ENDBRANCH  17  19
ENDBRANCH  16  17
ENDBRANCH   1  16
TORSDOF 4
