REMARK  7 active torsions:
REMARK  status: ('A' for Active; 'I' for Inactive)
REMARK    1  A    between atoms: N_2  and  C_1 
REMARK    2  A    between atoms: C_3  and  C_1 
REMARK    3  A    between atoms: C_4  and  C_1 
REMARK    4  A    between atoms: O_6  and  C_1 
REMARK       I    between atoms: C_5  and  N_2 
REMARK    5  A    between atoms: C_8  and  C_5 
REMARK    6  A    between atoms: C_15  and  O_6 
REMARK    7  A    between atoms: C_16  and  C_15 
ROOT
ATOM      1  C   UNL d   1       1.176   0.055  -0.066  0.00  0.00     0.337 C 
ENDROOT
BRANCH   1   2
ATOM      2  N   UNL d   1       0.359  -1.148   0.344  0.00  0.00    -0.310 N 
ATOM      3  C   UNL d   1      -0.949  -1.555   0.298  0.00  0.00     0.254 C 
ATOM      4  O   UNL d   1      -1.171  -2.704   0.714  0.00  0.00    -0.268 OA
ATOM      5  H   UNL d   1       0.939  -1.935   0.633  0.00  0.00     0.166 HD
BRANCH   3   6
ATOM      6  C   UNL d   1      -2.098  -0.755  -0.210  0.00  0.00     0.032 A 
ATOM      7  C   UNL d   1      -1.979   0.538  -0.689  0.00  0.00     0.017 A 
ATOM      8  C   UNL d   1      -3.047   1.288  -1.172  0.00  0.00     0.001 A 
ATOM      9  C   UNL d   1      -4.304   0.727  -1.191  0.00  0.00     0.000 A 
ATOM     10  C   UNL d   1      -4.478  -0.576  -0.724  0.00  0.00     0.001 A 
ATOM     11  C   UNL d   1      -3.386  -1.312  -0.230  0.00  0.00     0.017 A 
ENDBRANCH   3   6
ENDBRANCH   1   2
BRANCH   1  12
ATOM     12  C   UNL d   1       0.872   1.384   0.726  0.00  0.00     0.447 C 
ATOM     13  F   UNL d   1       0.152   1.094   1.847  0.00  0.00    -0.166 F 
ATOM     14  F   UNL d   1       1.993   2.013   1.154  0.00  0.00    -0.166 F 
ATOM     15  F   UNL d   1       0.172   2.332   0.073  0.00  0.00    -0.166 F 
ENDBRANCH   1  12
BRANCH   1  16
ATOM     16  C   UNL d   1       1.130   0.331  -1.615  0.00  0.00     0.447 C 
ATOM     17  F   UNL d   1       0.355  -0.597  -2.245  0.00  0.00    -0.166 F 
ATOM     18  F   UNL d   1       0.640   1.535  -1.973  0.00  0.00    -0.166 F 
ATOM     19  F   UNL d   1       2.351   0.237  -2.200  0.00  0.00    -0.166 F 
ENDBRANCH   1  16
BRANCH   1  20
ATOM     20  O   UNL d   1       2.546  -0.393   0.154  0.00  0.00    -0.342 OA
BRANCH  20  21
ATOM     21  C   UNL d   1       3.071  -0.474   1.470  0.00  0.00     0.210 C 
BRANCH  21  22
ATOM     22  C   UNL d   1       4.573  -0.308   1.391  0.00  0.00    -0.035 A 
ATOM     23  C   UNL d   1       5.280   0.220   2.481  0.00  0.00     0.009 A 
ATOM     24  C   UNL d   1       6.676   0.283   2.461  0.00  0.00     0.001 A 
ATOM     25  C   UNL d   1       7.383  -0.176   1.351  0.00  0.00     0.000 A 
ATOM     26  C   UNL d   1       6.695  -0.677   0.249  0.00  0.00     0.001 A 
ATOM     27  C   UNL d   1       5.301  -0.744   0.270  0.00  0.00     0.009 A 
ENDBRANCH  21  22
ENDBRANCH  20  21
ENDBRANCH   1  20
TORSDOF 7
