REMARK  4 active torsions:
REMARK  status: ('A' for Active; 'I' for Inactive)
REMARK    1  A    between atoms: C_4  and  N_1 
REMARK       I    between atoms: C_2  and  N_3 
REMARK       I    between atoms: N_9  and  C_2 
REMARK    2  A    between atoms: N_5  and  C_6 
REMARK    3  A    between atoms: C_20  and  N_9 
REMARK    4  A    between atoms: C_14  and  C_15 
ROOT
ATOM      1  C   UNL d   1      -4.112  -6.537  -4.812  0.00  0.00     0.322 C 
ATOM      2  N   UNL d   1      -3.997  -5.360  -4.080  0.00  0.00    -0.332 N 
ATOM      3  N   UNL d   1      -1.661  -4.447  -2.491  0.00  0.00    -0.366 N 
ATOM      4  N   UNL d   1      -5.065  -7.432  -4.386  0.00  0.00    -0.309 N 
ATOM      5  O   UNL d   1      -3.381  -6.723  -5.790  0.00  0.00    -0.247 OA
ATOM      6  C   UNL d   1      -2.994  -4.395  -4.564  0.00  0.00     0.147 C 
ATOM      7  C   UNL d   1      -1.606  -4.609  -3.949  0.00  0.00     0.144 C 
ATOM      8  C   UNL d   1      -3.684  -5.513  -1.548  0.00  0.00     0.040 C 
ATOM      9  C   UNL d   1      -4.538  -5.075  -2.748  0.00  0.00     0.129 C 
ATOM     10  C   UNL d   1      -2.169  -5.593  -1.743  0.00  0.00     0.126 C 
ATOM     11  H   UNL d   1      -5.733  -7.106  -3.713  0.00  0.00     0.170 HD
ENDROOT
BRANCH   4  12
ATOM     12  C   UNL d   1      -5.258  -8.755  -4.859  0.00  0.00     0.036 A 
ATOM     13  C   UNL d   1      -4.414  -9.387  -5.770  0.00  0.00     0.030 A 
ATOM     14  C   UNL d   1      -4.556 -10.750  -6.058  0.00  0.00     0.010 A 
ATOM     15  C   UNL d   1      -5.545 -11.533  -5.442  0.00  0.00    -0.051 A 
ATOM     16  C   UNL d   1      -6.464 -10.860  -4.622  0.00  0.00     0.010 A 
ATOM     17  C   UNL d   1      -6.321  -9.493  -4.332  0.00  0.00     0.030 A 
BRANCH  15  18
ATOM     18  C   UNL d   1      -5.524 -13.063  -5.606  0.00  0.00    -0.024 C 
ATOM     19  C   UNL d   1      -6.646 -13.782  -4.825  0.00  0.00     0.019 C 
ATOM     20  C   UNL d   1      -5.654 -13.467  -7.088  0.00  0.00     0.019 C 
ATOM     21  C   UNL d   1      -4.179 -13.602  -5.061  0.00  0.00     0.019 C 
ENDBRANCH  15  18
ENDBRANCH   4  12
BRANCH   3  22
ATOM     22  C   UNL d   1      -1.096  -3.372  -1.842  0.00  0.00     0.103 A 
ATOM     23  C   UNL d   1      -0.967  -2.126  -2.465  0.00  0.00     0.051 A 
ATOM     24  C   UNL d   1      -0.375  -1.048  -1.801  0.00  0.00     0.041 A 
ATOM     25  C   UNL d   1       0.095  -1.243  -0.509  0.00  0.00     0.118 A 
ATOM     26  C   UNL d   1      -0.064  -2.488   0.067  0.00  0.00     0.125 A 
ATOM     27  N   UNL d   1      -0.663  -3.531  -0.569  0.00  0.00    -0.350 N 
ATOM     28  HN  UNL d   1      -0.785  -4.424  -0.091  1.00  0.00     0.166 HD
BRANCH  25  29
ATOM     29  N   UNL d   1       0.732  -0.166   0.232  0.00  0.00    -0.114 N 
ATOM     30  O   UNL d   1       1.129  -0.410   1.380  0.00  0.00    -0.532 OA
ATOM     31  O   UNL d   1       0.837   0.933  -0.330  0.00  0.00    -0.532 OA
ENDBRANCH  25  29
ENDBRANCH   3  22
TORSDOF 4
