REMARK  2 active torsions:
REMARK  status: ('A' for Active; 'I' for Inactive)
REMARK    1  A    between atoms: C_2  and  S_1 
REMARK    2  A    between atoms: N_7  and  S_1 
ROOT
ATOM      1  S   UNL d   1       1.025  -0.011  -0.036  0.00  0.00     0.245 S 
ATOM      2  O   UNL d   1       2.118   0.896  -0.299  0.00  0.00    -0.206 OA
ATOM      3  O   UNL d   1       1.119  -1.417  -0.364  0.00  0.00    -0.206 OA
ENDROOT
BRANCH   1   4
ATOM      4  C   UNL d   1      -0.265   0.571  -1.022  0.00  0.00     0.105 A 
ATOM      5  C   UNL d   1      -1.515   0.008  -1.090  0.00  0.00     0.099 A 
ATOM      6  S   UNL d   1      -2.552   0.834  -2.158  0.00  0.00    -0.064 SA
ATOM      7 CL   UNL d   1      -2.138  -1.362  -0.258  0.00  0.00    -0.075 Cl
ATOM      8  C   UNL d   1      -1.339   1.954  -2.528  0.00  0.00     0.077 A 
ATOM      9  C   UNL d   1      -0.159   1.722  -1.869  0.00  0.00     0.058 A 
ATOM     10 CL   UNL d   1      -1.661   3.230  -3.630  0.00  0.00    -0.076 Cl
ENDBRANCH   1   4
BRANCH   1  11
ATOM     11  N   UNL d   1       0.576   0.151   1.599  0.00  0.00    -0.206 NA
ATOM     12  C   UNL d   1       0.422   1.540   2.098  0.00  0.00     0.107 C 
ATOM     13  C   UNL d   1       1.766   1.864   2.718  0.00  0.00     0.017 C 
ATOM     14  C   UNL d   1       2.164   0.559   3.381  0.00  0.00     0.017 C 
ATOM     15  C   UNL d   1       1.499  -0.538   2.552  0.00  0.00     0.107 C 
ENDBRANCH   1  11
TORSDOF 2
