REMARK  6 active torsions:
REMARK  status: ('A' for Active; 'I' for Inactive)
REMARK    1  A    between atoms: S_7  and  C_1 
REMARK    2  A    between atoms: C_12  and  N_4 
REMARK    3  A    between atoms: C_15  and  S_7 
REMARK    4  A    between atoms: C_10  and  C_15 
REMARK       I    between atoms: N_11  and  C_10 
REMARK    5  A    between atoms: C_19  and  N_11 
REMARK    6  A    between atoms: C_21  and  C_13 
ROOT
ATOM      1  S   UNL d   1       4.048   0.310   1.342  0.00  0.00    -0.084 SA
ENDROOT
BRANCH   1   2
ATOM      2  C   UNL d   1       4.391   0.652   3.004  0.00  0.00     0.148 C 
ATOM      3  N   UNL d   1       5.323   1.495   3.384  0.00  0.00    -0.335 N 
ATOM      4  C   UNL d   1       5.175   1.604   4.737  0.00  0.00     0.062 A 
ATOM      5  HN  UNL d   1       6.010   1.967   2.796  1.00  0.00     0.168 HD
ATOM      6  C   UNL d   1       5.889   2.423   5.624  0.00  0.00     0.055 A 
ATOM      7  C   UNL d   1       4.149   0.783   5.202  0.00  0.00     0.063 A 
ATOM      8  C   UNL d   1       5.487   2.448   6.960  0.00  0.00     0.036 A 
ATOM      9 CL   UNL d   1       6.293   3.501   8.057  0.00  0.00    -0.084 Cl
ATOM     10  C   UNL d   1       4.434   1.655   7.412  0.00  0.00     0.026 A 
ATOM     11  C   UNL d   1       3.753   0.785   6.546  0.00  0.00     0.034 A 
ATOM     12  N   UNL d   1       3.737   0.084   4.078  0.00  0.00    -0.321 N 
BRANCH  12  13
ATOM     13  C   UNL d   1       2.872  -1.096   4.050  0.00  0.00     0.084 C 
ATOM     14  C   UNL d   1       3.421  -2.240   4.911  0.00  0.00     0.032 C 
ATOM     15  C   UNL d   1       1.415  -0.797   4.402  0.00  0.00     0.032 C 
ENDBRANCH  12  13
ENDBRANCH   1   2
BRANCH   1  16
ATOM     16  C   UNL d   1       4.845   1.713   0.496  0.00  0.00     0.185 C 
BRANCH  16  17
ATOM     17  C   UNL d   1       6.318   1.462   0.233  0.00  0.00     0.231 C 
ATOM     18  N   UNL d   1       7.139   1.536   1.347  0.00  0.00    -0.327 N 
ATOM     19  H   UNL d   1       6.657   1.509   2.251  0.00  0.00     0.169 HD
ATOM     20  O   UNL d   1       6.684   1.226  -0.923  0.00  0.00    -0.272 OA
BRANCH  18  21
ATOM     21  C   UNL d   1       8.519   1.250   1.353  0.00  0.00     0.034 C 
ATOM     22  C   UNL d   1       9.297   1.352   0.205  0.00  0.00     0.030 C 
ATOM     23  C   UNL d   1      10.590   0.830   0.177  0.00  0.00     0.010 C 
ATOM     24  C   UNL d   1      11.124   0.197   1.305  0.00  0.00    -0.055 C 
ATOM     25  C   UNL d   1      10.398   0.241   2.501  0.00  0.00     0.010 C 
ATOM     26  C   UNL d   1       9.100   0.779   2.530  0.00  0.00     0.030 C 
BRANCH  24  27
ATOM     27  C   UNL d   1      12.406  -0.619   1.200  0.00  0.00     0.010 C 
ATOM     28  C   UNL d   1      12.259  -1.712   0.130  0.00  0.00     0.015 C 
ATOM     29  C   UNL d   1      13.634   0.244   0.921  0.00  0.00     0.015 C 
ENDBRANCH  24  27
ENDBRANCH  18  21
ENDBRANCH  16  17
ENDBRANCH   1  16
TORSDOF 6
