REMARK  3 active torsions:
REMARK  status: ('A' for Active; 'I' for Inactive)
REMARK    1  A    between atoms: C_2  and  C_1 
REMARK    2  A    between atoms: C_11  and  C_1 
REMARK    3  A    between atoms: O_10  and  C_11 
ROOT
ATOM      1  C   UNL d   1       0.134  -0.809  -0.933  0.00  0.00     0.012 A 
ATOM      2  C   UNL d   1      -1.052  -0.268  -1.454  0.00  0.00     0.018 A 
ATOM      3  C   UNL d   1       0.502  -2.119  -1.271  0.00  0.00     0.018 A 
ATOM      4  C   UNL d   1      -1.458  -2.310  -2.661  0.00  0.00     0.116 A 
ATOM      5  C   UNL d   1      -1.845  -1.018  -2.325  0.00  0.00     0.043 A 
ATOM      6  C   UNL d   1      -0.296  -2.867  -2.140  0.00  0.00     0.043 A 
ATOM      7  F   UNL d   1      -2.217  -3.029  -3.498  0.00  0.00    -0.206 F 
ENDROOT
BRANCH   1   8
ATOM      8  C   UNL d   1       0.946   0.031  -0.010  0.00  0.00     0.182 C 
ATOM      9  O   UNL d   1       0.387   0.919   0.636  0.00  0.00    -0.290 OA
BRANCH   8  10
ATOM     10  C   UNL d   1       2.440  -0.242   0.155  0.00  0.00     0.247 C 
BRANCH  10  11
ATOM     11  O   UNL d   1       3.115  -0.688  -1.006  0.00  0.00    -0.393 OA
ATOM     12  H   UNL d   1       4.049  -0.437  -0.911  0.00  0.00     0.209 HD
ENDBRANCH  10  11
ENDBRANCH   8  10
ENDBRANCH   1   8
TORSDOF 3
