REMARK  4 active torsions:
REMARK  status: ('A' for Active; 'I' for Inactive)
REMARK    1  A    between atoms: C_6  and  C_1 
REMARK    2  A    between atoms: O_11  and  C_1 
REMARK    3  A    between atoms: C_10  and  C_6 
REMARK    4  A    between atoms: O_12  and  N_8 
ROOT
ATOM      1  C   UNL d   1      -2.073   1.023  -4.956  0.00  0.00     0.172 A 
ATOM      2  C   UNL d   1      -0.521   0.848  -5.041  0.00  0.00     0.262 A 
ATOM      3  N   UNL d   1      -0.264  -0.514  -5.157  0.00  0.00    -0.324 N 
ATOM      4  C   UNL d   1      -2.540  -0.407  -5.033  0.00  0.00     0.012 A 
ATOM      5  C   UNL d   1      -1.437  -1.254  -5.141  0.00  0.00     0.044 A 
ATOM      6  O   UNL d   1       0.328   1.726  -5.043  0.00  0.00    -0.269 OA
ATOM      7  C   UNL d   1      -3.823  -0.928  -5.014  0.00  0.00     0.013 A 
ATOM      8  C   UNL d   1      -1.556  -2.625  -5.217  0.00  0.00     0.030 A 
ATOM      9  C   UNL d   1      -3.970  -2.317  -5.085  0.00  0.00     0.001 A 
ATOM     10  C   UNL d   1      -2.847  -3.157  -5.183  0.00  0.00     0.002 A 
ATOM     11  H   UNL d   1       0.669  -0.890  -5.232  0.00  0.00     0.169 HD
ENDROOT
BRANCH   1  12
ATOM     12  C   UNL d   1      -2.495   1.802  -3.713  0.00  0.00     0.107 C 
BRANCH  12  13
ATOM     13  C   UNL d   1      -2.096   1.170  -2.389  0.00  0.00     0.009 C 
ATOM     14  N   UNL d   1      -2.935   0.339  -1.843  0.00  0.00    -0.278 N 
ATOM     15  HN  UNL d   1      -3.829   0.079  -2.259  1.00  0.00     0.193 HD
ATOM     16  C   UNL d   1      -0.764   1.574  -1.792  0.00  0.00     0.065 C 
BRANCH  14  17
ATOM     17  O   UNL d   1      -2.469  -0.155  -0.623  0.00  0.00    -0.290 OA
ATOM     18  H   UNL d   1      -3.214  -0.708  -0.322  0.00  0.00     0.244 HD
ENDBRANCH  14  17
ENDBRANCH  12  13
ENDBRANCH   1  12
BRANCH   1  19
ATOM     19  O   UNL d   1      -2.551   1.728  -6.104  0.00  0.00    -0.375 OA
ATOM     20  H   UNL d   1      -2.314   1.197  -6.884  0.00  0.00     0.211 HD
ENDBRANCH   1  19
TORSDOF 4
