REMARK  6 active torsions:
REMARK  status: ('A' for Active; 'I' for Inactive)
REMARK    1  A    between atoms: C_2  and  C_1 
REMARK    2  A    between atoms: C_3  and  C_1 
REMARK    3  A    between atoms: C_4  and  C_1 
REMARK       I    between atoms: N_5  and  C_2 
REMARK    4  A    between atoms: C_9  and  C_3 
REMARK    5  A    between atoms: N_6  and  C_4 
REMARK    6  A    between atoms: C_12  and  N_5 
ROOT
ATOM      1  C   UNL d   1       1.071   0.070   0.008  0.00  0.00     0.236 C 
ENDROOT
BRANCH   1   2
ATOM      2  C   UNL d   1       0.419  -0.066   1.357  0.00  0.00     0.246 C 
ATOM      3  N   UNL d   1       1.123   0.377   2.461  0.00  0.00    -0.326 N 
ATOM      4  H   UNL d   1       1.869   1.052   2.315  0.00  0.00     0.169 HD
ATOM      5  O   UNL d   1      -0.708  -0.567   1.405  0.00  0.00    -0.271 OA
BRANCH   3   6
ATOM      6  C   UNL d   1       0.837   0.056   3.807  0.00  0.00     0.034 A 
ATOM      7  C   UNL d   1      -0.066  -0.943   4.186  0.00  0.00     0.031 A 
ATOM      8  C   UNL d   1      -0.252  -1.269   5.535  0.00  0.00     0.026 A 
ATOM      9  C   UNL d   1       0.469  -0.596   6.515  0.00  0.00     0.034 A 
ATOM     10  C   UNL d   1       1.363   0.408   6.159  0.00  0.00     0.026 A 
ATOM     11 CL   UNL d   1       0.267  -1.018   8.170  0.00  0.00    -0.084 Cl
ATOM     12  C   UNL d   1       1.552   0.730   4.807  0.00  0.00     0.031 A 
ENDBRANCH   3   6
ENDBRANCH   1   2
BRANCH   1  13
ATOM     13  C   UNL d   1       0.673   1.313  -0.767  0.00  0.00     0.160 C 
ATOM     14  O   UNL d   1       0.445   2.367  -0.160  0.00  0.00    -0.295 OA
BRANCH  13  15
ATOM     15  C   UNL d   1       0.586   1.268  -2.325  0.00  0.00     0.011 C 
ATOM     16  C   UNL d   1      -0.890   1.081  -2.695  0.00  0.00     0.022 C 
ATOM     17  C   UNL d   1       1.083   2.612  -2.895  0.00  0.00     0.022 C 
ATOM     18  C   UNL d   1       1.417   0.162  -3.000  0.00  0.00     0.022 C 
ENDBRANCH  13  15
ENDBRANCH   1  13
BRANCH   1  19
ATOM     19  C   UNL d   1       2.591   0.070   0.008  0.00  0.00    -0.055 C 
BRANCH  19  20
ATOM     20  N   UNL d   1       3.852   0.070   0.008  0.00  0.00    -0.369 N 
ATOM     21  HN2 UNL d   1       2.832   0.070   0.008  1.00  0.00     0.165 HD
ATOM     22  HN1 UNL d   1       4.872   0.070   0.008  1.00  0.00     0.165 HD
ENDBRANCH  19  20
ENDBRANCH   1  19
TORSDOF 6
