REMARK  7 active torsions:
REMARK  status: ('A' for Active; 'I' for Inactive)
REMARK    1  A    between atoms: C_3  and  N_1 
REMARK    2  A    between atoms: S_11  and  C_2 
REMARK    3  A    between atoms: O_19  and  C_4 
REMARK    4  A    between atoms: C_10  and  C_5 
REMARK    5  A    between atoms: C_14  and  S_11 
REMARK    6  A    between atoms: C_12  and  C_14 
REMARK    7  A    between atoms: C_13  and  C_12 
ROOT
ATOM      1  N   UNL d   1      -0.130  -1.275  -0.112  0.00  0.00    -0.254 N 
ATOM      2  C   UNL d   1       1.038  -0.638  -0.501  0.00  0.00     0.169 A 
ATOM      3  C   UNL d   1      -1.004  -0.210   0.106  0.00  0.00     0.245 A 
ATOM      4  N   UNL d   1       0.905   0.666  -0.413  0.00  0.00    -0.276 N 
ATOM      5  HN  UNL d   1       1.636   1.357  -0.584  1.00  0.00     0.189 HD
ATOM      6  N   UNL d   1      -0.386   0.935  -0.051  0.00  0.00    -0.263 N 
ATOM      7  HN  UNL d   1      -0.794   1.861   0.075  1.00  0.00     0.190 HD
ENDROOT
BRANCH   2   8
ATOM      8  S   UNL d   1       2.423  -1.416  -1.197  0.00  0.00    -0.084 SA
BRANCH   8   9
ATOM      9  C   UNL d   1       3.661  -0.087  -1.042  0.00  0.00     0.166 C 
BRANCH   9  10
ATOM     10  C   UNL d   1       3.474   0.976  -2.108  0.00  0.00     0.169 C 
ATOM     11  O   UNL d   1       3.026   0.749  -3.230  0.00  0.00    -0.291 OA
BRANCH  10  12
ATOM     12  C   UNL d   1       3.915   2.362  -1.797  0.00  0.00     0.011 A 
ATOM     13  C   UNL d   1       5.062   2.620  -1.034  0.00  0.00     0.018 A 
ATOM     14  C   UNL d   1       5.465   3.942  -0.818  0.00  0.00     0.043 A 
ATOM     15  C   UNL d   1       4.721   4.989  -1.357  0.00  0.00     0.116 A 
ATOM     16  C   UNL d   1       3.581   4.742  -2.112  0.00  0.00     0.043 A 
ATOM     17  F   UNL d   1       5.118   6.252  -1.152  0.00  0.00    -0.206 F 
ATOM     18  C   UNL d   1       3.179   3.426  -2.339  0.00  0.00     0.018 A 
ENDBRANCH  10  12
ENDBRANCH   9  10
ENDBRANCH   8   9
ENDBRANCH   2   8
BRANCH   1  19
ATOM     19  C   UNL d   1      -0.449  -2.665  -0.022  0.00  0.00     0.060 A 
ATOM     20  C   UNL d   1       0.376  -3.627   0.605  0.00  0.00     0.075 A 
ATOM     21  C   UNL d   1      -0.045  -4.979   0.590  0.00  0.00     0.018 A 
ATOM     22  C   UNL d   1      -1.267  -5.362   0.041  0.00  0.00     0.001 A 
ATOM     23  C   UNL d   1      -2.093  -4.405  -0.529  0.00  0.00     0.002 A 
ATOM     24  C   UNL d   1      -1.683  -3.071  -0.576  0.00  0.00     0.031 A 
BRANCH  20  25
ATOM     25  C   UNL d   1       1.637  -3.355   1.402  0.00  0.00     0.419 C 
ATOM     26  F   UNL d   1       1.797  -2.059   1.777  0.00  0.00    -0.166 F 
ATOM     27  F   UNL d   1       1.656  -4.059   2.573  0.00  0.00    -0.166 F 
ATOM     28  F   UNL d   1       2.769  -3.724   0.748  0.00  0.00    -0.166 F 
ENDBRANCH  20  25
ENDBRANCH   1  19
BRANCH   3  29
ATOM     29  O   UNL d   1      -2.269  -0.278   0.505  0.00  0.00    -0.331 OA
ATOM     30  H   UNL d   1      -2.452  -1.163   0.852  0.00  0.00     0.221 HD
ENDBRANCH   3  29
TORSDOF 7
