REMARK  3 active torsions:
REMARK  status: ('A' for Active; 'I' for Inactive)
REMARK    1  A    between atoms: O_2  and  S_1 
REMARK    2  A    between atoms: C_3  and  S_1 
REMARK    3  A    between atoms: C_6  and  O_2 
ROOT
ATOM      1  S   UNL d   1       1.044  -0.041  -0.032  0.00  0.00     0.303 S 
ATOM      2  O   UNL d   1       0.380  -0.880   0.946  0.00  0.00    -0.193 OA
ATOM      3  O   UNL d   1       2.482  -0.090  -0.212  0.00  0.00    -0.193 OA
ENDROOT
BRANCH   1   4
ATOM      4  O   UNL d   1       0.585   1.507   0.220  0.00  0.00    -0.228 OA
BRANCH   4   5
ATOM      5  C   UNL d   1       0.887   2.146   1.394  0.00  0.00     0.106 A 
ATOM      6  C   UNL d   1       2.038   1.924   2.148  0.00  0.00     0.065 A 
ATOM      7  C   UNL d   1       2.240   2.656   3.316  0.00  0.00     0.052 A 
ATOM      8 CL   UNL d   1       3.646   2.403   4.268  0.00  0.00    -0.083 Cl
ATOM      9  C   UNL d   1       1.289   3.594   3.685  0.00  0.00     0.111 A 
ATOM     10  N   UNL d   1       0.168   3.848   2.967  0.00  0.00    -0.371 N 
ATOM     11  C   UNL d   1      -0.003   3.119   1.837  0.00  0.00     0.125 A 
ATOM     12  HN  UNL d   1      -0.511   4.550   3.260  1.00  0.00     0.164 HD
ENDBRANCH   4   5
ENDBRANCH   1   4
BRANCH   1  13
ATOM     13  C   UNL d   1       0.351  -0.430  -1.627  0.00  0.00     0.086 A 
ATOM     14  C   UNL d   1       0.763   0.312  -2.740  0.00  0.00     0.027 A 
ATOM     15  C   UNL d   1       0.279  -0.025  -4.006  0.00  0.00     0.025 A 
ATOM     16  C   UNL d   1      -0.606  -1.095  -4.149  0.00  0.00     0.034 A 
ATOM     17  C   UNL d   1      -1.016  -1.832  -3.037  0.00  0.00     0.025 A 
ATOM     18 CL   UNL d   1      -1.186  -1.516  -5.713  0.00  0.00    -0.084 Cl
ATOM     19  C   UNL d   1      -0.536  -1.502  -1.767  0.00  0.00     0.027 A 
ENDBRANCH   1  13
TORSDOF 3
