REMARK  5 active torsions:
REMARK  status: ('A' for Active; 'I' for Inactive)
REMARK    1  A    between atoms: C_7  and  C_1 
REMARK    2  A    between atoms: C_2  and  C_3 
REMARK       I    between atoms: C_3  and  N_8 
REMARK    3  A    between atoms: O_11  and  C_6 
REMARK    4  A    between atoms: N_8  and  C_7 
REMARK    5  A    between atoms: C_17  and  O_11 
ROOT
ATOM      1  C   UNL d   1       0.194   1.071   0.011  0.00  0.00     0.015 A 
ATOM      2  C   UNL d   1       1.603   1.121  -0.020  0.00  0.00     0.085 A 
ATOM      3  C   UNL d   1      -0.416  -0.199  -0.036  0.00  0.00     0.044 A 
ATOM      4 CL   UNL d   1      -2.134  -0.413  -0.015  0.00  0.00    -0.084 Cl
ATOM      5  C   UNL d   1       2.358  -0.053  -0.184  0.00  0.00     0.038 A 
ATOM      6  C   UNL d   1       1.736  -1.296  -0.212  0.00  0.00     0.004 A 
ATOM      7  C   UNL d   1       0.351  -1.367  -0.123  0.00  0.00     0.024 A 
ENDROOT
BRANCH   1   8
ATOM      8  C   UNL d   1      -0.615   2.344   0.063  0.00  0.00     0.166 C 
BRANCH   8   9
ATOM      9  N   UNL d   1      -0.467   3.098   1.287  0.00  0.00    -0.351 N 
ATOM     10  C   UNL d   1      -0.909   2.645   2.508  0.00  0.00     0.269 C 
ATOM     11  O   UNL d   1      -1.315   1.508   2.727  0.00  0.00    -0.266 OA
ATOM     12  H   UNL d   1      -0.259   4.092   1.230  0.00  0.00     0.163 HD
BRANCH  10  13
ATOM     13  C   UNL d   1      -0.867   3.655   3.597  0.00  0.00     0.116 A 
ATOM     14  N   UNL d   1      -0.592   4.946   3.251  0.00  0.00    -0.359 N 
ATOM     15  C   UNL d   1      -0.574   5.815   4.290  0.00  0.00     0.113 A 
ATOM     16  HN  UNL d   1      -0.415   5.232   2.288  1.00  0.00     0.165 HD
ATOM     17  C   UNL d   1      -0.809   5.434   5.610  0.00  0.00     0.020 A 
ATOM     18  N   UNL d   1      -1.079   4.145   5.938  0.00  0.00    -0.366 N 
ATOM     19  C   UNL d   1      -0.740   6.435   6.720  0.00  0.00     0.069 C 
ATOM     20  C   UNL d   1      -1.110   3.266   4.905  0.00  0.00     0.123 A 
ATOM     21  HN  UNL d   1      -1.249   3.856   6.901  1.00  0.00     0.165 HD
ENDBRANCH  10  13
ENDBRANCH   8   9
ENDBRANCH   1   8
BRANCH   2  22
ATOM     22  O   UNL d   1       2.210   2.365   0.065  0.00  0.00    -0.310 OA
BRANCH  22  23
ATOM     23  C   UNL d   1       3.443   2.436   0.677  0.00  0.00     0.076 A 
ATOM     24  C   UNL d   1       4.438   3.162   0.022  0.00  0.00     0.037 A 
ATOM     25  C   UNL d   1       5.729   3.203   0.551  0.00  0.00     0.003 A 
ATOM     26  C   UNL d   1       6.020   2.531   1.739  0.00  0.00     0.000 A 
ATOM     27  C   UNL d   1       5.012   1.848   2.420  0.00  0.00     0.003 A 
ATOM     28  C   UNL d   1       3.717   1.819   1.903  0.00  0.00     0.037 A 
ENDBRANCH  22  23
ENDBRANCH   2  22
TORSDOF 5
