REMARK  9 active torsions:
REMARK  status: ('A' for Active; 'I' for Inactive)
REMARK    1  A    between atoms: C_11  and  C_1 
REMARK    2  A    between atoms: N_4  and  C_5 
REMARK    3  A    between atoms: C_16  and  C_6 
REMARK    4  A    between atoms: C_7  and  C_12 
REMARK    5  A    between atoms: O_23  and  C_11 
REMARK    6  A    between atoms: C_13  and  O_24 
REMARK    7  A    between atoms: C_28  and  O_23 
REMARK    8  A    between atoms: O_24  and  C_29 
REMARK    9  A    between atoms: C_29  and  C_28 
ROOT
ATOM      1  O   UNL d   1       1.734  -2.949  -0.198  0.00  0.00    -0.315 OA
ENDROOT
BRANCH   1   2
ATOM      2  C   UNL d   1       0.383  -2.748  -0.117  0.00  0.00     0.298 C 
ATOM      3  O   UNL d   1      -0.431  -3.662  -0.066  0.00  0.00    -0.259 OA
BRANCH   2   4
ATOM      4  C   UNL d   1       0.007  -1.355  -0.102  0.00  0.00     0.100 A 
ATOM      5  C   UNL d   1      -1.135  -0.742   0.508  0.00  0.00     0.084 A 
ATOM      6  N   UNL d   1      -1.164   0.570   0.216  0.00  0.00    -0.259 N 
ATOM      7  O   UNL d   1      -0.045   0.833  -0.537  0.00  0.00    -0.241 OA
ATOM      8  HN  UNL d   1      -1.879   1.240   0.499  1.00  0.00     0.195 HD
ATOM      9  C   UNL d   1       0.662  -0.309  -0.721  0.00  0.00     0.091 A 
ATOM     10  C   UNL d   1       1.888  -0.181  -1.534  0.00  0.00     0.080 C 
BRANCH   5  11
ATOM     11  C   UNL d   1      -2.167  -1.332   1.370  0.00  0.00    -0.006 A 
ATOM     12  C   UNL d   1      -3.477  -0.828   1.357  0.00  0.00     0.014 A 
ATOM     13  C   UNL d   1      -4.463  -1.376   2.184  0.00  0.00     0.001 A 
ATOM     14  C   UNL d   1      -4.152  -2.437   3.031  0.00  0.00     0.000 A 
ATOM     15  C   UNL d   1      -2.855  -2.941   3.064  0.00  0.00     0.001 A 
ATOM     16  C   UNL d   1      -1.867  -2.382   2.249  0.00  0.00     0.014 A 
ENDBRANCH   5  11
ENDBRANCH   2   4
ENDBRANCH   1   2
BRANCH   1  17
ATOM     17  C   UNL d   1       2.139  -4.334  -0.184  0.00  0.00     0.205 C 
BRANCH  17  18
ATOM     18  C   UNL d   1       1.894  -4.967  -1.553  0.00  0.00     0.202 C 
BRANCH  18  19
ATOM     19  O   UNL d   1       2.192  -6.367  -1.533  0.00  0.00    -0.346 OA
BRANCH  19  20
ATOM     20  C   UNL d   1       1.972  -7.009  -2.725  0.00  0.00     0.101 A 
ATOM     21  C   UNL d   1       2.777  -8.097  -3.082  0.00  0.00     0.137 A 
ATOM     22  C   UNL d   1       2.602  -8.787  -4.295  0.00  0.00     0.055 A 
ATOM     23  C   UNL d   1       1.588  -8.394  -5.179  0.00  0.00     0.050 A 
ATOM     24  C   UNL d   1       0.744  -7.339  -4.804  0.00  0.00     0.019 A 
ATOM     25  C   UNL d   1       0.928  -6.667  -3.593  0.00  0.00     0.040 A 
BRANCH  21  26
ATOM     26  N   UNL d   1       3.842  -8.539  -2.200  0.00  0.00    -0.113 N 
ATOM     27  O   UNL d   1       3.805  -9.720  -1.830  0.00  0.00    -0.532 OA
ATOM     28  O   UNL d   1       4.740  -7.728  -1.940  0.00  0.00    -0.532 OA
ENDBRANCH  21  26
BRANCH  23  29
ATOM     29  C   UNL d   1       1.377  -9.072  -6.512  0.00  0.00     0.417 C 
ATOM     30  F   UNL d   1       2.287 -10.047  -6.775  0.00  0.00    -0.166 F 
ATOM     31  F   UNL d   1       0.153  -9.656  -6.609  0.00  0.00    -0.166 F 
ATOM     32  F   UNL d   1       1.457  -8.193  -7.550  0.00  0.00    -0.166 F 
ENDBRANCH  23  29
ENDBRANCH  19  20
ENDBRANCH  18  19
ENDBRANCH  17  18
ENDBRANCH   1  17
TORSDOF 9
