REMARK  2 active torsions:
REMARK  status: ('A' for Active; 'I' for Inactive)
REMARK    1  A    between atoms: C_9  and  C_2 
REMARK    2  A    between atoms: C_13  and  C_3 
ROOT
ATOM      1  C   UNL d   1       0.251  -0.735   0.052  0.00  0.00     0.141 A 
ATOM      2  C   UNL d   1       2.329   0.085  -0.012  0.00  0.00     0.147 A 
ATOM      3  C   UNL d   1       1.581  -1.136   0.048  0.00  0.00     0.053 A 
ATOM      4  N   UNL d   1       0.256   0.666   0.033  0.00  0.00    -0.243 N 
ATOM      5  N   UNL d   1       1.513   1.155   0.013  0.00  0.00    -0.287 N 
ATOM      6  HN  UNL d   1       1.789   2.137   0.016  1.00  0.00     0.187 HD
ATOM      7  N   UNL d   1      -0.926  -1.442   0.060  0.00  0.00    -0.344 N 
ATOM      8  HN  UNL d   1      -0.932  -2.462   0.083  1.00  0.00     0.167 HD
ATOM      9  C   UNL d   1      -0.945   1.393   0.021  0.00  0.00     0.034 A 
ATOM     10  C   UNL d   1      -2.114   0.731   0.019  0.00  0.00     0.051 A 
ATOM     11  C   UNL d   1      -2.031  -0.760   0.037  0.00  0.00     0.009 A 
ATOM     12  C   UNL d   1      -0.899   2.892   0.005  0.00  0.00     0.070 C 
ATOM     13  C   UNL d   1      -3.334  -1.520   0.019  0.00  0.00     0.068 C 
ENDROOT
BRANCH   3  14
ATOM     14  C   UNL d   1       2.019  -2.533   0.048  0.00  0.00    -0.020 A 
ATOM     15  C   UNL d   1       3.173  -2.926   0.740  0.00  0.00     0.012 A 
ATOM     16  C   UNL d   1       3.660  -4.234   0.644  0.00  0.00     0.001 A 
ATOM     17  C   UNL d   1       2.968  -5.185  -0.099  0.00  0.00     0.000 A 
ATOM     18  C   UNL d   1       1.785  -4.830  -0.739  0.00  0.00     0.001 A 
ATOM     19  C   UNL d   1       1.320  -3.513  -0.674  0.00  0.00     0.012 A 
ENDBRANCH   3  14
BRANCH   2  20
ATOM     20  C   UNL d   1       3.821   0.295  -0.107  0.00  0.00     0.434 C 
ATOM     21  F   UNL d   1       4.535  -0.836  -0.344  0.00  0.00    -0.165 F 
ATOM     22  F   UNL d   1       4.155   1.154  -1.110  0.00  0.00    -0.165 F 
ATOM     23  F   UNL d   1       4.325   0.826   1.042  0.00  0.00    -0.165 F 
ENDBRANCH   2  20
TORSDOF 2
