REMARK  7 active torsions:
REMARK  status: ('A' for Active; 'I' for Inactive)
REMARK    1  A    between atoms: N_5  and  C_2 
REMARK    2  A    between atoms: O_17  and  C_4 
REMARK    3  A    between atoms: C_12  and  C_8 
REMARK    4  A    between atoms: C_19  and  C_11 
REMARK    5  A    between atoms: O_18  and  C_12 
REMARK    6  A    between atoms: C_20  and  O_18 
REMARK    7  A    between atoms: C_21  and  C_19 
ROOT
ATOM      1  C   UNL d   1       0.068   0.246   0.039  0.00  0.00     0.084 A 
ATOM      2  C   UNL d   1       2.472  -0.065  -0.018  0.00  0.00     0.137 A 
ATOM      3  C   UNL d   1      -0.100  -1.148   0.040  0.00  0.00     0.099 A 
ATOM      4  C   UNL d   1       1.362   0.796   0.018  0.00  0.00     0.115 A 
ATOM      5  O   UNL d   1      -1.337  -1.743   0.093  0.00  0.00    -0.303 OA
ATOM      6  C   UNL d   1      -1.160   1.083   0.051  0.00  0.00     0.190 A 
ATOM      7  C   UNL d   1      -2.471  -0.959   0.052  0.00  0.00     0.154 A 
ATOM      8  C   UNL d   1      -2.453   0.377   0.045  0.00  0.00     0.099 A 
ATOM      9  C   UNL d   1       2.292  -1.460  -0.044  0.00  0.00     0.049 A 
ATOM     10  C   UNL d   1       1.006  -2.015  -0.006  0.00  0.00    -0.021 A 
ATOM     11  O   UNL d   1      -1.171   2.306   0.040  0.00  0.00    -0.287 OA
ENDROOT
BRANCH   7  12
ATOM     12  C   UNL d   1      -3.755  -1.712  -0.024  0.00  0.00     0.317 C 
ATOM     13  O   UNL d   1      -3.834  -2.909   0.209  0.00  0.00    -0.257 OA
BRANCH  12  14
ATOM     14  O   UNL d   1      -4.751  -0.929  -0.511  0.00  0.00    -0.316 OA
BRANCH  14  15
ATOM     15  C   UNL d   1      -5.891  -1.636  -1.018  0.00  0.00     0.175 C 
ATOM     16  C   UNL d   1      -5.626  -1.991  -2.472  0.00  0.00     0.034 C 
ENDBRANCH  14  15
ENDBRANCH  12  14
ENDBRANCH   7  12
BRANCH  10  17
ATOM     17  C   UNL d   1       0.846  -3.524  -0.033  0.00  0.00     0.041 C 
BRANCH  17  18
ATOM     18  C   UNL d   1       1.480  -4.245   1.161  0.00  0.00     0.000 C 
ATOM     19  C   UNL d   1       0.868  -3.848   2.497  0.00  0.00     0.005 C 
ENDBRANCH  17  18
ENDBRANCH  10  17
BRANCH   4  20
ATOM     20  O   UNL d   1       1.486   2.159   0.031  0.00  0.00    -0.357 OA
ATOM     21  H   UNL d   1       2.422   2.446   0.019  0.00  0.00     0.217 HD
ENDBRANCH   4  20
BRANCH   2  22
ATOM     22  N   UNL d   1       3.846   0.452  -0.025  0.00  0.00    -0.113 N 
ATOM     23  O   UNL d   1       3.993   1.684  -0.008  0.00  0.00    -0.532 OA
ATOM     24  O   UNL d   1       4.776  -0.363  -0.044  0.00  0.00    -0.532 OA
ENDBRANCH   2  22
TORSDOF 7
