REMARK  3 active torsions:
REMARK  status: ('A' for Active; 'I' for Inactive)
REMARK    1  A    between atoms: C_5  and  C_1 
REMARK    2  A    between atoms: C_10  and  C_2 
REMARK    3  A    between atoms: O_12  and  C_5 
ROOT
ATOM      1  C   UNL d   1       1.887   0.078  -0.100  0.00  0.00     0.080 A 
ATOM      2  C   UNL d   1       1.211  -1.127   0.030  0.00  0.00     0.062 A 
ATOM      3  N   UNL d   1      -0.151  -1.149   0.095  0.00  0.00    -0.345 N 
ATOM      4  HN  UNL d   1      -0.652  -2.032   0.195  1.00  0.00     0.167 HD
ATOM      5  C   UNL d   1       1.104   1.215  -0.172  0.00  0.00     0.110 A 
ATOM      6  N   UNL d   1      -0.240   1.216  -0.093  0.00  0.00    -0.355 N 
ATOM      7  HN  UNL d   1      -0.782   2.080  -0.122  1.00  0.00     0.166 HD
ATOM      8  C   UNL d   1      -0.824   0.015   0.026  0.00  0.00     0.077 A 
ATOM      9  C   UNL d   1      -2.319  -0.046   0.031  0.00  0.00     0.089 C 
ENDROOT
BRANCH   2  10
ATOM     10  C   UNL d   1       1.822  -2.477   0.114  0.00  0.00    -0.008 A 
ATOM     11  C   UNL d   1       3.018  -2.741   0.804  0.00  0.00     0.014 A 
ATOM     12  C   UNL d   1       3.570  -4.026   0.848  0.00  0.00     0.001 A 
ATOM     13  C   UNL d   1       2.925  -5.090   0.224  0.00  0.00     0.000 A 
ATOM     14  C   UNL d   1       1.723  -4.869  -0.438  0.00  0.00     0.001 A 
ATOM     15  C   UNL d   1       1.182  -3.581  -0.491  0.00  0.00     0.014 A 
ENDBRANCH   2  10
BRANCH   1  16
ATOM     16  C   UNL d   1       3.337   0.214  -0.285  0.00  0.00     0.179 C 
ATOM     17  O   UNL d   1       3.988  -0.483  -1.042  0.00  0.00    -0.646 OA
BRANCH  16  18
ATOM     18  O   UNL d   1       3.887   1.199   0.459  0.00  0.00    -0.773 OA
ATOM     19  H   UNL d   1       3.314   1.644   1.113  0.00  0.00     0.167 HD
ENDBRANCH  16  18
ENDBRANCH   1  16
TORSDOF 3
