REMARK  7 active torsions:
REMARK  status: ('A' for Active; 'I' for Inactive)
REMARK    1  A    between atoms: C_2  and  C_1 
REMARK    2  A    between atoms: C_5  and  O_19 
REMARK    3  A    between atoms: C_8  and  C_5 
REMARK    4  A    between atoms: S_16  and  C_6 
REMARK    5  A    between atoms: C_23  and  S_16 
REMARK    6  A    between atoms: O_19  and  C_24 
REMARK    7  A    between atoms: C_24  and  C_23 
ROOT
ATOM      1  S   UNL d   1      -1.160   1.605  -5.508  0.00  0.00    -0.110 SA
ENDROOT
BRANCH   1   2
ATOM      2  C   UNL d   1      -0.695   0.899  -3.937  0.00  0.00     0.069 A 
ATOM      3  C   UNL d   1      -0.353   1.742  -2.886  0.00  0.00     0.038 A 
ATOM      4  C   UNL d   1       0.018   1.180  -1.663  0.00  0.00     0.020 A 
ATOM      5  C   UNL d   1       0.037  -0.210  -1.518  0.00  0.00     0.063 A 
ATOM      6  C   UNL d   1      -0.321  -0.968  -2.621  0.00  0.00     0.105 A 
ATOM      7  N   UNL d   1      -0.680  -0.446  -3.818  0.00  0.00    -0.360 N 
ATOM      8  HN  UNL d   1      -0.930  -1.048  -4.602  1.00  0.00     0.166 HD
BRANCH   5   9
ATOM      9  C   UNL d   1       0.431  -0.870  -0.232  0.00  0.00     0.418 C 
ATOM     10  F   UNL d   1       0.366  -2.230  -0.276  0.00  0.00    -0.166 F 
ATOM     11  F   UNL d   1      -0.357  -0.493   0.811  0.00  0.00    -0.166 F 
ATOM     12  F   UNL d   1       1.707  -0.571   0.137  0.00  0.00    -0.166 F 
ENDBRANCH   5   9
ENDBRANCH   1   2
BRANCH   1  13
ATOM     13  C   UNL d   1      -1.523   0.089  -6.464  0.00  0.00     0.107 C 
BRANCH  13  14
ATOM     14  C   UNL d   1      -1.940   0.441  -7.890  0.00  0.00     0.189 C 
BRANCH  14  15
ATOM     15  O   UNL d   1      -2.176  -0.749  -8.675  0.00  0.00    -0.317 OA
BRANCH  15  16
ATOM     16  C   UNL d   1      -3.410  -1.294  -8.541  0.00  0.00     0.293 C 
ATOM     17  O   UNL d   1      -4.278  -0.907  -7.775  0.00  0.00    -0.259 OA
BRANCH  16  18
ATOM     18  C   UNL d   1      -3.609  -2.435  -9.479  0.00  0.00     0.039 A 
ATOM     19  C   UNL d   1      -4.854  -3.084  -9.467  0.00  0.00     0.019 A 
ATOM     20  C   UNL d   1      -5.113  -4.142 -10.343  0.00  0.00     0.025 A 
ATOM     21  C   UNL d   1      -4.127  -4.558 -11.234  0.00  0.00     0.034 A 
ATOM     22  C   UNL d   1      -2.883  -3.926 -11.253  0.00  0.00     0.025 A 
ATOM     23 CL   UNL d   1      -4.449  -5.850 -12.322  0.00  0.00    -0.084 Cl
ATOM     24  C   UNL d   1      -2.622  -2.866 -10.376  0.00  0.00     0.019 A 
ENDBRANCH  16  18
ENDBRANCH  15  16
ENDBRANCH  14  15
ENDBRANCH  13  14
ENDBRANCH   1  13
TORSDOF 7
