REMARK  5 active torsions:
REMARK  status: ('A' for Active; 'I' for Inactive)
REMARK    1  A    between atoms: C_5  and  S_1 
REMARK    2  A    between atoms: C_10  and  S_1 
REMARK    3  A    between atoms: C_2  and  C_3 
REMARK    4  A    between atoms: C_13  and  C_5 
REMARK    5  A    between atoms: N_8  and  C_13 
ROOT
ATOM      1  C   UNL d   1      -2.020  -1.768   5.732  0.00  0.00     0.113 C 
ATOM      2  C   UNL d   1      -0.705  -1.055   5.763  0.00  0.00     0.051 C 
ATOM      3  N   UNL d   1      -2.329  -2.875   5.163  0.00  0.00    -0.384 N 
ATOM      4  HN  UNL d   1      -3.285  -3.191   5.325  1.00  0.00     0.159 HD
ATOM      5  N   UNL d   1       0.079  -1.939   3.653  0.00  0.00    -0.387 N 
ATOM      6  C   UNL d   1       0.150  -1.095   4.742  0.00  0.00     0.088 C 
ATOM      7  C   UNL d   1      -1.523  -3.751   4.321  0.00  0.00     0.139 C 
ATOM      8  C   UNL d   1      -0.083  -3.372   3.978  0.00  0.00     0.141 C 
ENDROOT
BRANCH   5   9
ATOM      9  C   UNL d   1       0.823  -1.646   2.409  0.00  0.00     0.137 C 
BRANCH   9  10
ATOM     10  C   UNL d   1       0.362  -0.320   1.821  0.00  0.00     0.165 C 
BRANCH  10  11
ATOM     11  S   UNL d   1       1.225   0.018   0.311  0.00  0.00     0.177 S 
ATOM     12  O   UNL d   1       0.820  -0.961  -0.682  0.00  0.00    -0.223 OA
ATOM     13  O   UNL d   1       2.625   0.226   0.622  0.00  0.00    -0.223 OA
BRANCH  11  14
ATOM     14  C   UNL d   1       0.552   1.589  -0.189  0.00  0.00     0.059 A 
ATOM     15  C   UNL d   1       1.201   2.771   0.187  0.00  0.00     0.026 A 
ATOM     16  C   UNL d   1       0.663   4.000  -0.200  0.00  0.00     0.044 A 
ATOM     17  C   UNL d   1      -0.501   4.032  -0.963  0.00  0.00     0.116 A 
ATOM     18  C   UNL d   1      -1.138   2.857  -1.354  0.00  0.00     0.044 A 
ATOM     19  F   UNL d   1      -1.016   5.213  -1.328  0.00  0.00    -0.206 F 
ATOM     20  C   UNL d   1      -0.608   1.624  -0.972  0.00  0.00     0.026 A 
ENDBRANCH  11  14
ENDBRANCH  10  11
ENDBRANCH   9  10
ENDBRANCH   5   9
BRANCH   1  21
ATOM     21  C   UNL d   1      -3.149  -1.017   6.470  0.00  0.00     0.432 C 
ATOM     22  F   UNL d   1      -2.726   0.137   7.066  0.00  0.00    -0.165 F 
ATOM     23  F   UNL d   1      -4.159  -0.651   5.631  0.00  0.00    -0.165 F 
ATOM     24  F   UNL d   1      -3.715  -1.762   7.460  0.00  0.00    -0.165 F 
ENDBRANCH   1  21
TORSDOF 5
