REMARK  2 active torsions:
REMARK  status: ('A' for Active; 'I' for Inactive)
REMARK    1  A    between atoms: C_3  and  C_1 
REMARK    2  A    between atoms: C_2  and  N_7 
REMARK       I    between atoms: N_7  and  C_3 
ROOT
ATOM      1  C   UNL d   1      -1.365   2.089  -0.012  0.00  0.00     0.283 C 
ATOM      2  N   UNL d   1      -0.682   3.289   0.067  0.00  0.00    -0.306 N 
ATOM      3  O   UNL d   1      -0.860   0.995  -0.239  0.00  0.00    -0.265 OA
ATOM      4  H   UNL d   1      -1.204   4.126   0.287  0.00  0.00     0.170 HD
ENDROOT
BRANCH   2   5
ATOM      5  C   UNL d   1       0.658   3.441  -0.230  0.00  0.00     0.131 A 
ATOM      6  N   UNL d   1       1.489   2.463  -0.600  0.00  0.00    -0.245 N 
ATOM      7  O   UNL d   1       2.704   3.056  -0.863  0.00  0.00    -0.241 OA
ATOM      8  HN  UNL d   1       1.267   1.470  -0.672  1.00  0.00     0.196 HD
ATOM      9  C   UNL d   1       2.608   4.393  -0.648  0.00  0.00     0.076 A 
ATOM     10  C   UNL d   1       1.337   4.686  -0.219  0.00  0.00     0.084 A 
ATOM     11  C   UNL d   1       3.819   5.181  -0.932  0.00  0.00     0.079 C 
ENDBRANCH   2   5
BRANCH   1  12
ATOM     12  C   UNL d   1      -2.791   2.219   0.184  0.00  0.00     0.168 A 
ATOM     13  O   UNL d   1      -3.333   3.439   0.470  0.00  0.00    -0.233 OA
ATOM     14  N   UNL d   1      -4.708   3.318   0.587  0.00  0.00    -0.272 N 
ATOM     15  C   UNL d   1      -4.971   2.028   0.368  0.00  0.00     0.117 A 
ATOM     16  HN  UNL d   1      -5.378   4.059   0.797  1.00  0.00     0.194 HD
ATOM     17  C   UNL d   1      -3.805   1.289   0.116  0.00  0.00     0.064 A 
ENDBRANCH   1  12
TORSDOF 2
