REMARK  6 active torsions:
REMARK  status: ('A' for Active; 'I' for Inactive)
REMARK    1  A    between atoms: C_2  and  S_1 
REMARK    2  A    between atoms: N_5  and  S_1 
REMARK    3  A    between atoms: C_10  and  N_5 
REMARK    4  A    between atoms: C_7  and  C_11 
REMARK    5  A    between atoms: C_11  and  S_14 
REMARK    6  A    between atoms: S_14  and  C_15 
ROOT
ATOM      1  C   UNL d   1       0.806  -0.452   2.643  0.00  0.00     0.039 A 
ATOM      2  C   UNL d   1       2.099  -1.003   2.777  0.00  0.00     0.022 A 
ATOM      3  C   UNL d   1      -0.181  -0.744   3.602  0.00  0.00     0.026 A 
ATOM      4  C   UNL d   1       2.344  -1.841   3.887  0.00  0.00     0.020 A 
ATOM      5  C   UNL d   1       0.097  -1.559   4.699  0.00  0.00     0.002 A 
ATOM      6  C   UNL d   1       1.362  -2.108   4.843  0.00  0.00     0.001 A 
ENDROOT
BRANCH   1   7
ATOM      7  N   UNL d   1       0.412   0.435   1.588  0.00  0.00    -0.179 NA
ATOM      8  H   UNL d   1      -0.356   1.058   1.840  0.00  0.00     0.146 HD
BRANCH   7   9
ATOM      9  S   UNL d   1       0.092  -0.206   0.051  0.00  0.00     0.263 S 
ATOM     10  O   UNL d   1       0.046   0.934  -0.844  0.00  0.00    -0.204 OA
ATOM     11  O   UNL d   1       0.922  -1.358  -0.224  0.00  0.00    -0.204 OA
BRANCH   9  12
ATOM     12  C   UNL d   1      -1.523  -0.839  -0.063  0.00  0.00     0.161 A 
ATOM     13  N   UNL d   1      -2.336  -1.163   1.010  0.00  0.00    -0.341 N 
ATOM     14  C   UNL d   1      -3.415  -1.684   0.462  0.00  0.00     0.183 A 
ATOM     15  HN  UNL d   1      -2.143  -1.028   2.003  1.00  0.00     0.167 HD
ATOM     16  N   UNL d   1      -3.353  -1.661  -0.903  0.00  0.00    -0.354 N 
ATOM     17  C   UNL d   1      -2.162  -1.109  -1.258  0.00  0.00     0.134 A 
ATOM     18  C   UNL d   1      -4.356  -2.156  -1.812  0.00  0.00     0.156 C 
ENDBRANCH   9  12
ENDBRANCH   7   9
ENDBRANCH   1   7
BRANCH   2  19
ATOM     19  S   UNL d   1       3.551  -0.813   1.730  0.00  0.00    -0.123 SA
BRANCH  19  20
ATOM     20  C   UNL d   1       3.378   0.822   0.948  0.00  0.00     0.123 C 
BRANCH  20  21
ATOM     21  C   UNL d   1       4.561   1.173   0.077  0.00  0.00     0.012 A 
ATOM     22  C   UNL d   1       4.824   0.558  -1.160  0.00  0.00     0.044 A 
ATOM     23 CL   UNL d   1       3.829  -0.695  -1.810  0.00  0.00    -0.084 Cl
ATOM     24  C   UNL d   1       5.910   0.966  -1.949  0.00  0.00     0.024 A 
ATOM     25  C   UNL d   1       6.739   2.001  -1.527  0.00  0.00     0.005 A 
ATOM     26  C   UNL d   1       6.489   2.625  -0.310  0.00  0.00     0.043 A 
ATOM     27  C   UNL d   1       5.416   2.207   0.477  0.00  0.00     0.125 A 
ATOM     28  F   UNL d   1       5.197   2.845   1.636  0.00  0.00    -0.205 F 
ENDBRANCH  20  21
ENDBRANCH  19  20
ENDBRANCH   2  19
TORSDOF 6
