REMARK  3 active torsions:
REMARK  status: ('A' for Active; 'I' for Inactive)
REMARK    1  A    between atoms: C_3  and  C_1 
REMARK    2  A    between atoms: N_9  and  C_1 
REMARK    3  A    between atoms: C_6  and  C_2 
ROOT
ATOM      1  C   UNL d   1       1.091  -0.343  -0.099  0.00  0.00     0.044 C 
ATOM      2  C   UNL d   1       0.151   0.609   0.121  0.00  0.00     0.111 C 
ATOM      3  C   UNL d   1      -1.208   0.246   0.390  0.00  0.00     0.105 C 
ATOM      4  N   UNL d   1      -2.296  -0.110   0.600  0.00  0.00    -0.191 NA
ENDROOT
BRANCH   2   5
ATOM      5  C   UNL d   1       0.403   2.087   0.141  0.00  0.00     0.168 C 
ATOM      6  O   UNL d   1      -0.355   2.823   0.781  0.00  0.00    -0.292 OA
ATOM      7  C   UNL d   1       1.536   2.716  -0.630  0.00  0.00     0.097 C 
ENDBRANCH   2   5
BRANCH   1   8
ATOM      8  C   UNL d   1       0.678  -1.785  -0.126  0.00  0.00     0.030 A 
ATOM      9  C   UNL d   1       0.225  -2.396  -1.312  0.00  0.00     0.047 A 
ATOM     10 CL   UNL d   1       0.151  -1.536  -2.812  0.00  0.00    -0.083 Cl
ATOM     11  C   UNL d   1      -0.179  -3.738  -1.321  0.00  0.00     0.025 A 
ATOM     12  C   UNL d   1      -0.130  -4.495  -0.153  0.00  0.00     0.003 A 
ATOM     13  C   UNL d   1       0.325  -3.913   1.028  0.00  0.00     0.025 A 
ATOM     14  C   UNL d   1       0.724  -2.572   1.044  0.00  0.00     0.047 A 
ATOM     15 CL   UNL d   1       1.284  -1.930   2.552  0.00  0.00    -0.083 Cl
ENDBRANCH   1   8
BRANCH   1  16
ATOM     16  N   UNL d   1       2.457  -0.166  -0.276  0.00  0.00    -0.301 NA
ATOM     17  H   UNL d   1       2.869   0.510   0.366  0.00  0.00     0.124 HD
ATOM     18  H   UNL d   1       2.991  -1.036  -0.255  0.00  0.00     0.124 HD
ENDBRANCH   1  16
TORSDOF 3
