REMARK  8 active torsions:
REMARK  status: ('A' for Active; 'I' for Inactive)
REMARK    1  A    between atoms: C_6  and  C_1 
REMARK       I    between atoms: N_7  and  C_1 
REMARK    2  A    between atoms: C_2  and  C_5 
REMARK    3  A    between atoms: C_3  and  C_4 
REMARK    4  A    between atoms: C_9  and  C_6 
REMARK    5  A    between atoms: C_14  and  C_6 
REMARK    6  A    between atoms: C_8  and  N_7 
REMARK    7  A    between atoms: C_11  and  C_14 
REMARK    8  A    between atoms: O_24  and  C_11 
ROOT
ATOM      1  C   UNL d   1       1.073   0.068   0.034  0.00  0.00     0.231 C 
ATOM      2  N   UNL d   1       0.402   0.923  -0.823  0.00  0.00    -0.327 N 
ATOM      3  O   UNL d   1       2.251  -0.265  -0.084  0.00  0.00    -0.272 OA
ATOM      4  H   UNL d   1      -0.452   1.349  -0.484  0.00  0.00     0.169 HD
ENDROOT
BRANCH   2   5
ATOM      5  C   UNL d   1       0.809   1.264  -2.134  0.00  0.00     0.036 A 
ATOM      6  C   UNL d   1       1.814   0.572  -2.814  0.00  0.00     0.045 A 
ATOM      7  C   UNL d   1       2.051   0.784  -4.181  0.00  0.00     0.050 A 
ATOM      8  C   UNL d   1       1.309   1.760  -4.857  0.00  0.00     0.032 A 
ATOM      9  C   UNL d   1       0.309   2.486  -4.192  0.00  0.00     0.050 A 
ATOM     10  C   UNL d   1       0.081   2.244  -2.822  0.00  0.00     0.045 A 
BRANCH   7  11
ATOM     11  C   UNL d   1       3.012  -0.120  -4.916  0.00  0.00     0.417 C 
ATOM     12  F   UNL d   1       2.995   0.061  -6.266  0.00  0.00    -0.166 F 
ATOM     13  F   UNL d   1       4.304   0.046  -4.529  0.00  0.00    -0.166 F 
ATOM     14  F   UNL d   1       2.723  -1.437  -4.719  0.00  0.00    -0.166 F 
ENDBRANCH   7  11
BRANCH   9  15
ATOM     15  C   UNL d   1      -0.582   3.436  -4.959  0.00  0.00     0.417 C 
ATOM     16  F   UNL d   1      -0.370   3.407  -6.305  0.00  0.00    -0.166 F 
ATOM     17  F   UNL d   1      -1.902   3.143  -4.788  0.00  0.00    -0.166 F 
ATOM     18  F   UNL d   1      -0.431   4.732  -4.580  0.00  0.00    -0.166 F 
ENDBRANCH   9  15
ENDBRANCH   2   5
BRANCH   1  19
ATOM     19  C   UNL d   1       0.259  -0.425   1.248  0.00  0.00     0.116 C 
BRANCH  19  20
ATOM     20  C   UNL d   1      -0.427  -1.758   0.919  0.00  0.00    -0.070 C 
ATOM     21  C   UNL d   1      -1.756  -1.933   1.073  0.00  0.00    -0.023 C 
ATOM     22  C   UNL d   1      -2.473  -3.235   0.819  0.00  0.00     0.027 C 
ATOM     23  C   UNL d   1      -1.536  -4.437   0.712  0.00  0.00     0.004 C 
ATOM     24  C   UNL d   1      -0.323  -4.093  -0.139  0.00  0.00     0.005 C 
ATOM     25  C   UNL d   1       0.449  -2.910   0.453  0.00  0.00     0.034 C 
ENDBRANCH  19  20
BRANCH  19  26
ATOM     26  C   UNL d   1       1.218  -0.586   2.436  0.00  0.00     0.128 C 
BRANCH  26  27
ATOM     27  C   UNL d   1       1.834   0.741   2.794  0.00  0.00     0.140 C 
ATOM     28  O   UNL d   1       1.330   1.523   3.587  0.00  0.00    -0.650 OA
BRANCH  27  29
ATOM     29  O   UNL d   1       2.967   1.024   2.116  0.00  0.00    -0.776 OA
ATOM     30  H   UNL d   1       3.176   0.383   1.395  0.00  0.00     0.167 HD
ENDBRANCH  27  29
ENDBRANCH  26  27
ENDBRANCH  19  26
ENDBRANCH   1  19
TORSDOF 8
