REMARK  4 active torsions:
REMARK  status: ('A' for Active; 'I' for Inactive)
REMARK    1  A    between atoms: C_2  and  C_1 
REMARK    2  A    between atoms: S_13  and  C_3 
REMARK    3  A    between atoms: C_10  and  C_5 
REMARK    4  A    between atoms: O_15  and  C_10 
ROOT
ATOM      1  C   UNL d   1       1.474   0.687  -0.017  0.00  0.00     0.023 A 
ATOM      2  C   UNL d   1       0.199   1.220   0.071  0.00  0.00     0.054 A 
ATOM      3  C   UNL d   1       1.435  -0.742  -0.150  0.00  0.00     0.041 A 
ATOM      4  C   UNL d   1       0.157  -1.263  -0.099  0.00  0.00     0.082 A 
ATOM      5  S   UNL d   1      -1.000  -0.015   0.018  0.00  0.00    -0.076 SA
ENDROOT
BRANCH   1   6
ATOM      6  C   UNL d   1       2.770   1.458   0.062  0.00  0.00     0.086 A 
ATOM      7  N   UNL d   1       2.865   2.652   0.609  0.00  0.00    -0.353 N 
ATOM      8  C   UNL d   1       4.190   3.053   0.675  0.00  0.00     0.012 A 
ATOM      9  HN  UNL d   1       2.074   3.205   0.938  1.00  0.00     0.166 HD
ATOM     10  C   UNL d   1       4.532   4.306   1.393  0.00  0.00     0.068 C 
ATOM     11  C   UNL d   1       5.083   2.199   0.061  0.00  0.00     0.076 A 
ATOM     12  S   UNL d   1       4.265   0.812  -0.510  0.00  0.00    -0.081 SA
ENDBRANCH   1   6
BRANCH   2  13
ATOM     13  S   UNL d   1      -0.335   2.895   0.217  0.00  0.00    -0.126 SA
ATOM     14  C   UNL d   1       0.207   3.580  -1.366  0.00  0.00     0.096 C 
ENDBRANCH   2  13
BRANCH   4  15
ATOM     15  C   UNL d   1      -0.267  -2.650  -0.116  0.00  0.00     0.299 C 
ATOM     16  O   UNL d   1      -1.423  -3.063  -0.104  0.00  0.00    -0.259 OA
BRANCH  15  17
ATOM     17  O   UNL d   1       0.831  -3.463  -0.134  0.00  0.00    -0.322 OA
ATOM     18  C   UNL d   1       0.531  -4.860  -0.122  0.00  0.00     0.213 C 
ENDBRANCH  15  17
ENDBRANCH   4  15
TORSDOF 4
