REMARK  7 active torsions:
REMARK  status: ('A' for Active; 'I' for Inactive)
REMARK    1  A    between atoms: C_15  and  C_4 
REMARK    2  A    between atoms: O_17  and  C_7 
REMARK    3  A    between atoms: O_12  and  C_8 
REMARK    4  A    between atoms: C_11  and  C_13 
REMARK    5  A    between atoms: O_18  and  C_11 
REMARK    6  A    between atoms: C_13  and  O_12 
REMARK    7  A    between atoms: C_22  and  O_18 
ROOT
ATOM      1  C   UNL d   1       0.030   0.246  -0.092  0.00  0.00     0.081 A 
ATOM      2  C   UNL d   1      -1.176   1.079  -0.004  0.00  0.00     0.190 A 
ATOM      3  C   UNL d   1      -2.467   0.382   0.034  0.00  0.00     0.094 A 
ATOM      4  C   UNL d   1      -2.468  -0.958   0.069  0.00  0.00     0.090 A 
ATOM      5  C   UNL d   1      -0.111  -1.135   0.004  0.00  0.00     0.095 A 
ATOM      6  O   UNL d   1      -1.336  -1.752   0.108  0.00  0.00    -0.309 OA
ATOM      7  C   UNL d   1       1.301   0.805  -0.256  0.00  0.00     0.085 A 
ATOM      8  C   UNL d   1       2.301  -1.392  -0.159  0.00  0.00     0.075 A 
ATOM      9  C   UNL d   1       1.024  -1.950  -0.004  0.00  0.00     0.075 A 
ATOM     10  C   UNL d   1       2.433  -0.011  -0.312  0.00  0.00     0.074 A 
ATOM     11  O   UNL d   1      -1.102   2.303   0.023  0.00  0.00    -0.287 OA
ENDROOT
BRANCH   8  12
ATOM     12  O   UNL d   1       3.338  -2.279  -0.063  0.00  0.00    -0.336 OA
BRANCH  12  13
ATOM     13  C   UNL d   1       4.526  -2.008  -0.806  0.00  0.00     0.224 C 
ATOM     14  C   UNL d   1       5.159  -3.369  -1.099  0.00  0.00     0.051 C 
BRANCH  13  15
ATOM     15  C   UNL d   1       5.570  -1.110  -0.118  0.00  0.00     0.288 C 
ATOM     16  O   UNL d   1       5.423  -0.522   0.941  0.00  0.00    -0.262 OA
BRANCH  15  17
ATOM     17  O   UNL d   1       6.643  -0.961  -0.955  0.00  0.00    -0.320 OA
BRANCH  17  18
ATOM     18  C   UNL d   1       7.487   0.172  -0.709  0.00  0.00     0.174 C 
ATOM     19  C   UNL d   1       6.923   1.340  -1.496  0.00  0.00     0.034 C 
ENDBRANCH  17  18
ENDBRANCH  15  17
ENDBRANCH  13  15
ENDBRANCH  12  13
ENDBRANCH   8  12
BRANCH   7  20
ATOM     20  O   UNL d   1       1.509   2.155  -0.354  0.00  0.00    -0.360 OA
ATOM     21  H   UNL d   1       0.651   2.610  -0.191  0.00  0.00     0.217 HD
ENDBRANCH   7  20
BRANCH   4  22
ATOM     22  C   UNL d   1      -3.734  -1.696   0.042  0.00  0.00    -0.002 A 
ATOM     23  C   UNL d   1      -4.309  -2.057  -1.185  0.00  0.00     0.014 A 
ATOM     24  C   UNL d   1      -5.523  -2.745  -1.222  0.00  0.00     0.001 A 
ATOM     25  C   UNL d   1      -6.173  -3.076  -0.033  0.00  0.00     0.000 A 
ATOM     26  C   UNL d   1      -5.610  -2.716   1.192  0.00  0.00     0.001 A 
ATOM     27  C   UNL d   1      -4.396  -2.027   1.231  0.00  0.00     0.014 A 
ENDBRANCH   4  22
TORSDOF 7
