REMARK  15 active torsions:
REMARK  status: ('A' for Active; 'I' for Inactive)
REMARK    1  A    between atoms: C_3  and  C_1 
REMARK    2  A    between atoms: N_4  and  C_1 
REMARK    3  A    between atoms: N_6  and  C_1 
REMARK    4  A    between atoms: C_8  and  C_1 
REMARK    5  A    between atoms: C_2  and  C_7 
REMARK    6  A    between atoms: C_5  and  C_2 
REMARK    7  A    between atoms: C_9  and  C_2 
REMARK    8  A    between atoms: O_25  and  C_2 
REMARK    9  A    between atoms: C_10  and  N_4 
REMARK       I    between atoms: C_13  and  N_6 
REMARK   10  A    between atoms: O_26  and  C_8 
REMARK   11  A    between atoms: O_27  and  C_9 
REMARK   12  A    between atoms: O_28  and  C_12 
REMARK   13  A    between atoms: C_29  and  C_13 
REMARK   14  A    between atoms: C_30  and  O_26 
REMARK   15  A    between atoms: C_31  and  O_27 
ROOT
ATOM      1  C   UNL d   1       1.775  -3.763  -3.641  0.00  0.00    -0.002 A 
ATOM      2  C   UNL d   1       1.183  -2.192  -1.346  0.00  0.00     0.064 A 
ATOM      3  C   UNL d   1       0.494  -3.778  -3.061  0.00  0.00     0.050 A 
ATOM      4  C   UNL d   1       0.200  -3.027  -1.919  0.00  0.00     0.095 A 
ATOM      5  C   UNL d   1       2.752  -2.960  -3.041  0.00  0.00     0.013 A 
ATOM      6  C   UNL d   1       2.461  -2.196  -1.914  0.00  0.00     0.033 A 
ENDROOT
BRANCH   2   7
ATOM      7  N   UNL d   1       0.853  -1.373  -0.284  0.00  0.00    -0.346 N 
ATOM      8  H   UNL d   1      -0.087  -1.522   0.086  0.00  0.00     0.163 HD
BRANCH   7   9
ATOM      9  C   UNL d   1       1.544  -0.126   0.165  0.00  0.00     0.296 C 
BRANCH   9  10
ATOM     10  C   UNL d   1       2.892  -0.346   0.940  0.00  0.00     0.442 C 
ATOM     11  F   UNL d   1       3.004  -1.616   1.413  0.00  0.00    -0.166 F 
ATOM     12  F   UNL d   1       3.973  -0.162   0.132  0.00  0.00    -0.166 F 
ATOM     13  F   UNL d   1       3.059   0.477   2.002  0.00  0.00    -0.166 F 
ENDBRANCH   9  10
BRANCH   9  14
ATOM     14  N   UNL d   1       1.615   0.651  -1.075  0.00  0.00    -0.319 N 
ATOM     15  C   UNL d   1       2.260   1.855  -1.160  0.00  0.00     0.219 C 
ATOM     16  O   UNL d   1       2.826   2.358  -0.205  0.00  0.00    -0.274 OA
ATOM     17  H   UNL d   1       1.119   0.270  -1.865  0.00  0.00     0.165 HD
BRANCH  15  18
ATOM     18  C   UNL d   1       2.198   2.462  -2.546  0.00  0.00     0.098 C 
ATOM     19  C   UNL d   1       2.641   3.911  -2.550  0.00  0.00     0.014 C 
ENDBRANCH  15  18
ENDBRANCH   9  14
BRANCH   9  20
ATOM     20  C   UNL d   1       0.596   0.533   1.209  0.00  0.00     0.318 C 
ATOM     21  O   UNL d   1       0.256   0.006   2.264  0.00  0.00    -0.260 OA
BRANCH  20  22
ATOM     22  O   UNL d   1       0.032   1.679   0.715  0.00  0.00    -0.318 OA
BRANCH  22  23
ATOM     23  C   UNL d   1      -1.175   2.115   1.347  0.00  0.00     0.174 C 
ATOM     24  C   UNL d   1      -2.327   1.356   0.714  0.00  0.00     0.034 C 
ENDBRANCH  22  23
ENDBRANCH  20  22
ENDBRANCH   9  20
ENDBRANCH   7   9
ENDBRANCH   2   7
BRANCH   4  25
ATOM     25  O   UNL d   1      -1.040  -3.019  -1.315  0.00  0.00    -0.354 OA
ATOM     26  C   UNL d   1      -1.917  -4.087  -1.681  0.00  0.00     0.210 C 
ENDBRANCH   4  25
BRANCH   1  27
ATOM     27  C   UNL d   1       2.106  -4.630  -4.861  0.00  0.00     0.271 C 
BRANCH  27  28
ATOM     28  C   UNL d   1       2.675  -3.827  -6.058  0.00  0.00     0.432 C 
ATOM     29  F   UNL d   1       2.633  -2.486  -5.884  0.00  0.00    -0.167 F 
ATOM     30  F   UNL d   1       3.945  -4.146  -6.389  0.00  0.00    -0.167 F 
ATOM     31  F   UNL d   1       1.913  -4.085  -7.162  0.00  0.00    -0.167 F 
ENDBRANCH  27  28
BRANCH  27  32
ATOM     32  C   UNL d   1       3.201  -5.653  -4.515  0.00  0.00     0.308 C 
ATOM     33  O   UNL d   1       4.071  -5.495  -3.665  0.00  0.00    -0.261 OA
BRANCH  32  34
ATOM     34  O   UNL d   1       3.120  -6.763  -5.311  0.00  0.00    -0.319 OA
BRANCH  34  35
ATOM     35  C   UNL d   1       4.122  -7.763  -5.041  0.00  0.00     0.174 C 
ATOM     36  C   UNL d   1       5.425  -7.394  -5.727  0.00  0.00     0.034 C 
ENDBRANCH  34  35
ENDBRANCH  32  34
ENDBRANCH  27  32
BRANCH  27  37
ATOM     37  O   UNL d   1       0.875  -5.310  -5.244  0.00  0.00    -0.368 OA
ATOM     38  H   UNL d   1       0.784  -5.222  -6.213  0.00  0.00     0.212 HD
ENDBRANCH  27  37
ENDBRANCH   1  27
TORSDOF 15
