REMARK  9 active torsions:
REMARK  status: ('A' for Active; 'I' for Inactive)
REMARK    1  A    between atoms: C_8  and  N_1 
REMARK    2  A    between atoms: S_14  and  C_2 
REMARK    3  A    between atoms: S_4  and  C_10 
REMARK    4  A    between atoms: C_9  and  S_4 
REMARK    5  A    between atoms: C_10  and  C_20 
REMARK    6  A    between atoms: C_20  and  S_14 
REMARK    7  A    between atoms: O_19  and  C_21 
REMARK    8  A    between atoms: C_22  and  O_19 
REMARK    9  A    between atoms: C_28  and  C_22 
ROOT
ATOM      1  N   UNL d   1       0.884  -0.663  -0.188  0.00  0.00    -0.241 N 
ATOM      2  C   UNL d   1       0.849   0.691  -0.035  0.00  0.00     0.170 A 
ATOM      3  C   UNL d   1      -0.436  -1.048  -0.262  0.00  0.00     0.347 A 
ATOM      4  N   UNL d   1      -0.348   1.205  -0.007  0.00  0.00    -0.275 N 
ATOM      5  HN  UNL d   1      -0.607   2.186   0.093  1.00  0.00     0.189 HD
ATOM      6  N   UNL d   1      -1.172   0.128  -0.144  0.00  0.00    -0.249 N 
ATOM      7  O   UNL d   1      -0.920  -2.166  -0.348  0.00  0.00    -0.245 OA
ATOM      8  H   UNL d   1      -2.181   0.190  -0.093  0.00  0.00     0.192 HD
ENDROOT
BRANCH   1   9
ATOM      9  C   UNL d   1       1.970  -1.552  -0.204  0.00  0.00     0.046 A 
ATOM     10  C   UNL d   1       2.069  -2.518  -1.210  0.00  0.00     0.033 A 
ATOM     11  C   UNL d   1       3.178  -3.365  -1.264  0.00  0.00     0.039 A 
ATOM     12  C   UNL d   1       4.166  -3.302  -0.281  0.00  0.00     0.069 A 
ATOM     13  C   UNL d   1       4.047  -2.370   0.749  0.00  0.00     0.039 A 
ATOM     14  C   UNL d   1       2.958  -1.495   0.784  0.00  0.00     0.033 A 
BRANCH  12  15
ATOM     15  O   UNL d   1       5.195  -4.190  -0.430  0.00  0.00    -0.347 OA
BRANCH  15  16
ATOM     16  C   UNL d   1       6.027  -4.377   0.713  0.00  0.00     0.214 C 
BRANCH  16  17
ATOM     17  C   UNL d   1       6.895  -5.587   0.484  0.00  0.00    -0.034 A 
ATOM     18  C   UNL d   1       8.228  -5.450   0.078  0.00  0.00     0.009 A 
ATOM     19  C   UNL d   1       9.025  -6.582  -0.122  0.00  0.00     0.001 A 
ATOM     20  C   UNL d   1       8.488  -7.852   0.078  0.00  0.00     0.000 A 
ATOM     21  C   UNL d   1       7.158  -7.998   0.468  0.00  0.00     0.001 A 
ATOM     22  C   UNL d   1       6.363  -6.870   0.666  0.00  0.00     0.009 A 
ENDBRANCH  16  17
ENDBRANCH  15  16
ENDBRANCH  12  15
ENDBRANCH   1   9
BRANCH   2  23
ATOM     23  S   UNL d   1       2.291   1.654   0.031  0.00  0.00    -0.091 SA
BRANCH  23  24
ATOM     24  C   UNL d   1       1.631   3.354  -0.027  0.00  0.00     0.098 C 
BRANCH  24  25
ATOM     25  C   UNL d   1       0.896   3.720   1.247  0.00  0.00     0.156 C 
BRANCH  25  26
ATOM     26  S   UNL d   1       0.449   5.429   1.335  0.00  0.00     0.176 S 
ATOM     27  O   UNL d   1      -0.305   5.610   2.560  0.00  0.00    -0.223 OA
ATOM     28  O   UNL d   1       1.651   6.211   1.103  0.00  0.00    -0.223 OA
BRANCH  26  29
ATOM     29  C   UNL d   1      -0.670   5.767  -0.009  0.00  0.00     0.059 A 
ATOM     30  C   UNL d   1      -2.046   5.610   0.184  0.00  0.00     0.024 A 
ATOM     31  C   UNL d   1      -2.941   6.111  -0.768  0.00  0.00     0.008 A 
ATOM     32  C   UNL d   1      -2.471   6.771  -1.911  0.00  0.00    -0.062 A 
ATOM     33  C   UNL d   1      -1.090   6.895  -2.107  0.00  0.00     0.008 A 
ATOM     34  C   UNL d   1      -3.439   7.435  -2.849  0.00  0.00     0.048 C 
ATOM     35  C   UNL d   1      -0.190   6.398  -1.160  0.00  0.00     0.024 A 
ENDBRANCH  26  29
ENDBRANCH  25  26
ENDBRANCH  24  25
ENDBRANCH  23  24
ENDBRANCH   2  23
TORSDOF 9
