REMARK  6 active torsions:
REMARK  status: ('A' for Active; 'I' for Inactive)
REMARK    1  A    between atoms: C_7  and  C_1 
REMARK    2  A    between atoms: S_8  and  C_3 
REMARK       I    between atoms: N_12  and  C_7 
REMARK    3  A    between atoms: C_16  and  S_8 
REMARK    4  A    between atoms: N_9  and  N_12 
REMARK    5  A    between atoms: C_11  and  C_15 
REMARK    6  A    between atoms: C_19  and  C_16 
ROOT
ATOM      1  C   UNL d   1      -0.052  -1.202   0.077  0.00  0.00     0.121 A 
ATOM      2  N   UNL d   1       0.771  -0.079   0.055  0.00  0.00    -0.326 N 
ATOM      3  C   UNL d   1      -0.036   1.034   0.134  0.00  0.00     0.147 A 
ATOM      4  N   UNL d   1      -1.305   0.712   0.192  0.00  0.00    -0.344 N 
ATOM      5  HN  UNL d   1      -2.103   1.343   0.257  1.00  0.00     0.167 HD
ATOM      6  C   UNL d   1      -1.325  -0.657   0.144  0.00  0.00     0.125 A 
ATOM      7  C   UNL d   1       2.215  -0.032  -0.025  0.00  0.00     0.159 C 
ENDROOT
BRANCH   1   8
ATOM      8  C   UNL d   1       0.376  -2.592   0.045  0.00  0.00     0.288 C 
ATOM      9  N   UNL d   1      -0.641  -3.547   0.058  0.00  0.00    -0.265 N 
ATOM     10  H   UNL d   1      -1.617  -3.289   0.079  0.00  0.00     0.190 HD
ATOM     11  O   UNL d   1       1.562  -2.917   0.018  0.00  0.00    -0.264 OA
BRANCH   9  12
ATOM     12  N   UNL d   1      -0.298  -4.871   0.083  0.00  0.00    -0.308 N 
ATOM     13  C   UNL d   1      -1.261  -5.738   0.095  0.00  0.00     0.120 C 
ATOM     14  HN  UNL d   1       0.679  -5.165   0.092  1.00  0.00     0.186 HD
BRANCH  13  15
ATOM     15  C   UNL d   1      -0.967  -7.193   0.146  0.00  0.00     0.002 A 
ATOM     16  C   UNL d   1      -1.980  -8.158   0.149  0.00  0.00     0.045 A 
ATOM     17 CL   UNL d   1      -3.659  -7.758   0.071  0.00  0.00    -0.083 Cl
ATOM     18  C   UNL d   1      -1.649  -9.519   0.216  0.00  0.00     0.024 A 
ATOM     19  C   UNL d   1      -0.313  -9.920   0.280  0.00  0.00     0.002 A 
ATOM     20  C   UNL d   1       0.698  -8.964   0.272  0.00  0.00     0.001 A 
ATOM     21  C   UNL d   1       0.374  -7.607   0.205  0.00  0.00     0.014 A 
ENDBRANCH  13  15
ENDBRANCH   9  12
ENDBRANCH   1   8
BRANCH   3  22
ATOM     22  S   UNL d   1       0.587   2.655   0.132  0.00  0.00    -0.089 SA
BRANCH  22  23
ATOM     23  C   UNL d   1      -0.788   3.559   0.896  0.00  0.00     0.121 C 
BRANCH  23  24
ATOM     24  C   UNL d   1      -0.493   5.039   1.015  0.00  0.00    -0.048 A 
ATOM     25  C   UNL d   1      -0.956   5.938   0.040  0.00  0.00     0.009 A 
ATOM     26  C   UNL d   1      -0.699   7.307   0.155  0.00  0.00     0.024 A 
ATOM     27  C   UNL d   1       0.030   7.787   1.241  0.00  0.00     0.034 A 
ATOM     28  C   UNL d   1       0.509   6.909   2.209  0.00  0.00     0.024 A 
ATOM     29 CL   UNL d   1       0.337   9.474   1.387  0.00  0.00    -0.084 Cl
ATOM     30  C   UNL d   1       0.251   5.539   2.096  0.00  0.00     0.009 A 
ENDBRANCH  23  24
ENDBRANCH  22  23
ENDBRANCH   3  22
TORSDOF 6
