REMARK  5 active torsions:
REMARK  status: ('A' for Active; 'I' for Inactive)
REMARK    1  A    between atoms: C_2  and  C_1 
REMARK    2  A    between atoms: C_4  and  C_1 
REMARK    3  A    between atoms: C_3  and  C_2 
REMARK    4  A    between atoms: O_15  and  C_4 
REMARK    5  A    between atoms: N_12  and  C_6 
ROOT
ATOM      1  C   UNL d   1       0.904   0.085  -0.033  0.00  0.00     0.112 C 
ATOM      2  C   UNL d   1       2.271   0.054  -0.056  0.00  0.00     0.021 C 
ATOM      3  C   UNL d   1       3.145   1.289   0.126  0.00  0.00     0.069 C 
ENDROOT
BRANCH   1   4
ATOM      4  C   UNL d   1       0.108   1.355   0.149  0.00  0.00     0.202 C 
ATOM      5  O   UNL d   1       0.560   2.299   0.787  0.00  0.00    -0.286 OA
BRANCH   4   6
ATOM      6  C   UNL d   1      -1.258   1.482  -0.447  0.00  0.00     0.037 A 
ATOM      7  C   UNL d   1      -2.260   2.268   0.156  0.00  0.00     0.049 A 
ATOM      8  C   UNL d   1      -3.556   2.298  -0.377  0.00  0.00     0.048 A 
ATOM      9 CL   UNL d   1      -2.032   3.216   1.587  0.00  0.00    -0.083 Cl
ATOM     10  C   UNL d   1      -3.863   1.552  -1.509  0.00  0.00     0.035 A 
ATOM     11  C   UNL d   1      -2.874   0.814  -2.151  0.00  0.00     0.025 A 
ATOM     12 CL   UNL d   1      -5.473   1.534  -2.111  0.00  0.00    -0.084 Cl
ATOM     13  C   UNL d   1      -1.571   0.800  -1.639  0.00  0.00     0.019 A 
ENDBRANCH   4   6
ENDBRANCH   1   4
BRANCH   1  14
ATOM     14  C   UNL d   1       0.187  -1.227  -0.142  0.00  0.00     0.298 C 
ATOM     15  O   UNL d   1       0.542  -2.157  -0.849  0.00  0.00    -0.259 OA
BRANCH  14  16
ATOM     16  O   UNL d   1      -0.938  -1.204   0.627  0.00  0.00    -0.322 OA
ATOM     17  C   UNL d   1      -1.755  -2.377   0.550  0.00  0.00     0.213 C 
ENDBRANCH  14  16
ENDBRANCH   1  14
BRANCH   2  18
ATOM     18  N   UNL d   1       3.009  -1.129  -0.228  0.00  0.00    -0.397 N 
ATOM     19  C   UNL d   1       4.435  -1.258  -0.458  0.00  0.00     0.146 C 
ATOM     20  H   UNL d   1       2.461  -1.914  -0.601  0.00  0.00     0.158 HD
ENDBRANCH   2  18
TORSDOF 5
