REMARK  1 active torsions:
REMARK  status: ('A' for Active; 'I' for Inactive)
REMARK       I    between atoms: C_2  and  N_1 
REMARK       I    between atoms: N_6  and  C_2 
REMARK    1  A    between atoms: C_13  and  N_6 
ROOT
ATOM      1  N   UNL d   1       2.167   0.745   0.167  0.00  0.00    -0.325 N 
ATOM      2  C   UNL d   1       3.036   1.137   1.181  0.00  0.00     0.323 C 
ATOM      3  C   UNL d   1      -0.228   0.637  -0.247  0.00  0.00    -0.022 A 
ATOM      4  C   UNL d   1       1.013   1.498  -0.379  0.00  0.00     0.119 C 
ATOM      5  C   UNL d   1      -0.174  -0.728  -0.028  0.00  0.00    -0.008 A 
ATOM      6  N   UNL d   1       2.894   2.423   1.655  0.00  0.00    -0.309 N 
ATOM      7  C   UNL d   1       2.285  -0.651  -0.309  0.00  0.00     0.133 C 
ATOM      8  S   UNL d   1      -1.707  -1.448   0.094  0.00  0.00    -0.106 SA
ATOM      9  C   UNL d   1       1.093  -1.506   0.147  0.00  0.00     0.067 C 
ATOM     10  C   UNL d   1      -1.586   1.088  -0.301  0.00  0.00     0.017 A 
ATOM     11  C   UNL d   1      -2.486   0.059  -0.125  0.00  0.00     0.051 A 
ATOM     12  O   UNL d   1       3.867   0.345   1.617  0.00  0.00    -0.247 OA
ATOM     13  C   UNL d   1       1.271   1.913  -1.830  0.00  0.00     0.037 C 
ATOM     14  H   UNL d   1       2.197   3.007   1.238  0.00  0.00     0.170 HD
ENDROOT
BRANCH   6  15
ATOM     15  C   UNL d   1       3.594   3.023   2.733  0.00  0.00     0.036 A 
ATOM     16  C   UNL d   1       4.636   2.411   3.434  0.00  0.00     0.029 A 
ATOM     17  C   UNL d   1       5.232   3.045   4.529  0.00  0.00     0.002 A 
ATOM     18  C   UNL d   1       4.798   4.304   4.932  0.00  0.00     0.000 A 
ATOM     19  C   UNL d   1       3.783   4.940   4.224  0.00  0.00     0.002 A 
ATOM     20  C   UNL d   1       3.189   4.307   3.127  0.00  0.00     0.029 A 
ENDBRANCH   6  15
TORSDOF 1
