REMARK  5 active torsions:
REMARK  status: ('A' for Active; 'I' for Inactive)
REMARK    1  A    between atoms: S_15  and  C_3 
REMARK    2  A    between atoms: C_12  and  C_4 
REMARK    3  A    between atoms: C_14  and  C_5 
REMARK    4  A    between atoms: C_9  and  C_13 
REMARK    5  A    between atoms: C_24  and  S_15 
ROOT
ATOM      1  C   UNL d   1       1.009  -3.221   2.528  0.00  0.00    -0.107 C 
ATOM      2  C   UNL d   1       0.018  -3.564   3.111  0.00  0.00     0.013 C 
ATOM      3  C   UNL d   1       2.217  -2.805   1.799  0.00  0.00     0.173 C 
ENDROOT
BRANCH   3   4
ATOM      4  S   UNL d   1       1.937  -2.660   0.004  0.00  0.00    -0.099 SA
BRANCH   4   5
ATOM      5  C   UNL d   1       0.822  -1.271   0.002  0.00  0.00     0.088 A 
ATOM      6  N   UNL d   1       1.550  -0.118   0.029  0.00  0.00    -0.335 N 
ATOM      7  C   UNL d   1       0.891   1.043   0.033  0.00  0.00     0.116 A 
ATOM      8  HN  UNL d   1       2.569  -0.142   0.046  1.00  0.00     0.168 HD
ATOM      9  N   UNL d   1      -0.440   1.119   0.025  0.00  0.00    -0.345 N 
ATOM     10  C   UNL d   1      -1.160  -0.031  -0.004  0.00  0.00     0.023 A 
ATOM     11  HN  UNL d   1      -0.909   2.025   0.041  1.00  0.00     0.167 HD
ATOM     12  C   UNL d   1      -2.639   0.241  -0.005  0.00  0.00     0.069 C 
ATOM     13  C   UNL d   1      -0.576  -1.307  -0.030  0.00  0.00     0.065 A 
BRANCH   7  14
ATOM     14  C   UNL d   1       1.645   2.313   0.050  0.00  0.00     0.008 A 
ATOM     15  C   UNL d   1       3.042   2.360  -0.124  0.00  0.00     0.016 A 
ATOM     16  C   UNL d   1       3.739   3.578  -0.112  0.00  0.00     0.017 A 
ATOM     17  C   UNL d   1       3.062   4.790   0.080  0.00  0.00     0.048 A 
ATOM     18  C   UNL d   1       1.674   4.760   0.251  0.00  0.00     0.017 A 
ATOM     19  C   UNL d   1       0.983   3.543   0.234  0.00  0.00     0.016 A 
BRANCH  17  20
ATOM     20  C   UNL d   1       3.793   6.110   0.107  0.00  0.00     0.417 C 
ATOM     21  F   UNL d   1       5.137   5.996  -0.089  0.00  0.00    -0.166 F 
ATOM     22  F   UNL d   1       3.349   6.973  -0.849  0.00  0.00    -0.166 F 
ATOM     23  F   UNL d   1       3.644   6.761   1.294  0.00  0.00    -0.166 F 
ENDBRANCH  17  20
ENDBRANCH   7  14
BRANCH  13  24
ATOM     24  C   UNL d   1      -1.478  -2.520  -0.063  0.00  0.00     0.160 C 
ATOM     25  O   UNL d   1      -2.696  -2.365   0.071  0.00  0.00    -0.293 OA
ATOM     26  C   UNL d   1      -1.028  -3.938  -0.301  0.00  0.00     0.097 C 
ENDBRANCH  13  24
ENDBRANCH   4   5
ENDBRANCH   3   4
TORSDOF 5
