REMARK  3 active torsions:
REMARK  status: ('A' for Active; 'I' for Inactive)
REMARK    1  A    between atoms: C_7  and  C_3 
REMARK    2  A    between atoms: C_9  and  C_4 
REMARK    3  A    between atoms: S_12  and  C_8 
ROOT
ATOM      1  N   UNL d   1      -1.259  -0.066  -0.015  0.00  0.00    -0.358 N 
ATOM      2  HN  UNL d   1      -2.277  -0.114  -0.017  1.00  0.00     0.166 HD
ATOM      3  C   UNL d   1      -0.632   1.137  -0.033  0.00  0.00     0.018 A 
ATOM      4  C   UNL d   1      -0.522  -1.205   0.006  0.00  0.00     0.044 A 
ATOM      5  C   UNL d   1       0.761   1.227  -0.036  0.00  0.00     0.044 A 
ATOM      6  C   UNL d   1       0.868  -1.166   0.018  0.00  0.00     0.049 A 
ATOM      7  C   UNL d   1       1.524   0.063  -0.014  0.00  0.00     0.004 A 
ENDROOT
BRANCH   4   8
ATOM      8  C   UNL d   1      -1.284  -2.472   0.055  0.00  0.00    -0.009 A 
ATOM      9  C   UNL d   1      -0.786  -3.665  -0.507  0.00  0.00     0.015 A 
ATOM     10  C   UNL d   1      -1.497  -4.866  -0.417  0.00  0.00     0.024 A 
ATOM     11  C   UNL d   1      -2.727  -4.896   0.230  0.00  0.00     0.034 A 
ATOM     12  C   UNL d   1      -3.259  -3.733   0.776  0.00  0.00     0.024 A 
ATOM     13 CL   UNL d   1      -3.593  -6.378   0.357  0.00  0.00    -0.084 Cl
ATOM     14  C   UNL d   1      -2.543  -2.533   0.684  0.00  0.00     0.015 A 
ENDBRANCH   4   8
BRANCH   3  15
ATOM     15  C   UNL d   1      -1.507   2.398  -0.015  0.00  0.00    -0.009 C 
ATOM     16  C   UNL d   1      -3.010   2.043  -0.019  0.00  0.00     0.021 C 
ATOM     17  C   UNL d   1      -1.220   3.217   1.260  0.00  0.00     0.021 C 
ATOM     18  C   UNL d   1      -1.227   3.268  -1.256  0.00  0.00     0.021 C 
ENDBRANCH   3  15
BRANCH   7  19
ATOM     19  S   UNL d   1       3.310   0.042   0.066  0.00  0.00    -0.134 SA
ATOM     20  C   UNL d   1       3.760   1.505  -0.903  0.00  0.00     0.095 C 
ENDBRANCH   7  19
TORSDOF 3
