REMARK  7 active torsions:
REMARK  status: ('A' for Active; 'I' for Inactive)
REMARK    1  A    between atoms: C_7  and  C_1 
REMARK    2  A    between atoms: C_20  and  C_3 
REMARK    3  A    between atoms: C_8  and  C_7 
REMARK    4  A    between atoms: C_9  and  O_11 
REMARK    5  A    between atoms: C_18  and  C_9 
REMARK    6  A    between atoms: O_11  and  C_13 
REMARK    7  A    between atoms: C_28  and  C_20 
ROOT
ATOM      1  C   UNL d   1      -1.798  -1.293  -0.028  0.00  0.00     0.029 C 
ATOM      2  C   UNL d   1      -2.083   0.159   0.126  0.00  0.00     0.295 C 
ATOM      3  C   UNL d   1      -0.531  -1.780   0.021  0.00  0.00    -0.033 C 
ATOM      4  O   UNL d   1      -1.026   1.027  -0.025  0.00  0.00    -0.274 OA
ATOM      5  C   UNL d   1       0.289   0.556  -0.009  0.00  0.00     0.093 A 
ATOM      6  C   UNL d   1       0.586  -0.805   0.073  0.00  0.00     0.005 A 
ATOM      7  C   UNL d   1       1.266   1.552  -0.053  0.00  0.00     0.075 A 
ATOM      8  C   UNL d   1       1.949  -1.144   0.144  0.00  0.00     0.017 A 
ATOM      9  C   UNL d   1       2.604   1.192  -0.023  0.00  0.00     0.082 A 
ATOM     10  O   UNL d   1      -3.208   0.578   0.356  0.00  0.00    -0.259 OA
ATOM     11  C   UNL d   1       2.952  -0.153   0.103  0.00  0.00     0.038 A 
ENDROOT
BRANCH   1  12
ATOM     12  C   UNL d   1      -3.059  -2.111  -0.211  0.00  0.00     0.089 C 
BRANCH  12  13
ATOM     13  C   UNL d   1      -3.636  -2.211  -1.615  0.00  0.00     0.007 A 
ATOM     14  C   UNL d   1      -3.035  -1.633  -2.743  0.00  0.00     0.124 A 
ATOM     15  F   UNL d   1      -1.888  -0.949  -2.643  0.00  0.00    -0.205 F 
ATOM     16  C   UNL d   1      -3.590  -1.744  -4.019  0.00  0.00     0.043 A 
ATOM     17  C   UNL d   1      -4.774  -2.446  -4.207  0.00  0.00     0.005 A 
ATOM     18  C   UNL d   1      -5.394  -3.038  -3.111  0.00  0.00     0.024 A 
ATOM     19  C   UNL d   1      -4.832  -2.924  -1.832  0.00  0.00     0.043 A 
ATOM     20 CL   UNL d   1      -5.670  -3.713  -0.537  0.00  0.00    -0.084 Cl
ENDBRANCH  12  13
ENDBRANCH   1  12
BRANCH   3  21
ATOM     21  C   UNL d   1      -0.220  -3.262  -0.115  0.00  0.00     0.040 C 
BRANCH  21  22
ATOM     22  C   UNL d   1       0.012  -4.007   1.210  0.00  0.00     0.000 C 
ATOM     23  C   UNL d   1      -1.218  -4.112   2.102  0.00  0.00     0.005 C 
ENDBRANCH  21  22
ENDBRANCH   3  21
BRANCH   9  24
ATOM     24  O   UNL d   1       3.649   2.140  -0.045  0.00  0.00    -0.275 OA
BRANCH  24  25
ATOM     25  C   UNL d   1       3.519   3.271  -0.846  0.00  0.00     0.298 C 
ATOM     26  O   UNL d   1       2.592   3.552  -1.587  0.00  0.00    -0.259 OA
BRANCH  25  27
ATOM     27  C   UNL d   1       4.745   4.104  -0.772  0.00  0.00     0.039 A 
ATOM     28  C   UNL d   1       5.565   4.155   0.359  0.00  0.00     0.017 A 
ATOM     29  C   UNL d   1       6.712   4.957   0.348  0.00  0.00     0.001 A 
ATOM     30  C   UNL d   1       7.037   5.706  -0.785  0.00  0.00     0.000 A 
ATOM     31  C   UNL d   1       6.212   5.671  -1.907  0.00  0.00     0.001 A 
ATOM     32  C   UNL d   1       5.063   4.878  -1.898  0.00  0.00     0.017 A 
ENDBRANCH  25  27
ENDBRANCH  24  25
ENDBRANCH   9  24
TORSDOF 7
