REMARK  4 active torsions:
REMARK  status: ('A' for Active; 'I' for Inactive)
REMARK    1  A    between atoms: C_2  and  S_1 
REMARK    2  A    between atoms: C_3  and  S_1 
REMARK    3  A    between atoms: C_7  and  C_3 
REMARK    4  A    between atoms: C_14  and  C_4 
ROOT
ATOM      1  C   UNL d   1       0.436  -0.005  -1.714  0.00  0.00     0.140 C 
ATOM      2  C   UNL d   1      -0.268  -1.023  -2.248  0.00  0.00     0.046 C 
ATOM      3  C   UNL d   1       0.889   0.021  -0.368  0.00  0.00     0.111 C 
ATOM      4  N   UNL d   1       1.248  -0.015   0.735  0.00  0.00    -0.191 NA
ENDROOT
BRANCH   1   5
ATOM      5  S   UNL d   1       0.928   1.296  -2.761  0.00  0.00     0.191 S 
ATOM      6  O   UNL d   1       1.593   0.714  -3.918  0.00  0.00    -0.222 OA
ATOM      7  O   UNL d   1       1.624   2.319  -1.999  0.00  0.00    -0.222 OA
BRANCH   5   8
ATOM      8  C   UNL d   1      -0.578   2.020  -3.378  0.00  0.00     0.211 C 
BRANCH   8   9
ATOM      9  C   UNL d   1      -1.438   2.477  -2.269  0.00  0.00     0.066 A 
ATOM     10  O   UNL d   1      -2.384   1.596  -1.837  0.00  0.00    -0.326 OA
ATOM     11  C   UNL d   1      -3.086   2.220  -0.856  0.00  0.00     0.142 A 
ATOM     12  C   UNL d   1      -2.604   3.491  -0.654  0.00  0.00     0.027 A 
ATOM     13  C   UNL d   1      -1.540   3.662  -1.571  0.00  0.00     0.035 A 
ENDBRANCH   8   9
ENDBRANCH   5   8
ENDBRANCH   1   5
BRANCH   2  14
ATOM     14  C   UNL d   1      -0.707  -2.196  -1.488  0.00  0.00    -0.034 A 
ATOM     15  C   UNL d   1      -1.922  -2.164  -0.794  0.00  0.00     0.013 A 
ATOM     16  C   UNL d   1      -2.335  -3.275  -0.053  0.00  0.00     0.024 A 
ATOM     17  C   UNL d   1      -1.534  -4.415  -0.008  0.00  0.00     0.034 A 
ATOM     18  C   UNL d   1      -0.319  -4.451  -0.690  0.00  0.00     0.024 A 
ATOM     19 CL   UNL d   1      -2.052  -5.787   0.891  0.00  0.00    -0.084 Cl
ATOM     20  C   UNL d   1       0.095  -3.341  -1.432  0.00  0.00     0.013 A 
ENDBRANCH   2  14
TORSDOF 4
