REMARK  6 active torsions:
REMARK  status: ('A' for Active; 'I' for Inactive)
REMARK    1  A    between atoms: C_6  and  C_1 
REMARK    2  A    between atoms: C_11  and  N_2 
REMARK    3  A    between atoms: C_18  and  C_3 
REMARK       I    between atoms: N_8  and  C_6 
REMARK    4  A    between atoms: C_10  and  N_9 
REMARK    5  A    between atoms: O_19  and  C_17 
REMARK    6  A    between atoms: C_25  and  C_18 
ROOT
ATOM      1  C   UNL d   1      -0.584   2.353   0.529  0.00  0.00     0.257 C 
ATOM      2  N   UNL d   1       0.459   3.282   0.435  0.00  0.00    -0.346 N 
ATOM      3  N   UNL d   1       2.479   5.291   0.048  0.00  0.00    -0.278 NA
ATOM      4  O   UNL d   1      -1.728   2.696   0.816  0.00  0.00    -0.267 OA
ATOM      5  C   UNL d   1       1.864   2.921   0.175  0.00  0.00     0.141 C 
ATOM      6  C   UNL d   1       0.091   4.674   0.131  0.00  0.00     0.141 C 
ATOM      7  C   UNL d   1       1.153   5.707   0.552  0.00  0.00     0.115 C 
ATOM      8  C   UNL d   1       2.880   3.989   0.618  0.00  0.00     0.115 C 
ENDROOT
BRANCH   1   9
ATOM      9  C   UNL d   1      -0.281   0.951   0.233  0.00  0.00     0.073 C 
ATOM     10  C   UNL d   1      -0.755  -0.199   0.866  0.00  0.00     0.051 C 
ATOM     11  N   UNL d   1      -0.196  -1.281   0.167  0.00  0.00    -0.260 N 
ATOM     12  N   UNL d   1       0.451  -0.852  -0.950  0.00  0.00    -0.304 N 
ATOM     13  C   UNL d   1       0.404   0.468  -0.895  0.00  0.00     0.126 C 
ATOM     14  HN  UNL d   1       0.880  -1.426  -1.676  1.00  0.00     0.186 HD
BRANCH  10  15
ATOM     15  C   UNL d   1      -1.823  -0.306   1.919  0.00  0.00     0.060 C 
BRANCH  15  16
ATOM     16  C   UNL d   1      -1.365  -0.186   3.376  0.00  0.00     0.002 C 
ATOM     17  C   UNL d   1      -0.773   1.156   3.771  0.00  0.00     0.005 C 
ENDBRANCH  15  16
ENDBRANCH  10  15
BRANCH  11  18
ATOM     18  C   UNL d   1      -0.178  -2.689   0.424  0.00  0.00     0.056 A 
ATOM     19  C   UNL d   1       0.125  -3.557  -0.641  0.00  0.00     0.031 A 
ATOM     20  C   UNL d   1       0.246  -4.933  -0.433  0.00  0.00     0.002 A 
ATOM     21  C   UNL d   1       0.099  -5.456   0.844  0.00  0.00     0.000 A 
ATOM     22  C   UNL d   1      -0.203  -4.605   1.908  0.00  0.00     0.002 A 
ATOM     23  C   UNL d   1      -0.343  -3.230   1.696  0.00  0.00     0.031 A 
ENDBRANCH  11  18
ENDBRANCH   1   9
BRANCH   3  24
ATOM     24  C   UNL d   1       3.521   6.235   0.024  0.00  0.00     0.044 A 
ATOM     25  C   UNL d   1       4.612   6.130  -0.875  0.00  0.00     0.089 A 
ATOM     26  C   UNL d   1       5.645   7.080  -0.867  0.00  0.00     0.038 A 
ATOM     27  C   UNL d   1       5.620   8.154   0.016  0.00  0.00     0.003 A 
ATOM     28  C   UNL d   1       4.569   8.272   0.914  0.00  0.00     0.002 A 
ATOM     29  C   UNL d   1       3.536   7.328   0.914  0.00  0.00     0.026 A 
BRANCH  25  30
ATOM     30  O   UNL d   1       4.837   5.111  -1.769  0.00  0.00    -0.354 OA
ATOM     31  C   UNL d   1       3.725   4.708  -2.557  0.00  0.00     0.210 C 
ENDBRANCH  25  30
ENDBRANCH   3  24
TORSDOF 6
