REMARK  4 active torsions:
REMARK  status: ('A' for Active; 'I' for Inactive)
REMARK    1  A    between atoms: C_8  and  C_1 
REMARK    2  A    between atoms: C_5  and  C_4 
REMARK       I    between atoms: N_12  and  C_8 
REMARK    3  A    between atoms: C_21  and  N_12 
REMARK    4  A    between atoms: C_13  and  C_21 
ROOT
ATOM      1  C   UNL d   1       1.831   0.964   0.339  0.00  0.00     0.103 A 
ATOM      2  N   UNL d   1       2.273  -0.796   0.719  0.00  0.00    -0.369 N 
ATOM      3  HN  UNL d   1       3.135  -1.065   1.194  1.00  0.00     0.161 HD
ATOM      4  C   UNL d   1       1.148  -1.882   0.219  0.00  0.00     0.180 A 
ATOM      5  S   UNL d   1      -0.668  -0.836  -0.999  0.00  0.00    -0.111 SA
ATOM      6  C   UNL d   1       0.351   1.182  -0.549  0.00  0.00     0.082 A 
ENDROOT
BRANCH   1   7
ATOM      7  C   UNL d   1       2.787   2.015   0.631  0.00  0.00     0.268 C 
ATOM      8  N   UNL d   1       4.056   1.523   0.850  0.00  0.00    -0.350 N 
ATOM      9  H   UNL d   1       4.201   0.534   0.655  0.00  0.00     0.163 HD
ATOM     10  O   UNL d   1       2.512   3.206   0.582  0.00  0.00    -0.266 OA
BRANCH   8  11
ATOM     11  C   UNL d   1       5.173   2.428   0.868  0.00  0.00     0.187 C 
BRANCH  11  12
ATOM     12  C   UNL d   1       6.441   1.697   1.094  0.00  0.00     0.070 A 
ATOM     13  O   UNL d   1       6.898   0.910   0.075  0.00  0.00    -0.325 OA
ATOM     14  C   UNL d   1       8.093   0.400   0.473  0.00  0.00     0.142 A 
ATOM     15  C   UNL d   1       8.412   0.846   1.734  0.00  0.00     0.027 A 
ATOM     16  C   UNL d   1       7.341   1.677   2.140  0.00  0.00     0.036 A 
ENDBRANCH  11  12
ENDBRANCH   8  11
ENDBRANCH   1   7
BRANCH   4  17
ATOM     17  C   UNL d   1       0.684  -3.147   0.373  0.00  0.00     0.186 C 
ATOM     18  O   UNL d   1       0.935  -3.282  -1.125  0.00  0.00    -0.338 OA
ATOM     19  C   UNL d   1       1.637  -2.190  -1.799  0.00  0.00     0.102 C 
ATOM     20  C   UNL d   1       2.454  -2.538  -2.858  0.00  0.00     0.039 C 
ATOM     21  C   UNL d   1       1.557  -0.672  -1.259  0.00  0.00     0.102 C 
ATOM     22  C   UNL d   1       3.190  -1.516  -3.465  0.00  0.00     0.003 C 
ATOM     23  C   UNL d   1       3.055  -0.151  -3.110  0.00  0.00     0.003 C 
ATOM     24  C   UNL d   1       2.236   0.302  -2.058  0.00  0.00     0.039 C 
ATOM     25  O   UNL d   1       0.537  -0.345   0.439  0.00  0.00    -0.346 OA
ATOM     26  C   UNL d   1       0.011  -1.869   1.257  0.00  0.00     0.211 C 
ENDBRANCH   4  17
TORSDOF 4
