REMARK  6 active torsions:
REMARK  status: ('A' for Active; 'I' for Inactive)
REMARK    1  A    between atoms: C_2  and  S_1 
REMARK    2  A    between atoms: C_7  and  S_1 
REMARK    3  A    between atoms: C_8  and  C_3 
REMARK    4  A    between atoms: C_4  and  N_10 
REMARK    5  A    between atoms: N_10  and  N_5 
REMARK    6  A    between atoms: O_20  and  C_8 
ROOT
ATOM      1  C   UNL d   1       0.422  -0.367  -1.708  0.00  0.00     0.230 C 
ATOM      2  N   UNL d   1      -0.356  -1.403  -1.851  0.00  0.00    -0.281 N 
ATOM      3  HN  UNL d   1      -0.721  -1.635  -2.774  1.00  0.00     0.188 HD
ATOM      4  C   UNL d   1       1.003  -0.072  -0.432  0.00  0.00     0.132 C 
ATOM      5  N   UNL d   1       1.457   0.132   0.619  0.00  0.00    -0.189 NA
ENDROOT
BRANCH   1   6
ATOM      6  S   UNL d   1       0.899   0.611  -3.072  0.00  0.00     0.249 S 
ATOM      7  O   UNL d   1       1.972  -0.117  -3.734  0.00  0.00    -0.214 OA
ATOM      8  O   UNL d   1       1.110   1.970  -2.601  0.00  0.00    -0.214 OA
BRANCH   6   9
ATOM      9  C   UNL d   1      -0.518   0.602  -4.143  0.00  0.00     0.135 A 
ATOM     10  N   UNL d   1      -1.639   1.125  -3.577  0.00  0.00    -0.356 N 
ATOM     11  C   UNL d   1      -2.747   1.108  -4.349  0.00  0.00     0.089 A 
ATOM     12  HN  UNL d   1      -1.642   1.505  -2.631  1.00  0.00     0.166 HD
ATOM     13  C   UNL d   1      -2.785   0.590  -5.636  0.00  0.00     0.017 A 
ATOM     14  C   UNL d   1      -1.613   0.067  -6.181  0.00  0.00     0.004 A 
ATOM     15  C   UNL d   1      -0.446   0.074  -5.425  0.00  0.00     0.042 A 
ENDBRANCH   6   9
ENDBRANCH   1   6
BRANCH   2  16
ATOM     16  N   UNL d   1      -0.691  -2.187  -0.773  0.00  0.00    -0.298 N 
ATOM     17  H   UNL d   1      -1.026  -1.730   0.085  0.00  0.00     0.187 HD
BRANCH  16  18
ATOM     18  C   UNL d   1      -1.031  -3.494  -0.972  0.00  0.00     0.071 A 
ATOM     19  C   UNL d   1      -1.854  -4.263  -0.163  0.00  0.00     0.108 A 
ATOM     20  S   UNL d   1      -1.967  -5.877  -0.772  0.00  0.00    -0.094 SA
ATOM     21  C   UNL d   1      -0.962  -5.534  -2.104  0.00  0.00     0.053 A 
ATOM     22  C   UNL d   1      -0.537  -4.229  -2.096  0.00  0.00     0.039 A 
BRANCH  19  23
ATOM     23  C   UNL d   1      -2.623  -3.953   1.031  0.00  0.00     0.302 C 
ATOM     24  O   UNL d   1      -3.336  -4.729   1.655  0.00  0.00    -0.259 OA
BRANCH  23  25
ATOM     25  O   UNL d   1      -2.470  -2.635   1.373  0.00  0.00    -0.322 OA
ATOM     26  C   UNL d   1      -3.239  -2.246   2.517  0.00  0.00     0.213 C 
ENDBRANCH  23  25
ENDBRANCH  19  23
ENDBRANCH  16  18
ENDBRANCH   2  16
TORSDOF 6
