REMARK  11 active torsions:
REMARK  status: ('A' for Active; 'I' for Inactive)
REMARK    1  A    between atoms: N_2  and  C_1 
REMARK    2  A    between atoms: N_5  and  C_3 
REMARK    3  A    between atoms: C_14  and  N_5 
REMARK    4  A    between atoms: N_11  and  C_9 
REMARK    5  A    between atoms: C_17  and  N_11 
REMARK    6  A    between atoms: C_15  and  C_14 
REMARK    7  A    between atoms: O_18  and  C_15 
REMARK    8  A    between atoms: O_19  and  C_15 
REMARK    9  A    between atoms: C_16  and  C_17 
REMARK   10  A    between atoms: O_20  and  C_16 
REMARK   11  A    between atoms: O_21  and  C_16 
ROOT
ATOM      1  C   UNL d   1       1.549   1.224   0.058  0.00  0.00     0.130 A 
ATOM      2  C   UNL d   1       0.141   1.263   0.080  0.00  0.00     0.084 A 
ATOM      3  C   UNL d   1      -0.518   0.007  -0.100  0.00  0.00     0.094 A 
ATOM      4  C   UNL d   1      -1.950  -0.106  -0.204  0.00  0.00     0.103 C 
ATOM      5  N   UNL d   1      -3.105  -0.201  -0.284  0.00  0.00    -0.191 NA
ATOM      6  C   UNL d   1       2.286   0.036  -0.036  0.00  0.00     0.040 A 
ATOM      7  C   UNL d   1       0.210  -1.221  -0.194  0.00  0.00     0.031 A 
ATOM      8  C   UNL d   1       1.609  -1.173  -0.139  0.00  0.00     0.027 A 
ENDROOT
BRANCH   2   9
ATOM      9  N   UNL d   1      -0.494   2.477   0.401  0.00  0.00    -0.382 N 
ATOM     10  H   UNL d   1      -0.229   3.280  -0.180  0.00  0.00     0.160 HD
BRANCH   9  11
ATOM     11  C   UNL d   1      -1.867   2.549   0.910  0.00  0.00     0.180 C 
BRANCH  11  12
ATOM     12  C   UNL d   1      -2.186   3.816   1.744  0.00  0.00     0.275 C 
BRANCH  12  13
ATOM     13  O   UNL d   1      -2.100   4.951   0.870  0.00  0.00    -0.364 OA
ATOM     14  C   UNL d   1      -2.304   6.176   1.565  0.00  0.00     0.204 C 
ENDBRANCH  12  13
BRANCH  12  15
ATOM     15  O   UNL d   1      -3.511   3.739   2.289  0.00  0.00    -0.364 OA
ATOM     16  C   UNL d   1      -3.712   2.682   3.215  0.00  0.00     0.204 C 
ENDBRANCH  12  15
ENDBRANCH  11  12
ENDBRANCH   9  11
ENDBRANCH   2   9
BRANCH   7  17
ATOM     17  N   UNL d   1      -0.489  -2.438  -0.333  0.00  0.00    -0.287 NA
ATOM     18  H   UNL d   1      -1.007  -2.488  -1.215  0.00  0.00     0.127 HD
BRANCH  17  19
ATOM     19  C   UNL d   1       0.213  -3.699  -0.053  0.00  0.00     0.153 C 
BRANCH  19  20
ATOM     20  C   UNL d   1      -0.662  -4.954  -0.303  0.00  0.00     0.271 C 
BRANCH  20  21
ATOM     21  O   UNL d   1      -0.840  -5.042  -1.728  0.00  0.00    -0.365 OA
ATOM     22  C   UNL d   1      -1.642  -6.148  -2.116  0.00  0.00     0.204 C 
ENDBRANCH  20  21
BRANCH  20  23
ATOM     23  O   UNL d   1       0.013  -6.129   0.166  0.00  0.00    -0.365 OA
ATOM     24  C   UNL d   1       0.119  -6.210   1.579  0.00  0.00     0.204 C 
ENDBRANCH  20  23
ENDBRANCH  19  20
ENDBRANCH  17  19
ENDBRANCH   7  17
BRANCH   1  25
ATOM     25  N   UNL d   1       2.325   2.450   0.167  0.00  0.00    -0.113 N 
ATOM     26  O   UNL d   1       2.133   3.319  -0.698  0.00  0.00    -0.532 OA
ATOM     27  O   UNL d   1       3.156   2.516   1.083  0.00  0.00    -0.532 OA
ENDBRANCH   1  25
TORSDOF 11
