REMARK  4 active torsions:
REMARK  status: ('A' for Active; 'I' for Inactive)
REMARK    1  A    between atoms: C_2  and  S_1 
REMARK    2  A    between atoms: C_6  and  S_1 
REMARK    3  A    between atoms: N_12  and  C_3 
REMARK    4  A    between atoms: C_11  and  N_12 
ROOT
ATOM      1  C   UNL d   1       0.481   1.637   0.463  0.00  0.00     0.159 C 
ATOM      2  C   UNL d   1      -0.127   2.418  -0.450  0.00  0.00     0.124 C 
ATOM      3  C   UNL d   1       0.926   0.325   0.163  0.00  0.00     0.113 C 
ATOM      4  N   UNL d   1       1.276  -0.739  -0.132  0.00  0.00    -0.191 NA
ENDROOT
BRANCH   1   5
ATOM      5  S   UNL d   1       0.904   2.315   1.998  0.00  0.00     0.218 S 
ATOM      6  O   UNL d   1       0.390   3.671   2.109  0.00  0.00    -0.216 OA
ATOM      7  O   UNL d   1       2.312   2.073   2.259  0.00  0.00    -0.216 OA
BRANCH   5   8
ATOM      8  C   UNL d   1      -0.010   1.351   3.204  0.00  0.00     0.065 A 
ATOM      9  C   UNL d   1       0.594   0.227   3.781  0.00  0.00     0.025 A 
ATOM     10  C   UNL d   1      -0.037  -0.430   4.843  0.00  0.00     0.025 A 
ATOM     11  C   UNL d   1      -1.255   0.043   5.331  0.00  0.00     0.034 A 
ATOM     12  C   UNL d   1      -1.859   1.162   4.758  0.00  0.00     0.025 A 
ATOM     13 CL   UNL d   1      -1.998  -0.739   6.672  0.00  0.00    -0.084 Cl
ATOM     14  C   UNL d   1      -1.235   1.824   3.694  0.00  0.00     0.025 A 
ENDBRANCH   5   8
ENDBRANCH   1   5
BRANCH   2  15
ATOM     15  N   UNL d   1      -0.541   2.085  -1.720  0.00  0.00    -0.350 N 
ATOM     16  H   UNL d   1      -0.814   1.118  -1.889  0.00  0.00     0.166 HD
BRANCH  15  17
ATOM     17  C   UNL d   1      -1.101   2.907  -2.699  0.00  0.00     0.104 A 
ATOM     18  N   UNL d   1      -1.969   2.300  -3.534  0.00  0.00    -0.351 N 
ATOM     19  C   UNL d   1      -2.541   3.051  -4.509  0.00  0.00     0.113 A 
ATOM     20  HN  UNL d   1      -2.188   1.309  -3.436  1.00  0.00     0.166 HD
ATOM     21  C   UNL d   1      -2.268   4.392  -4.710  0.00  0.00     0.049 A 
ATOM     22  C   UNL d   1      -1.354   5.003  -3.865  0.00  0.00     0.029 A 
ATOM     23 CL   UNL d   1      -3.031   5.274  -5.967  0.00  0.00    -0.083 Cl
ATOM     24  C   UNL d   1      -0.770   4.254  -2.840  0.00  0.00     0.050 A 
ENDBRANCH  15  17
ENDBRANCH   2  15
TORSDOF 4
