REMARK  6 active torsions:
REMARK  status: ('A' for Active; 'I' for Inactive)
REMARK    1  A    between atoms: C_6  and  C_1 
REMARK    2  A    between atoms: C_9  and  C_2 
REMARK    3  A    between atoms: C_10  and  N_3 
REMARK    4  A    between atoms: C_8  and  C_15 
REMARK    5  A    between atoms: O_20  and  C_9 
REMARK    6  A    between atoms: N_11  and  O_20 
ROOT
ATOM      1  C   UNL d   1       1.006  -0.878   0.009  0.00  0.00     0.158 C 
ATOM      2  C   UNL d   1      -0.325  -1.276   0.025  0.00  0.00     0.091 C 
ATOM      3  N   UNL d   1       1.010   0.501   0.087  0.00  0.00    -0.251 N 
ATOM      4  N   UNL d   1      -0.242   0.968   0.359  0.00  0.00    -0.303 N 
ATOM      5  HN  UNL d   1      -0.509   1.922   0.601  1.00  0.00     0.186 HD
ATOM      6  C   UNL d   1      -1.040  -0.090   0.240  0.00  0.00     0.127 C 
ENDROOT
BRANCH   2   7
ATOM      7  C   UNL d   1      -0.842  -2.616  -0.157  0.00  0.00     0.318 C 
ATOM      8  O   UNL d   1      -0.237  -3.477  -0.780  0.00  0.00    -0.257 OA
BRANCH   7   9
ATOM      9  O   UNL d   1      -2.082  -2.783   0.421  0.00  0.00    -0.195 OA
BRANCH   9  10
ATOM     10  N   UNL d   1      -2.924  -3.390  -0.524  0.00  0.00    -0.268 N 
ATOM     11  C   UNL d   1      -3.878  -4.045   0.052  0.00  0.00     0.130 C 
ATOM     12  HN  UNL d   1      -2.799  -3.323  -1.534  1.00  0.00     0.194 HD
BRANCH  11  13
ATOM     13  C   UNL d   1      -4.952  -4.667  -0.752  0.00  0.00     0.042 A 
ATOM     14  C   UNL d   1      -5.037  -4.401  -2.126  0.00  0.00     0.129 A 
ATOM     15  F   UNL d   1      -4.152  -3.607  -2.746  0.00  0.00    -0.205 F 
ATOM     16  C   UNL d   1      -6.063  -4.931  -2.903  0.00  0.00     0.043 A 
ATOM     17  C   UNL d   1      -7.028  -5.740  -2.319  0.00  0.00     0.005 A 
ATOM     18  C   UNL d   1      -6.957  -6.022  -0.954  0.00  0.00     0.025 A 
ATOM     19  C   UNL d   1      -5.924  -5.490  -0.168  0.00  0.00     0.048 A 
ATOM     20 CL   UNL d   1      -5.924  -5.899   1.510  0.00  0.00    -0.083 Cl
ENDBRANCH  11  13
ENDBRANCH   9  10
ENDBRANCH   7   9
ENDBRANCH   2   7
BRANCH   1  21
ATOM     21  C   UNL d   1       2.223  -1.704   0.023  0.00  0.00     0.435 C 
ATOM     22  F   UNL d   1       1.999  -2.943   0.527  0.00  0.00    -0.165 F 
ATOM     23  F   UNL d   1       2.750  -1.865  -1.214  0.00  0.00    -0.165 F 
ATOM     24  F   UNL d   1       3.193  -1.169   0.807  0.00  0.00    -0.165 F 
ENDBRANCH   1  21
BRANCH   3  25
ATOM     25  C   UNL d   1       2.066   1.451  -0.067  0.00  0.00     0.057 A 
ATOM     26  C   UNL d   1       3.219   1.178  -0.813  0.00  0.00     0.033 A 
ATOM     27  C   UNL d   1       4.233   2.138  -0.921  0.00  0.00     0.026 A 
ATOM     28  C   UNL d   1       4.096   3.374  -0.296  0.00  0.00     0.034 A 
ATOM     29  C   UNL d   1       2.941   3.672   0.421  0.00  0.00     0.026 A 
ATOM     30 CL   UNL d   1       5.352   4.543  -0.423  0.00  0.00    -0.084 Cl
ATOM     31  C   UNL d   1       1.923   2.720   0.524  0.00  0.00     0.033 A 
ENDBRANCH   3  25
TORSDOF 6
