REMARK  5 active torsions:
REMARK  status: ('A' for Active; 'I' for Inactive)
REMARK    1  A    between atoms: C_7  and  C_1 
REMARK    2  A    between atoms: C_10  and  C_3 
REMARK    3  A    between atoms: S_15  and  C_11 
REMARK    4  A    between atoms: C_21  and  S_15 
REMARK    5  A    between atoms: C_23  and  C_21 
ROOT
ATOM      1  C   UNL d   1      -0.335  -2.585  -0.034  0.00  0.00     0.054 A 
ATOM      2  N   UNL d   1       0.212  -3.244   1.009  0.00  0.00    -0.336 N 
ATOM      3  HN  UNL d   1       0.718  -2.752   1.745  1.00  0.00     0.168 HD
ATOM      4  C   UNL d   1       0.058  -4.578   1.035  0.00  0.00     0.144 A 
ATOM      5  N   UNL d   1      -0.586  -5.290   0.100  0.00  0.00    -0.347 N 
ATOM      6  HN  UNL d   1      -0.676  -6.304   0.165  1.00  0.00     0.167 HD
ATOM      7  C   UNL d   1      -1.008  -3.236  -1.049  0.00  0.00     0.048 A 
ATOM      8  C   UNL d   1      -1.108  -4.599  -0.927  0.00  0.00     0.092 A 
ENDROOT
BRANCH   1   9
ATOM      9  C   UNL d   1      -0.166  -1.127   0.013  0.00  0.00     0.056 A 
ATOM     10  S   UNL d   1      -1.356  -0.083  -0.662  0.00  0.00    -0.067 SA
ATOM     11  C   UNL d   1      -0.472   1.296  -0.159  0.00  0.00     0.092 A 
ATOM     12  N   UNL d   1       0.656   1.025   0.464  0.00  0.00    -0.352 N 
ATOM     13  C   UNL d   1       0.839  -0.349   0.578  0.00  0.00     0.025 A 
ATOM     14  HN  UNL d   1       1.307   1.728   0.815  1.00  0.00     0.166 HD
ATOM     15  C   UNL d   1       2.067  -0.823   1.271  0.00  0.00     0.070 C 
BRANCH  11  16
ATOM     16  C   UNL d   1      -0.905   2.659  -0.380  0.00  0.00     0.038 A 
ATOM     17  S   UNL d   1      -2.373   3.076  -1.173  0.00  0.00    -0.099 SA
ATOM     18  C   UNL d   1      -2.095   4.750  -0.984  0.00  0.00     0.050 A 
ATOM     19  C   UNL d   1      -0.908   5.004  -0.336  0.00  0.00     0.008 A 
ATOM     20  C   UNL d   1      -0.225   3.802   0.010  0.00  0.00     0.022 A 
ENDBRANCH  11  16
ENDBRANCH   1   9
BRANCH   4  21
ATOM     21  S   UNL d   1       0.772  -5.492   2.377  0.00  0.00    -0.089 SA
BRANCH  21  22
ATOM     22  C   UNL d   1       0.746  -4.207   3.656  0.00  0.00     0.121 C 
BRANCH  22  23
ATOM     23  C   UNL d   1       1.289  -4.709   4.973  0.00  0.00    -0.048 A 
ATOM     24  C   UNL d   1       2.656  -4.585   5.270  0.00  0.00     0.009 A 
ATOM     25  C   UNL d   1       3.159  -5.028   6.496  0.00  0.00     0.024 A 
ATOM     26  C   UNL d   1       2.299  -5.604   7.428  0.00  0.00     0.034 A 
ATOM     27  C   UNL d   1       0.943  -5.750   7.142  0.00  0.00     0.024 A 
ATOM     28 CL   UNL d   1       2.916  -6.136   8.944  0.00  0.00    -0.084 Cl
ATOM     29  C   UNL d   1       0.440  -5.307   5.916  0.00  0.00     0.009 A 
ENDBRANCH  22  23
ENDBRANCH  21  22
ENDBRANCH   4  21
TORSDOF 5
