REMARK  4 active torsions:
REMARK  status: ('A' for Active; 'I' for Inactive)
REMARK    1  A    between atoms: C_8  and  C_7 
REMARK    2  A    between atoms: O_18  and  C_9 
REMARK    3  A    between atoms: O_17  and  C_10 
REMARK    4  A    between atoms: O_19  and  C_16 
ROOT
ATOM      1  C   UNL d   1       3.673  -1.099   0.361  0.00  0.00     0.032 A 
ATOM      2  C   UNL d   1       3.730  -2.023  -0.708  0.00  0.00     0.083 A 
ATOM      3  C   UNL d   1       4.519  -1.304   1.469  0.00  0.00     0.083 A 
ATOM      4  C   UNL d   1       5.368  -2.419   1.504  0.00  0.00     0.074 A 
ATOM      5  C   UNL d   1       4.562  -3.150  -0.638  0.00  0.00     0.074 A 
ATOM      6  C   UNL d   1       5.372  -3.357   0.474  0.00  0.00     0.073 A 
ENDROOT
BRANCH   1   7
ATOM      7  C   UNL d   1       2.754   0.047   0.297  0.00  0.00     0.040 C 
ATOM      8  C   UNL d   1       1.425   0.011   0.510  0.00  0.00     0.101 A 
ATOM      9  C   UNL d   1       0.685   1.282   0.297  0.00  0.00     0.263 A 
ATOM     10  C   UNL d   1       0.679  -1.205   0.941  0.00  0.00     0.263 A 
ATOM     11  N   UNL d   1      -0.671   1.206   0.457  0.00  0.00    -0.299 N 
ATOM     12  O   UNL d   1       1.226   2.337  -0.018  0.00  0.00    -0.267 OA
ATOM     13  C   UNL d   1      -1.381   0.092   0.783  0.00  0.00     0.181 A 
ATOM     14  H   UNL d   1      -1.182   2.065   0.302  0.00  0.00     0.171 HD
ATOM     15  N   UNL d   1      -0.683  -1.056   0.990  0.00  0.00    -0.299 N 
ATOM     16  S   UNL d   1      -3.035   0.135   0.929  0.00  0.00    -0.040 SA
ATOM     17  H   UNL d   1      -1.195  -1.878   1.280  0.00  0.00     0.171 HD
ATOM     18  O   UNL d   1       1.196  -2.255   1.288  0.00  0.00    -0.267 OA
ENDBRANCH   1   7
BRANCH   2  19
ATOM     19  O   UNL d   1       2.945  -1.977  -1.837  0.00  0.00    -0.355 OA
ATOM     20  C   UNL d   1       2.992  -0.755  -2.570  0.00  0.00     0.210 C 
ENDBRANCH   2  19
BRANCH   3  21
ATOM     21  O   UNL d   1       4.695  -0.455   2.534  0.00  0.00    -0.355 OA
ATOM     22  C   UNL d   1       3.520   0.034   3.167  0.00  0.00     0.210 C 
ENDBRANCH   3  21
BRANCH   6  23
ATOM     23  O   UNL d   1       6.228  -4.412   0.648  0.00  0.00    -0.356 OA
ATOM     24  C   UNL d   1       5.917  -5.592  -0.084  0.00  0.00     0.210 C 
ENDBRANCH   6  23
TORSDOF 4
