REMARK  5 active torsions:
REMARK  status: ('A' for Active; 'I' for Inactive)
REMARK    1  A    between atoms: C_9  and  C_1 
REMARK    2  A    between atoms: N_8  and  C_2 
REMARK    3  A    between atoms: C_13  and  C_4 
REMARK    4  A    between atoms: C_5  and  C_7 
REMARK       I    between atoms: C_7  and  N_8 
REMARK       I    between atoms: N_17  and  C_9 
REMARK    5  A    between atoms: C_16  and  C_10 
ROOT
ATOM      1  C   UNL d   1      -2.175   2.373  -0.096  0.00  0.00     0.113 C 
ATOM      2  C   UNL d   1      -3.512   2.185  -0.072  0.00  0.00     0.039 C 
ATOM      3  C   UNL d   1      -1.594   3.553  -0.645  0.00  0.00     0.105 C 
ATOM      4  N   UNL d   1      -1.117   4.510  -1.096  0.00  0.00    -0.191 NA
ENDROOT
BRANCH   1   5
ATOM      5  C   UNL d   1      -1.280   1.246   0.371  0.00  0.00     0.266 C 
ATOM      6  N   UNL d   1       0.006   1.600   0.740  0.00  0.00    -0.321 N 
ATOM      7  H   UNL d   1       0.205   2.567   1.000  0.00  0.00     0.169 HD
ATOM      8  O   UNL d   1      -1.726   0.102   0.448  0.00  0.00    -0.267 OA
BRANCH   6   9
ATOM      9  C   UNL d   1       1.052   0.692   0.990  0.00  0.00     0.058 A 
ATOM     10  C   UNL d   1       2.109   0.993   1.837  0.00  0.00     0.099 A 
ATOM     11  S   UNL d   1       3.279  -0.252   1.871  0.00  0.00    -0.086 SA
ATOM     12  C   UNL d   1       2.434  -1.224   0.740  0.00  0.00    -0.007 A 
ATOM     13  C   UNL d   1       1.224  -0.618   0.414  0.00  0.00     0.046 A 
BRANCH  10  14
ATOM     14  C   UNL d   1       2.280   2.168   2.675  0.00  0.00     0.258 C 
ATOM     15  O   UNL d   1       1.569   3.170   2.592  0.00  0.00    -0.267 OA
ATOM     16  N   UNL d   1       3.267   2.108   3.625  0.00  0.00    -0.365 N 
ATOM     17  H   UNL d   1       3.810   1.268   3.765  0.00  0.00     0.159 HD
ATOM     18  H   UNL d   1       3.356   2.869   4.282  0.00  0.00     0.159 HD
ENDBRANCH  10  14
BRANCH  12  19
ATOM     19  C   UNL d   1       3.070  -2.541   0.251  0.00  0.00    -0.018 C 
ATOM     20  C   UNL d   1       3.231  -3.540   1.416  0.00  0.00     0.020 C 
ATOM     21  C   UNL d   1       2.204  -3.210  -0.832  0.00  0.00     0.020 C 
ATOM     22  C   UNL d   1       4.466  -2.280  -0.364  0.00  0.00     0.020 C 
ENDBRANCH  12  19
ENDBRANCH   6   9
ENDBRANCH   1   5
BRANCH   2  23
ATOM     23  C   UNL d   1      -4.526   3.117  -0.588  0.00  0.00    -0.035 A 
ATOM     24  C   UNL d   1      -4.870   3.109  -1.947  0.00  0.00     0.013 A 
ATOM     25  C   UNL d   1      -5.833   3.998  -2.442  0.00  0.00     0.024 A 
ATOM     26  C   UNL d   1      -6.457   4.895  -1.579  0.00  0.00     0.034 A 
ATOM     27  C   UNL d   1      -6.123   4.915  -0.227  0.00  0.00     0.024 A 
ATOM     28 CL   UNL d   1      -7.653   5.975  -2.184  0.00  0.00    -0.084 Cl
ATOM     29  C   UNL d   1      -5.160   4.026   0.269  0.00  0.00     0.013 A 
ENDBRANCH   2  23
TORSDOF 5
