REMARK  6 active torsions:
REMARK  status: ('A' for Active; 'I' for Inactive)
REMARK    1  A    between atoms: C_5  and  C_1 
REMARK    2  A    between atoms: C_4  and  C_6 
REMARK       I    between atoms: N_13  and  C_5 
REMARK    3  A    between atoms: C_8  and  N_14 
REMARK    4  A    between atoms: N_12  and  C_8 
REMARK    5  A    between atoms: C_9  and  N_12 
REMARK    6  A    between atoms: N_14  and  N_13 
ROOT
ATOM      1  C   UNL d   1       5.447  -0.804   0.123  0.00  0.00     0.191 C 
ATOM      2  S   UNL d   1       6.286   0.582   0.536  0.00  0.00    -0.039 SA
ENDROOT
BRANCH   1   3
ATOM      3  N   UNL d   1       4.136  -0.855  -0.289  0.00  0.00    -0.273 N 
ATOM      4  H   UNL d   1       3.614  -1.690  -0.023  0.00  0.00     0.189 HD
BRANCH   3   5
ATOM      5  N   UNL d   1       3.362   0.303  -0.406  0.00  0.00    -0.262 N 
ATOM      6  C   UNL d   1       2.068   0.313   0.076  0.00  0.00     0.287 C 
ATOM      7  O   UNL d   1       1.605  -0.556   0.807  0.00  0.00    -0.264 OA
ATOM      8  H   UNL d   1       3.645   1.013  -1.080  0.00  0.00     0.190 HD
BRANCH   6   9
ATOM      9  C   UNL d   1       1.297   1.446  -0.436  0.00  0.00     0.109 A 
ATOM     10  N   UNL d   1       1.803   2.259  -1.456  0.00  0.00    -0.349 N 
ATOM     11  C   UNL d   1       0.905   3.156  -1.803  0.00  0.00     0.047 A 
ATOM     12  HN  UNL d   1       2.731   2.170  -1.869  1.00  0.00     0.166 HD
ATOM     13  C   UNL d   1       1.084   4.140  -2.905  0.00  0.00     0.076 C 
ATOM     14  S   UNL d   1      -0.561   3.121  -0.908  0.00  0.00    -0.087 SA
ATOM     15  C   UNL d   1       0.025   1.783  -0.013  0.00  0.00     0.086 A 
ENDBRANCH   6   9
ENDBRANCH   3   5
ENDBRANCH   1   3
BRANCH   1  16
ATOM     16  N   UNL d   1       6.088  -2.015   0.224  0.00  0.00    -0.331 N 
ATOM     17  H   UNL d   1       6.897  -1.991   0.842  0.00  0.00     0.168 HD
BRANCH  16  18
ATOM     18  C   UNL d   1       5.896  -3.198  -0.533  0.00  0.00     0.049 A 
ATOM     19  C   UNL d   1       6.471  -4.412  -0.113  0.00  0.00     0.074 A 
ATOM     20  C   UNL d   1       6.325  -5.559  -0.925  0.00  0.00     0.018 A 
ATOM     21  C   UNL d   1       5.639  -5.506  -2.135  0.00  0.00     0.001 A 
ATOM     22  C   UNL d   1       5.086  -4.305  -2.555  0.00  0.00     0.002 A 
ATOM     23  C   UNL d   1       5.217  -3.162  -1.763  0.00  0.00     0.030 A 
BRANCH  19  24
ATOM     24  C   UNL d   1       7.208  -4.585   1.191  0.00  0.00     0.419 C 
ATOM     25  F   UNL d   1       7.438  -3.425   1.870  0.00  0.00    -0.166 F 
ATOM     26  F   UNL d   1       6.543  -5.399   2.058  0.00  0.00    -0.166 F 
ATOM     27  F   UNL d   1       8.436  -5.152   1.021  0.00  0.00    -0.166 F 
ENDBRANCH  19  24
ENDBRANCH  16  18
ENDBRANCH   1  16
TORSDOF 6
