REMARK  0 active torsions:
REMARK  status: ('A' for Active; 'I' for Inactive)
ROOT
ATOM      1  C   UNL d   1      -2.541   0.088  -0.002  0.00  0.00     0.144 A 
ATOM      2  N   UNL d   1      -1.569   1.067  -0.002  0.00  0.00    -0.340 N 
ATOM      3  S   UNL d   1      -1.784  -1.510  -0.005  0.00  0.00    -0.059 SA
ATOM      4  C   UNL d   1      -0.252   0.604  -0.003  0.00  0.00     0.052 A 
ATOM      5  C   UNL d   1      -0.166  -0.789  -0.004  0.00  0.00     0.034 A 
ATOM      6  C   UNL d   1       0.877   1.402  -0.000  0.00  0.00     0.050 A 
ATOM      7  S   UNL d   1      -4.167   0.403   0.002  0.00  0.00    -0.052 SA
ATOM      8  C   UNL d   1       1.062  -1.428  -0.004  0.00  0.00     0.023 A 
ATOM      9  C   UNL d   1       2.119   0.762   0.001  0.00  0.00     0.013 A 
ATOM     10  C   UNL d   1       2.217  -0.640  -0.001  0.00  0.00     0.020 A 
ATOM     11 BR   UNL d   1       3.702   1.798   0.008  0.00  0.00    -0.051 Br
ATOM     12  H   UNL d   1      -1.815   2.048   0.001  0.00  0.00     0.167 HD
ENDROOT
TORSDOF 0
