REMARK  6 active torsions:
REMARK  status: ('A' for Active; 'I' for Inactive)
REMARK    1  A    between atoms: C_9  and  C_5 
REMARK    2  A    between atoms: N_7  and  C_10 
REMARK    3  A    between atoms: N_8  and  C_15 
REMARK       I    between atoms: N_21  and  C_9 
REMARK    4  A    between atoms: C_28  and  N_21 
REMARK    5  A    between atoms: C_30  and  C_28 
REMARK    6  A    between atoms: C_31  and  C_30 
ROOT
ATOM      1  C   UNL d   1      -1.582   0.422   0.161  0.00  0.00     0.002 A 
ATOM      2  C   UNL d   1       0.754  -0.020   0.158  0.00  0.00     0.018 A 
ATOM      3  C   UNL d   1      -0.299   1.057   0.231  0.00  0.00    -0.008 A 
ATOM      4  C   UNL d   1       0.030  -1.334   0.178  0.00  0.00    -0.009 A 
ATOM      5  C   UNL d   1      -2.732   1.233   0.084  0.00  0.00     0.046 C 
ATOM      6  C   UNL d   1      -1.365  -1.040   0.187  0.00  0.00    -0.013 A 
ATOM      7  C   UNL d   1      -1.339   3.220   0.376  0.00  0.00     0.104 C 
ATOM      8  C   UNL d   1       2.097   0.154   0.022  0.00  0.00     0.136 C 
ATOM      9  C   UNL d   1      -0.181   2.441   0.356  0.00  0.00     0.049 C 
ATOM     10  C   UNL d   1      -2.598   2.626   0.260  0.00  0.00     0.054 C 
ATOM     11  C   UNL d   1       0.492  -2.650   0.228  0.00  0.00     0.049 A 
ATOM     12  C   UNL d   1      -0.438  -3.693   0.299  0.00  0.00     0.103 A 
ATOM     13  C   UNL d   1       2.706   1.438  -0.085  0.00  0.00     0.111 C 
ATOM     14  C   UNL d   1       3.035  -0.917  -0.068  0.00  0.00     0.111 C 
ATOM     15  N   UNL d   1       3.210   2.479  -0.189  0.00  0.00    -0.191 NA
ATOM     16  N   UNL d   1       3.820  -1.773  -0.143  0.00  0.00    -0.191 NA
ATOM     17  C   UNL d   1      -2.269  -2.096   0.292  0.00  0.00     0.015 A 
ATOM     18  C   UNL d   1      -1.810  -3.421   0.350  0.00  0.00     0.037 A 
ENDROOT
BRANCH   5  19
ATOM     19  C   UNL d   1      -4.135   0.775  -0.155  0.00  0.00     0.254 C 
ATOM     20  N   UNL d   1      -4.937   1.526  -1.043  0.00  0.00    -0.352 N 
ATOM     21  C   UNL d   1      -4.372   2.104  -2.265  0.00  0.00     0.152 C 
ATOM     22  O   UNL d   1      -4.565  -0.157   0.512  0.00  0.00    -0.267 OA
BRANCH  20  23
ATOM     23  C   UNL d   1      -6.371   1.221  -1.135  0.00  0.00     0.125 C 
BRANCH  23  24
ATOM     24  C   UNL d   1      -7.171   1.219   0.174  0.00  0.00     0.020 C 
BRANCH  24  25
ATOM     25  C   UNL d   1      -7.146   2.550   0.927  0.00  0.00    -0.003 C 
ATOM     26  C   UNL d   1      -7.972   2.459   2.205  0.00  0.00     0.005 C 
ENDBRANCH  24  25
ENDBRANCH  23  24
ENDBRANCH  20  23
ENDBRANCH   5  19
BRANCH   7  27
ATOM     27  N   UNL d   1      -1.239   4.684   0.458  0.00  0.00    -0.116 N 
ATOM     28  O   UNL d   1      -0.116   5.174   0.629  0.00  0.00    -0.532 OA
ATOM     29  O   UNL d   1      -2.284   5.337   0.332  0.00  0.00    -0.532 OA
ENDBRANCH   7  27
BRANCH  12  30
ATOM     30  N   UNL d   1       0.032  -5.088   0.327  0.00  0.00    -0.116 N 
ATOM     31  O   UNL d   1       1.255  -5.281   0.352  0.00  0.00    -0.532 OA
ATOM     32  O   UNL d   1      -0.822  -5.984   0.314  0.00  0.00    -0.532 OA
ENDBRANCH  12  30
TORSDOF 6
