REMARK  7 active torsions:
REMARK  status: ('A' for Active; 'I' for Inactive)
REMARK    1  A    between atoms: C_4  and  S_16 
REMARK    2  A    between atoms: C_25  and  C_5 
REMARK    3  A    between atoms: C_8  and  C_17 
REMARK    4  A    between atoms: C_21  and  C_9 
REMARK    5  A    between atoms: S_16  and  C_21 
REMARK    6  A    between atoms: O_26  and  C_25 
REMARK    7  A    between atoms: C_27  and  O_26 
ROOT
ATOM      1  C   UNL d   1       5.096  -3.990   0.068  0.00  0.00     0.084 A 
ATOM      2  C   UNL d   1       3.699  -3.831   0.073  0.00  0.00     0.091 A 
ATOM      3  N   UNL d   1       2.834  -4.872   0.141  0.00  0.00    -0.353 N 
ATOM      4  HN  UNL d   1       1.824  -4.724   0.142  1.00  0.00     0.166 HD
ATOM      5  C   UNL d   1       5.628  -5.282   0.135  0.00  0.00    -0.037 A 
ATOM      6  C   UNL d   1       5.968  -2.848  -0.001  0.00  0.00     0.103 C 
ATOM      7  N   UNL d   1       6.702  -1.954  -0.058  0.00  0.00    -0.191 NA
ATOM      8  C   UNL d   1       3.365  -6.120   0.206  0.00  0.00     0.006 A 
ATOM      9  C   UNL d   1       4.738  -6.357   0.205  0.00  0.00     0.033 A 
ATOM     10  C   UNL d   1       7.106  -5.559   0.139  0.00  0.00     0.050 C 
ATOM     11  C   UNL d   1       2.421  -7.284   0.287  0.00  0.00     0.068 C 
ENDROOT
BRANCH   2  12
ATOM     12  S   UNL d   1       3.029  -2.189  -0.001  0.00  0.00    -0.103 SA
BRANCH  12  13
ATOM     13  C   UNL d   1       1.206  -2.385   0.022  0.00  0.00     0.167 C 
BRANCH  13  14
ATOM     14  C   UNL d   1       0.631  -1.006  -0.011  0.00  0.00     0.158 A 
ATOM     15  N   UNL d   1       1.267   0.145  -0.031  0.00  0.00    -0.324 N 
ATOM     16  C   UNL d   1       0.254   1.055  -0.052  0.00  0.00     0.128 A 
ATOM     17  HN  UNL d   1       2.273   0.314  -0.031  1.00  0.00     0.169 HD
ATOM     18  N   UNL d   1      -0.976   0.524  -0.019  0.00  0.00    -0.245 N 
ATOM     19  O   UNL d   1      -0.727  -0.862  -0.002  0.00  0.00    -0.222 OA
ATOM     20  HN  UNL d   1      -1.875   1.006  -0.009  1.00  0.00     0.196 HD
BRANCH  16  21
ATOM     21  C   UNL d   1       0.554   2.511  -0.038  0.00  0.00     0.254 C 
BRANCH  21  22
ATOM     22  O   UNL d   1       0.712   3.036  -1.363  0.00  0.00    -0.344 OA
BRANCH  22  23
ATOM     23  C   UNL d   1       1.057   4.356  -1.455  0.00  0.00     0.070 A 
ATOM     24  C   UNL d   1       1.222   5.226  -0.375  0.00  0.00     0.052 A 
ATOM     25  C   UNL d   1       1.544   6.577  -0.582  0.00  0.00     0.050 A 
ATOM     26  C   UNL d   1       1.723   7.042  -1.892  0.00  0.00     0.016 A 
ATOM     27  C   UNL d   1       1.574   6.174  -2.973  0.00  0.00     0.004 A 
ATOM     28  C   UNL d   1       1.238   4.837  -2.752  0.00  0.00     0.037 A 
BRANCH  25  29
ATOM     29  C   UNL d   1       1.683   7.515   0.592  0.00  0.00     0.417 C 
ATOM     30  F   UNL d   1       1.451   6.913   1.794  0.00  0.00    -0.166 F 
ATOM     31  F   UNL d   1       2.925   8.061   0.683  0.00  0.00    -0.166 F 
ATOM     32  F   UNL d   1       0.813   8.560   0.529  0.00  0.00    -0.166 F 
ENDBRANCH  25  29
ENDBRANCH  22  23
ENDBRANCH  21  22
ENDBRANCH  16  21
ENDBRANCH  13  14
ENDBRANCH  12  13
ENDBRANCH   2  12
TORSDOF 7
