REMARK  8 active torsions:
REMARK  status: ('A' for Active; 'I' for Inactive)
REMARK    1  A    between atoms: C_4  and  S_1 
REMARK    2  A    between atoms: N_12  and  S_1 
REMARK    3  A    between atoms: C_7  and  C_2 
REMARK    4  A    between atoms: N_6  and  C_19 
REMARK    5  A    between atoms: O_18  and  C_7 
REMARK    6  A    between atoms: O_22  and  C_9 
REMARK    7  A    between atoms: C_17  and  N_12 
REMARK    8  A    between atoms: C_19  and  C_17 
ROOT
ATOM      1  S   UNL d   1       0.887  -0.034   0.035  0.00  0.00     0.258 S 
ATOM      2  O   UNL d   1       0.521  -1.421  -0.105  0.00  0.00    -0.201 OA
ATOM      3  O   UNL d   1       0.420   0.780   1.137  0.00  0.00    -0.201 OA
ENDROOT
BRANCH   1   4
ATOM      4  C   UNL d   1       0.450   0.790  -1.480  0.00  0.00     0.080 A 
ATOM      5  C   UNL d   1       0.964   0.306  -2.688  0.00  0.00     0.046 A 
ATOM      6  C   UNL d   1       0.731   1.005  -3.881  0.00  0.00     0.072 A 
ATOM      7  C   UNL d   1      -0.056   2.168  -3.843  0.00  0.00     0.082 A 
ATOM      8  C   UNL d   1      -0.591   2.635  -2.638  0.00  0.00     0.039 A 
ATOM      9  C   UNL d   1      -0.334   1.948  -1.450  0.00  0.00     0.028 A 
BRANCH   6  10
ATOM     10  C   UNL d   1       1.367   0.462  -5.117  0.00  0.00     0.179 C 
ATOM     11  O   UNL d   1       2.047  -0.553  -5.104  0.00  0.00    -0.646 OA
BRANCH  10  12
ATOM     12  O   UNL d   1       1.142   1.167  -6.245  0.00  0.00    -0.773 OA
ATOM     13  H   UNL d   1       0.591   1.964  -6.083  0.00  0.00     0.167 HD
ENDBRANCH  10  12
ENDBRANCH   6  10
BRANCH   7  14
ATOM     14  O   UNL d   1      -0.305   2.866  -4.998  0.00  0.00    -0.360 OA
ATOM     15  H   UNL d   1      -0.863   3.639  -4.785  0.00  0.00     0.217 HD
ENDBRANCH   7  14
ENDBRANCH   1   4
BRANCH   1  16
ATOM     16  N   UNL d   1       2.576   0.044   0.028  0.00  0.00    -0.314 N 
ATOM     17  H   UNL d   1       2.983  -0.712  -0.527  0.00  0.00     0.172 HD
BRANCH  16  18
ATOM     18  C   UNL d   1       3.175   1.384  -0.095  0.00  0.00     0.152 C 
BRANCH  18  19
ATOM     19  C   UNL d   1       4.703   1.319  -0.059  0.00  0.00     0.148 C 
BRANCH  19  20
ATOM     20  N   UNL d   1       5.323   2.605  -0.321  0.00  0.00    -0.331 N 
ATOM     21  C   UNL d   1       5.127   3.355  -1.478  0.00  0.00     0.318 C 
ATOM     22  N   UNL d   1       5.814   4.549  -1.321  0.00  0.00    -0.341 N 
ATOM     23  O   UNL d   1       4.468   3.047  -2.455  0.00  0.00    -0.247 OA
ATOM     24  C   UNL d   1       6.669   4.477  -0.166  0.00  0.00     0.144 C 
ATOM     25  H   UNL d   1       5.962   5.135  -2.133  0.00  0.00     0.164 HD
ATOM     26  C   UNL d   1       6.014   3.390   0.679  0.00  0.00     0.147 C 
ENDBRANCH  19  20
ENDBRANCH  18  19
ENDBRANCH  16  18
ENDBRANCH   1  16
TORSDOF 8
