REMARK  6 active torsions:
REMARK  status: ('A' for Active; 'I' for Inactive)
REMARK    1  A    between atoms: O_7  and  C_2 
REMARK    2  A    between atoms: O_6  and  C_3 
REMARK    3  A    between atoms: C_9  and  O_6 
REMARK    4  A    between atoms: C_8  and  O_7 
REMARK    5  A    between atoms: O_22  and  C_10 
REMARK    6  A    between atoms: O_23  and  C_11 
ROOT
ATOM      1  C   UNL d   1      -0.572  -0.114   0.175  0.00  0.00     0.112 C 
ATOM      2  C   UNL d   1       0.044   1.146   0.077  0.00  0.00     0.099 C 
ATOM      3  C   UNL d   1       0.229  -1.265   0.046  0.00  0.00     0.099 C 
ATOM      4  C   UNL d   1      -1.968  -0.280   0.485  0.00  0.00     0.105 C 
ATOM      5  N   UNL d   1      -3.083  -0.434   0.759  0.00  0.00    -0.191 NA
ATOM      6  C   UNL d   1       1.444   1.233  -0.008  0.00  0.00     0.039 C 
ATOM      7  C   UNL d   1       1.629  -1.154   0.063  0.00  0.00     0.039 C 
ATOM      8  C   UNL d   1       2.236   0.093   0.018  0.00  0.00     0.006 C 
ENDROOT
BRANCH   2   9
ATOM      9  O   UNL d   1      -0.550   2.385   0.154  0.00  0.00    -0.309 OA
BRANCH   9  10
ATOM     10  C   UNL d   1      -1.767   2.642  -0.423  0.00  0.00     0.076 C 
ATOM     11  C   UNL d   1      -2.515   3.637   0.209  0.00  0.00     0.040 C 
ATOM     12  C   UNL d   1      -3.815   3.916  -0.210  0.00  0.00     0.039 C 
ATOM     13  C   UNL d   1      -4.372   3.193  -1.263  0.00  0.00     0.068 C 
ATOM     14  C   UNL d   1      -3.582   2.284  -1.970  0.00  0.00     0.039 C 
ATOM     15  C   UNL d   1      -2.269   2.023  -1.568  0.00  0.00     0.040 C 
BRANCH  13  16
ATOM     16  O   UNL d   1      -5.665   3.330  -1.690  0.00  0.00    -0.356 OA
ATOM     17  C   UNL d   1      -6.600   3.578  -0.641  0.00  0.00     0.210 C 
ENDBRANCH  13  16
ENDBRANCH   9  10
ENDBRANCH   2   9
BRANCH   3  18
ATOM     18  O   UNL d   1      -0.393  -2.499  -0.097  0.00  0.00    -0.309 OA
BRANCH  18  19
ATOM     19  C   UNL d   1       0.236  -3.438  -0.895  0.00  0.00     0.076 C 
ATOM     20  C   UNL d   1       0.215  -4.762  -0.460  0.00  0.00     0.040 C 
ATOM     21  C   UNL d   1       0.990  -5.729  -1.117  0.00  0.00     0.039 C 
ATOM     22  C   UNL d   1       1.786  -5.369  -2.207  0.00  0.00     0.068 C 
ATOM     23  C   UNL d   1       1.720  -4.063  -2.696  0.00  0.00     0.039 C 
ATOM     24  C   UNL d   1       0.917  -3.110  -2.072  0.00  0.00     0.040 C 
BRANCH  22  25
ATOM     25  O   UNL d   1       2.666  -6.173  -2.873  0.00  0.00    -0.356 OA
ATOM     26  C   UNL d   1       2.830  -7.499  -2.391  0.00  0.00     0.210 C 
ENDBRANCH  22  25
ENDBRANCH  18  19
ENDBRANCH   3  18
TORSDOF 6
