REMARK  6 active torsions:
REMARK  status: ('A' for Active; 'I' for Inactive)
REMARK    1  A    between atoms: C_2  and  C_1 
REMARK    2  A    between atoms: C_3  and  C_1 
REMARK    3  A    between atoms: C_6  and  C_1 
REMARK       I    between atoms: N_4  and  C_2 
REMARK    4  A    between atoms: N_5  and  C_3 
REMARK    5  A    between atoms: C_7  and  N_5 
REMARK    6  A    between atoms: N_8  and  C_6 
ROOT
ATOM      1  C   UNL d   1       1.009   0.074   0.067  0.00  0.00     0.227 C 
ENDROOT
BRANCH   1   2
ATOM      2  C   UNL d   1       0.457  -1.043   0.933  0.00  0.00     0.243 C 
ATOM      3  N   UNL d   1       0.879  -2.358   0.723  0.00  0.00    -0.351 N 
ATOM      4  C   UNL d   1       0.356  -3.420   1.584  0.00  0.00     0.126 C 
ATOM      5  C   UNL d   1       1.754  -2.849  -0.347  0.00  0.00     0.126 C 
ATOM      6  C   UNL d   1      -0.438  -4.432   0.761  0.00  0.00     0.024 C 
ATOM      7  C   UNL d   1       0.391  -4.985  -0.411  0.00  0.00    -0.015 C 
ATOM      8  C   UNL d   1       1.010  -3.845  -1.231  0.00  0.00     0.024 C 
ATOM      9  C   UNL d   1      -0.469  -5.871  -1.309  0.00  0.00     0.010 C 
ATOM     10  O   UNL d   1      -0.426  -0.791   1.756  0.00  0.00    -0.271 OA
ENDBRANCH   1   2
BRANCH   1  11
ATOM     11  C   UNL d   1       0.588   1.518   0.542  0.00  0.00     0.103 C 
ATOM     12  S   UNL d   1       1.419   2.353   1.769  0.00  0.00    -0.063 SA
BRANCH  11  13
ATOM     13  N   UNL d   1      -0.547   2.065  -0.052  0.00  0.00    -0.349 N 
ATOM     14  H   UNL d   1      -1.389   1.489  -0.023  0.00  0.00     0.166 HD
BRANCH  13  15
ATOM     15  C   UNL d   1      -0.738   3.434  -0.390  0.00  0.00     0.038 C 
ATOM     16  C   UNL d   1      -1.983   4.072  -0.240  0.00  0.00    -0.035 C 
ATOM     17  C   UNL d   1      -2.214   5.301  -0.887  0.00  0.00     0.015 C 
ATOM     18  C   UNL d   1      -3.100   3.527   0.609  0.00  0.00     0.050 C 
ATOM     19  C   UNL d   1      -1.229   5.907  -1.675  0.00  0.00    -0.061 C 
ATOM     20  C   UNL d   1       0.041   5.331  -1.713  0.00  0.00     0.009 C 
ATOM     21  C   UNL d   1      -1.581   7.072  -2.551  0.00  0.00     0.048 C 
ATOM     22  C   UNL d   1       0.292   4.119  -1.063  0.00  0.00     0.030 C 
ENDBRANCH  13  15
ENDBRANCH  11  13
ENDBRANCH   1  11
BRANCH   1  23
ATOM     23  C   UNL d   1       2.529   0.074   0.067  0.00  0.00    -0.056 C 
BRANCH  23  24
ATOM     24  N   UNL d   1       3.790   0.074   0.067  0.00  0.00    -0.369 N 
ATOM     25  HN2 UNL d   1       2.770   0.074   0.067  1.00  0.00     0.165 HD
ATOM     26  HN1 UNL d   1       4.810   0.074   0.067  1.00  0.00     0.165 HD
ENDBRANCH  23  24
ENDBRANCH   1  23
TORSDOF 6
