REMARK  5 active torsions:
REMARK  status: ('A' for Active; 'I' for Inactive)
REMARK    1  A    between atoms: S_3  and  C_9 
REMARK    2  A    between atoms: C_10  and  S_3 
REMARK    3  A    between atoms: C_9  and  C_4 
REMARK    4  A    between atoms: C_12  and  C_5 
REMARK    5  A    between atoms: C_11  and  C_10 
ROOT
ATOM      1  N   UNL d   1       0.048   0.401  -1.109  0.00  0.00    -0.322 N 
ATOM      2  HN  UNL d   1       0.064   0.730  -2.074  1.00  0.00     0.169 HD
ATOM      3  C   UNL d   1       0.335   1.094   0.039  0.00  0.00     0.118 A 
ATOM      4  C   UNL d   1      -0.253  -0.797  -0.652  0.00  0.00     0.182 A 
ATOM      5  N   UNL d   1       0.206   0.384   1.167  0.00  0.00    -0.246 N 
ATOM      6  HN  UNL d   1       0.348   0.693   2.128  1.00  0.00     0.196 HD
ATOM      7  O   UNL d   1      -0.167  -0.880   0.710  0.00  0.00    -0.217 OA
ENDROOT
BRANCH   3   8
ATOM      8  C   UNL d   1       0.645   2.532   0.033  0.00  0.00     0.218 C 
BRANCH   8   9
ATOM      9  S   UNL d   1       2.394   2.855  -0.052  0.00  0.00     0.157 S 
ATOM     10  O   UNL d   1       2.563   4.299  -0.145  0.00  0.00    -0.227 OA
ATOM     11  O   UNL d   1       3.050   2.151   1.037  0.00  0.00    -0.227 OA
BRANCH   9  12
ATOM     12  C   UNL d   1       2.965   2.121  -1.578  0.00  0.00     0.205 C 
BRANCH  12  13
ATOM     13  C   UNL d   1       2.285   2.723  -2.746  0.00  0.00     0.066 A 
ATOM     14  O   UNL d   1       1.564   1.867  -3.525  0.00  0.00    -0.326 OA
ATOM     15  C   UNL d   1       1.076   2.586  -4.567  0.00  0.00     0.142 A 
ATOM     16  C   UNL d   1       1.469   3.899  -4.471  0.00  0.00     0.027 A 
ATOM     17  C   UNL d   1       2.254   3.990  -3.296  0.00  0.00     0.035 A 
ENDBRANCH  12  13
ENDBRANCH   9  12
ENDBRANCH   8   9
ENDBRANCH   3   8
BRANCH   4  18
ATOM     18  C   UNL d   1      -0.646  -2.003  -1.370  0.00  0.00     0.017 A 
ATOM     19  C   UNL d   1      -0.749  -1.976  -2.771  0.00  0.00     0.017 A 
ATOM     20  C   UNL d   1      -1.094  -3.128  -3.486  0.00  0.00     0.025 A 
ATOM     21  C   UNL d   1      -1.341  -4.317  -2.804  0.00  0.00     0.034 A 
ATOM     22  C   UNL d   1      -1.260  -4.360  -1.415  0.00  0.00     0.025 A 
ATOM     23 CL   UNL d   1      -1.737  -5.742  -3.681  0.00  0.00    -0.084 Cl
ATOM     24  C   UNL d   1      -0.916  -3.207  -0.701  0.00  0.00     0.017 A 
ENDBRANCH   4  18
TORSDOF 5
