REMARK  4 active torsions:
REMARK  status: ('A' for Active; 'I' for Inactive)
REMARK    1  A    between atoms: C_3  and  S_1 
REMARK    2  A    between atoms: N_12  and  S_1 
REMARK    3  A    between atoms: C_10  and  C_2 
REMARK    4  A    between atoms: C_8  and  C_11 
ROOT
ATOM      1  C   UNL d   1       0.433   0.810  -1.685  0.00  0.00     0.121 A 
ATOM      2  S   UNL d   1       0.907   2.436  -1.915  0.00  0.00    -0.074 SA
ATOM      3  C   UNL d   1       0.039   2.556  -3.379  0.00  0.00     0.034 A 
ATOM      4  C   UNL d   1      -0.332   0.351  -2.740  0.00  0.00     0.034 A 
ATOM      5  C   UNL d   1      -0.561   1.361  -3.718  0.00  0.00     0.023 A 
ENDROOT
BRANCH   3   6
ATOM      6  C   UNL d   1      -0.095   3.812  -4.184  0.00  0.00     0.067 A 
ATOM      7  C   UNL d   1       0.544   5.047  -3.943  0.00  0.00     0.068 A 
ATOM      8  C   UNL d   1       0.046   5.913  -4.900  0.00  0.00     0.136 A 
ATOM      9  N   UNL d   1      -0.856   5.179  -5.618  0.00  0.00    -0.292 N 
ATOM     10  N   UNL d   1      -0.907   3.887  -5.244  0.00  0.00    -0.297 N 
ATOM     11  C   UNL d   1      -1.781   5.636  -6.632  0.00  0.00     0.178 C 
ATOM     12  HN  UNL d   1      -1.445   3.134  -5.672  1.00  0.00     0.187 HD
BRANCH   8  13
ATOM     13  C   UNL d   1       0.336   7.339  -5.136  0.00  0.00     0.434 C 
ATOM     14  F   UNL d   1      -0.361   7.868  -6.171  0.00  0.00    -0.165 F 
ATOM     15  F   UNL d   1       0.044   8.089  -4.045  0.00  0.00    -0.165 F 
ATOM     16  F   UNL d   1       1.649   7.537  -5.410  0.00  0.00    -0.165 F 
ENDBRANCH   8  13
ENDBRANCH   3   6
BRANCH   1  17
ATOM     17  S   UNL d   1       0.978   0.023  -0.186  0.00  0.00     0.267 S 
ATOM     18  O   UNL d   1       0.521  -1.345  -0.328  0.00  0.00    -0.200 OA
ATOM     19  O   UNL d   1       0.508   0.872   0.887  0.00  0.00    -0.200 OA
BRANCH  17  20
ATOM     20  N   UNL d   1       2.646   0.010  -0.194  0.00  0.00    -0.302 N 
ATOM     21  C   UNL d   1       3.437   1.066   0.462  0.00  0.00     0.161 C 
ATOM     22  C   UNL d   1       4.470   1.655  -0.501  0.00  0.00     0.188 C 
ATOM     23  O   UNL d   1       5.275   0.627  -1.093  0.00  0.00    -0.388 OA
ATOM     24  C   UNL d   1       4.456  -0.255  -1.871  0.00  0.00     0.188 C 
ATOM     25  C   UNL d   1       3.398  -0.957  -1.014  0.00  0.00     0.161 C 
ENDBRANCH  17  20
ENDBRANCH   1  17
TORSDOF 4
