REMARK  5 active torsions:
REMARK  status: ('A' for Active; 'I' for Inactive)
REMARK    1  A    between atoms: C_4  and  C_1 
REMARK    2  A    between atoms: O_11  and  C_2 
REMARK       I    between atoms: N_13  and  C_4 
REMARK    3  A    between atoms: C_6  and  C_10 
REMARK    4  A    between atoms: C_16  and  O_11 
REMARK    5  A    between atoms: N_17  and  N_13 
ROOT
ATOM      1  C   UNL d   1      -1.792   0.124   2.243  0.00  0.00     0.147 A 
ATOM      2  C   UNL d   1      -1.200  -1.693   1.154  0.00  0.00     0.191 A 
ATOM      3  O   UNL d   1      -1.339  -0.343   1.038  0.00  0.00    -0.282 OA
ATOM      4  C   UNL d   1      -1.965  -0.934   3.113  0.00  0.00     0.048 A 
ATOM      5  C   UNL d   1      -1.600  -2.106   2.408  0.00  0.00     0.067 A 
ENDROOT
BRANCH   2   6
ATOM      6  O   UNL d   1      -0.736  -2.280   0.056  0.00  0.00    -0.288 OA
BRANCH   6   7
ATOM      7  C   UNL d   1       0.005  -3.435   0.122  0.00  0.00     0.078 A 
ATOM      8  C   UNL d   1      -0.124  -4.328  -0.941  0.00  0.00     0.038 A 
ATOM      9  C   UNL d   1       0.676  -5.473  -0.997  0.00  0.00     0.012 A 
ATOM     10  C   UNL d   1       1.625  -5.742   0.006  0.00  0.00    -0.035 A 
ATOM     11  C   UNL d   1       1.734  -4.836   1.076  0.00  0.00     0.012 A 
ATOM     12  C   UNL d   1       0.941  -3.686   1.127  0.00  0.00     0.038 A 
BRANCH  10  13
ATOM     13  C   UNL d   1       2.542  -6.941  -0.127  0.00  0.00     0.141 C 
ATOM     14  S   UNL d   1       2.462  -8.073   1.296  0.00  0.00    -0.148 SA
ATOM     15  C   UNL d   1       4.212  -8.537   1.264  0.00  0.00     0.085 C 
ATOM     16  C   UNL d   1       5.000  -7.267   1.019  0.00  0.00     0.085 C 
ATOM     17  S   UNL d   1       4.276  -6.432  -0.418  0.00  0.00    -0.148 SA
ENDBRANCH  10  13
ENDBRANCH   6   7
ENDBRANCH   2   6
BRANCH   1  18
ATOM     18  C   UNL d   1      -2.007   1.546   2.420  0.00  0.00     0.289 C 
ATOM     19  O   UNL d   1      -2.438   2.050   3.456  0.00  0.00    -0.264 OA
ATOM     20  N   UNL d   1      -1.675   2.314   1.307  0.00  0.00    -0.288 N 
ATOM     21  H   UNL d   1      -1.232   1.856   0.511  0.00  0.00     0.183 HD
BRANCH  20  22
ATOM     22  N   UNL d   1      -1.753   3.726   1.360  0.00  0.00    -0.247 NA
ATOM     23  H   UNL d   1      -1.886   3.982   2.349  0.00  0.00     0.143 HD
ATOM     24  H   UNL d   1      -2.630   4.007   0.912  0.00  0.00     0.143 HD
ENDBRANCH  20  22
ENDBRANCH   1  18
TORSDOF 5
