REMARK  3 active torsions:
REMARK  status: ('A' for Active; 'I' for Inactive)
REMARK    1  A    between atoms: C_2  and  S_1 
REMARK    2  A    between atoms: C_6  and  S_1 
REMARK    3  A    between atoms: C_7  and  C_3 
ROOT
ATOM      1  C   UNL d   1       0.396  -1.633   0.287  0.00  0.00     0.144 C 
ATOM      2  C   UNL d   1      -0.327  -1.950   1.379  0.00  0.00     0.048 C 
ATOM      3  C   UNL d   1       0.901  -0.335   0.022  0.00  0.00     0.112 C 
ATOM      4  N   UNL d   1       1.295   0.737  -0.170  0.00  0.00    -0.191 NA
ENDROOT
BRANCH   1   5
ATOM      5  S   UNL d   1       0.792  -2.903  -0.824  0.00  0.00     0.216 S 
ATOM      6  O   UNL d   1      -0.263  -3.901  -0.835  0.00  0.00    -0.216 OA
ATOM      7  O   UNL d   1       2.165  -3.308  -0.578  0.00  0.00    -0.216 OA
BRANCH   5   8
ATOM      8  C   UNL d   1       0.747  -2.157  -2.447  0.00  0.00     0.065 A 
ATOM      9  C   UNL d   1       1.899  -2.154  -3.240  0.00  0.00     0.025 A 
ATOM     10  C   UNL d   1       1.850  -1.609  -4.526  0.00  0.00     0.025 A 
ATOM     11  C   UNL d   1       0.655  -1.075  -5.009  0.00  0.00     0.034 A 
ATOM     12  C   UNL d   1      -0.498  -1.090  -4.221  0.00  0.00     0.025 A 
ATOM     13 CL   UNL d   1       0.598  -0.407  -6.593  0.00  0.00    -0.084 Cl
ATOM     14  C   UNL d   1      -0.459  -1.639  -2.936  0.00  0.00     0.025 A 
ENDBRANCH   5   8
ENDBRANCH   1   5
BRANCH   2  15
ATOM     15  C   UNL d   1      -0.741  -0.942   2.366  0.00  0.00    -0.012 A 
ATOM     16  C   UNL d   1      -1.994  -0.310   2.295  0.00  0.00     0.044 A 
ATOM     17 CL   UNL d   1      -3.181  -0.785   1.130  0.00  0.00    -0.083 Cl
ATOM     18  C   UNL d   1      -2.298   0.750   3.151  0.00  0.00     0.024 A 
ATOM     19  C   UNL d   1      -1.358   1.182   4.087  0.00  0.00     0.002 A 
ATOM     20  C   UNL d   1      -0.126   0.538   4.188  0.00  0.00     0.001 A 
ATOM     21  C   UNL d   1       0.181  -0.525   3.336  0.00  0.00     0.013 A 
ENDBRANCH   2  15
TORSDOF 3
