REMARK  4 active torsions:
REMARK  status: ('A' for Active; 'I' for Inactive)
REMARK    1  A    between atoms: C_3  and  C_1 
REMARK       I    between atoms: N_6  and  C_3 
REMARK    2  A    between atoms: N_8  and  N_6 
REMARK    3  A    between atoms: C_13  and  N_8 
REMARK    4  A    between atoms: C_14  and  C_10 
ROOT
ATOM      1  C   UNL d   1       2.244  -1.892   1.241  0.00  0.00     0.273 C 
ATOM      2  N   UNL d   1       3.074  -2.965   0.932  0.00  0.00    -0.282 N 
ATOM      3  O   UNL d   1       1.192  -1.707   0.624  0.00  0.00    -0.266 OA
ATOM      4  H   UNL d   1       4.048  -2.941   1.214  0.00  0.00     0.184 HD
ENDROOT
BRANCH   2   5
ATOM      5  N   UNL d   1       2.766  -3.713  -0.220  0.00  0.00    -0.203 NA
ATOM      6  H   UNL d   1       1.829  -3.460  -0.565  0.00  0.00     0.153 HD
BRANCH   5   7
ATOM      7  C   UNL d   1       2.875  -5.118  -0.056  0.00  0.00     0.027 A 
ATOM      8  C   UNL d   1       2.106  -5.949  -0.881  0.00  0.00     0.026 A 
ATOM      9  C   UNL d   1       2.240  -7.342  -0.838  0.00  0.00     0.009 A 
ATOM     10  C   UNL d   1       3.171  -7.948   0.013  0.00  0.00    -0.055 A 
ATOM     11  C   UNL d   1       3.969  -7.122   0.812  0.00  0.00     0.009 A 
ATOM     12  C   UNL d   1       3.830  -5.726   0.769  0.00  0.00     0.026 A 
BRANCH  10  13
ATOM     13  C   UNL d   1       3.330  -9.459   0.068  0.00  0.00     0.010 C 
ATOM     14  C   UNL d   1       2.046 -10.138   0.553  0.00  0.00     0.015 C 
ATOM     15  C   UNL d   1       3.767 -10.032  -1.283  0.00  0.00     0.015 C 
ENDBRANCH  10  13
ENDBRANCH   5   7
ENDBRANCH   2   5
BRANCH   1  16
ATOM     16  C   UNL d   1       2.696  -1.022   2.318  0.00  0.00     0.075 A 
ATOM     17  S   UNL d   1       4.108  -1.341   3.224  0.00  0.00    -0.084 SA
ATOM     18  C   UNL d   1       3.853   0.003   4.268  0.00  0.00     0.016 A 
ATOM     19  C   UNL d   1       4.645   0.388   5.367  0.00  0.00     0.019 A 
ATOM     20  C   UNL d   1       2.711   0.720   3.904  0.00  0.00    -0.018 A 
ATOM     21  C   UNL d   1       4.270   1.510   6.111  0.00  0.00     0.001 A 
ATOM     22  C   UNL d   1       3.140   2.239   5.767  0.00  0.00     0.001 A 
ATOM     23  C   UNL d   1       2.361   1.857   4.670  0.00  0.00     0.013 A 
ATOM     24  C   UNL d   1       2.069   0.124   2.768  0.00  0.00     0.037 A 
ENDBRANCH   1  16
TORSDOF 4
