REMARK  4 active torsions:
REMARK  status: ('A' for Active; 'I' for Inactive)
REMARK    1  A    between atoms: C_4  and  N_1 
REMARK       I    between atoms: C_2  and  N_8 
REMARK       I    between atoms: N_11  and  C_2 
REMARK    2  A    between atoms: C_3  and  C_6 
REMARK       I    between atoms: N_5  and  C_3 
REMARK    3  A    between atoms: N_8  and  N_5 
REMARK    4  A    between atoms: C_15  and  N_11 
ROOT
ATOM      1  C   UNL d   1       0.157  -4.607   0.888  0.00  0.00     0.270 C 
ATOM      2  N   UNL d   1      -0.393  -5.869   0.788  0.00  0.00    -0.262 N 
ATOM      3  O   UNL d   1      -0.506  -3.574   0.908  0.00  0.00    -0.266 OA
ATOM      4  H   UNL d   1       0.117  -6.726   0.999  0.00  0.00     0.190 HD
ENDROOT
BRANCH   1   5
ATOM      5  C   UNL d   1       1.640  -4.537   0.971  0.00  0.00     0.036 A 
ATOM      6  C   UNL d   1       2.452  -5.402   0.230  0.00  0.00     0.053 A 
ATOM      7  C   UNL d   1       3.845  -5.239   0.279  0.00  0.00     0.103 A 
ATOM      8  C   UNL d   1       4.428  -4.237   1.069  0.00  0.00     0.036 A 
ATOM      9  C   UNL d   1       3.608  -3.380   1.804  0.00  0.00     0.003 A 
ATOM     10  C   UNL d   1       2.220  -3.522   1.746  0.00  0.00     0.017 A 
BRANCH   7  11
ATOM     11  N   UNL d   1       4.708  -6.109  -0.533  0.00  0.00    -0.116 N 
ATOM     12  O   UNL d   1       4.154  -6.939  -1.267  0.00  0.00    -0.532 OA
ATOM     13  O   UNL d   1       5.933  -5.961  -0.435  0.00  0.00    -0.532 OA
ENDBRANCH   7  11
ENDBRANCH   1   5
BRANCH   2  14
ATOM     14  N   UNL d   1      -1.794  -5.979   0.787  0.00  0.00    -0.249 N 
ATOM     15  C   UNL d   1      -2.339  -7.228   1.000  0.00  0.00     0.335 C 
ATOM     16  N   UNL d   1      -3.696  -7.243   0.792  0.00  0.00    -0.338 N 
ATOM     17  O   UNL d   1      -1.666  -8.201   1.323  0.00  0.00    -0.246 OA
ATOM     18  H   UNL d   1      -4.166  -6.354   0.886  0.00  0.00     0.164 HD
ATOM     19  H   UNL d   1      -2.279  -5.316   0.192  0.00  0.00     0.192 HD
BRANCH  16  20
ATOM     20  C   UNL d   1      -4.490  -8.445   1.017  0.00  0.00     0.078 C 
ATOM     21  C   UNL d   1      -4.961  -8.521   2.468  0.00  0.00     0.032 C 
ATOM     22  C   UNL d   1      -5.683  -8.470   0.066  0.00  0.00     0.032 C 
ENDBRANCH  16  20
ENDBRANCH   2  14
TORSDOF 4
