REMARK  7 active torsions:
REMARK  status: ('A' for Active; 'I' for Inactive)
REMARK    1  A    between atoms: C_10  and  C_2 
REMARK    2  A    between atoms: S_11  and  C_5 
REMARK    3  A    between atoms: C_17  and  S_11 
REMARK    4  A    between atoms: C_18  and  C_16 
REMARK    5  A    between atoms: C_19  and  C_18 
REMARK    6  A    between atoms: C_21  and  C_19 
REMARK    7  A    between atoms: C_20  and  C_21 
ROOT
ATOM      1  C   UNL d   1       0.358  -4.960  -1.987  0.00  0.00    -0.107 C 
ATOM      2  C   UNL d   1       0.587  -5.919  -2.671  0.00  0.00     0.013 C 
ATOM      3  C   UNL d   1       0.077  -3.785  -1.145  0.00  0.00     0.175 C 
ENDROOT
BRANCH   3   4
ATOM      4  S   UNL d   1       0.475  -2.247  -2.042  0.00  0.00    -0.080 SA
BRANCH   4   5
ATOM      5  C   UNL d   1       0.124  -1.047  -0.862  0.00  0.00     0.161 A 
ATOM      6  N   UNL d   1      -0.122   0.238  -1.238  0.00  0.00    -0.320 N 
ATOM      7  C   UNL d   1      -0.386   0.939  -0.085  0.00  0.00     0.132 A 
ATOM      8  H   UNL d   1      -0.161   0.581  -2.183  0.00  0.00     0.169 HD
ATOM      9  N   UNL d   1      -0.281   0.095   0.930  0.00  0.00    -0.283 N 
ATOM     10  N   UNL d   1       0.048  -1.155   0.439  0.00  0.00    -0.278 N 
ATOM     11  HN  UNL d   1      -0.420   0.329   1.913  1.00  0.00     0.188 HD
ATOM     12  HN  UNL d   1       0.202  -2.001   0.987  1.00  0.00     0.189 HD
BRANCH   7  13
ATOM     13  C   UNL d   1      -0.772   2.352  -0.026  0.00  0.00     0.009 A 
ATOM     14  C   UNL d   1      -1.564   2.803   1.039  0.00  0.00     0.016 A 
ATOM     15  C   UNL d   1      -1.971   4.141   1.123  0.00  0.00     0.008 A 
ATOM     16  C   UNL d   1      -1.591   5.064   0.144  0.00  0.00    -0.058 A 
ATOM     17  C   UNL d   1      -0.777   4.626  -0.908  0.00  0.00     0.008 A 
ATOM     18  C   UNL d   1      -0.379   3.281  -0.998  0.00  0.00     0.016 A 
BRANCH  16  19
ATOM     19  C   UNL d   1      -2.036   6.507   0.240  0.00  0.00     0.038 C 
BRANCH  19  20
ATOM     20  C   UNL d   1      -2.827   7.011  -0.974  0.00  0.00     0.005 C 
BRANCH  20  21
ATOM     21  C   UNL d   1      -4.146   6.262  -1.190  0.00  0.00    -0.000 C 
BRANCH  21  22
ATOM     22  C   UNL d   1      -4.886   6.800  -2.416  0.00  0.00    -0.005 C 
ATOM     23  C   UNL d   1      -6.187   6.052  -2.659  0.00  0.00     0.005 C 
ENDBRANCH  21  22
ENDBRANCH  20  21
ENDBRANCH  19  20
ENDBRANCH  16  19
ENDBRANCH   7  13
ENDBRANCH   4   5
ENDBRANCH   3   4
TORSDOF 7
