REMARK  1 active torsions:
REMARK  status: ('A' for Active; 'I' for Inactive)
REMARK    1  A    between atoms: O_12  and  C_2 
ROOT
ATOM      1  C   UNL d   1      -0.750   1.010   1.184  0.00  0.00     0.135 C 
ATOM      2  C   UNL d   1       0.511   0.494  -1.354  0.00  0.00     0.059 C 
ATOM      3  C   UNL d   1      -1.534   0.282   0.101  0.00  0.00     0.059 C 
ATOM      4  C   UNL d   1       0.752   0.765   1.138  0.00  0.00     0.059 C 
ATOM      5  C   UNL d   1      -1.002   0.773  -1.250  0.00  0.00     0.050 C 
ATOM      6  C   UNL d   1       1.248   1.249  -0.229  0.00  0.00     0.050 C 
ATOM      7  C   UNL d   1       0.246  -1.505   0.160  0.00  0.00    -0.010 C 
ATOM      8  C   UNL d   1       0.979  -0.746   1.284  0.00  0.00     0.017 C 
ATOM      9  C   UNL d   1      -1.265  -1.220   0.265  0.00  0.00     0.017 C 
ATOM     10  C   UNL d   1       0.762  -1.016  -1.203  0.00  0.00     0.042 C 
ATOM     11  O   UNL d   1      -1.280   1.752   2.004  0.00  0.00    -0.297 OA
ENDROOT
BRANCH   2  12
ATOM     12  O   UNL d   1       0.996   0.917  -2.618  0.00  0.00    -0.390 OA
ATOM     13  H   UNL d   1       0.834   1.873  -2.707  0.00  0.00     0.210 HD
ENDBRANCH   2  12
TORSDOF 1
