REMARK  2 active torsions:
REMARK  status: ('A' for Active; 'I' for Inactive)
REMARK    1  A    between atoms: C_2  and  C_1 
REMARK    2  A    between atoms: C_10  and  C_2 
ROOT
ATOM      1  C   UNL d   1       2.703  -0.674   0.012  0.00  0.00     0.018 A 
ATOM      2  C   UNL d   1       0.278  -0.687   0.088  0.00  0.00     0.102 A 
ATOM      3  C   UNL d   1       1.498  -1.368   0.163  0.00  0.00     0.055 A 
ATOM      4  C   UNL d   1       0.262   0.706  -0.075  0.00  0.00     0.102 A 
ATOM      5  O   UNL d   1      -0.840  -1.478   0.182  0.00  0.00    -0.348 OA
ATOM      6  O   UNL d   1      -0.855   1.502  -0.110  0.00  0.00    -0.348 OA
ATOM      7  C   UNL d   1       2.679   0.704  -0.234  0.00  0.00     0.018 A 
ATOM      8  C   UNL d   1       1.465   1.390  -0.258  0.00  0.00     0.040 A 
ATOM      9  C   UNL d   1      -2.760  -0.010  -0.074  0.00  0.00     0.053 C 
ATOM     10  C   UNL d   1      -1.878  -1.070  -0.712  0.00  0.00     0.178 C 
ATOM     11  C   UNL d   1      -1.943   1.026   0.680  0.00  0.00     0.178 C 
ENDROOT
BRANCH   1  12
ATOM     12  C   UNL d   1       3.982  -1.435   0.066  0.00  0.00     0.192 C 
ATOM     13  O   UNL d   1       4.003  -2.603  -0.316  0.00  0.00    -0.287 OA
BRANCH  12  14
ATOM     14  C   UNL d   1       5.236  -0.810   0.570  0.00  0.00     0.015 A 
ATOM     15  C   UNL d   1       6.462  -1.239   0.048  0.00  0.00     0.015 A 
ATOM     16  C   UNL d   1       7.652  -0.651   0.484  0.00  0.00     0.001 A 
ATOM     17  C   UNL d   1       7.621   0.363   1.443  0.00  0.00     0.000 A 
ATOM     18  C   UNL d   1       6.405   0.776   1.981  0.00  0.00     0.001 A 
ATOM     19  C   UNL d   1       5.215   0.181   1.559  0.00  0.00     0.015 A 
ENDBRANCH  12  14
ENDBRANCH   1  12
TORSDOF 2
