REMARK  5 active torsions:
REMARK  status: ('A' for Active; 'I' for Inactive)
REMARK    1  A    between atoms: N_6  and  S_1 
REMARK    2  A    between atoms: C_14  and  S_1 
REMARK    3  A    between atoms: C_2  and  C_11 
REMARK    4  A    between atoms: N_9  and  N_6 
REMARK    5  A    between atoms: C_15  and  C_8 
ROOT
ATOM      1  N   UNL d   1       0.703  -0.146  -2.611  0.00  0.00    -0.293 N 
ATOM      2  HN  UNL d   1       0.384  -0.467  -1.697  1.00  0.00     0.187 HD
ATOM      3  C   UNL d   1       0.365  -0.787  -3.693  0.00  0.00     0.058 C 
ATOM      4  C   UNL d   1       0.788  -0.370  -5.082  0.00  0.00     0.072 C 
ENDROOT
BRANCH   3   5
ATOM      5  C   UNL d   1      -0.481  -1.941  -3.531  0.00  0.00     0.124 A 
ATOM      6  C   UNL d   1      -1.042  -2.513  -2.413  0.00  0.00     0.073 A 
ATOM      7  C   UNL d   1      -1.845  -3.576  -2.900  0.00  0.00     0.068 A 
ATOM      8  N   UNL d   1      -1.732  -3.662  -4.236  0.00  0.00    -0.260 N 
ATOM      9  O   UNL d   1      -0.879  -2.649  -4.622  0.00  0.00    -0.235 OA
ATOM     10  HN  UNL d   1      -2.188  -4.342  -4.844  1.00  0.00     0.195 HD
BRANCH   7  11
ATOM     11  C   UNL d   1      -2.722  -4.460  -2.133  0.00  0.00    -0.007 A 
ATOM     12  C   UNL d   1      -3.849  -5.034  -2.737  0.00  0.00     0.014 A 
ATOM     13  C   UNL d   1      -4.718  -5.842  -2.000  0.00  0.00     0.001 A 
ATOM     14  C   UNL d   1      -4.464  -6.090  -0.653  0.00  0.00     0.000 A 
ATOM     15  C   UNL d   1      -3.342  -5.533  -0.042  0.00  0.00     0.001 A 
ATOM     16  C   UNL d   1      -2.475  -4.721  -0.777  0.00  0.00     0.014 A 
ENDBRANCH   7  11
ENDBRANCH   3   5
BRANCH   1  17
ATOM     17  N   UNL d   1       1.527   1.016  -2.727  0.00  0.00    -0.223 N 
ATOM     18  H   UNL d   1       1.918   1.375  -3.598  0.00  0.00     0.200 HD
BRANCH  17  19
ATOM     19  S   UNL d   1       2.048   1.850  -1.347  0.00  0.00     0.276 S 
ATOM     20  O   UNL d   1       2.876   2.938  -1.826  0.00  0.00    -0.199 OA
ATOM     21  O   UNL d   1       2.547   0.899  -0.374  0.00  0.00    -0.199 OA
BRANCH  19  22
ATOM     22  C   UNL d   1       0.536   2.547  -0.724  0.00  0.00     0.081 A 
ATOM     23  C   UNL d   1      -0.224   1.825   0.203  0.00  0.00     0.025 A 
ATOM     24  C   UNL d   1      -1.364   2.405   0.760  0.00  0.00     0.002 A 
ATOM     25  C   UNL d   1      -1.738   3.700   0.397  0.00  0.00     0.000 A 
ATOM     26  C   UNL d   1      -0.976   4.418  -0.527  0.00  0.00     0.002 A 
ATOM     27  C   UNL d   1       0.166   3.846  -1.088  0.00  0.00     0.025 A 
ENDBRANCH  19  22
ENDBRANCH  17  19
ENDBRANCH   1  17
TORSDOF 5
