REMARK  6 active torsions:
REMARK  status: ('A' for Active; 'I' for Inactive)
REMARK    1  A    between atoms: C_2  and  C_1 
REMARK    2  A    between atoms: N_21  and  C_2 
REMARK    3  A    between atoms: C_3  and  C_10 
REMARK    4  A    between atoms: O_13  and  N_4 
REMARK    5  A    between atoms: C_6  and  O_13 
REMARK       I    between atoms: N_12  and  C_6 
REMARK    6  A    between atoms: C_16  and  N_12 
ROOT
ATOM      1  C   UNL d   1       1.147   4.507  -0.134  0.00  0.00     0.387 C 
ATOM      2  N   UNL d   1       0.385   5.657  -0.149  0.00  0.00    -0.301 N 
ATOM      3  O   UNL d   1       2.324   4.539  -0.497  0.00  0.00    -0.236 OA
ATOM      4  H   UNL d   1       0.881   6.416  -0.598  0.00  0.00     0.171 HD
ENDROOT
BRANCH   1   5
ATOM      5  O   UNL d   1       0.511   3.368   0.282  0.00  0.00    -0.179 OA
BRANCH   5   6
ATOM      6  N   UNL d   1       0.584   2.382  -0.732  0.00  0.00    -0.242 N 
ATOM      7  C   UNL d   1       0.048   1.264  -0.324  0.00  0.00     0.135 C 
ATOM      8  HN  UNL d   1       0.998   2.525  -1.653  1.00  0.00     0.196 HD
BRANCH   7   9
ATOM      9  C   UNL d   1      -0.060   0.205  -1.305  0.00  0.00     0.139 A 
ATOM     10  O   UNL d   1      -0.649  -0.967  -0.919  0.00  0.00    -0.235 OA
ATOM     11  N   UNL d   1      -0.674  -1.851  -1.986  0.00  0.00    -0.272 N 
ATOM     12  C   UNL d   1      -0.103  -1.195  -2.998  0.00  0.00     0.117 A 
ATOM     13  HN  UNL d   1      -1.048  -2.800  -1.995  1.00  0.00     0.194 HD
ATOM     14  C   UNL d   1       0.301   0.100  -2.629  0.00  0.00     0.062 A 
ENDBRANCH   7   9
BRANCH   7  15
ATOM     15  N   UNL d   1      -0.388   1.085   0.971  0.00  0.00    -0.285 NA
ATOM     16  H   UNL d   1      -0.414   0.119   1.282  0.00  0.00     0.125 HD
ATOM     17  H   UNL d   1       0.060   1.708   1.631  0.00  0.00     0.125 HD
ENDBRANCH   7  15
ENDBRANCH   5   6
ENDBRANCH   1   5
BRANCH   2  18
ATOM     18  C   UNL d   1      -1.003   5.799   0.035  0.00  0.00     0.037 A 
ATOM     19  C   UNL d   1      -1.779   4.893   0.758  0.00  0.00     0.045 A 
ATOM     20  C   UNL d   1      -3.179   4.980   0.773  0.00  0.00     0.050 A 
ATOM     21  C   UNL d   1      -3.799   6.038   0.096  0.00  0.00     0.016 A 
ATOM     22  C   UNL d   1      -3.028   7.000  -0.556  0.00  0.00     0.003 A 
ATOM     23  C   UNL d   1      -1.635   6.887  -0.577  0.00  0.00     0.029 A 
BRANCH  20  24
ATOM     24  C   UNL d   1      -3.993   3.926   1.480  0.00  0.00     0.417 C 
ATOM     25  F   UNL d   1      -3.233   2.983   2.107  0.00  0.00    -0.166 F 
ATOM     26  F   UNL d   1      -4.802   4.447   2.443  0.00  0.00    -0.166 F 
ATOM     27  F   UNL d   1      -4.809   3.242   0.632  0.00  0.00    -0.166 F 
ENDBRANCH  20  24
ENDBRANCH   2  18
TORSDOF 6
