REMARK  4 active torsions:
REMARK  status: ('A' for Active; 'I' for Inactive)
REMARK    1  A    between atoms: C_6  and  C_1 
REMARK    2  A    between atoms: C_13  and  C_4 
REMARK       I    between atoms: N_9  and  C_6 
REMARK    3  A    between atoms: C_8  and  N_10 
REMARK    4  A    between atoms: N_10  and  N_9 
ROOT
ATOM      1  C   UNL d   1       0.244  -2.743   0.208  0.00  0.00     0.271 C 
ATOM      2  N   UNL d   1       1.587  -3.022   0.424  0.00  0.00    -0.282 N 
ATOM      3  O   UNL d   1      -0.581  -3.652   0.157  0.00  0.00    -0.266 OA
ATOM      4  H   UNL d   1       2.303  -2.417   0.051  0.00  0.00     0.184 HD
ENDROOT
BRANCH   1   5
ATOM      5  C   UNL d   1      -0.101  -1.329   0.078  0.00  0.00     0.093 A 
ATOM      6  C   UNL d   1      -1.408  -0.711   0.100  0.00  0.00     0.083 A 
ATOM      7  N   UNL d   1      -1.294   0.615  -0.087  0.00  0.00    -0.259 N 
ATOM      8  O   UNL d   1       0.037   0.893  -0.181  0.00  0.00    -0.241 OA
ATOM      9  HN  UNL d   1      -2.059   1.287  -0.148  1.00  0.00     0.195 HD
ATOM     10  C   UNL d   1       0.758  -0.245  -0.066  0.00  0.00     0.090 A 
ATOM     11  C   UNL d   1       2.220  -0.029  -0.120  0.00  0.00     0.080 C 
BRANCH   6  12
ATOM     12  C   UNL d   1      -2.754  -1.260   0.323  0.00  0.00    -0.006 A 
ATOM     13  C   UNL d   1      -3.867  -0.639  -0.275  0.00  0.00     0.014 A 
ATOM     14  C   UNL d   1      -5.167  -1.087  -0.023  0.00  0.00     0.001 A 
ATOM     15  C   UNL d   1      -5.376  -2.171   0.824  0.00  0.00     0.000 A 
ATOM     16  C   UNL d   1      -4.287  -2.796   1.426  0.00  0.00     0.001 A 
ATOM     17  C   UNL d   1      -2.988  -2.333   1.190  0.00  0.00     0.014 A 
ENDBRANCH   6  12
ENDBRANCH   1   5
BRANCH   2  18
ATOM     18  N   UNL d   1       1.982  -4.366   0.569  0.00  0.00    -0.201 NA
ATOM     19  H   UNL d   1       1.170  -5.004   0.575  0.00  0.00     0.153 HD
BRANCH  18  20
ATOM     20  C   UNL d   1       2.818  -4.598   1.701  0.00  0.00     0.051 A 
ATOM     21  C   UNL d   1       3.717  -3.620   2.166  0.00  0.00     0.050 A 
ATOM     22  C   UNL d   1       4.598  -3.893   3.215  0.00  0.00     0.035 A 
ATOM     23 CL   UNL d   1       5.668  -2.662   3.765  0.00  0.00    -0.084 Cl
ATOM     24  C   UNL d   1       4.627  -5.150   3.808  0.00  0.00     0.026 A 
ATOM     25  C   UNL d   1       3.770  -6.147   3.342  0.00  0.00     0.027 A 
ATOM     26  C   UNL d   1       2.882  -5.877   2.294  0.00  0.00     0.057 A 
ATOM     27 CL   UNL d   1       1.851  -7.155   1.753  0.00  0.00    -0.082 Cl
ENDBRANCH  18  20
ENDBRANCH   2  18
TORSDOF 4
