REMARK  3 active torsions:
REMARK  status: ('A' for Active; 'I' for Inactive)
REMARK    1  A    between atoms: S_8  and  C_3 
REMARK    2  A    between atoms: C_10  and  S_8 
REMARK    3  A    between atoms: C_11  and  C_10 
ROOT
ATOM      1  N   UNL d   1      -0.388   1.093  -0.690  0.00  0.00    -0.349 N 
ATOM      2  HN  UNL d   1      -0.475   1.832  -1.388  1.00  0.00     0.167 HD
ATOM      3  C   UNL d   1      -0.829  -1.162   0.032  0.00  0.00     0.038 A 
ATOM      4  C   UNL d   1      -0.909  -0.145  -0.909  0.00  0.00     0.025 A 
ATOM      5  N   UNL d   1       0.379   0.397   1.448  0.00  0.00    -0.355 N 
ATOM      6  HN  UNL d   1       0.856   0.604   2.325  1.00  0.00     0.166 HD
ATOM      7  C   UNL d   1       0.247   1.312   0.477  0.00  0.00     0.077 A 
ATOM      8  C   UNL d   1      -0.158  -0.817   1.194  0.00  0.00     0.110 A 
ATOM      9  C   UNL d   1      -1.552  -0.297  -2.257  0.00  0.00     0.070 C 
ATOM     10  C   UNL d   1       0.867   2.658   0.685  0.00  0.00     0.089 C 
ENDROOT
BRANCH   3  11
ATOM     11  S   UNL d   1      -1.408  -2.833  -0.157  0.00  0.00    -0.122 SA
BRANCH  11  12
ATOM     12  C   UNL d   1      -3.211  -2.577  -0.026  0.00  0.00     0.118 C 
BRANCH  12  13
ATOM     13  C   UNL d   1      -3.943  -3.895   0.054  0.00  0.00    -0.049 A 
ATOM     14  C   UNL d   1      -4.337  -4.417   1.294  0.00  0.00     0.008 A 
ATOM     15  C   UNL d   1      -5.006  -5.643   1.371  0.00  0.00     0.007 A 
ATOM     16  C   UNL d   1      -5.285  -6.375   0.211  0.00  0.00    -0.062 A 
ATOM     17  C   UNL d   1      -4.891  -5.859  -1.026  0.00  0.00     0.007 A 
ATOM     18  C   UNL d   1      -6.015  -7.682   0.308  0.00  0.00     0.048 C 
ATOM     19  C   UNL d   1      -4.224  -4.632  -1.106  0.00  0.00     0.008 A 
ENDBRANCH  12  13
ENDBRANCH  11  12
ENDBRANCH   3  11
TORSDOF 3
