REMARK  1 active torsions:
REMARK  status: ('A' for Active; 'I' for Inactive)
REMARK    1  A    between atoms: C_8  and  C_7 
ROOT
ATOM      1  C   UNL d   1       1.307   0.018  -0.481  0.00  0.00     0.101 A 
ATOM      2  N   UNL d   1      -0.610  -1.400  -0.868  0.00  0.00    -0.275 N 
ATOM      3  N   UNL d   1      -0.696   0.800  -1.573  0.00  0.00    -0.275 N 
ATOM      4  C   UNL d   1       0.653  -1.310  -0.353  0.00  0.00     0.265 A 
ATOM      5  C   UNL d   1       0.576   1.111  -1.180  0.00  0.00     0.265 A 
ATOM      6  C   UNL d   1      -1.313  -0.409  -1.472  0.00  0.00     0.329 A 
ATOM      7  C   UNL d   1       2.538   0.140   0.051  0.00  0.00     0.035 C 
ATOM      8  O   UNL d   1       1.030   2.224  -1.412  0.00  0.00    -0.267 OA
ATOM      9  O   UNL d   1       1.191  -2.284   0.164  0.00  0.00    -0.267 OA
ATOM     10  O   UNL d   1      -2.443  -0.594  -1.910  0.00  0.00    -0.246 OA
ATOM     11  H   UNL d   1      -1.066  -2.299  -0.798  0.00  0.00     0.173 HD
ATOM     12  H   UNL d   1      -1.208   1.531  -2.048  0.00  0.00     0.173 HD
ENDROOT
BRANCH   7  13
ATOM     13  C   UNL d   1       3.379   1.349   0.021  0.00  0.00    -0.024 A 
ATOM     14  C   UNL d   1       4.302   1.594  -1.032  0.00  0.00    -0.016 A 
ATOM     15  C   UNL d   1       5.008   2.823  -1.039  0.00  0.00    -0.025 A 
ATOM     16  C   UNL d   1       4.560   0.679  -2.081  0.00  0.00     0.013 A 
ATOM     17  C   UNL d   1       5.925   3.099  -2.067  0.00  0.00     0.012 A 
ATOM     18  C   UNL d   1       4.787   3.762  -0.021  0.00  0.00     0.012 A 
ATOM     19  C   UNL d   1       6.164   2.174  -3.083  0.00  0.00     0.001 A 
ATOM     20  C   UNL d   1       5.482   0.965  -3.090  0.00  0.00     0.001 A 
ATOM     21  C   UNL d   1       3.910   3.490   1.027  0.00  0.00     0.002 A 
ATOM     22  C   UNL d   1       3.217   2.283   1.055  0.00  0.00     0.012 A 
ENDBRANCH   7  13
TORSDOF 1
