REMARK  5 active torsions:
REMARK  status: ('A' for Active; 'I' for Inactive)
REMARK    1  A    between atoms: S_4  and  C_1 
REMARK    2  A    between atoms: C_7  and  C_2 
REMARK    3  A    between atoms: C_10  and  S_4 
REMARK    4  A    between atoms: S_12  and  C_5 
REMARK    5  A    between atoms: O_14  and  C_7 
ROOT
ATOM      1  C   UNL d   1      -0.164  -1.297  -0.089  0.00  0.00     0.101 C 
ATOM      2  C   UNL d   1       1.146   0.678  -0.074  0.00  0.00     0.099 C 
ATOM      3  C   UNL d   1       1.116  -0.678  -0.367  0.00  0.00     0.053 C 
ATOM      4  C   UNL d   1      -1.130  -0.323   0.126  0.00  0.00     0.064 C 
ATOM      5  S   UNL d   1      -0.434   1.232   0.298  0.00  0.00    -0.074 SA
ATOM      6  I   UNL d   1       2.738  -1.644  -1.265  0.00  0.00    -0.041 I 
ENDROOT
BRANCH   1   7
ATOM      7  S   UNL d   1      -0.464  -3.018  -0.010  0.00  0.00     0.182 S 
ATOM      8  O   UNL d   1       0.805  -3.595   0.382  0.00  0.00    -0.222 OA
ATOM      9  O   UNL d   1      -1.611  -3.168   0.864  0.00  0.00    -0.222 OA
BRANCH   7  10
ATOM     10  C   UNL d   1      -0.889  -3.606  -1.649  0.00  0.00     0.105 C 
ATOM     11  C   UNL d   1      -1.134  -5.116  -1.590  0.00  0.00     0.026 C 
ATOM     12  C   UNL d   1      -2.114  -2.922  -2.237  0.00  0.00     0.026 C 
ENDBRANCH   7  10
ENDBRANCH   1   7
BRANCH   4  13
ATOM     13  S   UNL d   1      -2.892  -0.448   0.104  0.00  0.00    -0.126 SA
ATOM     14  C   UNL d   1      -3.311  -0.486   1.855  0.00  0.00     0.096 C 
ENDBRANCH   4  13
BRANCH   2  15
ATOM     15  C   UNL d   1       2.208   1.675  -0.059  0.00  0.00     0.301 C 
ATOM     16  O   UNL d   1       2.067   2.874  -0.268  0.00  0.00    -0.259 OA
BRANCH  15  17
ATOM     17  O   UNL d   1       3.396   1.107   0.297  0.00  0.00    -0.322 OA
ATOM     18  C   UNL d   1       4.498   2.014   0.385  0.00  0.00     0.213 C 
ENDBRANCH  15  17
ENDBRANCH   2  15
TORSDOF 5
