REMARK  3 active torsions:
REMARK  status: ('A' for Active; 'I' for Inactive)
REMARK    1  A    between atoms: C_2  and  C_1 
REMARK    2  A    between atoms: O_8  and  C_2 
REMARK    3  A    between atoms: S_7  and  C_3 
ROOT
ATOM      1  C   UNL d   1       0.735   1.326   0.087  0.00  0.00     0.072 A 
ATOM      2  C   UNL d   1      -0.656   1.226   0.019  0.00  0.00     0.085 A 
ATOM      3  N   UNL d   1      -1.283   0.018  -0.074  0.00  0.00    -0.360 N 
ATOM      4  HN  UNL d   1      -2.300  -0.037  -0.130  1.00  0.00     0.166 HD
ATOM      5  C   UNL d   1       1.486   0.135   0.062  0.00  0.00     0.022 A 
ATOM      6  C   UNL d   1      -0.531  -1.103  -0.090  0.00  0.00     0.089 A 
ATOM      7  C   UNL d   1       0.847  -1.096  -0.030  0.00  0.00     0.018 A 
ENDROOT
BRANCH   1   8
ATOM      8  C   UNL d   1       1.454   2.617   0.237  0.00  0.00     0.295 C 
ATOM      9  O   UNL d   1       1.046   3.596   0.835  0.00  0.00    -0.259 OA
BRANCH   8  10
ATOM     10  O   UNL d   1       2.674   2.516  -0.359  0.00  0.00    -0.322 OA
ATOM     11  C   UNL d   1       3.516   3.658  -0.187  0.00  0.00     0.213 C 
ENDBRANCH   8  10
ENDBRANCH   1   8
BRANCH   2  12
ATOM     12  S   UNL d   1      -1.756   2.640  -0.007  0.00  0.00    -0.116 SA
ATOM     13  C   UNL d   1      -3.378   1.829  -0.044  0.00  0.00     0.097 C 
ENDBRANCH   2  12
TORSDOF 3
