REMARK  5 active torsions:
REMARK  status: ('A' for Active; 'I' for Inactive)
REMARK    1  A    between atoms: C_2  and  C_1 
REMARK    2  A    between atoms: C_3  and  C_1 
REMARK    3  A    between atoms: C_4  and  C_1 
REMARK    4  A    between atoms: O_7  and  C_2 
REMARK    5  A    between atoms: O_8  and  C_3 
ROOT
ATOM      1  C   UNL d   1       0.969   0.142   0.137  0.00  0.00     0.216 C 
ENDROOT
BRANCH   1   2
ATOM      2  C   UNL d   1       0.446  -0.655   1.321  0.00  0.00     0.158 C 
ATOM      3  O   UNL d   1       0.389  -1.882   1.314  0.00  0.00    -0.649 OA
BRANCH   2   4
ATOM      4  O   UNL d   1       0.079   0.044   2.421  0.00  0.00    -0.775 OA
ATOM      5  H   UNL d   1       0.124   1.026   2.329  0.00  0.00     0.167 HD
ENDBRANCH   2   4
ENDBRANCH   1   2
BRANCH   1   6
ATOM      6  C   UNL d   1       0.424   1.548   0.081  0.00  0.00     0.277 C 
ATOM      7  O   UNL d   1       0.169   2.211   1.085  0.00  0.00    -0.264 OA
BRANCH   6   8
ATOM      8  O   UNL d   1       0.253   1.976  -1.198  0.00  0.00    -0.326 OA
ATOM      9  C   UNL d   1      -0.308   3.288  -1.303  0.00  0.00     0.213 C 
ENDBRANCH   6   8
ENDBRANCH   1   6
BRANCH   1  10
ATOM     10  C   UNL d   1       2.489   0.129   0.081  0.00  0.00    -0.034 A 
ATOM     11  C   UNL d   1       3.151  -0.464  -1.005  0.00  0.00     0.008 A 
ATOM     12  C   UNL d   1       4.546  -0.469  -1.071  0.00  0.00     0.001 A 
ATOM     13  C   UNL d   1       5.296   0.116  -0.053  0.00  0.00     0.000 A 
ATOM     14  C   UNL d   1       4.654   0.699   1.036  0.00  0.00     0.001 A 
ATOM     15  C   UNL d   1       3.260   0.706   1.105  0.00  0.00     0.008 A 
ENDBRANCH   1  10
TORSDOF 5
