REMARK  5 active torsions:
REMARK  status: ('A' for Active; 'I' for Inactive)
REMARK    1  A    between atoms: C_3  and  C_1 
REMARK    2  A    between atoms: C_2  and  C_4 
REMARK       I    between atoms: C_5  and  N_8 
REMARK       I    between atoms: N_16  and  C_5 
REMARK    3  A    between atoms: N_8  and  C_7 
REMARK    4  A    between atoms: C_10  and  C_15 
REMARK    5  A    between atoms: C_13  and  N_16 
ROOT
ATOM      1  C   UNL d   1      -1.454   0.349   2.323  0.00  0.00     0.050 A 
ATOM      2  C   UNL d   1      -0.763   1.891   0.566  0.00  0.00     0.050 A 
ATOM      3  C   UNL d   1      -1.460   0.745   0.979  0.00  0.00     0.032 A 
ATOM      4  C   UNL d   1      -0.061   2.280   2.873  0.00  0.00     0.037 A 
ATOM      5  C   UNL d   1      -0.043   2.633   1.519  0.00  0.00     0.045 A 
ATOM      6  C   UNL d   1      -0.742   1.121   3.257  0.00  0.00     0.045 A 
ENDROOT
BRANCH   4   7
ATOM      7  N   UNL d   1       0.575   3.154   3.784  0.00  0.00    -0.309 N 
ATOM      8  C   UNL d   1       0.366   3.190   5.136  0.00  0.00     0.324 C 
ATOM      9  N   UNL d   1       0.965   4.200   5.837  0.00  0.00    -0.319 N 
ATOM     10  O   UNL d   1      -0.356   2.430   5.778  0.00  0.00    -0.247 OA
ATOM     11  H   UNL d   1       0.650   4.179   6.802  0.00  0.00     0.170 HD
ATOM     12  H   UNL d   1       1.030   3.961   3.388  0.00  0.00     0.170 HD
BRANCH   9  13
ATOM     13  C   UNL d   1       1.890   5.153   5.492  0.00  0.00     0.093 C 
ATOM     14  C   UNL d   1       2.271   6.072   6.394  0.00  0.00     0.029 C 
BRANCH  14  15
ATOM     15  C   UNL d   1       3.257   7.101   6.245  0.00  0.00    -0.028 A 
ATOM     16  C   UNL d   1       3.980   7.372   5.103  0.00  0.00     0.061 A 
ATOM     17  S   UNL d   1       5.097   8.655   5.326  0.00  0.00    -0.113 SA
ATOM     18  C   UNL d   1       4.615   8.866   6.952  0.00  0.00     0.050 A 
ATOM     19  C   UNL d   1       3.621   7.983   7.312  0.00  0.00     0.019 A 
ENDBRANCH  14  15
ENDBRANCH   9  13
ENDBRANCH   4   7
BRANCH   1  20
ATOM     20  C   UNL d   1      -2.215  -0.871   2.789  0.00  0.00     0.417 C 
ATOM     21  F   UNL d   1      -2.929  -1.471   1.795  0.00  0.00    -0.166 F 
ATOM     22  F   UNL d   1      -3.115  -0.585   3.770  0.00  0.00    -0.166 F 
ATOM     23  F   UNL d   1      -1.399  -1.836   3.293  0.00  0.00    -0.166 F 
ENDBRANCH   1  20
BRANCH   2  24
ATOM     24  C   UNL d   1      -0.791   2.335  -0.877  0.00  0.00     0.417 C 
ATOM     25  F   UNL d   1      -1.879   1.880  -1.558  0.00  0.00    -0.166 F 
ATOM     26  F   UNL d   1      -0.813   3.692  -1.007  0.00  0.00    -0.166 F 
ATOM     27  F   UNL d   1       0.297   1.909  -1.572  0.00  0.00    -0.166 F 
ENDBRANCH   2  24
TORSDOF 5
