REMARK  2 active torsions:
REMARK  status: ('A' for Active; 'I' for Inactive)
REMARK    1  A    between atoms: C_6  and  N_1 
REMARK    2  A    between atoms: C_7  and  N_3 
ROOT
ATOM      1  N   UNL d   1      -0.113  -1.331  -0.100  0.00  0.00    -0.253 N 
ATOM      2  C   UNL d   1      -0.133  -0.479   1.008  0.00  0.00     0.343 C 
ATOM      3  N   UNL d   1      -0.023   0.865   0.624  0.00  0.00    -0.228 N 
ATOM      4  C   UNL d   1      -0.211  -0.689  -1.307  0.00  0.00     0.311 C 
ATOM      5  S   UNL d   1      -0.037   1.038  -1.067  0.00  0.00     0.060 SA
ATOM      6  O   UNL d   1      -0.297  -0.879   2.158  0.00  0.00    -0.245 OA
ATOM      7  O   UNL d   1      -0.435  -1.166  -2.406  0.00  0.00    -0.258 OA
ENDROOT
BRANCH   1   8
ATOM      8  C   UNL d   1      -0.464  -2.753   0.030  0.00  0.00     0.107 C 
ATOM      9  C   UNL d   1       0.140  -3.483   1.263  0.00  0.00     0.065 C 
ATOM     10  C   UNL d   1       0.063  -4.916   0.836  0.00  0.00    -0.050 A 
ATOM     11  C   UNL d   1       0.118  -6.048   1.629  0.00  0.00     0.007 A 
ATOM     12  C   UNL d   1      -0.067  -5.013  -0.551  0.00  0.00    -0.050 A 
ATOM     13  C   UNL d   1       0.024  -7.296   1.009  0.00  0.00     0.001 A 
ATOM     14  C   UNL d   1      -0.107  -7.393  -0.385  0.00  0.00     0.001 A 
ATOM     15  C   UNL d   1      -0.147  -6.245  -1.179  0.00  0.00     0.007 A 
ATOM     16  C   UNL d   1      -0.081  -3.654  -1.177  0.00  0.00     0.065 C 
ENDBRANCH   1   8
BRANCH   3  17
ATOM     17  C   UNL d   1       0.039   1.980   1.510  0.00  0.00     0.053 A 
ATOM     18  C   UNL d   1       0.472   1.831   2.839  0.00  0.00     0.057 A 
ATOM     19  C   UNL d   1       0.565   2.935   3.695  0.00  0.00     0.074 A 
ATOM     20 CL   UNL d   1       1.146   2.713   5.301  0.00  0.00    -0.081 Cl
ATOM     21  C   UNL d   1       0.207   4.199   3.244  0.00  0.00     0.138 A 
ATOM     22  C   UNL d   1      -0.235   4.376   1.940  0.00  0.00     0.046 A 
ATOM     23  F   UNL d   1       0.287   5.268   4.049  0.00  0.00    -0.204 F 
ATOM     24  C   UNL d   1      -0.308   3.276   1.078  0.00  0.00     0.034 A 
ENDBRANCH   3  17
TORSDOF 2
