REMARK  6 active torsions:
REMARK  status: ('A' for Active; 'I' for Inactive)
REMARK       I    between atoms: N_2  and  C_1 
REMARK    1  A    between atoms: C_3  and  C_1 
REMARK    2  A    between atoms: N_4  and  N_2 
REMARK    3  A    between atoms: C_11  and  N_4 
REMARK    4  A    between atoms: C_12  and  C_5 
REMARK    5  A    between atoms: C_18  and  C_17 
REMARK    6  A    between atoms: C_21  and  C_18 
ROOT
ATOM      1  C   UNL d   1       1.032   0.052  -0.286  0.00  0.00     0.270 C 
ATOM      2  N   UNL d   1       0.246   1.020  -0.915  0.00  0.00    -0.265 N 
ATOM      3  O   UNL d   1       0.575  -0.637   0.620  0.00  0.00    -0.266 OA
ATOM      4  H   UNL d   1      -0.662   1.187  -0.487  0.00  0.00     0.190 HD
ENDROOT
BRANCH   2   5
ATOM      5  N   UNL d   1       0.871   2.114  -1.511  0.00  0.00    -0.298 N 
ATOM      6  H   UNL d   1       1.661   2.503  -0.997  0.00  0.00     0.187 HD
BRANCH   5   7
ATOM      7  C   UNL d   1       0.112   3.068  -2.205  0.00  0.00     0.048 A 
ATOM      8  C   UNL d   1       0.799   4.189  -2.691  0.00  0.00     0.031 A 
ATOM      9  C   UNL d   1       0.159   5.162  -3.454  0.00  0.00     0.010 A 
ATOM     10  C   UNL d   1      -1.198   5.038  -3.770  0.00  0.00    -0.055 A 
ATOM     11  C   UNL d   1      -1.883   3.899  -3.325  0.00  0.00     0.010 A 
ATOM     12  C   UNL d   1      -1.229   2.914  -2.570  0.00  0.00     0.031 A 
BRANCH  10  13
ATOM     13  C   UNL d   1      -1.905   6.101  -4.591  0.00  0.00     0.010 C 
ATOM     14  C   UNL d   1      -1.869   7.459  -3.883  0.00  0.00     0.015 C 
ATOM     15  C   UNL d   1      -1.306   6.205  -5.996  0.00  0.00     0.015 C 
ENDBRANCH  10  13
ENDBRANCH   5   7
ENDBRANCH   2   5
BRANCH   1  16
ATOM     16  C   UNL d   1       2.456  -0.102  -0.709  0.00  0.00     0.033 A 
ATOM     17  C   UNL d   1       3.411  -0.495   0.234  0.00  0.00     0.017 A 
ATOM     18  C   UNL d   1       4.759  -0.608  -0.133  0.00  0.00     0.008 A 
ATOM     19  C   UNL d   1       5.167  -0.323  -1.444  0.00  0.00    -0.058 A 
ATOM     20  C   UNL d   1       4.205   0.056  -2.387  0.00  0.00     0.008 A 
ATOM     21  C   UNL d   1       2.861   0.144  -2.028  0.00  0.00     0.017 A 
BRANCH  19  22
ATOM     22  C   UNL d   1       6.612  -0.464  -1.859  0.00  0.00     0.038 C 
BRANCH  22  23
ATOM     23  C   UNL d   1       7.252   0.828  -2.381  0.00  0.00     0.000 C 
ATOM     24  C   UNL d   1       7.336   1.922  -1.327  0.00  0.00     0.005 C 
ENDBRANCH  22  23
ENDBRANCH  19  22
ENDBRANCH   1  16
TORSDOF 6
