REMARK  4 active torsions:
REMARK  status: ('A' for Active; 'I' for Inactive)
REMARK    1  A    between atoms: C_2  and  C_1 
REMARK       I    between atoms: N_6  and  C_1 
REMARK       I    between atoms: C_3  and  N_4 
REMARK    2  A    between atoms: C_7  and  C_3 
REMARK    3  A    between atoms: N_4  and  C_5 
REMARK    4  A    between atoms: C_12  and  N_6 
ROOT
ATOM      1  C   UNL d   1      -0.112   0.326   1.378  0.00  0.00     0.058 A 
ATOM      2  C   UNL d   1       0.589   1.477   1.785  0.00  0.00     0.050 A 
ATOM      3  C   UNL d   1      -1.331   0.016   2.020  0.00  0.00     0.019 A 
ATOM      4  C   UNL d   1       0.038   2.294   2.790  0.00  0.00     0.030 A 
ATOM      5  C   UNL d   1      -1.866   0.840   3.010  0.00  0.00     0.001 A 
ATOM      6  C   UNL d   1      -1.188   1.992   3.383  0.00  0.00     0.002 A 
ENDROOT
BRANCH   2   7
ATOM      7  N   UNL d   1       1.915   1.804   1.420  0.00  0.00    -0.322 N 
ATOM      8  C   UNL d   1       2.280   2.282   0.173  0.00  0.00     0.256 C 
ATOM      9  O   UNL d   1       1.556   2.294  -0.815  0.00  0.00    -0.267 OA
ATOM     10  H   UNL d   1       2.488   2.124   2.190  0.00  0.00     0.169 HD
BRANCH   8  11
ATOM     11  C   UNL d   1       3.680   2.791   0.086  0.00  0.00     0.034 A 
ATOM     12  C   UNL d   1       4.430   2.501  -1.058  0.00  0.00     0.041 A 
ATOM     13  C   UNL d   1       5.769   2.881  -1.121  0.00  0.00     0.035 A 
ATOM     14 CL   UNL d   1       6.713   2.477  -2.501  0.00  0.00    -0.084 Cl
ATOM     15  C   UNL d   1       6.360   3.577  -0.066  0.00  0.00     0.024 A 
ATOM     16  C   UNL d   1       5.601   3.913   1.054  0.00  0.00     0.003 A 
ATOM     17  C   UNL d   1       4.262   3.526   1.130  0.00  0.00     0.017 A 
ENDBRANCH   8  11
ENDBRANCH   2   7
BRANCH   1  18
ATOM     18  C   UNL d   1       0.350  -0.715   0.418  0.00  0.00     0.254 C 
ATOM     19  N   UNL d   1       0.929  -0.282  -0.753  0.00  0.00    -0.351 N 
ATOM     20  H   UNL d   1       0.897   0.723  -0.934  0.00  0.00     0.163 HD
ATOM     21  O   UNL d   1       0.119  -1.897   0.653  0.00  0.00    -0.268 OA
BRANCH  19  22
ATOM     22  C   UNL d   1       1.123  -1.158  -1.906  0.00  0.00     0.094 C 
ATOM     23  C   UNL d   1       2.126  -2.284  -1.642  0.00  0.00     0.036 C 
ATOM     24  C   UNL d   1       3.509  -1.662  -1.674  0.00  0.00     0.076 C 
ATOM     25  S   UNL d   1       3.466  -0.580  -3.123  0.00  0.00    -0.167 SA
ATOM     26  C   UNL d   1       1.654  -0.393  -3.129  0.00  0.00     0.099 C 
ENDBRANCH  19  22
ENDBRANCH   1  18
TORSDOF 4
