REMARK  5 active torsions:
REMARK  status: ('A' for Active; 'I' for Inactive)
REMARK    1  A    between atoms: C_8  and  C_2 
REMARK    2  A    between atoms: C_12  and  N_4 
REMARK    3  A    between atoms: C_6  and  C_7 
REMARK    4  A    between atoms: C_7  and  O_15 
REMARK    5  A    between atoms: O_15  and  N_10 
ROOT
ATOM      1  C   UNL d   1      -0.397  -1.148   0.338  0.00  0.00     0.280 C 
ATOM      2  C   UNL d   1       1.004  -0.710   0.080  0.00  0.00     0.075 C 
ATOM      3  N   UNL d   1      -0.404   1.055  -0.299  0.00  0.00    -0.290 N 
ATOM      4  N   UNL d   1      -1.199  -0.011   0.165  0.00  0.00    -0.218 N 
ATOM      5  C   UNL d   1       0.923   0.610  -0.186  0.00  0.00     0.042 C 
ATOM      6  O   UNL d   1      -0.744  -2.281   0.627  0.00  0.00    -0.265 OA
ATOM      7  C   UNL d   1      -0.797   2.412   0.086  0.00  0.00     0.178 C 
ATOM      8  C   UNL d   1       2.056   1.581  -0.318  0.00  0.00     0.071 C 
ENDROOT
BRANCH   2   9
ATOM      9  C   UNL d   1       2.220  -1.537   0.124  0.00  0.00     0.133 C 
ATOM     10  N   UNL d   1       2.239  -2.818   0.289  0.00  0.00    -0.268 N 
ATOM     11  HN  UNL d   1       1.423  -3.400   0.478  1.00  0.00     0.194 HD
BRANCH  10  12
ATOM     12  O   UNL d   1       3.565  -3.288   0.166  0.00  0.00    -0.195 OA
BRANCH  12  13
ATOM     13  C   UNL d   1       3.625  -4.622   0.446  0.00  0.00     0.316 C 
ATOM     14  O   UNL d   1       2.712  -5.357   0.807  0.00  0.00    -0.257 OA
BRANCH  13  15
ATOM     15  C   UNL d   1       4.969  -5.163   0.135  0.00  0.00     0.063 A 
ATOM     16  C   UNL d   1       6.180  -4.503   0.387  0.00  0.00     0.050 A 
ATOM     17 CL   UNL d   1       6.287  -2.946   1.131  0.00  0.00    -0.083 Cl
ATOM     18  C   UNL d   1       7.394  -5.130   0.070  0.00  0.00     0.025 A 
ATOM     19  C   UNL d   1       7.413  -6.413  -0.481  0.00  0.00     0.002 A 
ATOM     20  C   UNL d   1       6.216  -7.080  -0.719  0.00  0.00     0.001 A 
ATOM     21  C   UNL d   1       5.004  -6.461  -0.412  0.00  0.00     0.019 A 
ENDBRANCH  13  15
ENDBRANCH  12  13
ENDBRANCH  10  12
ENDBRANCH   2   9
BRANCH   4  22
ATOM     22  C   UNL d   1      -2.605  -0.028   0.096  0.00  0.00     0.060 A 
ATOM     23  C   UNL d   1      -3.327  -0.623   1.137  0.00  0.00     0.031 A 
ATOM     24  C   UNL d   1      -4.722  -0.579   1.147  0.00  0.00     0.002 A 
ATOM     25  C   UNL d   1      -5.407   0.016   0.089  0.00  0.00     0.000 A 
ATOM     26  C   UNL d   1      -4.698   0.573  -0.974  0.00  0.00     0.002 A 
ATOM     27  C   UNL d   1      -3.300   0.566  -0.964  0.00  0.00     0.031 A 
ENDBRANCH   4  22
TORSDOF 5
