REMARK  2 active torsions:
REMARK  status: ('A' for Active; 'I' for Inactive)
REMARK    1  A    between atoms: C_8  and  N_1 
REMARK    2  A    between atoms: N_12  and  C_11 
ROOT
ATOM      1  C   UNL d   1      -0.754   2.449  -0.011  0.00  0.00     0.057 A 
ATOM      2  C   UNL d   1      -0.278   3.330  -0.991  0.00  0.00     0.033 A 
ATOM      3  C   UNL d   1      -1.645   2.920   0.959  0.00  0.00     0.033 A 
ATOM      4  C   UNL d   1      -1.544   5.155  -0.001  0.00  0.00     0.005 A 
ATOM      5  C   UNL d   1      -0.696   4.666  -0.996  0.00  0.00     0.025 A 
ATOM      6  C   UNL d   1      -2.046   4.261   0.948  0.00  0.00     0.025 A 
ENDROOT
BRANCH   1   7
ATOM      7  N   UNL d   1      -0.336   1.094  -0.022  0.00  0.00    -0.251 N 
ATOM      8  N   UNL d   1       0.574   0.625  -0.912  0.00  0.00    -0.288 N 
ATOM      9  C   UNL d   1       0.704  -0.648  -0.537  0.00  0.00     0.199 A 
ATOM     10  HN  UNL d   1       1.040   1.119  -1.673  1.00  0.00     0.188 HD
ATOM     11  N   UNL d   1      -0.077  -1.037   0.507  0.00  0.00    -0.346 N 
ATOM     12  C   UNL d   1      -0.725   0.067   0.805  0.00  0.00     0.208 A 
ATOM     13  HN  UNL d   1      -0.144  -1.955   0.947  1.00  0.00     0.167 HD
ENDBRANCH   1   7
BRANCH   4  14
ATOM     14  N   UNL d   1      -2.067   6.449  -0.089  0.00  0.00    -0.303 NA
ATOM     15  H   UNL d   1      -2.398   6.822   0.795  0.00  0.00     0.124 HD
ATOM     16  H   UNL d   1      -1.469   7.103  -0.584  0.00  0.00     0.124 HD
ENDBRANCH   4  14
TORSDOF 2
