REMARK  4 active torsions:
REMARK  status: ('A' for Active; 'I' for Inactive)
REMARK    1  A    between atoms: C_7  and  C_4 
REMARK    2  A    between atoms: C_9  and  C_7 
REMARK    3  A    between atoms: C_18  and  C_8 
REMARK    4  A    between atoms: C_10  and  C_11 
ROOT
ATOM      1  C   UNL d   1       0.187  -3.331  -0.275  0.00  0.00     0.081 C 
ATOM      2  N   UNL d   1       1.520  -3.000  -0.226  0.00  0.00    -0.317 N 
ATOM      3  C   UNL d   1       1.608  -5.286   0.172  0.00  0.00     0.075 C 
ATOM      4  C   UNL d   1      -0.799  -2.438  -0.151  0.00  0.00     0.092 C 
ATOM      5  C   UNL d   1       2.397  -4.034   0.033  0.00  0.00     0.263 C 
ATOM      6  S   UNL d   1       0.003  -5.051  -0.418  0.00  0.00    -0.067 SA
ATOM      7  C   UNL d   1       2.049  -6.362   0.841  0.00  0.00     0.036 C 
ATOM      8  O   UNL d   1       3.600  -3.913   0.206  0.00  0.00    -0.267 OA
ATOM      9  H   UNL d   1       1.863  -2.052  -0.186  0.00  0.00     0.169 HD
ENDROOT
BRANCH   4  10
ATOM     10  C   UNL d   1      -2.226  -2.831   0.065  0.00  0.00     0.184 C 
ATOM     11  O   UNL d   1      -2.551  -3.939   0.474  0.00  0.00    -0.287 OA
BRANCH  10  12
ATOM     12  C   UNL d   1      -3.290  -1.808  -0.079  0.00  0.00     0.014 A 
ATOM     13  C   UNL d   1      -3.207  -0.730  -0.957  0.00  0.00     0.016 A 
ATOM     14  C   UNL d   1      -4.275   0.179  -1.042  0.00  0.00     0.009 A 
ATOM     15  C   UNL d   1      -5.436   0.045  -0.250  0.00  0.00    -0.051 A 
ATOM     16  C   UNL d   1      -5.507  -1.075   0.591  0.00  0.00     0.009 A 
ATOM     17  C   UNL d   1      -4.451  -1.983   0.679  0.00  0.00     0.016 A 
BRANCH  15  18
ATOM     18  C   UNL d   1      -6.599   1.054  -0.332  0.00  0.00    -0.024 C 
ATOM     19  C   UNL d   1      -7.371   1.176   1.006  0.00  0.00     0.019 C 
ATOM     20  C   UNL d   1      -6.109   2.480  -0.671  0.00  0.00     0.019 C 
ATOM     21  C   UNL d   1      -7.592   0.595  -1.417  0.00  0.00     0.019 C 
ENDBRANCH  15  18
ENDBRANCH  10  12
ENDBRANCH   4  10
BRANCH   7  22
ATOM     22  C   UNL d   1       1.198  -7.503   1.191  0.00  0.00    -0.035 A 
ATOM     23  C   UNL d   1       1.128  -8.625   0.362  0.00  0.00     0.011 A 
ATOM     24  C   UNL d   1       0.295  -9.696   0.699  0.00  0.00     0.001 A 
ATOM     25  C   UNL d   1      -0.475  -9.647   1.863  0.00  0.00     0.000 A 
ATOM     26  C   UNL d   1      -0.424  -8.523   2.683  0.00  0.00     0.001 A 
ATOM     27  C   UNL d   1       0.407  -7.452   2.348  0.00  0.00     0.011 A 
ENDBRANCH   7  22
TORSDOF 4
