REMARK  1 active torsions:
REMARK  status: ('A' for Active; 'I' for Inactive)
REMARK    1  A    between atoms: C_11  and  C_7 
ROOT
ATOM      1  C   UNL d   1       1.565  -0.079   0.104  0.00  0.00     0.101 A 
ATOM      2  N   UNL d   1      -0.488   1.182  -0.071  0.00  0.00    -0.299 N 
ATOM      3  N   UNL d   1      -0.600  -1.134   0.042  0.00  0.00    -0.299 N 
ATOM      4  C   UNL d   1       0.879   1.235  -0.009  0.00  0.00     0.263 A 
ATOM      5  C   UNL d   1       0.757  -1.326   0.087  0.00  0.00     0.263 A 
ATOM      6  C   UNL d   1      -1.251   0.057  -0.037  0.00  0.00     0.181 A 
ATOM      7  C   UNL d   1       2.907  -0.045   0.225  0.00  0.00     0.034 C 
ATOM      8  S   UNL d   1      -2.909   0.136  -0.095  0.00  0.00    -0.040 SA
ATOM      9  O   UNL d   1       1.467   2.311  -0.043  0.00  0.00    -0.267 OA
ATOM     10  O   UNL d   1       1.218  -2.460   0.105  0.00  0.00    -0.267 OA
ATOM     11  H   UNL d   1      -0.960   2.075  -0.142  0.00  0.00     0.171 HD
ATOM     12  H   UNL d   1      -1.157  -1.980   0.044  0.00  0.00     0.171 HD
ENDROOT
BRANCH   7  13
ATOM     13  C   UNL d   1       3.814  -1.187   0.358  0.00  0.00    -0.035 A 
ATOM     14  C   UNL d   1       4.373  -1.774  -0.783  0.00  0.00     0.013 A 
ATOM     15  C   UNL d   1       5.286  -2.824  -0.655  0.00  0.00     0.024 A 
ATOM     16  C   UNL d   1       5.640  -3.285   0.611  0.00  0.00     0.034 A 
ATOM     17  C   UNL d   1       5.076  -2.716   1.752  0.00  0.00     0.024 A 
ATOM     18 CL   UNL d   1       6.792  -4.553   0.768  0.00  0.00    -0.084 Cl
ATOM     19  C   UNL d   1       4.161  -1.667   1.626  0.00  0.00     0.013 A 
ENDBRANCH   7  13
TORSDOF 1
