REMARK  1 active torsions:
REMARK  status: ('A' for Active; 'I' for Inactive)
REMARK    1  A    between atoms: C_7  and  N_1 
ROOT
ATOM      1  N   UNL d   1       0.991  -0.555  -0.022  0.00  0.00    -0.239 N 
ATOM      2  C   UNL d   1       0.905   0.759   0.473  0.00  0.00     0.143 C 
ATOM      3  N   UNL d   1      -0.169  -0.927  -0.637  0.00  0.00    -0.302 N 
ATOM      4  HN  UNL d   1      -0.348  -1.779  -1.169  1.00  0.00     0.186 HD
ATOM      5  C   UNL d   1      -0.406   1.142   0.279  0.00  0.00     0.106 C 
ATOM      6  C   UNL d   1      -1.016   0.072  -0.389  0.00  0.00     0.134 C 
ATOM      7  C   UNL d   1      -0.995   2.395   0.613  0.00  0.00     0.104 C 
ATOM      8  N   UNL d   1      -1.465   3.424   0.868  0.00  0.00    -0.191 NA
ATOM      9  N   UNL d   1       1.961   1.473   0.958  0.00  0.00    -0.383 N 
ATOM     10  H   UNL d   1       2.911   1.216   0.684  0.00  0.00     0.157 HD
ATOM     11  H   UNL d   1       1.878   2.482   1.080  0.00  0.00     0.157 HD
ENDROOT
BRANCH   1  12
ATOM     12  C   UNL d   1       2.103  -1.444   0.007  0.00  0.00     0.059 A 
ATOM     13  C   UNL d   1       2.241  -2.405  -1.007  0.00  0.00     0.038 A 
ATOM     14  C   UNL d   1       3.382  -3.218  -1.058  0.00  0.00    -0.060 A 
ATOM     15  C   UNL d   1       3.591  -4.188  -2.184  0.00  0.00     0.048 C 
ATOM     16  C   UNL d   1       4.350  -3.105  -0.053  0.00  0.00     0.007 A 
ATOM     17  C   UNL d   1       4.185  -2.194   0.989  0.00  0.00     0.003 A 
ATOM     18  C   UNL d   1       3.066  -1.362   1.020  0.00  0.00     0.031 A 
ENDBRANCH   1  12
TORSDOF 1
