REMARK  9 active torsions:
REMARK  status: ('A' for Active; 'I' for Inactive)
REMARK    1  A    between atoms: C_9  and  C_1 
REMARK    2  A    between atoms: C_2  and  C_10 
REMARK       I    between atoms: N_4  and  C_2 
REMARK    3  A    between atoms: C_3  and  C_7 
REMARK       I    between atoms: N_6  and  C_3 
REMARK    4  A    between atoms: C_7  and  N_4 
REMARK       I    between atoms: C_5  and  N_8 
REMARK       I    between atoms: N_11  and  C_5 
REMARK    5  A    between atoms: N_8  and  N_6 
REMARK    6  A    between atoms: C_22  and  C_7 
REMARK    7  A    between atoms: C_23  and  N_11 
REMARK    8  A    between atoms: C_25  and  C_22 
REMARK    9  A    between atoms: S_24  and  C_25 
ROOT
ATOM      1  C   UNL d   1       0.748   6.403  -0.239  0.00  0.00     0.179 C 
ENDROOT
BRANCH   1   2
ATOM      2  C   UNL d   1      -0.041   5.880  -1.457  0.00  0.00     0.259 C 
ATOM      3  N   UNL d   1      -0.516   4.593  -1.309  0.00  0.00    -0.264 N 
ATOM      4  H   UNL d   1      -0.546   4.152  -0.383  0.00  0.00     0.190 HD
ATOM      5  O   UNL d   1      -0.144   6.497  -2.518  0.00  0.00    -0.269 OA
BRANCH   3   6
ATOM      6  N   UNL d   1      -1.458   4.136  -2.244  0.00  0.00    -0.249 N 
ATOM      7  C   UNL d   1      -2.383   3.208  -1.802  0.00  0.00     0.339 C 
ATOM      8  N   UNL d   1      -3.254   2.826  -2.798  0.00  0.00    -0.308 N 
ATOM      9  O   UNL d   1      -2.392   2.841  -0.629  0.00  0.00    -0.245 OA
ATOM     10  H   UNL d   1      -3.192   3.347  -3.663  0.00  0.00     0.170 HD
ATOM     11  H   UNL d   1      -1.147   4.133  -3.210  0.00  0.00     0.192 HD
BRANCH   8  12
ATOM     12  C   UNL d   1      -4.263   1.848  -2.715  0.00  0.00     0.036 A 
ATOM     13  C   UNL d   1      -4.484   1.066  -1.578  0.00  0.00     0.029 A 
ATOM     14  C   UNL d   1      -5.456   0.063  -1.581  0.00  0.00     0.002 A 
ATOM     15  C   UNL d   1      -6.222  -0.165  -2.719  0.00  0.00     0.000 A 
ATOM     16  C   UNL d   1      -6.032   0.627  -3.849  0.00  0.00     0.002 A 
ATOM     17  C   UNL d   1      -5.060   1.631  -3.846  0.00  0.00     0.029 A 
ENDBRANCH   8  12
ENDBRANCH   3   6
ENDBRANCH   1   2
BRANCH   1  18
ATOM     18  N   UNL d   1      -0.039   6.340   0.998  0.00  0.00    -0.344 N 
ATOM     19  C   UNL d   1      -0.009   5.282   1.876  0.00  0.00     0.252 C 
ATOM     20  O   UNL d   1       0.623   4.262   1.618  0.00  0.00    -0.268 OA
ATOM     21  H   UNL d   1      -0.646   7.133   1.168  0.00  0.00     0.163 HD
BRANCH  19  22
ATOM     22  C   UNL d   1      -0.780   5.403   3.160  0.00  0.00     0.032 A 
ATOM     23  C   UNL d   1      -1.500   6.545   3.535  0.00  0.00     0.018 A 
ATOM     24  C   UNL d   1      -2.170   6.598   4.766  0.00  0.00     0.017 A 
ATOM     25  C   UNL d   1      -2.132   5.513   5.653  0.00  0.00     0.048 A 
ATOM     26  C   UNL d   1      -1.417   4.369   5.278  0.00  0.00     0.017 A 
ATOM     27  C   UNL d   1      -0.750   4.314   4.046  0.00  0.00     0.018 A 
BRANCH  25  28
ATOM     28  C   UNL d   1      -2.839   5.604   6.985  0.00  0.00     0.417 C 
ATOM     29  F   UNL d   1      -2.769   4.461   7.722  0.00  0.00    -0.166 F 
ATOM     30  F   UNL d   1      -4.166   5.883   6.854  0.00  0.00    -0.166 F 
ATOM     31  F   UNL d   1      -2.329   6.589   7.776  0.00  0.00    -0.166 F 
ENDBRANCH  25  28
ENDBRANCH  19  22
ENDBRANCH   1  18
BRANCH   1  32
ATOM     32  C   UNL d   1       1.323   7.814  -0.482  0.00  0.00     0.045 C 
BRANCH  32  33
ATOM     33  C   UNL d   1       0.322   8.953  -0.732  0.00  0.00     0.076 C 
BRANCH  33  34
ATOM     34  S   UNL d   1      -0.746   9.300   0.708  0.00  0.00    -0.173 SA
ATOM     35  C   UNL d   1      -1.920  10.431  -0.069  0.00  0.00     0.089 C 
ENDBRANCH  33  34
ENDBRANCH  32  33
ENDBRANCH   1  32
TORSDOF 9
