REMARK  4 active torsions:
REMARK  status: ('A' for Active; 'I' for Inactive)
REMARK    1  A    between atoms: C_7  and  C_1 
REMARK    2  A    between atoms: N_5  and  C_2 
REMARK    3  A    between atoms: N_9  and  N_5 
REMARK    4  A    between atoms: O_18  and  C_7 
ROOT
ATOM      1  C   UNL d   1       1.288  -1.351   0.036  0.00  0.00     0.109 A 
ATOM      2  C   UNL d   1      -0.100  -1.404   0.009  0.00  0.00     0.092 A 
ATOM      3  C   UNL d   1      -0.690  -0.100  -0.023  0.00  0.00     0.080 A 
ATOM      4  S   UNL d   1       1.849   0.269   0.017  0.00  0.00    -0.092 SA
ATOM      5  C   UNL d   1       0.262   0.897  -0.019  0.00  0.00     0.075 A 
ATOM      6  C   UNL d   1      -2.091   0.198  -0.018  0.00  0.00     0.102 C 
ATOM      7  N   UNL d   1      -3.222   0.469   0.002  0.00  0.00    -0.191 NA
ENDROOT
BRANCH   2   8
ATOM      8  N   UNL d   1      -0.790  -2.588   0.018  0.00  0.00    -0.296 N 
ATOM      9  H   UNL d   1      -0.233  -3.444   0.184  0.00  0.00     0.187 HD
BRANCH   8  10
ATOM     10  N   UNL d   1      -2.020  -2.691  -0.582  0.00  0.00    -0.281 N 
ATOM     11  C   UNL d   1      -2.654  -3.826  -0.617  0.00  0.00     0.209 C 
ATOM     12  C   UNL d   1      -2.120  -5.010  -0.012  0.00  0.00     0.130 C 
ATOM     13  C   UNL d   1      -3.914  -3.799  -1.306  0.00  0.00     0.130 C 
ATOM     14  N   UNL d   1      -1.670  -5.964   0.480  0.00  0.00    -0.189 NA
ATOM     15  N   UNL d   1      -4.932  -3.823  -1.867  0.00  0.00    -0.189 NA
ATOM     16  HN  UNL d   1      -2.443  -1.866  -1.006  1.00  0.00     0.188 HD
ENDBRANCH   8  10
ENDBRANCH   2   8
BRANCH   1  17
ATOM     17  C   UNL d   1       2.194  -2.487   0.051  0.00  0.00     0.302 C 
ATOM     18  O   UNL d   1       1.815  -3.655   0.062  0.00  0.00    -0.259 OA
BRANCH  17  19
ATOM     19  O   UNL d   1       3.504  -2.109   0.052  0.00  0.00    -0.322 OA
ATOM     20  C   UNL d   1       4.427  -3.198   0.070  0.00  0.00     0.213 C 
ENDBRANCH  17  19
ENDBRANCH   1  17
TORSDOF 4
