REMARK  4 active torsions:
REMARK  status: ('A' for Active; 'I' for Inactive)
REMARK    1  A    between atoms: N_7  and  N_1 
REMARK    2  A    between atoms: C_6  and  C_2 
REMARK       I    between atoms: C_3  and  N_12 
REMARK    3  A    between atoms: C_10  and  C_3 
REMARK    4  A    between atoms: N_12  and  N_4 
ROOT
ATOM      1  N   UNL d   1       2.123  -2.914  -0.297  0.00  0.00    -0.307 N 
ATOM      2  HN  UNL d   1       1.218  -3.378  -0.372  1.00  0.00     0.186 HD
ATOM      3  C   UNL d   1       2.206  -1.628  -0.169  0.00  0.00     0.138 C 
ENDROOT
BRANCH   1   4
ATOM      4  N   UNL d   1       3.287  -3.629  -0.328  0.00  0.00    -0.266 N 
ATOM      5  C   UNL d   1       3.217  -4.990  -0.613  0.00  0.00     0.270 C 
ATOM      6  O   UNL d   1       2.178  -5.609  -0.827  0.00  0.00    -0.266 OA
ATOM      7  H   UNL d   1       4.151  -3.186  -0.048  0.00  0.00     0.190 HD
BRANCH   5   8
ATOM      8  C   UNL d   1       4.507  -5.737  -0.662  0.00  0.00     0.033 A 
ATOM      9  C   UNL d   1       4.481  -7.114  -0.399  0.00  0.00     0.019 A 
ATOM     10  C   UNL d   1       5.643  -7.884  -0.499  0.00  0.00     0.025 A 
ATOM     11  C   UNL d   1       6.837  -7.276  -0.872  0.00  0.00     0.034 A 
ATOM     12  C   UNL d   1       6.881  -5.906  -1.135  0.00  0.00     0.025 A 
ATOM     13 CL   UNL d   1       8.263  -8.225  -1.036  0.00  0.00    -0.084 Cl
ATOM     14  C   UNL d   1       5.717  -5.134  -1.033  0.00  0.00     0.019 A 
ENDBRANCH   5   8
ENDBRANCH   1   4
BRANCH   3  15
ATOM     15  C   UNL d   1       0.998  -0.842  -0.134  0.00  0.00     0.067 A 
ATOM     16  N   UNL d   1       0.865   0.501  -0.434  0.00  0.00    -0.286 N 
ATOM     17  C   UNL d   1      -0.427   0.896  -0.191  0.00  0.00     0.111 A 
ATOM     18  C   UNL d   1      -1.168  -0.208   0.156  0.00  0.00     0.021 A 
ATOM     19  C   UNL d   1      -0.279  -1.304   0.168  0.00  0.00     0.034 A 
BRANCH  16  20
ATOM     20  N   UNL d   1       1.793   1.401  -1.040  0.00  0.00    -0.233 NA
ATOM     21  C   UNL d   1       2.417   0.894  -2.251  0.00  0.00     0.136 C 
ATOM     22  C   UNL d   1       2.706   2.034  -0.109  0.00  0.00     0.136 C 
ENDBRANCH  16  20
ENDBRANCH   3  15
TORSDOF 4
