REMARK  4 active torsions:
REMARK  status: ('A' for Active; 'I' for Inactive)
REMARK    1  A    between atoms: C_12  and  C_1 
REMARK    2  A    between atoms: S_8  and  C_3 
REMARK    3  A    between atoms: N_11  and  C_4 
REMARK    4  A    between atoms: C_7  and  S_8 
ROOT
ATOM      1  C   UNL d   1      -0.086   1.100   0.096  0.00  0.00     0.209 A 
ATOM      2  N   UNL d   1       0.828   0.091  -0.142  0.00  0.00    -0.312 N 
ATOM      3  C   UNL d   1       0.129  -1.079  -0.005  0.00  0.00     0.168 A 
ATOM      4  N   UNL d   1      -1.262   0.548   0.339  0.00  0.00    -0.279 N 
ATOM      5  HN  UNL d   1      -2.127   1.050   0.541  1.00  0.00     0.188 HD
ATOM      6  N   UNL d   1      -1.122  -0.815   0.272  0.00  0.00    -0.278 N 
ATOM      7  HN  UNL d   1      -1.863  -1.502   0.414  1.00  0.00     0.189 HD
ATOM      8  C   UNL d   1       2.232   0.249  -0.434  0.00  0.00     0.160 C 
ENDROOT
BRANCH   3   9
ATOM      9  S   UNL d   1       0.797  -2.658  -0.236  0.00  0.00    -0.043 SA
BRANCH   9  10
ATOM     10  C   UNL d   1       0.878  -3.135   1.466  0.00  0.00     0.082 A 
ATOM     11  C   UNL d   1       1.973  -3.196   2.318  0.00  0.00     0.127 A 
ATOM     12  C   UNL d   1       1.606  -3.699   3.617  0.00  0.00     0.045 A 
ATOM     13  C   UNL d   1       0.269  -4.007   3.709  0.00  0.00     0.053 A 
ATOM     14  S   UNL d   1      -0.549  -3.711   2.245  0.00  0.00    -0.092 SA
BRANCH  11  15
ATOM     15  N   UNL d   1       3.335  -2.820   1.993  0.00  0.00    -0.114 N 
ATOM     16  O   UNL d   1       3.558  -2.300   0.893  0.00  0.00    -0.532 OA
ATOM     17  O   UNL d   1       4.185  -3.015   2.867  0.00  0.00    -0.532 OA
ENDBRANCH  11  15
ENDBRANCH   9  10
ENDBRANCH   3   9
BRANCH   1  18
ATOM     18  C   UNL d   1       0.218   2.555   0.071  0.00  0.00     0.450 C 
ATOM     19  F   UNL d   1       1.541   2.817   0.243  0.00  0.00    -0.163 F 
ATOM     20  F   UNL d   1      -0.134   3.125  -1.111  0.00  0.00    -0.163 F 
ATOM     21  F   UNL d   1      -0.429   3.238   1.051  0.00  0.00    -0.163 F 
ENDBRANCH   1  18
TORSDOF 4
