REMARK  7 active torsions:
REMARK  status: ('A' for Active; 'I' for Inactive)
REMARK       I    between atoms: C_7  and  N_1 
REMARK    1  A    between atoms: S_12  and  C_2 
REMARK    2  A    between atoms: C_9  and  C_3 
REMARK    3  A    between atoms: O_10  and  C_7 
REMARK    4  A    between atoms: C_13  and  C_8 
REMARK    5  A    between atoms: O_16  and  C_9 
REMARK    6  A    between atoms: C_17  and  O_10 
REMARK    7  A    between atoms: C_21  and  O_16 
ROOT
ATOM      1  N   UNL d   1       1.099  -0.217   0.617  0.00  0.00    -0.241 N 
ATOM      2  C   UNL d   1       0.763   1.105   0.274  0.00  0.00     0.151 C 
ATOM      3  C   UNL d   1      -1.117  -0.855  -0.058  0.00  0.00     0.067 C 
ATOM      4  C   UNL d   1       0.140  -1.221   0.289  0.00  0.00     0.035 C 
ATOM      5  N   UNL d   1      -0.429   1.509   0.030  0.00  0.00    -0.357 N 
ATOM      6  HN  UNL d   1      -0.594   2.490  -0.194  1.00  0.00     0.162 HD
ATOM      7  C   UNL d   1       2.417  -0.632   0.895  0.00  0.00     0.378 C 
ATOM      8  C   UNL d   1      -1.556   0.573   0.069  0.00  0.00     0.158 C 
ATOM      9  O   UNL d   1       3.004  -1.493   0.253  0.00  0.00    -0.237 OA
ATOM     10  C   UNL d   1       0.542  -2.679   0.382  0.00  0.00     0.070 C 
ENDROOT
BRANCH   2  11
ATOM     11  S   UNL d   1       2.056   2.279   0.039  0.00  0.00    -0.098 SA
ATOM     12  C   UNL d   1       1.155   3.800  -0.352  0.00  0.00     0.099 C 
ENDBRANCH   2  11
BRANCH   7  13
ATOM     13  O   UNL d   1       3.104  -0.061   2.014  0.00  0.00    -0.261 OA
BRANCH  13  14
ATOM     14  C   UNL d   1       3.131   1.024   2.958  0.00  0.00     0.081 C 
ATOM     15  C   UNL d   1       2.004   1.724   3.356  0.00  0.00     0.037 C 
ATOM     16  C   UNL d   1       2.188   2.988   3.924  0.00  0.00     0.003 C 
ATOM     17  C   UNL d   1       3.477   3.499   4.123  0.00  0.00     0.000 C 
ATOM     18  C   UNL d   1       4.595   2.716   3.839  0.00  0.00     0.003 C 
ATOM     19  C   UNL d   1       4.423   1.460   3.268  0.00  0.00     0.037 C 
ENDBRANCH  13  14
ENDBRANCH   7  13
BRANCH   3  20
ATOM     20  C   UNL d   1      -2.154  -1.835  -0.482  0.00  0.00     0.293 C 
ATOM     21  O   UNL d   1      -3.315  -1.800  -0.104  0.00  0.00    -0.259 OA
BRANCH  20  22
ATOM     22  O   UNL d   1      -1.627  -2.726  -1.362  0.00  0.00    -0.318 OA
BRANCH  22  23
ATOM     23  C   UNL d   1      -2.505  -3.716  -1.925  0.00  0.00     0.174 C 
ATOM     24  C   UNL d   1      -2.951  -4.760  -0.914  0.00  0.00     0.034 C 
ENDBRANCH  22  23
ENDBRANCH  20  22
ENDBRANCH   3  20
BRANCH   8  25
ATOM     25  C   UNL d   1      -2.572   1.041  -0.965  0.00  0.00    -0.031 A 
ATOM     26  C   UNL d   1      -3.839   1.491  -0.555  0.00  0.00     0.009 A 
ATOM     27  C   UNL d   1      -4.750   1.994  -1.484  0.00  0.00     0.001 A 
ATOM     28  C   UNL d   1      -4.411   2.047  -2.834  0.00  0.00     0.000 A 
ATOM     29  C   UNL d   1      -3.168   1.579  -3.259  0.00  0.00     0.001 A 
ATOM     30  C   UNL d   1      -2.253   1.079  -2.332  0.00  0.00     0.009 A 
ENDBRANCH   8  25
TORSDOF 7
