REMARK  6 active torsions:
REMARK  status: ('A' for Active; 'I' for Inactive)
REMARK    1  A    between atoms: C_7  and  C_1 
REMARK    2  A    between atoms: C_9  and  C_1 
REMARK    3  A    between atoms: C_6  and  N_2 
REMARK    4  A    between atoms: C_12  and  C_7 
REMARK    5  A    between atoms: O_19  and  C_9 
REMARK    6  A    between atoms: O_23  and  C_12 
ROOT
ATOM      1  C   UNL d   1      -2.407   0.455  -0.391  0.00  0.00     0.247 C 
ATOM      2  N   UNL d   1      -2.418  -0.848   0.314  0.00  0.00    -0.271 N 
ATOM      3  C   UNL d   1      -1.234  -1.572   0.401  0.00  0.00     0.264 C 
ATOM      4  O   UNL d   1      -1.291   1.255   0.127  0.00  0.00    -0.308 OA
ATOM      5  C   UNL d   1       0.002  -0.790   0.234  0.00  0.00     0.066 A 
ATOM      6  C   UNL d   1      -0.095   0.597   0.189  0.00  0.00     0.088 A 
ATOM      7  O   UNL d   1      -1.170  -2.764   0.687  0.00  0.00    -0.267 OA
ATOM      8  C   UNL d   1       1.253  -1.415   0.258  0.00  0.00     0.020 A 
ATOM      9  C   UNL d   1       1.061   1.373   0.223  0.00  0.00     0.038 A 
ATOM     10  C   UNL d   1       2.410  -0.638   0.238  0.00  0.00     0.001 A 
ATOM     11  C   UNL d   1       2.313   0.755   0.235  0.00  0.00     0.003 A 
ENDROOT
BRANCH   1  12
ATOM     12  C   UNL d   1      -2.201   0.335  -1.922  0.00  0.00     0.184 C 
BRANCH  12  13
ATOM     13  C   UNL d   1      -3.332  -0.365  -2.627  0.00  0.00     0.263 C 
ATOM     14  O   UNL d   1      -4.343  -0.791  -2.103  0.00  0.00    -0.265 OA
BRANCH  13  15
ATOM     15  O   UNL d   1      -3.048  -0.457  -3.958  0.00  0.00    -0.326 OA
ATOM     16  C   UNL d   1      -4.031  -1.127  -4.758  0.00  0.00     0.213 C 
ENDBRANCH  13  15
ENDBRANCH  12  13
ENDBRANCH   1  12
BRANCH   1  17
ATOM     17  C   UNL d   1      -3.603   1.432  -0.134  0.00  0.00     0.316 C 
ATOM     18  O   UNL d   1      -4.279   1.957  -1.015  0.00  0.00    -0.260 OA
BRANCH  17  19
ATOM     19  O   UNL d   1      -3.737   1.726   1.195  0.00  0.00    -0.323 OA
ATOM     20  C   UNL d   1      -4.817   2.601   1.521  0.00  0.00     0.213 C 
ENDBRANCH  17  19
ENDBRANCH   1  17
BRANCH   2  21
ATOM     21  C   UNL d   1      -3.383  -1.097   1.329  0.00  0.00     0.044 A 
ATOM     22  C   UNL d   1      -3.025  -0.931   2.675  0.00  0.00     0.053 A 
ATOM     23  C   UNL d   1      -3.973  -1.126   3.678  0.00  0.00     0.037 A 
ATOM     24 CL   UNL d   1      -3.540  -0.863   5.322  0.00  0.00    -0.084 Cl
ATOM     25  C   UNL d   1      -5.271  -1.508   3.358  0.00  0.00     0.048 A 
ATOM     26  C   UNL d   1      -5.618  -1.687   2.021  0.00  0.00     0.037 A 
ATOM     27  C   UNL d   1      -4.685  -1.477   1.004  0.00  0.00     0.053 A 
ATOM     28 CL   UNL d   1      -7.222  -2.166   1.620  0.00  0.00    -0.084 Cl
ENDBRANCH   2  21
TORSDOF 6
