REMARK  3 active torsions:
REMARK  status: ('A' for Active; 'I' for Inactive)
REMARK       I    between atoms: C_2  and  N_1 
REMARK       I    between atoms: C_3  and  N_1 
REMARK    1  A    between atoms: C_5  and  C_2 
REMARK       I    between atoms: N_8  and  C_3 
REMARK    2  A    between atoms: C_4  and  C_6 
REMARK    3  A    between atoms: N_7  and  N_8 
ROOT
ATOM      1  N   UNL d   1       1.258   0.762   0.701  0.00  0.00    -0.274 N 
ATOM      2  C   UNL d   1       0.141  -0.048   0.713  0.00  0.00     0.260 C 
ATOM      3  C   UNL d   1       2.587   0.382   0.670  0.00  0.00     0.337 C 
ATOM      4  N   UNL d   1       2.825  -0.949   0.952  0.00  0.00    -0.271 N 
ATOM      5  O   UNL d   1       0.196  -1.275   0.780  0.00  0.00    -0.267 OA
ATOM      6  O   UNL d   1       3.425   1.259   0.466  0.00  0.00    -0.246 OA
ATOM      7  H   UNL d   1       1.170   1.762   0.585  0.00  0.00     0.173 HD
ATOM      8  H   UNL d   1       2.006  -1.554   0.844  0.00  0.00     0.185 HD
ENDROOT
BRANCH   2   9
ATOM      9  C   UNL d   1      -1.189   0.626   0.768  0.00  0.00     0.047 A 
ATOM     10  C   UNL d   1      -1.587   1.730  -0.005  0.00  0.00     0.063 A 
ATOM     11  C   UNL d   1      -2.854   2.305   0.244  0.00  0.00     0.017 A 
ATOM     12  C   UNL d   1      -3.728   1.761   1.184  0.00  0.00     0.001 A 
ATOM     13  C   UNL d   1      -3.357   0.627   1.894  0.00  0.00     0.001 A 
ATOM     14  C   UNL d   1      -2.095   0.067   1.692  0.00  0.00     0.018 A 
BRANCH  10  15
ATOM     15  C   UNL d   1      -0.773   2.338  -1.116  0.00  0.00     0.418 C 
ATOM     16  F   UNL d   1       0.271   1.578  -1.534  0.00  0.00    -0.166 F 
ATOM     17  F   UNL d   1      -1.512   2.590  -2.230  0.00  0.00    -0.166 F 
ATOM     18  F   UNL d   1      -0.235   3.531  -0.742  0.00  0.00    -0.166 F 
ENDBRANCH  10  15
ENDBRANCH   2   9
BRANCH   4  19
ATOM     19  N   UNL d   1       4.102  -1.598   0.936  0.00  0.00    -0.223 NA
ATOM     20  C   UNL d   1       4.089  -2.740   1.887  0.00  0.00     0.140 C 
ATOM     21  C   UNL d   1       4.108  -2.297   3.361  0.00  0.00     0.183 C 
ATOM     22  O   UNL d   1       5.222  -1.441   3.649  0.00  0.00    -0.389 OA
ATOM     23  C   UNL d   1       5.220  -0.301   2.775  0.00  0.00     0.183 C 
ATOM     24  C   UNL d   1       5.259  -0.746   1.308  0.00  0.00     0.140 C 
ENDBRANCH   4  19
TORSDOF 3
