REMARK  4 active torsions:
REMARK  status: ('A' for Active; 'I' for Inactive)
REMARK       I    between atoms: C_2  and  N_1 
REMARK       I    between atoms: C_3  and  N_1 
REMARK       I    between atoms: N_5  and  C_2 
REMARK    1  A    between atoms: C_10  and  C_3 
REMARK    2  A    between atoms: C_4  and  C_6 
REMARK    3  A    between atoms: O_13  and  C_4 
REMARK    4  A    between atoms: C_11  and  N_5 
ROOT
ATOM      1  N   UNL d   1      -1.134   0.564  -0.081  0.00  0.00    -0.275 N 
ATOM      2  C   UNL d   1       0.071   0.419  -0.717  0.00  0.00     0.327 C 
ATOM      3  C   UNL d   1      -1.746   1.666   0.489  0.00  0.00     0.259 C 
ATOM      4  N   UNL d   1       0.790   1.549  -0.989  0.00  0.00    -0.309 N 
ATOM      5  O   UNL d   1       0.429  -0.736  -0.918  0.00  0.00    -0.247 OA
ATOM      6  O   UNL d   1      -1.487   2.821   0.166  0.00  0.00    -0.267 OA
ATOM      7  H   UNL d   1      -1.482  -0.353   0.140  0.00  0.00     0.173 HD
ATOM      8  H   UNL d   1       0.455   2.414  -0.565  0.00  0.00     0.170 HD
ENDROOT
BRANCH   4   9
ATOM      9  C   UNL d   1       2.136   1.501  -1.445  0.00  0.00     0.037 A 
ATOM     10  C   UNL d   1       2.622   0.439  -2.223  0.00  0.00     0.047 A 
ATOM     11  C   UNL d   1       3.993   0.301  -2.468  0.00  0.00     0.041 A 
ATOM     12  C   UNL d   1       4.885   1.245  -1.953  0.00  0.00     0.018 A 
ATOM     13  C   UNL d   1       4.396   2.356  -1.263  0.00  0.00     0.003 A 
ATOM     14  C   UNL d   1       3.024   2.495  -1.026  0.00  0.00     0.029 A 
BRANCH  11  15
ATOM     15  C   UNL d   1       4.543  -0.866  -3.208  0.00  0.00     0.293 C 
ATOM     16  O   UNL d   1       5.685  -1.272  -3.059  0.00  0.00    -0.259 OA
BRANCH  15  17
ATOM     17  O   UNL d   1       3.623  -1.356  -4.072  0.00  0.00    -0.323 OA
ATOM     18  C   UNL d   1       4.073  -2.463  -4.857  0.00  0.00     0.213 C 
ENDBRANCH  15  17
ENDBRANCH  11  15
ENDBRANCH   4   9
BRANCH   3  19
ATOM     19  C   UNL d   1      -2.820   1.360   1.498  0.00  0.00     0.032 A 
ATOM     20  C   UNL d   1      -3.729   2.368   1.843  0.00  0.00     0.017 A 
ATOM     21  C   UNL d   1      -4.711   2.135   2.815  0.00  0.00     0.001 A 
ATOM     22  C   UNL d   1      -4.795   0.896   3.447  0.00  0.00     0.000 A 
ATOM     23  C   UNL d   1      -3.901  -0.115   3.108  0.00  0.00     0.001 A 
ATOM     24  C   UNL d   1      -2.915   0.114   2.145  0.00  0.00     0.017 A 
ENDBRANCH   3  19
TORSDOF 4
