REMARK  5 active torsions:
REMARK  status: ('A' for Active; 'I' for Inactive)
REMARK    1  A    between atoms: C_2  and  C_1 
REMARK    2  A    between atoms: O_7  and  C_1 
REMARK    3  A    between atoms: C_6  and  C_2 
REMARK    4  A    between atoms: S_4  and  C_6 
REMARK    5  A    between atoms: C_5  and  S_4 
ROOT
ATOM      1  C   UNL d   1       1.385   0.729  -5.262  0.00  0.00     0.000 A 
ATOM      2  C   UNL d   1       3.195   1.063  -7.395  0.00  0.00    -0.062 A 
ATOM      3  C   UNL d   1       1.983  -0.382  -5.860  0.00  0.00     0.019 A 
ATOM      4  C   UNL d   1       1.699   2.007  -5.734  0.00  0.00     0.019 A 
ATOM      5  C   UNL d   1       2.600   2.174  -6.790  0.00  0.00     0.008 A 
ATOM      6  C   UNL d   1       2.885  -0.216  -6.917  0.00  0.00     0.008 A 
ATOM      7  C   UNL d   1       4.129   1.224  -8.558  0.00  0.00     0.048 C 
ENDROOT
BRANCH   1   8
ATOM      8  S   UNL d   1       0.141   0.566  -3.994  0.00  0.00    -0.130 SA
BRANCH   8   9
ATOM      9  C   UNL d   1       1.042  -0.404  -2.735  0.00  0.00     0.090 C 
BRANCH   9  10
ATOM     10  C   UNL d   1       0.098  -0.661  -1.566  0.00  0.00     0.120 C 
BRANCH  10  11
ATOM     11  C   UNL d   1       0.782  -1.448  -0.479  0.00  0.00     0.140 C 
ATOM     12  O   UNL d   1       1.938  -1.838  -0.512  0.00  0.00    -0.650 OA
BRANCH  11  13
ATOM     13  O   UNL d   1      -0.036  -1.695   0.570  0.00  0.00    -0.776 OA
ATOM     14  H   UNL d   1      -0.936  -1.328   0.466  0.00  0.00     0.167 HD
ENDBRANCH  11  13
ENDBRANCH  10  11
ENDBRANCH   9  10
ENDBRANCH   8   9
ENDBRANCH   1   8
TORSDOF 5
