REMARK  4 active torsions:
REMARK  status: ('A' for Active; 'I' for Inactive)
REMARK       I    between atoms: N_3  and  C_1 
REMARK       I    between atoms: N_5  and  C_1 
REMARK    1  A    between atoms: C_2  and  C_4 
REMARK    2  A    between atoms: O_10  and  C_2 
REMARK    3  A    between atoms: C_8  and  N_3 
REMARK    4  A    between atoms: C_11  and  N_5 
ROOT
ATOM      1  C   UNL d   1       1.022  -0.060   0.062  0.00  0.00     0.325 C 
ATOM      2  N   UNL d   1       0.354   0.835  -0.766  0.00  0.00    -0.309 N 
ATOM      3  N   UNL d   1       0.177  -0.583   1.024  0.00  0.00    -0.309 N 
ATOM      4  O   UNL d   1       2.218  -0.315  -0.038  0.00  0.00    -0.247 OA
ATOM      5  H   UNL d   1      -0.536   1.175  -0.435  0.00  0.00     0.170 HD
ATOM      6  H   UNL d   1      -0.805  -0.370   0.936  0.00  0.00     0.170 HD
ENDROOT
BRANCH   2   7
ATOM      7  C   UNL d   1       0.947   1.557  -1.828  0.00  0.00     0.037 A 
ATOM      8  C   UNL d   1       2.163   1.187  -2.411  0.00  0.00     0.048 A 
ATOM      9  C   UNL d   1       2.771   2.004  -3.370  0.00  0.00     0.039 A 
ATOM     10  C   UNL d   1       2.118   3.157  -3.814  0.00  0.00     0.018 A 
ATOM     11  C   UNL d   1       0.873   3.497  -3.286  0.00  0.00     0.003 A 
ATOM     12  C   UNL d   1       0.291   2.701  -2.295  0.00  0.00     0.029 A 
BRANCH   9  13
ATOM     13  C   UNL d   1       4.093   1.666  -3.951  0.00  0.00     0.176 C 
ATOM     14  O   UNL d   1       4.413   1.984  -5.084  0.00  0.00    -0.646 OA
BRANCH  13  15
ATOM     15  O   UNL d   1       4.928   1.033  -3.099  0.00  0.00    -0.773 OA
ATOM     16  H   UNL d   1       4.611   0.945  -2.178  0.00  0.00     0.167 HD
ENDBRANCH  13  15
ENDBRANCH   9  13
ENDBRANCH   2   7
BRANCH   3  17
ATOM     17  C   UNL d   1       0.532  -1.439   2.093  0.00  0.00     0.036 A 
ATOM     18  C   UNL d   1       1.834  -1.886   2.335  0.00  0.00     0.029 A 
ATOM     19  C   UNL d   1       2.113  -2.723   3.419  0.00  0.00     0.002 A 
ATOM     20  C   UNL d   1       1.094  -3.117   4.279  0.00  0.00     0.000 A 
ATOM     21  C   UNL d   1      -0.208  -2.677   4.052  0.00  0.00     0.002 A 
ATOM     22  C   UNL d   1      -0.488  -1.844   2.963  0.00  0.00     0.029 A 
ENDBRANCH   3  17
TORSDOF 4
