REMARK  5 active torsions:
REMARK  status: ('A' for Active; 'I' for Inactive)
REMARK    1  A    between atoms: C_7  and  N_1 
REMARK    2  A    between atoms: S_8  and  C_2 
REMARK    3  A    between atoms: C_13  and  S_8 
REMARK    4  A    between atoms: C_11  and  C_13 
REMARK    5  A    between atoms: C_15  and  C_11 
ROOT
ATOM      1  N   UNL d   1      -0.048  -1.336  -0.011  0.00  0.00    -0.218 N 
ATOM      2  C   UNL d   1       1.202  -0.727   0.060  0.00  0.00     0.177 A 
ATOM      3  N   UNL d   1       1.058   0.578  -0.011  0.00  0.00    -0.264 N 
ATOM      4  HN  UNL d   1       1.798   1.280   0.022  1.00  0.00     0.186 HD
ATOM      5  N   UNL d   1      -0.958  -0.337  -0.170  0.00  0.00     0.001 NA
ATOM      6  N   UNL d   1      -0.284   0.801  -0.140  0.00  0.00    -0.006 NA
ENDROOT
BRANCH   2   7
ATOM      7  S   UNL d   1       2.733  -1.544   0.001  0.00  0.00    -0.084 SA
BRANCH   7   8
ATOM      8  C   UNL d   1       3.815  -0.335   0.815  0.00  0.00     0.166 C 
BRANCH   8   9
ATOM      9  C   UNL d   1       3.503  -0.136   2.291  0.00  0.00     0.169 C 
ATOM     10  O   UNL d   1       2.575  -0.700   2.871  0.00  0.00    -0.291 OA
BRANCH   9  11
ATOM     11  C   UNL d   1       4.397   0.779   3.075  0.00  0.00     0.010 A 
ATOM     12  C   UNL d   1       5.540   1.371   2.519  0.00  0.00     0.015 A 
ATOM     13  C   UNL d   1       6.356   2.199   3.294  0.00  0.00     0.001 A 
ATOM     14  C   UNL d   1       6.036   2.448   4.630  0.00  0.00     0.000 A 
ATOM     15  C   UNL d   1       4.900   1.867   5.189  0.00  0.00     0.001 A 
ATOM     16  C   UNL d   1       4.084   1.038   4.419  0.00  0.00     0.015 A 
ENDBRANCH   9  11
ENDBRANCH   8   9
ENDBRANCH   7   8
ENDBRANCH   2   7
BRANCH   1  17
ATOM     17  C   UNL d   1      -0.461  -2.689   0.155  0.00  0.00     0.062 A 
ATOM     18  C   UNL d   1      -1.632  -3.202  -0.453  0.00  0.00    -0.033 A 
ATOM     19  C   UNL d   1      -2.057  -4.503  -0.109  0.00  0.00     0.015 A 
ATOM     20  C   UNL d   1      -2.468  -2.495  -1.488  0.00  0.00     0.050 C 
ATOM     21  C   UNL d   1      -1.340  -5.305   0.784  0.00  0.00    -0.061 A 
ATOM     22  C   UNL d   1      -0.155  -4.811   1.326  0.00  0.00     0.009 A 
ATOM     23  C   UNL d   1      -1.863  -6.655   1.175  0.00  0.00     0.048 C 
ATOM     24  C   UNL d   1       0.274  -3.517   1.022  0.00  0.00     0.032 A 
ENDBRANCH   1  17
TORSDOF 5
