REMARK  4 active torsions:
REMARK  status: ('A' for Active; 'I' for Inactive)
REMARK    1  A    between atoms: C_2  and  O_11 
REMARK       I    between atoms: N_8  and  C_2 
REMARK    2  A    between atoms: O_11  and  N_6 
REMARK    3  A    between atoms: C_15  and  N_8 
REMARK    4  A    between atoms: C_14  and  C_16 
ROOT
ATOM      1  N   UNL d   1       4.794  -2.317   0.043  0.00  0.00    -0.267 N 
ATOM      2  HN  UNL d   1       4.173  -3.101   0.240  1.00  0.00     0.194 HD
ATOM      3  C   UNL d   1       4.449  -1.083  -0.178  0.00  0.00     0.126 C 
ENDROOT
BRANCH   1   4
ATOM      4  O   UNL d   1       6.206  -2.351  -0.043  0.00  0.00    -0.181 OA
BRANCH   4   5
ATOM      5  C   UNL d   1       6.773  -3.567   0.286  0.00  0.00     0.387 C 
ATOM      6  N   UNL d   1       5.876  -4.546   0.650  0.00  0.00    -0.301 N 
ATOM      7  H   UNL d   1       4.910  -4.254   0.528  0.00  0.00     0.171 HD
ATOM      8  O   UNL d   1       7.991  -3.692   0.221  0.00  0.00    -0.236 OA
BRANCH   6   9
ATOM      9  C   UNL d   1       6.173  -5.842   1.114  0.00  0.00     0.037 A 
ATOM     10  C   UNL d   1       7.466  -6.244   1.470  0.00  0.00     0.031 A 
ATOM     11  C   UNL d   1       7.716  -7.535   1.948  0.00  0.00     0.026 A 
ATOM     12  C   UNL d   1       6.666  -8.441   2.067  0.00  0.00     0.034 A 
ATOM     13  C   UNL d   1       5.376  -8.062   1.716  0.00  0.00     0.026 A 
ATOM     14 CL   UNL d   1       6.974 -10.026   2.659  0.00  0.00    -0.084 Cl
ATOM     15  C   UNL d   1       5.127  -6.761   1.248  0.00  0.00     0.031 A 
ENDBRANCH   6   9
ENDBRANCH   4   5
ENDBRANCH   1   4
BRANCH   3  16
ATOM     16  C   UNL d   1       3.053  -0.616  -0.205  0.00  0.00    -0.018 A 
ATOM     17  C   UNL d   1       2.808   0.749  -0.390  0.00  0.00     0.015 A 
ATOM     18  C   UNL d   1       1.494   1.219  -0.387  0.00  0.00     0.038 A 
ATOM     19  C   UNL d   1       0.430   0.331  -0.223  0.00  0.00     0.076 A 
ATOM     20  O   UNL d   1      -0.814   0.897  -0.210  0.00  0.00    -0.340 OA
ATOM     21  C   UNL d   1       0.669  -1.042  -0.108  0.00  0.00    -0.024 A 
ATOM     22  C   UNL d   1      -1.934   0.033   0.061  0.00  0.00     0.061 C 
ATOM     23  C   UNL d   1      -1.740  -1.361  -0.555  0.00  0.00     0.042 C 
ATOM     24  C   UNL d   1      -3.142   0.711  -0.599  0.00  0.00     0.046 C 
ATOM     25  C   UNL d   1      -2.180  -0.029   1.577  0.00  0.00     0.046 C 
ATOM     26  C   UNL d   1      -0.470  -2.013  -0.027  0.00  0.00     0.044 C 
ATOM     27  C   UNL d   1       1.991  -1.510  -0.066  0.00  0.00     0.022 A 
ENDBRANCH   3  16
TORSDOF 4
