REMARK  3 active torsions:
REMARK  status: ('A' for Active; 'I' for Inactive)
REMARK    1  A    between atoms: N_2  and  S_1 
REMARK       I    between atoms: C_6  and  N_2 
REMARK       I    between atoms: C_4  and  N_5 
REMARK    2  A    between atoms: C_7  and  C_4 
REMARK    3  A    between atoms: C_8  and  C_6 
ROOT
ATOM      1  S   UNL d   1       0.849   1.501  -0.294  0.00  0.00    -0.122 SA
ATOM      2  C   UNL d   1      -1.433  -2.095   1.180  0.00  0.00     0.253 C 
ATOM      3  N   UNL d   1      -0.845  -1.209   0.286  0.00  0.00    -0.346 N 
ATOM      4  C   UNL d   1       1.367  -0.089   0.464  0.00  0.00     0.105 C 
ATOM      5  C   UNL d   1      -0.943   1.252  -0.052  0.00  0.00     0.105 C 
ATOM      6  C   UNL d   1      -1.485  -0.121  -0.462  0.00  0.00     0.137 C 
ATOM      7  C   UNL d   1       0.591  -1.327   0.007  0.00  0.00     0.137 C 
ATOM      8  O   UNL d   1      -0.845  -3.080   1.631  0.00  0.00    -0.267 OA
ENDROOT
BRANCH   1   9
ATOM      9  N   UNL d   1       0.935   1.116  -1.751  0.00  0.00    -0.306 N 
ATOM     10  C   UNL d   1       2.030   1.513  -2.422  0.00  0.00     0.261 C 
ATOM     11  O   UNL d   1       2.927   2.285  -2.082  0.00  0.00    -0.267 OA
ATOM     12  HN  UNL d   1       0.196   0.580  -2.205  1.00  0.00     0.176 HD
BRANCH  10  13
ATOM     13  C   UNL d   1       2.148   0.909  -3.799  0.00  0.00     0.032 A 
ATOM     14  C   UNL d   1       3.206   1.322  -4.624  0.00  0.00     0.018 A 
ATOM     15  C   UNL d   1       3.377   0.770  -5.897  0.00  0.00     0.025 A 
ATOM     16  C   UNL d   1       2.486  -0.200  -6.352  0.00  0.00     0.034 A 
ATOM     17  C   UNL d   1       1.423  -0.615  -5.556  0.00  0.00     0.025 A 
ATOM     18 CL   UNL d   1       2.702  -0.891  -7.916  0.00  0.00    -0.084 Cl
ATOM     19  C   UNL d   1       1.254  -0.061  -4.282  0.00  0.00     0.018 A 
ENDBRANCH  10  13
ENDBRANCH   1   9
BRANCH   2  20
ATOM     20  C   UNL d   1      -2.835  -1.910   1.648  0.00  0.00     0.032 A 
ATOM     21  C   UNL d   1      -3.618  -3.060   1.839  0.00  0.00     0.018 A 
ATOM     22  C   UNL d   1      -4.916  -2.961   2.350  0.00  0.00     0.025 A 
ATOM     23  C   UNL d   1      -5.436  -1.709   2.670  0.00  0.00     0.034 A 
ATOM     24  C   UNL d   1      -4.662  -0.562   2.508  0.00  0.00     0.025 A 
ATOM     25 CL   UNL d   1      -7.035  -1.582   3.293  0.00  0.00    -0.084 Cl
ATOM     26  C   UNL d   1      -3.354  -0.666   2.025  0.00  0.00     0.018 A 
ENDBRANCH   2  20
TORSDOF 3
