REMARK  1 active torsions:
REMARK  status: ('A' for Active; 'I' for Inactive)
REMARK    1  A    between atoms: S_14  and  C_8 
ROOT
ATOM      1  C   UNL d   1       0.078  -0.788  -0.001  0.00  0.00     0.106 A 
ATOM      2  C   UNL d   1      -0.051   0.546  -0.000  0.00  0.00     0.090 A 
ATOM      3  C   UNL d   1       1.410  -1.468  -0.001  0.00  0.00     0.281 A 
ATOM      4  N   UNL d   1      -1.271   1.237  -0.001  0.00  0.00    -0.292 N 
ATOM      5  N   UNL d   1      -2.506   0.609   0.001  0.00  0.00    -0.286 N 
ATOM      6  HN  UNL d   1      -3.353   1.177   0.003  1.00  0.00     0.188 HD
ATOM      7  S   UNL d   1      -1.301  -1.830  -0.003  0.00  0.00    -0.056 SA
ATOM      8  C   UNL d   1      -2.608  -0.684   0.001  0.00  0.00     0.127 A 
ATOM      9  C   UNL d   1       1.255   1.258   0.001  0.00  0.00     0.140 A 
ATOM     10  N   UNL d   1       2.439   0.739   0.002  0.00  0.00    -0.305 N 
ATOM     11  HN  UNL d   1       3.277   1.320   0.004  1.00  0.00     0.186 HD
ATOM     12  N   UNL d   1       2.515  -0.626   0.001  0.00  0.00    -0.261 N 
ATOM     13  O   UNL d   1       1.516  -2.694  -0.002  0.00  0.00    -0.265 OA
ATOM     14  C   UNL d   1      -1.431   2.695   0.000  0.00  0.00     0.178 C 
ATOM     15  C   UNL d   1       3.842  -1.211   0.002  0.00  0.00     0.181 C 
ENDROOT
BRANCH   8  16
ATOM     16  S   UNL d   1      -4.185  -1.459   0.005  0.00  0.00    -0.108 SA
ATOM     17  C   UNL d   1      -5.291  -0.039   0.008  0.00  0.00     0.097 C 
ENDBRANCH   8  16
TORSDOF 1
