REMARK  1 active torsions:
REMARK  status: ('A' for Active; 'I' for Inactive)
REMARK    1  A    between atoms: S_2  and  C_1 
ROOT
ATOM      1  C   UNL d   1      -1.766  -1.400  -0.114  0.00  0.00     0.135 C 
ATOM      2  C   UNL d   1      -2.105   0.006   0.135  0.00  0.00     0.310 C 
ATOM      3  C   UNL d   1      -0.497  -1.827  -0.188  0.00  0.00     0.044 C 
ATOM      4  O   UNL d   1      -1.053   0.917   0.057  0.00  0.00    -0.274 OA
ATOM      5  C   UNL d   1       0.589  -0.873  -0.069  0.00  0.00    -0.001 A 
ATOM      6  C   UNL d   1       0.285   0.484   0.001  0.00  0.00     0.089 A 
ATOM      7  O   UNL d   1      -3.233   0.373   0.437  0.00  0.00    -0.258 OA
ATOM      8  C   UNL d   1       1.927  -1.269  -0.052  0.00  0.00     0.014 A 
ATOM      9  C   UNL d   1       1.282   1.455   0.055  0.00  0.00     0.038 A 
ATOM     10  C   UNL d   1       2.616   1.053   0.062  0.00  0.00     0.003 A 
ATOM     11  C   UNL d   1       2.938  -0.306   0.019  0.00  0.00     0.001 A 
ENDROOT
BRANCH   1  12
ATOM     12  S   UNL d   1      -3.053  -2.543  -0.297  0.00  0.00     0.177 S 
ATOM     13  O   UNL d   1      -4.101  -1.992  -1.135  0.00  0.00    -0.223 OA
ATOM     14  O   UNL d   1      -2.499  -3.846  -0.635  0.00  0.00    -0.223 OA
ATOM     15  C   UNL d   1      -3.682  -2.693   1.356  0.00  0.00     0.167 C 
ENDBRANCH   1  12
TORSDOF 1
