REMARK  4 active torsions:
REMARK  status: ('A' for Active; 'I' for Inactive)
REMARK    1  A    between atoms: C_2  and  N_1 
REMARK    2  A    between atoms: N_9  and  C_6 
REMARK    3  A    between atoms: C_14  and  N_9 
REMARK    4  A    between atoms: C_15  and  C_14 
ROOT
ATOM      1  C   UNL d   1       0.205  -1.319  -0.203  0.00  0.00     0.118 A 
ATOM      2  N   UNL d   1      -0.493  -3.622  -0.369  0.00  0.00    -0.354 N 
ATOM      3  HN  UNL d   1      -0.575  -4.549   0.049  1.00  0.00     0.166 HD
ATOM      4  C   UNL d   1      -0.924  -3.387  -1.626  0.00  0.00     0.080 A 
ATOM      5  C   UNL d   1       0.055  -2.589   0.325  0.00  0.00     0.125 A 
ATOM      6  C   UNL d   1      -0.250  -1.070  -1.494  0.00  0.00     0.041 A 
ATOM      7  C   UNL d   1      -0.830  -2.120  -2.205  0.00  0.00     0.044 A 
ENDROOT
BRANCH   4   8
ATOM      8  N   UNL d   1      -1.411  -4.427  -2.419  0.00  0.00    -0.275 NA
ATOM      9  H   UNL d   1      -2.338  -4.210  -2.767  0.00  0.00     0.129 HD
BRANCH   8  10
ATOM     10  C   UNL d   1      -1.326  -5.761  -1.847  0.00  0.00     0.132 C 
BRANCH  10  11
ATOM     11  C   UNL d   1      -1.641  -6.756  -2.938  0.00  0.00    -0.042 A 
ATOM     12  C   UNL d   1      -0.666  -7.099  -3.882  0.00  0.00     0.025 A 
ATOM     13  C   UNL d   1      -0.998  -7.990  -4.889  0.00  0.00     0.088 A 
ATOM     14  N   UNL d   1      -2.218  -8.551  -5.022  0.00  0.00    -0.375 N 
ATOM     15  C   UNL d   1      -3.148  -8.198  -4.110  0.00  0.00     0.088 A 
ATOM     16  HN  UNL d   1      -2.427  -9.208  -5.774  1.00  0.00     0.164 HD
ATOM     17  C   UNL d   1      -2.915  -7.315  -3.066  0.00  0.00     0.025 A 
ENDBRANCH  10  11
ENDBRANCH   8  10
ENDBRANCH   4   8
BRANCH   1  18
ATOM     18  N   UNL d   1       0.851  -0.274   0.581  0.00  0.00    -0.114 N 
ATOM     19  O   UNL d   1       1.196  -0.552   1.737  0.00  0.00    -0.532 OA
ATOM     20  O   UNL d   1       1.014   0.830   0.043  0.00  0.00    -0.532 OA
ENDBRANCH   1  18
TORSDOF 4
