REMARK  2 active torsions:
REMARK  status: ('A' for Active; 'I' for Inactive)
REMARK    1  A    between atoms: N_7  and  C_2 
REMARK    2  A    between atoms: C_13  and  C_3 
ROOT
ATOM      1  C   UNL d   1       0.214   1.067  -0.025  0.00  0.00     0.048 A 
ATOM      2  C   UNL d   1       1.606   1.425  -0.025  0.00  0.00     0.097 A 
ATOM      3  C   UNL d   1      -1.072   1.781   0.002  0.00  0.00    -0.003 A 
ATOM      4  C   UNL d   1      -0.025  -0.304  -0.049  0.00  0.00     0.089 A 
ATOM      5  C   UNL d   1      -2.138   0.893   0.095  0.00  0.00     0.065 A 
ATOM      6  S   UNL d   1      -1.666  -0.735   0.048  0.00  0.00    -0.082 SA
ATOM      7  N   UNL d   1       2.514   0.411  -0.100  0.00  0.00    -0.342 N 
ATOM      8  HN  UNL d   1       3.510   0.630  -0.122  1.00  0.00     0.167 HD
ATOM      9  N   UNL d   1       0.872  -1.301  -0.114  0.00  0.00    -0.346 N 
ATOM     10  HN  UNL d   1       0.621  -2.289  -0.138  1.00  0.00     0.167 HD
ATOM     11  C   UNL d   1       2.120  -0.858  -0.145  0.00  0.00     0.182 A 
ENDROOT
BRANCH   2  12
ATOM     12  N   UNL d   1       2.108   2.714   0.213  0.00  0.00    -0.265 NA
ATOM     13  C   UNL d   1       3.465   2.679   0.827  0.00  0.00     0.127 C 
ATOM     14  C   UNL d   1       3.885   4.100   1.254  0.00  0.00     0.284 C 
ATOM     15  N   UNL d   1       3.880   5.066   0.136  0.00  0.00     0.085 N 
ATOM     16  C   UNL d   1       2.570   5.015  -0.550  0.00  0.00     0.284 C 
ATOM     17  H   UNL d   1       4.022   6.003   0.516  0.00  0.00     0.315 HD
ATOM     18  C   UNL d   1       2.130   3.589  -0.981  0.00  0.00     0.127 C 
ENDBRANCH   2  12
BRANCH   3  19
ATOM     19  C   UNL d   1      -1.388   3.211  -0.111  0.00  0.00    -0.024 A 
ATOM     20  C   UNL d   1      -2.434   3.641  -0.948  0.00  0.00     0.012 A 
ATOM     21  C   UNL d   1      -2.693   5.000  -1.151  0.00  0.00     0.001 A 
ATOM     22  C   UNL d   1      -1.894   5.952  -0.531  0.00  0.00     0.000 A 
ATOM     23  C   UNL d   1      -0.894   5.545   0.345  0.00  0.00     0.001 A 
ATOM     24  C   UNL d   1      -0.661   4.183   0.580  0.00  0.00     0.012 A 
ENDBRANCH   3  19
TORSDOF 2
