REMARK  3 active torsions:
REMARK  status: ('A' for Active; 'I' for Inactive)
REMARK    1  A    between atoms: C_2  and  S_1 
REMARK    2  A    between atoms: O_4  and  S_1 
REMARK    3  A    between atoms: C_3  and  O_4 
ROOT
ATOM      1  S   UNL d   1       0.983   0.087  -0.080  0.00  0.00     0.304 S 
ATOM      2  O   UNL d   1       0.309   1.034   0.789  0.00  0.00    -0.193 OA
ATOM      3  O   UNL d   1       2.427   0.124  -0.248  0.00  0.00    -0.193 OA
ENDROOT
BRANCH   1   4
ATOM      4  C   UNL d   1       0.314   0.335  -1.725  0.00  0.00     0.109 A 
ATOM      5  C   UNL d   1      -0.974   0.820  -1.948  0.00  0.00     0.059 A 
ATOM      6  C   UNL d   1      -1.361   1.171  -3.249  0.00  0.00     0.050 A 
ATOM      7 CL   UNL d   1      -2.187   0.984  -0.733  0.00  0.00    -0.083 Cl
ATOM      8  C   UNL d   1      -0.484   1.023  -4.329  0.00  0.00     0.041 A 
ATOM      9  C   UNL d   1       0.803   0.512  -4.127  0.00  0.00    -0.039 A 
ATOM     10 CL   UNL d   1      -1.058   1.493  -5.888  0.00  0.00    -0.084 Cl
ATOM     11  C   UNL d   1       1.192   0.178  -2.815  0.00  0.00     0.036 A 
ATOM     12  C   UNL d   1       1.815   0.332  -5.226  0.00  0.00     0.050 C 
ENDBRANCH   1   4
BRANCH   1  13
ATOM     13  O   UNL d   1       0.559  -1.443   0.315  0.00  0.00    -0.225 OA
BRANCH  13  14
ATOM     14  C   UNL d   1       0.822  -1.972   1.558  0.00  0.00     0.137 A 
ATOM     15  C   UNL d   1       0.552  -3.217   1.981  0.00  0.00    -0.045 A 
ATOM     16  C   UNL d   1       0.878  -3.454   3.430  0.00  0.00     0.044 A 
ATOM     17  C   UNL d   1      -0.006  -4.355   1.196  0.00  0.00     0.046 C 
ATOM     18  C   UNL d   1       1.529  -2.169   3.913  0.00  0.00     0.090 A 
ATOM     19  C   UNL d   1       1.480  -1.290   2.702  0.00  0.00     0.184 A 
ATOM     20  O   UNL d   1       1.966  -0.172   2.672  0.00  0.00    -0.290 OA
ENDBRANCH  13  14
ENDBRANCH   1  13
TORSDOF 3
