REMARK  7 active torsions:
REMARK  status: ('A' for Active; 'I' for Inactive)
REMARK    1  A    between atoms: N_4  and  C_2 
REMARK    2  A    between atoms: S_18  and  C_11 
REMARK    3  A    between atoms: C_13  and  O_19 
REMARK       I    between atoms: N_15  and  C_13 
REMARK    4  A    between atoms: C_20  and  N_15 
REMARK    5  A    between atoms: C_21  and  S_18 
REMARK    6  A    between atoms: O_19  and  C_22 
REMARK    7  A    between atoms: C_22  and  C_21 
ROOT
ATOM      1  C   UNL d   1      -2.073  -0.702   1.732  0.00  0.00     0.119 A 
ATOM      2  C   UNL d   1      -1.385  -1.510   0.805  0.00  0.00     0.133 A 
ATOM      3  C   UNL d   1      -2.019   0.765   1.633  0.00  0.00     0.104 A 
ATOM      4  N   UNL d   1      -2.837  -1.001   2.791  0.00  0.00    -0.237 N 
ATOM      5  HN  UNL d   1      -3.079  -1.935   3.123  1.00  0.00     0.197 HD
ATOM      6  C   UNL d   1      -0.638  -0.841  -0.191  0.00  0.00     0.040 A 
ATOM      7  N   UNL d   1      -2.740   1.272   2.642  0.00  0.00    -0.238 N 
ATOM      8  HN  UNL d   1      -2.892   2.259   2.849  1.00  0.00     0.197 HD
ATOM      9  O   UNL d   1      -3.234   0.195   3.346  0.00  0.00    -0.156 OA
ATOM     10  C   UNL d   1      -1.291   1.423   0.610  0.00  0.00     0.031 A 
ATOM     11  C   UNL d   1      -0.593   0.574  -0.274  0.00  0.00     0.023 A 
ENDROOT
BRANCH  10  12
ATOM     12  S   UNL d   1      -1.163   3.183   0.514  0.00  0.00    -0.125 SA
BRANCH  12  13
ATOM     13  C   UNL d   1      -2.915   3.658   0.260  0.00  0.00     0.106 C 
BRANCH  13  14
ATOM     14  C   UNL d   1      -3.009   5.174   0.078  0.00  0.00     0.191 C 
BRANCH  14  15
ATOM     15  O   UNL d   1      -4.373   5.636   0.004  0.00  0.00    -0.303 OA
BRANCH  15  16
ATOM     16  C   UNL d   1      -4.994   5.460  -1.186  0.00  0.00     0.365 C 
ATOM     17  N   UNL d   1      -6.238   6.014  -1.310  0.00  0.00    -0.303 N 
ATOM     18  H   UNL d   1      -6.665   5.749  -2.188  0.00  0.00     0.171 HD
ATOM     19  O   UNL d   1      -4.511   4.820  -2.119  0.00  0.00    -0.238 OA
BRANCH  17  20
ATOM     20  C   UNL d   1      -7.009   6.824  -0.456  0.00  0.00     0.036 A 
ATOM     21  C   UNL d   1      -6.558   7.379   0.742  0.00  0.00     0.029 A 
ATOM     22  C   UNL d   1      -7.426   8.125   1.549  0.00  0.00     0.002 A 
ATOM     23  C   UNL d   1      -8.748   8.332   1.161  0.00  0.00     0.000 A 
ATOM     24  C   UNL d   1      -9.195   7.823  -0.053  0.00  0.00     0.002 A 
ATOM     25  C   UNL d   1      -8.328   7.081  -0.860  0.00  0.00     0.029 A 
ENDBRANCH  17  20
ENDBRANCH  15  16
ENDBRANCH  14  15
ENDBRANCH  13  14
ENDBRANCH  12  13
ENDBRANCH  10  12
BRANCH   2  26
ATOM     26  N   UNL d   1      -1.436  -2.958   0.870  0.00  0.00    -0.113 N 
ATOM     27  O   UNL d   1      -2.110  -3.498   1.753  0.00  0.00    -0.532 OA
ATOM     28  O   UNL d   1      -0.790  -3.577   0.011  0.00  0.00    -0.532 OA
ENDBRANCH   2  26
TORSDOF 7
