REMARK  4 active torsions:
REMARK  status: ('A' for Active; 'I' for Inactive)
REMARK    1  A    between atoms: N_2  and  S_1 
REMARK    2  A    between atoms: C_4  and  S_1 
REMARK       I    between atoms: C_3  and  N_5 
REMARK    3  A    between atoms: C_9  and  C_3 
REMARK    4  A    between atoms: N_5  and  C_13 
ROOT
ATOM      1  C   UNL d   1       0.415  -0.984   1.366  0.00  0.00     0.074 A 
ATOM      2  C   UNL d   1       0.244  -2.368   1.299  0.00  0.00     0.027 A 
ATOM      3  C   UNL d   1       0.255  -0.314   2.578  0.00  0.00     0.027 A 
ATOM      4  C   UNL d   1      -0.177  -2.437   3.697  0.00  0.00     0.035 A 
ATOM      5  C   UNL d   1      -0.046  -1.044   3.737  0.00  0.00     0.031 A 
ATOM      6  C   UNL d   1      -0.051  -3.087   2.463  0.00  0.00     0.031 A 
ENDROOT
BRANCH   4   7
ATOM      7  N   UNL d   1      -0.378  -3.251   4.837  0.00  0.00    -0.323 N 
ATOM      8  C   UNL d   1      -0.516  -2.829   6.150  0.00  0.00     0.256 C 
ATOM      9  O   UNL d   1      -0.636  -1.665   6.520  0.00  0.00    -0.267 OA
ATOM     10  H   UNL d   1      -0.427  -4.244   4.663  0.00  0.00     0.169 HD
BRANCH   8  11
ATOM     11  C   UNL d   1      -0.542  -3.903   7.192  0.00  0.00     0.032 A 
ATOM     12  C   UNL d   1       0.081  -5.147   7.023  0.00  0.00     0.017 A 
ATOM     13  C   UNL d   1       0.056  -6.091   8.057  0.00  0.00     0.001 A 
ATOM     14  C   UNL d   1      -0.578  -5.796   9.264  0.00  0.00     0.000 A 
ATOM     15  C   UNL d   1      -1.188  -4.556   9.444  0.00  0.00     0.001 A 
ATOM     16  C   UNL d   1      -1.169  -3.614   8.414  0.00  0.00     0.017 A 
ENDBRANCH   8  11
ENDBRANCH   4   7
BRANCH   1  17
ATOM     17  S   UNL d   1       0.996  -0.102  -0.062  0.00  0.00     0.243 S 
ATOM     18  O   UNL d   1       2.183   0.623   0.340  0.00  0.00    -0.206 OA
ATOM     19  O   UNL d   1       1.046  -1.041  -1.164  0.00  0.00    -0.206 OA
BRANCH  17  20
ATOM     20  N   UNL d   1      -0.216   1.039  -0.414  0.00  0.00    -0.202 NA
ATOM     21  C   UNL d   1      -1.590   0.530  -0.716  0.00  0.00     0.134 C 
ATOM     22  C   UNL d   1      -1.728   0.050  -2.166  0.00  0.00     0.183 C 
ATOM     23  O   UNL d   1      -1.348   1.073  -3.097  0.00  0.00    -0.389 OA
ATOM     24  C   UNL d   1       0.011   1.479  -2.876  0.00  0.00     0.183 C 
ATOM     25  C   UNL d   1       0.188   2.043  -1.461  0.00  0.00     0.134 C 
ENDBRANCH  17  20
ENDBRANCH   1  17
TORSDOF 4
