REMARK  3 active torsions:
REMARK  status: ('A' for Active; 'I' for Inactive)
REMARK    1  A    between atoms: S_4  and  C_3 
REMARK    2  A    between atoms: C_5  and  S_4 
REMARK    3  A    between atoms: N_10  and  C_7 
ROOT
ATOM      1  N   UNL d   1      -1.297   0.249   1.247  0.00  0.00    -0.359 N 
ATOM      2  HN  UNL d   1      -1.906   0.264   2.065  1.00  0.00     0.166 HD
ATOM      3  C   UNL d   1      -1.798   0.221  -0.007  0.00  0.00     0.074 A 
ATOM      4  C   UNL d   1       0.054   0.256   1.366  0.00  0.00     0.112 A 
ATOM      5  C   UNL d   1       0.950   0.183   0.301  0.00  0.00     0.021 A 
ATOM      6  C   UNL d   1      -0.990   0.216  -1.138  0.00  0.00     0.039 A 
ATOM      7  C   UNL d   1       0.397   0.221  -0.975  0.00  0.00     0.027 A 
ENDROOT
BRANCH   3   8
ATOM      8  S   UNL d   1      -3.567   0.122  -0.172  0.00  0.00    -0.073 SA
BRANCH   8   9
ATOM      9  C   UNL d   1      -4.034   1.842  -0.195  0.00  0.00     0.007 A 
ATOM     10  C   UNL d   1      -4.801   2.322  -1.264  0.00  0.00     0.020 A 
ATOM     11  C   UNL d   1      -5.232   3.652  -1.289  0.00  0.00     0.025 A 
ATOM     12  C   UNL d   1      -4.901   4.505  -0.239  0.00  0.00     0.034 A 
ATOM     13  C   UNL d   1      -4.143   4.039   0.834  0.00  0.00     0.025 A 
ATOM     14 CL   UNL d   1      -5.441   6.138  -0.263  0.00  0.00    -0.084 Cl
ATOM     15  C   UNL d   1      -3.713   2.708   0.857  0.00  0.00     0.020 A 
ENDBRANCH   8   9
ENDBRANCH   3   8
BRANCH   5  16
ATOM     16  N   UNL d   1       2.331   0.308   0.482  0.00  0.00    -0.302 NA
ATOM     17  H   UNL d   1       2.665  -0.027   1.382  0.00  0.00     0.124 HD
ATOM     18  H   UNL d   1       2.884  -0.057  -0.288  0.00  0.00     0.124 HD
ENDBRANCH   5  16
TORSDOF 3
