REMARK  4 active torsions:
REMARK  status: ('A' for Active; 'I' for Inactive)
REMARK    1  A    between atoms: C_4  and  C_10 
REMARK    2  A    between atoms: N_12  and  C_5 
REMARK    3  A    between atoms: C_7  and  C_6 
REMARK    4  A    between atoms: C_22  and  N_12 
ROOT
ATOM      1  C   UNL d   1       0.744   1.170  -0.370  0.00  0.00     0.071 C 
ATOM      2  C   UNL d   1       1.466  -0.113  -0.169  0.00  0.00     0.165 C 
ATOM      3  C   UNL d   1      -0.717   1.269  -0.118  0.00  0.00     0.165 C 
ATOM      4  C   UNL d   1       1.361   2.221  -0.937  0.00  0.00     0.107 C 
ATOM      5  C   UNL d   1      -0.754  -1.211   0.405  0.00  0.00     0.040 C 
ATOM      6  C   UNL d   1       0.645  -1.377  -0.185  0.00  0.00     0.094 C 
ATOM      7  C   UNL d   1      -1.505  -0.014  -0.177  0.00  0.00     0.094 C 
ATOM      8  O   UNL d   1      -1.273   2.355   0.038  0.00  0.00    -0.292 OA
ATOM      9  O   UNL d   1       2.696  -0.155  -0.104  0.00  0.00    -0.292 OA
ENDROOT
BRANCH   4  10
ATOM     10  N   UNL d   1       2.666   2.297  -1.360  0.00  0.00    -0.365 N 
ATOM     11  H   UNL d   1       3.242   1.483  -1.126  0.00  0.00     0.165 HD
BRANCH  10  12
ATOM     12  C   UNL d   1       3.305   3.310  -2.090  0.00  0.00     0.032 A 
ATOM     13  C   UNL d   1       2.716   4.551  -2.363  0.00  0.00     0.045 A 
ATOM     14  C   UNL d   1       3.377   5.526  -3.130  0.00  0.00     0.050 A 
ATOM     15  C   UNL d   1       4.651   5.244  -3.639  0.00  0.00     0.016 A 
ATOM     16  C   UNL d   1       5.248   4.010  -3.389  0.00  0.00     0.003 A 
ATOM     17  C   UNL d   1       4.577   3.055  -2.622  0.00  0.00     0.029 A 
BRANCH  14  18
ATOM     18  C   UNL d   1       2.732   6.862  -3.399  0.00  0.00     0.417 C 
ATOM     19  F   UNL d   1       1.479   6.982  -2.876  0.00  0.00    -0.166 F 
ATOM     20  F   UNL d   1       3.450   7.899  -2.886  0.00  0.00    -0.166 F 
ATOM     21  F   UNL d   1       2.603   7.119  -4.731  0.00  0.00    -0.166 F 
ENDBRANCH  14  18
ENDBRANCH  10  12
ENDBRANCH   4  10
BRANCH   5  22
ATOM     22  C   UNL d   1      -0.739  -1.204   1.921  0.00  0.00    -0.013 A 
ATOM     23  S   UNL d   1      -1.449  -2.526   2.764  0.00  0.00    -0.106 SA
ATOM     24  C   UNL d   1      -1.077  -1.852   4.286  0.00  0.00     0.050 A 
ATOM     25  C   UNL d   1      -0.423  -0.647   4.169  0.00  0.00     0.008 A 
ATOM     26  C   UNL d   1      -0.226  -0.273   2.807  0.00  0.00     0.015 A 
ENDBRANCH   5  22
TORSDOF 4
