REMARK  10 active torsions:
REMARK  status: ('A' for Active; 'I' for Inactive)
REMARK    1  A    between atoms: S_4  and  C_1 
REMARK    2  A    between atoms: N_7  and  C_2 
REMARK    3  A    between atoms: C_11  and  C_3 
REMARK    4  A    between atoms: C_18  and  S_4 
REMARK    5  A    between atoms: S_19  and  C_5 
REMARK    6  A    between atoms: N_9  and  N_7 
REMARK    7  A    between atoms: C_12  and  C_8 
REMARK    8  A    between atoms: O_28  and  C_11 
REMARK    9  A    between atoms: C_17  and  C_12 
REMARK   10  A    between atoms: C_20  and  C_21 
ROOT
ATOM      1  C   UNL d   1       3.686   3.588   0.185  0.00  0.00     0.179 C 
ATOM      2  N   UNL d   1       2.613   3.027  -0.307  0.00  0.00    -0.287 N 
ATOM      3  HN  UNL d   1       1.825   3.627  -0.553  1.00  0.00     0.188 HD
ATOM      4  C   UNL d   1       3.540   5.029   0.260  0.00  0.00     0.123 C 
ATOM      5  N   UNL d   1       3.415   6.189   0.315  0.00  0.00    -0.190 NA
ENDROOT
BRANCH   1   6
ATOM      6  C   UNL d   1       4.956   2.923   0.632  0.00  0.00     0.220 C 
ATOM      7  O   UNL d   1       6.022   3.452   0.336  0.00  0.00    -0.284 OA
BRANCH   6   8
ATOM      8  C   UNL d   1       4.930   1.627   1.344  0.00  0.00     0.017 A 
ATOM      9  C   UNL d   1       5.963   0.713   1.126  0.00  0.00     0.016 A 
ATOM     10  C   UNL d   1       5.827  -0.608   1.573  0.00  0.00     0.009 A 
ATOM     11  C   UNL d   1       4.662  -1.040   2.240  0.00  0.00    -0.051 A 
ATOM     12  C   UNL d   1       3.695  -0.063   2.543  0.00  0.00     0.009 A 
ATOM     13  C   UNL d   1       3.832   1.258   2.120  0.00  0.00     0.016 A 
BRANCH  11  14
ATOM     14  C   UNL d   1       4.463  -2.521   2.611  0.00  0.00    -0.024 C 
ATOM     15  C   UNL d   1       3.053  -2.800   3.184  0.00  0.00     0.019 C 
ATOM     16  C   UNL d   1       4.631  -3.436   1.381  0.00  0.00     0.019 C 
ATOM     17  C   UNL d   1       5.505  -2.954   3.655  0.00  0.00     0.019 C 
ENDBRANCH  11  14
ENDBRANCH   6   8
ENDBRANCH   1   6
BRANCH   2  18
ATOM     18  N   UNL d   1       2.489   1.691  -0.507  0.00  0.00    -0.297 N 
ATOM     19  H   UNL d   1       3.317   1.163  -0.809  0.00  0.00     0.187 HD
BRANCH  18  20
ATOM     20  C   UNL d   1       1.340   0.979  -0.242  0.00  0.00     0.094 A 
ATOM     21  C   UNL d   1       0.032   1.493   0.199  0.00  0.00     0.112 A 
ATOM     22  C   UNL d   1      -0.869   0.462   0.443  0.00  0.00     0.065 A 
ATOM     23  S   UNL d   1      -0.150  -1.066   0.205  0.00  0.00    -0.073 SA
ATOM     24  C   UNL d   1       1.323  -0.410  -0.362  0.00  0.00     0.111 A 
BRANCH  21  25
ATOM     25  S   UNL d   1      -0.348   3.187   0.424  0.00  0.00     0.183 S 
ATOM     26  O   UNL d   1      -1.764   3.265   0.710  0.00  0.00    -0.222 OA
ATOM     27  O   UNL d   1       0.606   3.622   1.430  0.00  0.00    -0.222 OA
BRANCH  25  28
ATOM     28  C   UNL d   1      -0.109   4.048  -1.132  0.00  0.00     0.105 C 
ATOM     29  C   UNL d   1      -0.958   3.454  -2.251  0.00  0.00     0.026 C 
ATOM     30  C   UNL d   1      -0.451   5.525  -0.928  0.00  0.00     0.026 C 
ENDBRANCH  25  28
ENDBRANCH  21  25
BRANCH  22  31
ATOM     31  S   UNL d   1      -2.595   0.434   0.829  0.00  0.00    -0.126 SA
ATOM     32  C   UNL d   1      -2.665   0.986   2.548  0.00  0.00     0.096 C 
ENDBRANCH  22  31
BRANCH  24  33
ATOM     33  C   UNL d   1       2.288  -1.392  -0.847  0.00  0.00     0.302 C 
ATOM     34  O   UNL d   1       2.118  -2.603  -0.867  0.00  0.00    -0.259 OA
BRANCH  33  35
ATOM     35  O   UNL d   1       3.418  -0.787  -1.338  0.00  0.00    -0.322 OA
ATOM     36  C   UNL d   1       4.341  -1.718  -1.925  0.00  0.00     0.213 C 
ENDBRANCH  33  35
ENDBRANCH  24  33
ENDBRANCH  18  20
ENDBRANCH   2  18
TORSDOF 10
