REMARK  6 active torsions:
REMARK  status: ('A' for Active; 'I' for Inactive)
REMARK    1  A    between atoms: C_12  and  C_1 
REMARK    2  A    between atoms: N_5  and  C_2 
REMARK    3  A    between atoms: C_11  and  C_3 
REMARK    4  A    between atoms: N_16  and  C_9 
REMARK    5  A    between atoms: O_20  and  C_12 
REMARK    6  A    between atoms: C_24  and  O_20 
ROOT
ATOM      1  C   UNL d   1       1.441   1.019   0.041  0.00  0.00     0.066 C 
ATOM      2  C   UNL d   1       0.201   1.864  -0.103  0.00  0.00     0.161 C 
ATOM      3  C   UNL d   1       1.371  -0.331   0.008  0.00  0.00     0.024 C 
ATOM      4  C   UNL d   1      -1.063  -0.280  -0.101  0.00  0.00     0.321 C 
ATOM      5  N   UNL d   1       0.135  -0.926  -0.102  0.00  0.00    -0.312 N 
ATOM      6  N   UNL d   1      -1.011   1.067  -0.009  0.00  0.00    -0.330 N 
ATOM      7  O   UNL d   1      -2.126  -0.884  -0.147  0.00  0.00    -0.247 OA
ATOM      8  C   UNL d   1       2.507  -1.323   0.046  0.00  0.00     0.069 C 
ATOM      9  H   UNL d   1       0.060  -1.933  -0.138  0.00  0.00     0.170 HD
ATOM     10  H   UNL d   1      -1.910   1.528  -0.018  0.00  0.00     0.165 HD
ENDROOT
BRANCH   2  11
ATOM     11  C   UNL d   1       0.053   3.018   0.875  0.00  0.00    -0.028 A 
ATOM     12  C   UNL d   1      -0.096   4.327   0.408  0.00  0.00     0.048 A 
ATOM     13  C   UNL d   1      -0.317   5.381   1.316  0.00  0.00     0.130 A 
ATOM     14  C   UNL d   1      -0.453   5.193   2.708  0.00  0.00     0.062 A 
ATOM     15  C   UNL d   1      -0.245   3.869   3.142  0.00  0.00     0.032 A 
ATOM     16  C   UNL d   1       0.006   2.807   2.256  0.00  0.00     0.012 A 
BRANCH  13  17
ATOM     17  N   UNL d   1      -0.322   6.711   0.734  0.00  0.00    -0.113 N 
ATOM     18  O   UNL d   1       0.595   7.482   1.046  0.00  0.00    -0.532 OA
ATOM     19  O   UNL d   1      -1.216   6.957  -0.090  0.00  0.00    -0.532 OA
ENDBRANCH  13  17
BRANCH  14  20
ATOM     20  N   UNL d   1      -0.790   6.189   3.615  0.00  0.00    -0.388 N 
ATOM     21  C   UNL d   1      -0.424   6.117   5.026  0.00  0.00     0.149 C 
ATOM     22  C   UNL d   1      -1.836   7.162   3.288  0.00  0.00     0.149 C 
ENDBRANCH  14  20
ENDBRANCH   2  11
BRANCH   1  23
ATOM     23  C   UNL d   1       2.746   1.715   0.184  0.00  0.00     0.293 C 
ATOM     24  O   UNL d   1       3.717   1.248   0.756  0.00  0.00    -0.259 OA
BRANCH  23  25
ATOM     25  O   UNL d   1       2.701   2.945  -0.393  0.00  0.00    -0.318 OA
BRANCH  25  26
ATOM     26  C   UNL d   1       3.907   3.724  -0.288  0.00  0.00     0.174 C 
ATOM     27  C   UNL d   1       4.123   4.256   1.120  0.00  0.00     0.034 C 
ENDBRANCH  25  26
ENDBRANCH  23  25
ENDBRANCH   1  23
TORSDOF 6
