REMARK  1 active torsions:
REMARK  status: ('A' for Active; 'I' for Inactive)
REMARK    1  A    between atoms: O_10  and  C_5 
ROOT
ATOM      1  C   UNL d   1      -2.436  -0.388   0.013  0.00  0.00     0.255 A 
ATOM      2  N   UNL d   1      -1.731   0.813  -0.012  0.00  0.00    -0.324 N 
ATOM      3  C   UNL d   1      -0.091  -0.770   0.016  0.00  0.00     0.007 A 
ATOM      4  C   UNL d   1      -0.362   0.598  -0.009  0.00  0.00     0.044 A 
ATOM      5  C   UNL d   1      -1.382  -1.542   0.026  0.00  0.00     0.245 A 
ATOM      6  C   UNL d   1       1.214  -1.232   0.022  0.00  0.00     0.031 A 
ATOM      7  O   UNL d   1      -3.651  -0.487   0.061  0.00  0.00    -0.270 OA
ATOM      8  C   UNL d   1       0.634   1.551  -0.018  0.00  0.00     0.031 A 
ATOM      9  C   UNL d   1       2.238  -0.283   0.009  0.00  0.00     0.011 A 
ATOM     10  C   UNL d   1       1.957   1.096  -0.008  0.00  0.00     0.021 A 
ATOM     11 BR   UNL d   1       4.040  -0.860   0.014  0.00  0.00    -0.051 Br
ATOM     12  H   UNL d   1      -2.190   1.712  -0.016  0.00  0.00     0.169 HD
ENDROOT
BRANCH   5  13
ATOM     13  O   UNL d   1      -1.437  -2.391   1.152  0.00  0.00    -0.381 OA
ATOM     14  H   UNL d   1      -1.273  -1.838   1.935  0.00  0.00     0.211 HD
ENDBRANCH   5  13
TORSDOF 1
