REMARK  2 active torsions:
REMARK  status: ('A' for Active; 'I' for Inactive)
REMARK    1  A    between atoms: C_7  and  C_2 
REMARK    2  A    between atoms: S_14  and  C_5 
ROOT
ATOM      1  C   UNL d   1      -0.376  -0.076  -0.077  0.00  0.00     0.110 A 
ATOM      2  C   UNL d   1       0.612  -1.090  -0.020  0.00  0.00     0.105 A 
ATOM      3  N   UNL d   1       1.846  -0.577   0.108  0.00  0.00    -0.296 N 
ATOM      4  HN  UNL d   1       2.732  -1.076   0.183  1.00  0.00     0.187 HD
ATOM      5  C   UNL d   1       0.322   1.108   0.004  0.00  0.00     0.107 A 
ATOM      6  N   UNL d   1       1.636   0.750   0.114  0.00  0.00    -0.292 N 
ATOM      7  C   UNL d   1      -1.783  -0.259  -0.199  0.00  0.00     0.105 C 
ATOM      8  N   UNL d   1      -2.935  -0.363  -0.293  0.00  0.00    -0.191 NA
ATOM      9  H   UNL d   1       2.435   1.372   0.192  0.00  0.00     0.187 HD
ENDROOT
BRANCH   2  10
ATOM     10  C   UNL d   1       0.368  -2.562  -0.101  0.00  0.00     0.104 A 
ATOM     11  O   UNL d   1      -0.863  -3.133  -0.269  0.00  0.00    -0.320 OA
ATOM     12  C   UNL d   1      -0.685  -4.476  -0.323  0.00  0.00     0.142 A 
ATOM     13  C   UNL d   1       0.645  -4.791  -0.184  0.00  0.00     0.027 A 
ATOM     14  C   UNL d   1       1.326  -3.557  -0.037  0.00  0.00     0.041 A 
ENDBRANCH   2  10
BRANCH   5  15
ATOM     15  S   UNL d   1      -0.025   2.804  -0.002  0.00  0.00    -0.114 SA
ATOM     16  C   UNL d   1      -1.817   2.905  -0.177  0.00  0.00     0.097 C 
ENDBRANCH   5  15
TORSDOF 2
