REMARK  1 active torsions:
REMARK  status: ('A' for Active; 'I' for Inactive)
REMARK    1  A    between atoms: C_10  and  N_2 
ROOT
ATOM      1  C   UNL d   1      -0.444   0.402  -0.007  0.00  0.00     0.122 A 
ATOM      2  N   UNL d   1       1.889   0.979  -0.032  0.00  0.00    -0.215 N 
ATOM      3  C   UNL d   1       0.559   1.465  -0.034  0.00  0.00     0.295 A 
ATOM      4  C   UNL d   1      -0.042  -0.910  -0.004  0.00  0.00     0.062 A 
ATOM      5  N   UNL d   1       2.264  -0.368  -0.038  0.00  0.00    -0.294 N 
ATOM      6  HN  UNL d   1       3.249  -0.631  -0.053  1.00  0.00     0.187 HD
ATOM      7  N   UNL d   1      -1.824   0.582  -0.002  0.00  0.00    -0.349 N 
ATOM      8  HN  UNL d   1      -2.300   1.484  -0.004  1.00  0.00     0.166 HD
ATOM      9  C   UNL d   1       1.338  -1.282  -0.024  0.00  0.00     0.042 A 
ATOM     10  S   UNL d   1      -1.372  -1.958   0.013  0.00  0.00    -0.073 SA
ATOM     11  C   UNL d   1      -2.422  -0.593   0.005  0.00  0.00     0.048 A 
ATOM     12  O   UNL d   1       0.257   2.656  -0.097  0.00  0.00    -0.264 OA
ATOM     13  C   UNL d   1       1.744  -2.732  -0.026  0.00  0.00     0.071 C 
ATOM     14  C   UNL d   1      -3.897  -0.800  -0.000  0.00  0.00     0.076 C 
ENDROOT
BRANCH   2  15
ATOM     15  C   UNL d   1       2.995   1.875  -0.039  0.00  0.00     0.103 A 
ATOM     16  C   UNL d   1       3.216   2.764   1.030  0.00  0.00     0.064 A 
ATOM     17 CL   UNL d   1       2.242   2.752   2.463  0.00  0.00    -0.082 Cl
ATOM     18  C   UNL d   1       4.316   3.633   1.022  0.00  0.00     0.026 A 
ATOM     19  C   UNL d   1       5.209   3.629  -0.045  0.00  0.00     0.003 A 
ATOM     20  C   UNL d   1       5.009   2.752  -1.108  0.00  0.00     0.026 A 
ATOM     21  C   UNL d   1       3.913   1.878  -1.108  0.00  0.00     0.064 A 
ATOM     22 CL   UNL d   1       3.706   0.889  -2.516  0.00  0.00    -0.082 Cl
ENDBRANCH   2  15
TORSDOF 1
