REMARK  3 active torsions:
REMARK  status: ('A' for Active; 'I' for Inactive)
REMARK    1  A    between atoms: C_6  and  C_1 
REMARK    2  A    between atoms: C_7  and  C_4 
REMARK    3  A    between atoms: O_9  and  C_6 
ROOT
ATOM      1  C   UNL d   1      -0.151  -1.327  -0.018  0.00  0.00     0.069 A 
ATOM      2  C   UNL d   1      -1.477  -0.800   0.012  0.00  0.00     0.059 A 
ATOM      3  C   UNL d   1       0.680  -0.217  -0.060  0.00  0.00     0.067 A 
ATOM      4  C   UNL d   1      -1.384   0.574  -0.023  0.00  0.00     0.087 A 
ATOM      5  O   UNL d   1      -0.068   0.926  -0.085  0.00  0.00    -0.314 OA
ATOM      6  C   UNL d   1       2.140   0.022  -0.025  0.00  0.00     0.078 C 
ENDROOT
BRANCH   4   7
ATOM      7  C   UNL d   1      -2.365   1.656   0.015  0.00  0.00    -0.002 A 
ATOM      8  C   UNL d   1      -3.730   1.360   0.155  0.00  0.00     0.014 A 
ATOM      9  C   UNL d   1      -4.687   2.376   0.204  0.00  0.00     0.001 A 
ATOM     10  C   UNL d   1      -4.294   3.707   0.113  0.00  0.00     0.000 A 
ATOM     11  C   UNL d   1      -2.943   4.023  -0.024  0.00  0.00     0.001 A 
ATOM     12  C   UNL d   1      -1.985   3.004  -0.072  0.00  0.00     0.014 A 
ENDBRANCH   4   7
BRANCH   1  13
ATOM     13  C   UNL d   1       0.179  -2.741   0.053  0.00  0.00     0.178 C 
ATOM     14  O   UNL d   1      -0.559  -3.568   0.566  0.00  0.00    -0.646 OA
BRANCH  13  15
ATOM     15  O   UNL d   1       1.344  -3.103  -0.539  0.00  0.00    -0.773 OA
ATOM     16  H   UNL d   1       1.727  -2.391  -1.077  0.00  0.00     0.167 HD
ENDBRANCH  13  15
ENDBRANCH   1  13
TORSDOF 3
