REMARK  3 active torsions:
REMARK  status: ('A' for Active; 'I' for Inactive)
REMARK    1  A    between atoms: C_3  and  C_1 
REMARK    2  A    between atoms: O_10  and  C_3 
REMARK    3  A    between atoms: N_5  and  C_4 
REMARK       I    between atoms: C_6  and  N_5 
ROOT
ATOM      1  C   UNL d   1       0.256   1.294   0.002  0.00  0.00     0.061 A 
ATOM      2  C   UNL d   1      -0.544   0.143   0.108  0.00  0.00     0.077 A 
ATOM      3  C   UNL d   1       0.056  -1.135   0.190  0.00  0.00     0.057 A 
ATOM      4 CL   UNL d   1      -2.280   0.241   0.195  0.00  0.00    -0.081 Cl
ATOM      5  C   UNL d   1       1.653   1.155  -0.040  0.00  0.00     0.020 A 
ATOM      6  C   UNL d   1       1.449  -1.241   0.126  0.00  0.00     0.031 A 
ATOM      7  C   UNL d   1       2.244  -0.104   0.010  0.00  0.00     0.003 A 
ENDROOT
BRANCH   3   8
ATOM      8  N   UNL d   1      -0.768  -2.285   0.303  0.00  0.00    -0.326 N 
ATOM      9  C   UNL d   1      -0.377  -3.521   0.780  0.00  0.00     0.218 C 
ATOM     10  O   UNL d   1       0.703  -3.783   1.301  0.00  0.00    -0.274 OA
ATOM     11  C   UNL d   1      -1.435  -4.584   0.634  0.00  0.00     0.117 C 
ATOM     12  H   UNL d   1      -1.764  -2.127   0.188  0.00  0.00     0.169 HD
ENDBRANCH   3   8
BRANCH   1  13
ATOM     13  C   UNL d   1      -0.245   2.696  -0.029  0.00  0.00     0.177 C 
ATOM     14  O   UNL d   1       0.426   3.626   0.384  0.00  0.00    -0.646 OA
BRANCH  13  15
ATOM     15  O   UNL d   1      -1.437   2.885  -0.629  0.00  0.00    -0.773 OA
ATOM     16  H   UNL d   1      -1.918   2.073  -0.875  0.00  0.00     0.167 HD
ENDBRANCH  13  15
ENDBRANCH   1  13
TORSDOF 3
