REMARK  3 active torsions:
REMARK  status: ('A' for Active; 'I' for Inactive)
REMARK    1  A    between atoms: C_11  and  C_1 
REMARK    2  A    between atoms: C_12  and  C_6 
REMARK       I    between atoms: C_17  and  N_9 
REMARK    3  A    between atoms: C_10  and  C_14 
ROOT
ATOM      1  C   UNL d   1       2.326   1.575  -0.062  0.00  0.00     0.034 A 
ATOM      2  S   UNL d   1       2.526   2.607   1.281  0.00  0.00    -0.086 SA
ATOM      3  C   UNL d   1       3.942   3.305   0.636  0.00  0.00     0.034 A 
ATOM      4  C   UNL d   1       3.331   1.750  -0.992  0.00  0.00     0.023 A 
ATOM      5  C   UNL d   1       4.263   2.762  -0.592  0.00  0.00     0.023 A 
ENDROOT
BRANCH   1   6
ATOM      6  C   UNL d   1       1.189   0.609  -0.189  0.00  0.00     0.067 A 
ATOM      7  C   UNL d   1       0.116   0.476   0.714  0.00  0.00     0.068 A 
ATOM      8  C   UNL d   1      -0.700  -0.511   0.194  0.00  0.00     0.136 A 
ATOM      9  N   UNL d   1      -0.066  -0.940  -0.940  0.00  0.00    -0.292 N 
ATOM     10  N   UNL d   1       1.067  -0.250  -1.207  0.00  0.00    -0.297 N 
ATOM     11  C   UNL d   1      -0.404  -2.004  -1.857  0.00  0.00     0.178 C 
ATOM     12  HN  UNL d   1       1.690  -0.360  -2.007  1.00  0.00     0.187 HD
BRANCH   8  13
ATOM     13  C   UNL d   1      -1.975  -1.018   0.737  0.00  0.00     0.434 C 
ATOM     14  F   UNL d   1      -2.644  -1.855  -0.088  0.00  0.00    -0.165 F 
ATOM     15  F   UNL d   1      -1.780  -1.687   1.901  0.00  0.00    -0.165 F 
ATOM     16  F   UNL d   1      -2.824   0.005   1.016  0.00  0.00    -0.165 F 
ENDBRANCH   8  13
ENDBRANCH   1   6
BRANCH   3  17
ATOM     17  C   UNL d   1       4.720   4.378   1.339  0.00  0.00     0.067 A 
ATOM     18  N   UNL d   1       5.793   4.969   0.797  0.00  0.00    -0.291 N 
ATOM     19  N   UNL d   1       6.181   5.896   1.717  0.00  0.00    -0.235 N 
ATOM     20  HN  UNL d   1       6.224   4.769  -0.105  1.00  0.00     0.187 HD
ATOM     21  C   UNL d   1       7.260   6.769   1.496  0.00  0.00     0.238 C 
ATOM     22  C   UNL d   1       5.385   5.854   2.841  0.00  0.00     0.122 A 
ATOM     23  O   UNL d   1       7.560   7.584   2.365  0.00  0.00    -0.272 OA
ATOM     24  C   UNL d   1       7.985   6.631   0.191  0.00  0.00     0.119 C 
ATOM     25  C   UNL d   1       4.430   4.894   2.622  0.00  0.00     0.051 A 
ENDBRANCH   3  17
TORSDOF 3
