REMARK  7 active torsions:
REMARK  status: ('A' for Active; 'I' for Inactive)
REMARK    1  A    between atoms: C_12  and  C_3 
REMARK    2  A    between atoms: O_11  and  C_5 
REMARK    3  A    between atoms: C_18  and  C_12 
REMARK    4  A    between atoms: C_22  and  C_18 
REMARK    5  A    between atoms: C_19  and  C_21 
REMARK    6  A    between atoms: C_21  and  C_23 
REMARK    7  A    between atoms: C_23  and  C_22 
ROOT
ATOM      1  N   UNL d   1      -0.092  -1.044  -0.016  0.00  0.00    -0.276 N 
ATOM      2  C   UNL d   1      -0.646  -2.331  -0.051  0.00  0.00     0.262 A 
ATOM      3  C   UNL d   1      -2.156  -2.377  -0.011  0.00  0.00     0.044 A 
ATOM      4  C   UNL d   1      -0.892   0.079   0.005  0.00  0.00     0.067 A 
ATOM      5  C   UNL d   1      -2.900  -1.247   0.010  0.00  0.00     0.089 A 
ATOM      6  C   UNL d   1      -2.288   0.090   0.011  0.00  0.00     0.026 A 
ATOM      7  C   UNL d   1       1.241  -0.651  -0.008  0.00  0.00     0.054 A 
ATOM      8  C   UNL d   1      -0.093   1.206   0.004  0.00  0.00     0.005 A 
ATOM      9  C   UNL d   1       1.261   0.752  -0.001  0.00  0.00     0.004 A 
ATOM     10  O   UNL d   1       0.075  -3.315  -0.116  0.00  0.00    -0.267 OA
ATOM     11  C   UNL d   1      -2.894   1.352   0.012  0.00  0.00     0.017 A 
ATOM     12  C   UNL d   1      -0.723   2.464   0.005  0.00  0.00     0.014 A 
ATOM     13  C   UNL d   1       2.429  -1.402  -0.006  0.00  0.00     0.031 A 
ATOM     14  C   UNL d   1       2.506   1.416   0.003  0.00  0.00     0.014 A 
ATOM     15  C   UNL d   1      -2.124   2.519   0.008  0.00  0.00     0.002 A 
ATOM     16  C   UNL d   1       3.649  -0.718  -0.001  0.00  0.00     0.002 A 
ATOM     17  C   UNL d   1       3.689   0.672   0.002  0.00  0.00     0.001 A 
ENDROOT
BRANCH   3  18
ATOM     18  C   UNL d   1      -2.763  -3.763  -0.046  0.00  0.00     0.047 C 
BRANCH  18  19
ATOM     19  C   UNL d   1      -2.465  -4.584   1.212  0.00  0.00     0.005 C 
BRANCH  19  20
ATOM     20  C   UNL d   1      -3.171  -5.942   1.178  0.00  0.00     0.000 C 
BRANCH  20  21
ATOM     21  C   UNL d   1      -2.799  -6.770   2.408  0.00  0.00     0.000 C 
BRANCH  21  22
ATOM     22  C   UNL d   1      -3.488  -8.134   2.405  0.00  0.00    -0.000 C 
BRANCH  22  23
ATOM     23  C   UNL d   1      -3.096  -8.943   3.642  0.00  0.00    -0.005 C 
ATOM     24  C   UNL d   1      -3.773 -10.303   3.656  0.00  0.00     0.005 C 
ENDBRANCH  22  23
ENDBRANCH  21  22
ENDBRANCH  20  21
ENDBRANCH  19  20
ENDBRANCH  18  19
ENDBRANCH   3  18
BRANCH   5  25
ATOM     25  O   UNL d   1      -4.280  -1.327   0.026  0.00  0.00    -0.359 OA
ATOM     26  H   UNL d   1      -4.664  -0.438   0.002  0.00  0.00     0.217 HD
ENDBRANCH   5  25
TORSDOF 7
