REMARK  5 active torsions:
REMARK  status: ('A' for Active; 'I' for Inactive)
REMARK    1  A    between atoms: C_4  and  C_1 
REMARK    2  A    between atoms: O_5  and  C_2 
REMARK    3  A    between atoms: C_3  and  O_5 
REMARK    4  A    between atoms: C_6  and  C_3 
REMARK    5  A    between atoms: C_10  and  C_11 
ROOT
ATOM      1  O   UNL d   1       6.784  -0.946  -0.187  0.00  0.00    -0.274 OA
ENDROOT
BRANCH   1   2
ATOM      2  C   UNL d   1       5.448  -0.835  -0.559  0.00  0.00     0.298 C 
ATOM      3  O   UNL d   1       4.894   0.207  -0.896  0.00  0.00    -0.259 OA
BRANCH   2   4
ATOM      4  C   UNL d   1       4.735  -2.144  -0.495  0.00  0.00     0.040 A 
ATOM      5  C   UNL d   1       3.657  -2.367  -1.359  0.00  0.00     0.018 A 
ATOM      6  C   UNL d   1       2.905  -3.557  -1.284  0.00  0.00     0.009 A 
ATOM      7  C   UNL d   1       3.179  -4.552  -0.327  0.00  0.00    -0.051 A 
ATOM      8  C   UNL d   1       4.250  -4.293   0.555  0.00  0.00     0.009 A 
ATOM      9  C   UNL d   1       5.017  -3.113   0.468  0.00  0.00     0.018 A 
BRANCH   7  10
ATOM     10  C   UNL d   1       2.409  -5.896  -0.329  0.00  0.00    -0.024 C 
ATOM     11  C   UNL d   1       2.482  -6.673   1.008  0.00  0.00     0.019 C 
ATOM     12  C   UNL d   1       0.898  -5.740  -0.636  0.00  0.00     0.019 C 
ATOM     13  C   UNL d   1       3.035  -6.787  -1.422  0.00  0.00     0.019 C 
ENDBRANCH   7  10
ENDBRANCH   2   4
ENDBRANCH   1   2
BRANCH   1  14
ATOM     14  C   UNL d   1       7.292   0.066   0.673  0.00  0.00     0.087 A 
ATOM     15  C   UNL d   1       8.598   0.581   0.505  0.00  0.00     0.001 A 
ATOM     16  C   UNL d   1       9.150   1.295   1.595  0.00  0.00     0.031 A 
ATOM     17  C   UNL d   1       8.396   1.576   2.738  0.00  0.00     0.011 A 
ATOM     18  C   UNL d   1       7.080   1.147   2.838  0.00  0.00     0.022 A 
ATOM     19 BR   UNL d   1       9.169   2.551   4.162  0.00  0.00    -0.051 Br
ATOM     20  C   UNL d   1       6.536   0.370   1.819  0.00  0.00     0.039 A 
BRANCH  15  21
ATOM     21  C   UNL d   1       9.383   0.422  -0.787  0.00  0.00     0.144 C 
ATOM     22  S   UNL d   1      10.532  -0.984  -0.781  0.00  0.00    -0.148 SA
ATOM     23  C   UNL d   1      11.588  -0.339  -2.107  0.00  0.00     0.085 C 
ATOM     24  C   UNL d   1      11.892   1.107  -1.773  0.00  0.00     0.085 C 
ATOM     25  S   UNL d   1      10.350   1.932  -1.264  0.00  0.00    -0.148 SA
ENDBRANCH  15  21
ENDBRANCH   1  14
TORSDOF 5
