REMARK  5 active torsions:
REMARK  status: ('A' for Active; 'I' for Inactive)
REMARK    1  A    between atoms: C_11  and  C_3 
REMARK    2  A    between atoms: C_12  and  C_4 
REMARK    3  A    between atoms: C_14  and  C_10 
REMARK       I    between atoms: N_16  and  C_12 
REMARK    4  A    between atoms: C_15  and  C_17 
REMARK    5  A    between atoms: C_19  and  N_16 
ROOT
ATOM      1  C   UNL d   1       0.148  -0.717  -0.101  0.00  0.00     0.145 A 
ATOM      2  N   UNL d   1       0.206   0.691  -0.173  0.00  0.00    -0.234 N 
ATOM      3  C   UNL d   1      -0.950   1.449  -0.046  0.00  0.00     0.144 A 
ATOM      4  C   UNL d   1       1.457  -1.161  -0.167  0.00  0.00     0.095 A 
ATOM      5  N   UNL d   1      -1.038  -1.395   0.030  0.00  0.00    -0.336 N 
ATOM      6  HN  UNL d   1      -1.067  -2.414   0.053  1.00  0.00     0.167 HD
ATOM      7  C   UNL d   1      -2.134   0.826   0.119  0.00  0.00     0.071 A 
ATOM      8  N   UNL d   1       1.472   1.115  -0.364  0.00  0.00    -0.302 N 
ATOM      9  HN  UNL d   1       1.790   2.074  -0.499  1.00  0.00     0.186 HD
ATOM     10  C   UNL d   1      -2.130  -0.677   0.125  0.00  0.00     0.120 A 
ATOM     11  C   UNL d   1       2.214   0.014  -0.338  0.00  0.00     0.128 A 
ENDROOT
BRANCH   4  12
ATOM     12  C   UNL d   1       2.012  -2.502  -0.085  0.00  0.00     0.261 C 
ATOM     13  N   UNL d   1       1.086  -3.525   0.000  0.00  0.00    -0.323 N 
ATOM     14  H   UNL d   1       0.110  -3.253  -0.079  0.00  0.00     0.169 HD
ATOM     15  O   UNL d   1       3.228  -2.645  -0.120  0.00  0.00    -0.267 OA
BRANCH  13  16
ATOM     16  C   UNL d   1       1.372  -4.907   0.082  0.00  0.00     0.035 A 
ATOM     17  C   UNL d   1       2.653  -5.417   0.324  0.00  0.00     0.045 A 
ATOM     18  C   UNL d   1       2.895  -6.802   0.355  0.00  0.00     0.050 A 
ATOM     19  C   UNL d   1       1.827  -7.681   0.137  0.00  0.00     0.016 A 
ATOM     20  C   UNL d   1       0.543  -7.184  -0.080  0.00  0.00     0.003 A 
ATOM     21  C   UNL d   1       0.315  -5.805  -0.097  0.00  0.00     0.029 A 
BRANCH  18  22
ATOM     22  C   UNL d   1       4.286  -7.336   0.595  0.00  0.00     0.417 C 
ATOM     23  F   UNL d   1       5.185  -6.387   0.977  0.00  0.00    -0.166 F 
ATOM     24  F   UNL d   1       4.318  -8.287   1.571  0.00  0.00    -0.166 F 
ATOM     25  F   UNL d   1       4.814  -7.925  -0.514  0.00  0.00    -0.166 F 
ENDBRANCH  18  22
ENDBRANCH  13  16
ENDBRANCH   4  12
BRANCH   3  26
ATOM     26  C   UNL d   1      -0.854   2.932  -0.074  0.00  0.00     0.434 C 
ATOM     27  F   UNL d   1       0.389   3.464  -0.019  0.00  0.00    -0.165 F 
ATOM     28  F   UNL d   1      -1.448   3.428  -1.190  0.00  0.00    -0.165 F 
ATOM     29  F   UNL d   1      -1.537   3.465   0.978  0.00  0.00    -0.165 F 
ENDBRANCH   3  26
BRANCH  10  30
ATOM     30  C   UNL d   1      -3.498  -1.364   0.256  0.00  0.00     0.432 C 
ATOM     31  F   UNL d   1      -4.534  -0.481   0.227  0.00  0.00    -0.165 F 
ATOM     32  F   UNL d   1      -3.722  -2.252  -0.749  0.00  0.00    -0.165 F 
ATOM     33  F   UNL d   1      -3.612  -2.053   1.422  0.00  0.00    -0.165 F 
ENDBRANCH  10  30
TORSDOF 5
