REMARK  4 active torsions:
REMARK  status: ('A' for Active; 'I' for Inactive)
REMARK    1  A    between atoms: C_11  and  C_6 
REMARK    2  A    between atoms: C_12  and  C_8 
REMARK    3  A    between atoms: O_17  and  C_11 
REMARK    4  A    between atoms: C_18  and  O_17 
ROOT
ATOM      1  N   UNL d   1      -0.298  -0.641   0.093  0.00  0.00    -0.203 N 
ATOM      2  C   UNL d   1      -0.246   0.742   0.049  0.00  0.00     0.132 A 
ATOM      3  N   UNL d   1      -1.576  -1.100   0.093  0.00  0.00    -0.293 N 
ATOM      4  HN  UNL d   1      -1.897  -2.067   0.127  1.00  0.00     0.187 HD
ATOM      5  C   UNL d   1       0.821  -1.495   0.103  0.00  0.00     0.285 A 
ATOM      6  C   UNL d   1       2.126  -0.766   0.064  0.00  0.00     0.124 A 
ATOM      7  C   UNL d   1      -1.540   1.190   0.011  0.00  0.00     0.077 A 
ATOM      8  C   UNL d   1      -2.315   0.011   0.039  0.00  0.00     0.034 A 
ATOM      9  C   UNL d   1       2.112   0.580   0.022  0.00  0.00     0.113 A 
ATOM     10  N   UNL d   1       0.963   1.343   0.031  0.00  0.00    -0.350 N 
ATOM     11  O   UNL d   1       0.676  -2.709   0.107  0.00  0.00    -0.265 OA
ATOM     12  H   UNL d   1       1.073   2.353  -0.049  0.00  0.00     0.166 HD
ENDROOT
BRANCH   6  13
ATOM     13  C   UNL d   1       3.429  -1.448  -0.029  0.00  0.00     0.300 C 
ATOM     14  O   UNL d   1       4.445  -0.913  -0.453  0.00  0.00    -0.259 OA
BRANCH  13  15
ATOM     15  O   UNL d   1       3.319  -2.737   0.358  0.00  0.00    -0.318 OA
BRANCH  15  16
ATOM     16  C   UNL d   1       4.318  -3.636  -0.137  0.00  0.00     0.174 C 
ATOM     17  C   UNL d   1       3.875  -4.130  -1.503  0.00  0.00     0.034 C 
ENDBRANCH  15  16
ENDBRANCH  13  15
ENDBRANCH   6  13
BRANCH   8  18
ATOM     18  C   UNL d   1      -3.836   0.005   0.001  0.00  0.00     0.037 A 
ATOM     19  C   UNL d   1      -4.579  -1.091   0.738  0.00  0.00     0.011 A 
ATOM     20  C   UNL d   1      -4.534  -1.112  -0.751  0.00  0.00     0.011 A 
ENDBRANCH   8  18
TORSDOF 4
