REMARK  8 active torsions:
REMARK  status: ('A' for Active; 'I' for Inactive)
REMARK    1  A    between atoms: N_2  and  C_1 
REMARK    2  A    between atoms: C_3  and  C_1 
REMARK    3  A    between atoms: C_6  and  C_1 
REMARK    4  A    between atoms: N_7  and  C_1 
REMARK       I    between atoms: C_4  and  N_2 
REMARK    5  A    between atoms: C_5  and  C_4 
REMARK    6  A    between atoms: O_15  and  C_6 
REMARK    7  A    between atoms: C_14  and  N_7 
REMARK    8  A    between atoms: C_25  and  O_15 
ROOT
ATOM      1  C   UNL d   1       0.910  -0.026   0.110  0.00  0.00     0.297 C 
ENDROOT
BRANCH   1   2
ATOM      2  N   UNL d   1       0.453   0.922   1.139  0.00  0.00    -0.314 N 
ATOM      3  C   UNL d   1       0.349   2.274   0.954  0.00  0.00     0.255 C 
ATOM      4  O   UNL d   1       0.672   2.833  -0.087  0.00  0.00    -0.268 OA
ATOM      5  H   UNL d   1       0.059   0.509   1.979  0.00  0.00     0.166 HD
BRANCH   3   6
ATOM      6  C   UNL d   1      -0.300   3.024   2.060  0.00  0.00     0.053 A 
ATOM      7  C   UNL d   1       0.046   2.879   3.411  0.00  0.00     0.049 A 
ATOM      8 CL   UNL d   1       1.375   1.926   3.951  0.00  0.00    -0.083 Cl
ATOM      9  C   UNL d   1      -0.680   3.551   4.401  0.00  0.00     0.025 A 
ATOM     10  C   UNL d   1      -1.741   4.384   4.051  0.00  0.00     0.002 A 
ATOM     11  C   UNL d   1      -2.068   4.564   2.709  0.00  0.00     0.001 A 
ATOM     12  C   UNL d   1      -1.350   3.892   1.715  0.00  0.00     0.019 A 
ENDBRANCH   3   6
ENDBRANCH   1   2
BRANCH   1  13
ATOM     13  C   UNL d   1       0.212   0.122  -1.290  0.00  0.00     0.442 C 
ATOM     14  F   UNL d   1      -0.988   0.750  -1.208  0.00  0.00    -0.166 F 
ATOM     15  F   UNL d   1       0.980   0.831  -2.160  0.00  0.00    -0.166 F 
ATOM     16  F   UNL d   1      -0.031  -1.070  -1.898  0.00  0.00    -0.166 F 
ENDBRANCH   1  13
BRANCH   1  17
ATOM     17  C   UNL d   1       0.462  -1.434   0.563  0.00  0.00     0.318 C 
ATOM     18  O   UNL d   1      -0.489  -1.625   1.320  0.00  0.00    -0.260 OA
BRANCH  17  19
ATOM     19  O   UNL d   1       1.265  -2.422   0.074  0.00  0.00    -0.318 OA
BRANCH  19  20
ATOM     20  C   UNL d   1       0.989  -3.757   0.527  0.00  0.00     0.174 C 
ATOM     21  C   UNL d   1       1.588  -3.989   1.903  0.00  0.00     0.034 C 
ENDBRANCH  19  20
ENDBRANCH  17  19
ENDBRANCH   1  17
BRANCH   1  22
ATOM     22  N   UNL d   1       2.394   0.102   0.036  0.00  0.00    -0.348 N 
ATOM     23  H   UNL d   1       2.644   0.877  -0.583  0.00  0.00     0.163 HD
BRANCH  22  24
ATOM     24  C   UNL d   1       3.292  -0.046   1.084  0.00  0.00     0.030 A 
ATOM     25  C   UNL d   1       2.972  -0.571   2.342  0.00  0.00     0.032 A 
ATOM     26  C   UNL d   1       3.936  -0.708   3.347  0.00  0.00     0.044 A 
ATOM     27  C   UNL d   1       5.252  -0.368   3.083  0.00  0.00     0.116 A 
ATOM     28  C   UNL d   1       5.621   0.088   1.829  0.00  0.00     0.044 A 
ATOM     29  F   UNL d   1       6.173  -0.491   4.046  0.00  0.00    -0.206 F 
ATOM     30  C   UNL d   1       4.646   0.238   0.836  0.00  0.00     0.032 A 
ENDBRANCH  22  24
ENDBRANCH   1  22
TORSDOF 8
