REMARK  6 active torsions:
REMARK  status: ('A' for Active; 'I' for Inactive)
REMARK    1  A    between atoms: N_2  and  S_1 
REMARK    2  A    between atoms: C_6  and  S_1 
REMARK    3  A    between atoms: S_5  and  N_2 
REMARK    4  A    between atoms: C_13  and  C_4 
REMARK    5  A    between atoms: C_20  and  S_5 
REMARK    6  A    between atoms: C_11  and  C_14 
ROOT
ATOM      1  C   UNL d   1       0.489  -0.455  -1.651  0.00  0.00     0.121 A 
ATOM      2  S   UNL d   1       0.107   0.838  -2.709  0.00  0.00    -0.074 SA
ATOM      3  C   UNL d   1      -0.401  -0.222  -3.949  0.00  0.00     0.034 A 
ATOM      4  C   UNL d   1       0.207  -1.677  -2.234  0.00  0.00     0.034 A 
ATOM      5  C   UNL d   1      -0.300  -1.542  -3.560  0.00  0.00     0.023 A 
ENDROOT
BRANCH   1   6
ATOM      6  S   UNL d   1       1.180  -0.029  -0.059  0.00  0.00     0.276 S 
ATOM      7  O   UNL d   1       1.973  -1.188   0.303  0.00  0.00    -0.199 OA
ATOM      8  O   UNL d   1       1.826   1.257  -0.238  0.00  0.00    -0.199 OA
BRANCH   6   9
ATOM      9  N   UNL d   1      -0.095   0.180   1.028  0.00  0.00    -0.236 N 
ATOM     10  HN  UNL d   1      -0.454   1.121   1.191  1.00  0.00     0.189 HD
BRANCH   9  11
ATOM     11  S   UNL d   1      -0.782  -1.091   1.840  0.00  0.00     0.061 S 
ATOM     12  O   UNL d   1      -1.299  -2.103   0.951  0.00  0.00    -0.244 OA
ATOM     13  C   UNL d   1      -2.081  -0.374   2.807  0.00  0.00     0.143 C 
BRANCH  11  14
ATOM     14  C   UNL d   1       0.414  -1.724   2.946  0.00  0.00     0.038 A 
ATOM     15  C   UNL d   1       0.975  -0.892   3.918  0.00  0.00     0.022 A 
ATOM     16  C   UNL d   1       1.929  -1.411   4.795  0.00  0.00     0.001 A 
ATOM     17  C   UNL d   1       2.315  -2.749   4.698  0.00  0.00     0.000 A 
ATOM     18  C   UNL d   1       1.748  -3.574   3.726  0.00  0.00     0.001 A 
ATOM     19  C   UNL d   1       0.793  -3.063   2.848  0.00  0.00     0.022 A 
ENDBRANCH  11  14
ENDBRANCH   9  11
ENDBRANCH   6   9
ENDBRANCH   1   6
BRANCH   3  20
ATOM     20  C   UNL d   1      -0.917   0.216  -5.290  0.00  0.00     0.067 A 
ATOM     21  C   UNL d   1      -0.951   1.531  -5.804  0.00  0.00     0.068 A 
ATOM     22  C   UNL d   1      -1.556   1.432  -7.044  0.00  0.00     0.136 A 
ATOM     23  N   UNL d   1      -1.866   0.108  -7.190  0.00  0.00    -0.292 N 
ATOM     24  N   UNL d   1      -1.440  -0.653  -6.164  0.00  0.00    -0.297 N 
ATOM     25  C   UNL d   1      -2.627  -0.524  -8.246  0.00  0.00     0.178 C 
ATOM     26  HN  UNL d   1      -1.503  -1.667  -6.073  1.00  0.00     0.187 HD
BRANCH  22  27
ATOM     27  C   UNL d   1      -1.869   2.474  -8.042  0.00  0.00     0.434 C 
ATOM     28  F   UNL d   1      -2.459   1.989  -9.163  0.00  0.00    -0.165 F 
ATOM     29  F   UNL d   1      -2.711   3.407  -7.533  0.00  0.00    -0.165 F 
ATOM     30  F   UNL d   1      -0.752   3.129  -8.444  0.00  0.00    -0.165 F 
ENDBRANCH  22  27
ENDBRANCH   3  20
TORSDOF 6
