REMARK  4 active torsions:
REMARK  status: ('A' for Active; 'I' for Inactive)
REMARK    1  A    between atoms: C_3  and  N_1 
REMARK    2  A    between atoms: C_2  and  O_7 
REMARK       I    between atoms: N_5  and  C_2 
REMARK    3  A    between atoms: C_14  and  N_5 
REMARK    4  A    between atoms: O_7  and  C_11 
ROOT
ATOM      1  C   UNL d   1      -5.012   2.124   3.373  0.00  0.00     0.103 A 
ATOM      2  C   UNL d   1      -3.971   1.448   2.718  0.00  0.00     0.039 A 
ATOM      3  C   UNL d   1      -4.943   3.507   3.570  0.00  0.00     0.039 A 
ATOM      4  C   UNL d   1      -2.854   3.568   2.343  0.00  0.00     0.081 A 
ATOM      5  C   UNL d   1      -3.853   4.228   3.064  0.00  0.00     0.040 A 
ATOM      6  C   UNL d   1      -2.891   2.176   2.209  0.00  0.00     0.040 A 
ENDROOT
BRANCH   4   7
ATOM      7  O   UNL d   1      -1.774   4.206   1.675  0.00  0.00    -0.262 OA
BRANCH   7   8
ATOM      8  C   UNL d   1      -1.779   5.554   1.327  0.00  0.00     0.366 C 
ATOM      9  N   UNL d   1      -0.740   5.955   0.537  0.00  0.00    -0.333 N 
ATOM     10  H   UNL d   1      -0.834   6.930   0.286  0.00  0.00     0.165 HD
ATOM     11  O   UNL d   1      -2.624   6.380   1.656  0.00  0.00    -0.238 OA
BRANCH   9  12
ATOM     12  C   UNL d   1       0.293   5.200  -0.155  0.00  0.00     0.078 C 
ATOM     13  C   UNL d   1       1.185   4.385   0.773  0.00  0.00     0.032 C 
ATOM     14  C   UNL d   1      -0.260   4.349  -1.296  0.00  0.00     0.032 C 
ENDBRANCH   9  12
ENDBRANCH   7   8
ENDBRANCH   4   7
BRANCH   1  15
ATOM     15  N   UNL d   1      -6.195   1.379   3.823  0.00  0.00    -0.116 N 
ATOM     16  O   UNL d   1      -6.241   0.165   3.576  0.00  0.00    -0.532 OA
ATOM     17  O   UNL d   1      -7.086   2.009   4.412  0.00  0.00    -0.532 OA
ENDBRANCH   1  15
TORSDOF 4
