REMARK  3 active torsions:
REMARK  status: ('A' for Active; 'I' for Inactive)
REMARK    1  A    between atoms: C_5  and  C_1 
REMARK    2  A    between atoms: C_6  and  C_2 
REMARK    3  A    between atoms: C_9  and  C_5 
ROOT
ATOM      1  C   UNL d   1      -0.017  -1.203   0.014  0.00  0.00     0.076 C 
ATOM      2  C   UNL d   1      -1.368  -0.718   0.037  0.00  0.00     0.083 C 
ATOM      3  N   UNL d   1      -1.376   0.603  -0.213  0.00  0.00    -0.259 N 
ATOM      4  HN  UNL d   1      -2.198   1.188  -0.364  1.00  0.00     0.195 HD
ATOM      5  O   UNL d   1      -0.068   1.015  -0.226  0.00  0.00    -0.241 OA
ATOM      6  C   UNL d   1       0.746  -0.052  -0.053  0.00  0.00     0.089 C 
ATOM      7  C   UNL d   1       2.187   0.258   0.049  0.00  0.00     0.080 C 
ENDROOT
BRANCH   1   8
ATOM      8  C   UNL d   1       0.481  -2.559   0.136  0.00  0.00     0.197 C 
ATOM      9  O   UNL d   1      -0.038  -3.388   0.877  0.00  0.00    -0.286 OA
BRANCH   8  10
ATOM     10  C   UNL d   1       1.658  -2.975  -0.688  0.00  0.00     0.015 A 
ATOM     11  C   UNL d   1       1.896  -2.440  -1.966  0.00  0.00     0.018 A 
ATOM     12  C   UNL d   1       3.031  -2.825  -2.686  0.00  0.00     0.043 A 
ATOM     13  C   UNL d   1       3.906  -3.758  -2.142  0.00  0.00     0.116 A 
ATOM     14  C   UNL d   1       3.662  -4.326  -0.897  0.00  0.00     0.043 A 
ATOM     15  F   UNL d   1       4.998  -4.116  -2.829  0.00  0.00    -0.206 F 
ATOM     16  C   UNL d   1       2.533  -3.939  -0.168  0.00  0.00     0.018 A 
ENDBRANCH   8  10
ENDBRANCH   1   8
BRANCH   2  17
ATOM     17  C   UNL d   1      -2.631  -1.443   0.223  0.00  0.00     0.015 A 
ATOM     18  C   UNL d   1      -3.677  -0.947   1.029  0.00  0.00     0.046 A 
ATOM     19 CL   UNL d   1      -3.566   0.518   1.949  0.00  0.00    -0.083 Cl
ATOM     20  C   UNL d   1      -4.876  -1.663   1.163  0.00  0.00     0.025 A 
ATOM     21  C   UNL d   1      -5.045  -2.885   0.519  0.00  0.00     0.002 A 
ATOM     22  C   UNL d   1      -4.018  -3.395  -0.269  0.00  0.00     0.001 A 
ATOM     23  C   UNL d   1      -2.827  -2.677  -0.424  0.00  0.00     0.015 A 
ENDBRANCH   2  17
TORSDOF 3
