REMARK  7 active torsions:
REMARK  status: ('A' for Active; 'I' for Inactive)
REMARK    1  A    between atoms: C_2  and  C_1 
REMARK    2  A    between atoms: C_3  and  C_1 
REMARK    3  A    between atoms: N_4  and  C_1 
REMARK    4  A    between atoms: N_5  and  C_1 
REMARK       I    between atoms: C_7  and  N_4 
REMARK    5  A    between atoms: C_16  and  N_5 
REMARK    6  A    between atoms: C_6  and  O_8 
REMARK    7  A    between atoms: O_8  and  C_20 
ROOT
ATOM      1  C   UNL d   1       0.865  -0.241   0.055  0.00  0.00     0.290 C 
ENDROOT
BRANCH   1   2
ATOM      2  C   UNL d   1       0.355  -0.964   1.357  0.00  0.00     0.435 C 
ATOM      3  F   UNL d   1      -0.839  -0.548   1.825  0.00  0.00    -0.167 F 
ATOM      4  F   UNL d   1       0.219  -2.304   1.160  0.00  0.00    -0.167 F 
ATOM      5  F   UNL d   1       1.239  -0.815   2.380  0.00  0.00    -0.167 F 
ENDBRANCH   1   2
BRANCH   1   6
ATOM      6  C   UNL d   1       0.363   1.254   0.178  0.00  0.00     0.435 C 
ATOM      7  F   UNL d   1      -0.449   1.542   1.208  0.00  0.00    -0.167 F 
ATOM      8  F   UNL d   1       1.450   2.075   0.330  0.00  0.00    -0.167 F 
ATOM      9  F   UNL d   1      -0.245   1.683  -0.958  0.00  0.00    -0.167 F 
ENDBRANCH   1   6
BRANCH   1  10
ATOM     10  N   UNL d   1       0.502  -0.886  -1.213  0.00  0.00    -0.324 N 
ATOM     11  C   UNL d   1      -0.796  -1.129  -1.540  0.00  0.00     0.215 C 
ATOM     12  O   UNL d   1      -1.709  -0.843  -0.788  0.00  0.00    -0.274 OA
ATOM     13  C   UNL d   1      -1.001  -1.796  -2.877  0.00  0.00     0.117 C 
ATOM     14  H   UNL d   1       1.266  -1.048  -1.853  0.00  0.00     0.165 HD
ENDBRANCH   1  10
BRANCH   1  15
ATOM     15  N   UNL d   1       2.386  -0.223  -0.134  0.00  0.00    -0.251 NA
ATOM     16  H   UNL d   1       2.748   0.676   0.202  0.00  0.00     0.130 HD
BRANCH  15  17
ATOM     17  C   UNL d   1       3.212  -1.266   0.287  0.00  0.00     0.010 C 
ATOM     18  C   UNL d   1       2.858  -2.615   0.225  0.00  0.00     0.026 C 
ATOM     19  C   UNL d   1       3.702  -3.617   0.722  0.00  0.00     0.039 C 
ATOM     20  C   UNL d   1       4.937  -3.283   1.263  0.00  0.00     0.078 C 
ATOM     21  C   UNL d   1       5.370  -1.961   1.184  0.00  0.00     0.039 C 
ATOM     22  C   UNL d   1       4.519  -0.966   0.694  0.00  0.00     0.026 C 
BRANCH  20  23
ATOM     23  O   UNL d   1       5.814  -4.150   1.837  0.00  0.00    -0.255 OA
BRANCH  23  24
ATOM     24  C   UNL d   1       5.286  -5.253   2.564  0.00  0.00     0.530 C 
ATOM     25  F   UNL d   1       3.979  -5.130   2.877  0.00  0.00    -0.144 F 
ATOM     26  F   UNL d   1       5.462  -6.386   1.851  0.00  0.00    -0.144 F 
ATOM     27  F   UNL d   1       5.976  -5.371   3.721  0.00  0.00    -0.144 F 
ENDBRANCH  23  24
ENDBRANCH  20  23
ENDBRANCH  15  17
ENDBRANCH   1  15
TORSDOF 7
