REMARK  6 active torsions:
REMARK  status: ('A' for Active; 'I' for Inactive)
REMARK    1  A    between atoms: C_3  and  C_1 
REMARK    2  A    between atoms: C_10  and  C_2 
REMARK    3  A    between atoms: N_20  and  C_10 
REMARK    4  A    between atoms: O_17  and  N_12 
REMARK    5  A    between atoms: C_15  and  O_17 
REMARK    6  A    between atoms: C_19  and  C_15 
ROOT
ATOM      1  C   UNL d   1       0.272  -2.693  -0.066  0.00  0.00     0.114 C 
ATOM      2  N   UNL d   1      -0.497  -3.712   0.147  0.00  0.00    -0.245 N 
ATOM      3  HN  UNL d   1      -0.171  -4.659   0.340  1.00  0.00     0.196 HD
ENDROOT
BRANCH   1   4
ATOM      4  C   UNL d   1       1.715  -2.871  -0.021  0.00  0.00     0.066 A 
ATOM      5  C   UNL d   1       2.690  -1.999   0.453  0.00  0.00     0.142 A 
ATOM      6  O   UNL d   1       3.920  -2.547   0.241  0.00  0.00    -0.234 OA
ATOM      7  N   UNL d   1       3.797  -3.800  -0.299  0.00  0.00    -0.264 N 
ATOM      8  C   UNL d   1       2.482  -4.011  -0.437  0.00  0.00     0.045 A 
ATOM      9  HN  UNL d   1       4.551  -4.440  -0.547  1.00  0.00     0.194 HD
ATOM     10  C   UNL d   1       2.050  -5.318  -0.992  0.00  0.00     0.071 C 
BRANCH   5  11
ATOM     11  C   UNL d   1       2.547  -0.684   1.143  0.00  0.00     0.094 A 
ATOM     12  N   UNL d   1       1.368  -0.153   1.490  0.00  0.00    -0.258 N 
ATOM     13  O   UNL d   1       1.659   1.033   2.132  0.00  0.00    -0.242 OA
ATOM     14  HN  UNL d   1       0.443  -0.546   1.316  1.00  0.00     0.195 HD
ATOM     15  C   UNL d   1       3.005   1.212   2.161  0.00  0.00     0.074 A 
ATOM     16  C   UNL d   1       3.615   0.154   1.534  0.00  0.00     0.068 A 
ATOM     17  C   UNL d   1       3.482   2.429   2.837  0.00  0.00     0.079 C 
ENDBRANCH   5  11
ENDBRANCH   1   4
BRANCH   1  18
ATOM     18  N   UNL d   1      -0.159  -1.432  -0.382  0.00  0.00    -0.286 NA
ATOM     19  H   UNL d   1       0.342  -0.681   0.090  0.00  0.00     0.125 HD
ATOM     20  H   UNL d   1      -1.151  -1.332  -0.199  0.00  0.00     0.125 HD
ENDBRANCH   1  18
BRANCH   2  21
ATOM     21  O   UNL d   1      -1.859  -3.321   0.073  0.00  0.00    -0.193 OA
BRANCH  21  22
ATOM     22  C   UNL d   1      -2.673  -4.411   0.174  0.00  0.00     0.315 C 
ATOM     23  O   UNL d   1      -2.343  -5.586   0.274  0.00  0.00    -0.257 OA
BRANCH  22  24
ATOM     24  C   UNL d   1      -4.096  -3.989   0.067  0.00  0.00     0.041 A 
ATOM     25  C   UNL d   1      -4.546  -2.719   0.454  0.00  0.00     0.017 A 
ATOM     26  C   UNL d   1      -5.902  -2.391   0.335  0.00  0.00     0.001 A 
ATOM     27  C   UNL d   1      -6.810  -3.324  -0.168  0.00  0.00     0.000 A 
ATOM     28  C   UNL d   1      -6.369  -4.591  -0.542  0.00  0.00     0.001 A 
ATOM     29  C   UNL d   1      -5.019  -4.925  -0.422  0.00  0.00     0.017 A 
ENDBRANCH  22  24
ENDBRANCH  21  22
ENDBRANCH   2  21
TORSDOF 6
