REMARK  6 active torsions:
REMARK  status: ('A' for Active; 'I' for Inactive)
REMARK    1  A    between atoms: C_2  and  C_1 
REMARK    2  A    between atoms: C_3  and  C_1 
REMARK    3  A    between atoms: C_4  and  C_2 
REMARK    4  A    between atoms: C_7  and  C_3 
REMARK    5  A    between atoms: N_9  and  N_5 
REMARK    6  A    between atoms: C_18  and  N_9 
ROOT
ATOM      1  C   UNL d   1       1.123  -0.063  -0.176  0.00  0.00     0.150 C 
ATOM      2  N   UNL d   1       2.428  -0.045  -0.228  0.00  0.00    -0.310 N 
ATOM      3  HN  UNL d   1       2.963  -0.772   0.248  1.00  0.00     0.181 HD
ENDROOT
BRANCH   1   4
ATOM      4  C   UNL d   1       0.242   0.902  -0.892  0.00  0.00     0.286 C 
ATOM      5  O   UNL d   1      -0.492   1.623  -0.222  0.00  0.00    -0.281 OA
BRANCH   4   6
ATOM      6  C   UNL d   1       0.346   0.866  -2.387  0.00  0.00     0.457 C 
ATOM      7  F   UNL d   1       1.254  -0.037  -2.855  0.00  0.00    -0.163 F 
ATOM      8  F   UNL d   1      -0.827   0.581  -3.009  0.00  0.00    -0.163 F 
ATOM      9  F   UNL d   1       0.762   2.069  -2.882  0.00  0.00    -0.163 F 
ENDBRANCH   4   6
ENDBRANCH   1   4
BRANCH   1  10
ATOM     10  C   UNL d   1       0.476  -1.134   0.656  0.00  0.00     0.220 C 
ATOM     11  O   UNL d   1      -0.440  -1.737   0.102  0.00  0.00    -0.284 OA
BRANCH  10  12
ATOM     12  C   UNL d   1       0.967  -1.337   2.012  0.00  0.00     0.057 A 
ATOM     13  S   UNL d   1       0.142  -2.451   3.031  0.00  0.00    -0.098 SA
ATOM     14  C   UNL d   1       1.239  -2.207   4.319  0.00  0.00     0.050 A 
ATOM     15  C   UNL d   1       2.214  -1.292   3.998  0.00  0.00     0.009 A 
ATOM     16  C   UNL d   1       2.042  -0.773   2.680  0.00  0.00     0.023 A 
ENDBRANCH  10  12
ENDBRANCH   1  10
BRANCH   2  17
ATOM     17  N   UNL d   1       3.080   0.932  -0.910  0.00  0.00    -0.205 NA
ATOM     18  H   UNL d   1       2.766   1.212  -1.842  0.00  0.00     0.153 HD
BRANCH  17  19
ATOM     19  C   UNL d   1       4.497   0.816  -0.961  0.00  0.00     0.028 A 
ATOM     20  C   UNL d   1       5.215  -0.077  -0.153  0.00  0.00     0.032 A 
ATOM     21  C   UNL d   1       6.613  -0.157  -0.227  0.00  0.00    -0.060 A 
ATOM     22  C   UNL d   1       7.371  -1.143   0.610  0.00  0.00     0.048 C 
ATOM     23  C   UNL d   1       7.300   0.708  -1.084  0.00  0.00     0.007 A 
ATOM     24  C   UNL d   1       6.603   1.636  -1.856  0.00  0.00     0.002 A 
ATOM     25  C   UNL d   1       5.210   1.695  -1.786  0.00  0.00     0.025 A 
ENDBRANCH  17  19
ENDBRANCH   2  17
TORSDOF 6
