REMARK  3 active torsions:
REMARK  status: ('A' for Active; 'I' for Inactive)
REMARK    1  A    between atoms: C_4  and  C_3 
REMARK    2  A    between atoms: C_9  and  C_5 
REMARK    3  A    between atoms: O_20  and  C_17 
ROOT
ATOM      1  N   UNL d   1       1.211   0.552   0.029  0.00  0.00    -0.341 N 
ATOM      2  HN  UNL d   1       2.127   1.001   0.023  1.00  0.00     0.167 HD
ATOM      3  C   UNL d   1       0.077   1.272   0.058  0.00  0.00     0.122 A 
ATOM      4  C   UNL d   1       1.084  -0.793   0.009  0.00  0.00     0.045 A 
ATOM      5  N   UNL d   1      -1.169   0.762   0.058  0.00  0.00    -0.351 N 
ATOM      6  HN  UNL d   1      -1.997   1.357   0.079  1.00  0.00     0.166 HD
ATOM      7  C   UNL d   1      -0.158  -1.403   0.001  0.00  0.00     0.047 A 
ATOM      8  C   UNL d   1      -1.254  -0.575   0.027  0.00  0.00     0.092 A 
ENDROOT
BRANCH   4   9
ATOM      9  C   UNL d   1       2.348  -1.560  -0.010  0.00  0.00    -0.009 A 
ATOM     10  C   UNL d   1       2.451  -2.833   0.581  0.00  0.00     0.016 A 
ATOM     11  C   UNL d   1       3.646  -3.564   0.551  0.00  0.00     0.037 A 
ATOM     12  C   UNL d   1       4.775  -3.031  -0.064  0.00  0.00     0.068 A 
ATOM     13  C   UNL d   1       4.695  -1.777  -0.665  0.00  0.00     0.037 A 
ATOM     14  C   UNL d   1       3.502  -1.045  -0.627  0.00  0.00     0.016 A 
BRANCH  12  15
ATOM     15  O   UNL d   1       5.982  -3.664  -0.172  0.00  0.00    -0.356 OA
ATOM     16  C   UNL d   1       6.296  -4.562   0.887  0.00  0.00     0.210 C 
ENDBRANCH  12  15
ENDBRANCH   4   9
BRANCH   3  17
ATOM     17  C   UNL d   1       0.172   2.736   0.090  0.00  0.00     0.049 A 
ATOM     18  S   UNL d   1       1.693   3.535   0.174  0.00  0.00    -0.098 SA
ATOM     19  C   UNL d   1       0.970   5.083   0.173  0.00  0.00     0.050 A 
ATOM     20  C   UNL d   1      -0.404   5.012   0.111  0.00  0.00     0.009 A 
ATOM     21  C   UNL d   1      -0.860   3.664   0.067  0.00  0.00     0.023 A 
ENDBRANCH   3  17
TORSDOF 3
