REMARK  2 active torsions:
REMARK  status: ('A' for Active; 'I' for Inactive)
REMARK    1  A    between atoms: C_13  and  C_7 
REMARK    2  A    between atoms: C_15  and  C_13 
ROOT
ATOM      1  C   UNL d   1       0.230  -0.636  -0.017  0.00  0.00     0.180 A 
ATOM      2  C   UNL d   1       0.223   0.739  -0.021  0.00  0.00     0.047 A 
ATOM      3  N   UNL d   1       1.538  -1.014  -0.011  0.00  0.00    -0.274 N 
ATOM      4  N   UNL d   1       2.386   0.034  -0.011  0.00  0.00    -0.300 N 
ATOM      5  HN  UNL d   1       3.406   0.011  -0.006  1.00  0.00     0.187 HD
ATOM      6  C   UNL d   1       1.588   1.117  -0.020  0.00  0.00     0.037 A 
ATOM      7  C   UNL d   1      -1.058   1.355  -0.020  0.00  0.00    -0.036 A 
ATOM      8  O   UNL d   1      -0.787  -1.484  -0.016  0.00  0.00    -0.256 OA
ATOM      9  C   UNL d   1      -2.031  -0.923  -0.012  0.00  0.00     0.290 A 
ATOM     10  C   UNL d   1      -2.146   0.561  -0.006  0.00  0.00     0.090 A 
ATOM     11  O   UNL d   1      -3.050  -1.606  -0.010  0.00  0.00    -0.260 OA
ATOM     12  C   UNL d   1       2.072  -2.354  -0.003  0.00  0.00     0.180 C 
ATOM     13  C   UNL d   1       2.246   2.448  -0.025  0.00  0.00     0.070 C 
ENDROOT
BRANCH   7  14
ATOM     14  C   UNL d   1      -1.167   2.853   0.024  0.00  0.00     0.039 C 
BRANCH  14  15
ATOM     15  C   UNL d   1      -1.141   3.486  -1.371  0.00  0.00     0.000 C 
ATOM     16  C   UNL d   1      -1.198   5.005  -1.294  0.00  0.00     0.005 C 
ENDBRANCH  14  15
ENDBRANCH   7  14
TORSDOF 2
