REMARK  4 active torsions:
REMARK  status: ('A' for Active; 'I' for Inactive)
REMARK    1  A    between atoms: C_7  and  C_2 
REMARK    2  A    between atoms: C_6  and  C_7 
REMARK    3  A    between atoms: S_13  and  C_11 
REMARK    4  A    between atoms: S_14  and  C_11 
ROOT
ATOM      1  C   UNL d   1      -0.154  -0.555   1.083  0.00  0.00     0.057 A 
ATOM      2  C   UNL d   1       2.131   0.235   1.025  0.00  0.00     0.063 A 
ATOM      3  S   UNL d   1       1.317  -1.221   1.482  0.00  0.00    -0.077 SA
ATOM      4  C   UNL d   1       1.223   1.258   0.675  0.00  0.00    -0.028 A 
ATOM      5  C   UNL d   1      -0.100   0.733   0.702  0.00  0.00     0.002 A 
ATOM      6  S   UNL d   1      -1.679  -1.229   1.047  0.00  0.00    -0.093 SA
ATOM      7  C   UNL d   1      -1.373   1.281   0.377  0.00  0.00    -0.043 A 
ATOM      8  C   UNL d   1      -2.323   0.260   0.472  0.00  0.00     0.058 A 
ATOM      9  C   UNL d   1       1.686   2.623   0.274  0.00  0.00     0.050 C 
ATOM     10  C   UNL d   1      -1.782   2.658  -0.020  0.00  0.00     0.049 C 
ENDROOT
BRANCH   2  11
ATOM     11  C   UNL d   1       3.598   0.294   0.940  0.00  0.00     0.191 C 
ATOM     12  O   UNL d   1       4.144   1.086   0.171  0.00  0.00    -0.287 OA
BRANCH  11  13
ATOM     13  C   UNL d   1       4.436  -0.620   1.785  0.00  0.00     0.082 C 
ATOM     14  C   UNL d   1       5.772  -0.606   1.944  0.00  0.00     0.040 C 
BRANCH  14  15
ATOM     15  S   UNL d   1       6.870   0.540   1.233  0.00  0.00    -0.127 SA
ATOM     16  C   UNL d   1       7.467  -0.415  -0.184  0.00  0.00     0.096 C 
ENDBRANCH  14  15
BRANCH  14  17
ATOM     17  S   UNL d   1       6.473  -1.800   3.028  0.00  0.00    -0.127 SA
ATOM     18  C   UNL d   1       6.358  -0.881   4.583  0.00  0.00     0.096 C 
ENDBRANCH  14  17
ENDBRANCH  11  13
ENDBRANCH   2  11
TORSDOF 4
