REMARK  2 active torsions:
REMARK  status: ('A' for Active; 'I' for Inactive)
REMARK    1  A    between atoms: C_2  and  S_1 
REMARK    2  A    between atoms: N_6  and  S_1 
ROOT
ATOM      1  C   UNL d   1       0.541  -0.206   1.901  0.00  0.00     0.130 A 
ATOM      2  N   UNL d   1      -0.308  -1.066   3.817  0.00  0.00    -0.264 N 
ATOM      3  HN  UNL d   1      -0.792  -1.668   4.483  1.00  0.00     0.194 HD
ATOM      4  C   UNL d   1       0.847   0.640   2.938  0.00  0.00     0.097 A 
ATOM      5  C   UNL d   1      -0.165  -1.275   2.499  0.00  0.00     0.054 A 
ATOM      6  O   UNL d   1       0.331   0.128   4.088  0.00  0.00    -0.241 OA
ATOM      7  C   UNL d   1       1.598   1.900   3.074  0.00  0.00     0.081 C 
ATOM      8  C   UNL d   1      -0.710  -2.517   1.901  0.00  0.00     0.072 C 
ENDROOT
BRANCH   1   9
ATOM      9  S   UNL d   1       0.981   0.005   0.269  0.00  0.00     0.248 S 
ATOM     10  O   UNL d   1       0.281  -1.026  -0.466  0.00  0.00    -0.206 OA
ATOM     11  O   UNL d   1       2.428   0.055   0.303  0.00  0.00    -0.206 OA
BRANCH   9  12
ATOM     12  N   UNL d   1       0.415   1.517  -0.277  0.00  0.00    -0.206 NA
ATOM     13  C   UNL d   1      -1.060   1.690  -0.305  0.00  0.00     0.107 C 
ATOM     14  C   UNL d   1      -1.443   1.480  -1.757  0.00  0.00     0.017 C 
ATOM     15  C   UNL d   1      -0.300   2.135  -2.505  0.00  0.00     0.017 C 
ATOM     16  C   UNL d   1       0.927   1.887  -1.634  0.00  0.00     0.107 C 
ENDBRANCH   9  12
ENDBRANCH   1   9
TORSDOF 2
