REMARK  6 active torsions:
REMARK  status: ('A' for Active; 'I' for Inactive)
REMARK    1  A    between atoms: S_20  and  C_3 
REMARK    2  A    between atoms: C_7  and  C_4 
REMARK    3  A    between atoms: S_17  and  C_10 
REMARK    4  A    between atoms: C_16  and  C_21 
REMARK    5  A    between atoms: C_18  and  C_16 
REMARK    6  A    between atoms: C_21  and  S_17 
ROOT
ATOM      1  C   UNL d   1       2.675   2.100  -0.303  0.00  0.00     0.053 A 
ATOM      2  N   UNL d   1       2.587   2.969   0.726  0.00  0.00    -0.336 N 
ATOM      3  HN  UNL d   1       1.933   2.816   1.494  1.00  0.00     0.168 HD
ATOM      4  C   UNL d   1       3.395   4.047   0.699  0.00  0.00     0.144 A 
ATOM      5  N   UNL d   1       4.267   4.334  -0.281  0.00  0.00    -0.347 N 
ATOM      6  HN  UNL d   1       4.855   5.168  -0.258  1.00  0.00     0.167 HD
ATOM      7  C   UNL d   1       3.539   2.315  -1.359  0.00  0.00     0.048 A 
ATOM      8  C   UNL d   1       4.316   3.449  -1.297  0.00  0.00     0.092 A 
ENDROOT
BRANCH   1   9
ATOM      9  C   UNL d   1       1.831   0.877  -0.192  0.00  0.00     0.040 A 
ATOM     10  C   UNL d   1       0.584   0.670   0.397  0.00  0.00    -0.022 A 
ATOM     11  C   UNL d   1       0.132  -0.717   0.266  0.00  0.00     0.041 A 
ATOM     12  C   UNL d   1      -0.270   1.714   1.098  0.00  0.00     0.050 C 
ATOM     13  C   UNL d   1       1.071  -1.518  -0.355  0.00  0.00     0.056 A 
ATOM     14  C   UNL d   1      -1.166  -1.125   0.807  0.00  0.00     0.162 C 
ATOM     15  S   UNL d   1       2.442  -0.602  -0.815  0.00  0.00    -0.080 SA
ATOM     16  C   UNL d   1      -2.144   0.004   1.040  0.00  0.00     0.093 C 
ATOM     17  O   UNL d   1      -1.473  -2.279   1.083  0.00  0.00    -0.292 OA
ATOM     18  C   UNL d   1      -1.477   1.111   1.878  0.00  0.00    -0.037 C 
ATOM     19  C   UNL d   1      -2.525   2.202   2.156  0.00  0.00     0.015 C 
ATOM     20  C   UNL d   1      -1.020   0.539   3.239  0.00  0.00     0.015 C 
BRANCH  13  21
ATOM     21  S   UNL d   1       1.111  -3.254  -0.678  0.00  0.00    -0.126 SA
ATOM     22  C   UNL d   1      -0.535  -3.667  -1.284  0.00  0.00     0.096 C 
ENDBRANCH  13  21
ENDBRANCH   1   9
BRANCH   4  23
ATOM     23  S   UNL d   1       3.379   5.072   2.156  0.00  0.00    -0.086 SA
BRANCH  23  24
ATOM     24  C   UNL d   1       3.999   6.657   1.506  0.00  0.00     0.161 C 
BRANCH  24  25
ATOM     25  C   UNL d   1       3.859   7.716   2.592  0.00  0.00     0.144 C 
ATOM     26  O   UNL d   1       2.771   8.287   2.748  0.00  0.00    -0.296 OA
BRANCH  25  27
ATOM     27  C   UNL d   1       5.084   8.132   3.446  0.00  0.00     0.010 C 
ATOM     28  C   UNL d   1       5.794   9.293   2.734  0.00  0.00     0.022 C 
ATOM     29  C   UNL d   1       4.590   8.621   4.822  0.00  0.00     0.022 C 
ATOM     30  C   UNL d   1       6.083   6.991   3.686  0.00  0.00     0.022 C 
ENDBRANCH  25  27
ENDBRANCH  24  25
ENDBRANCH  23  24
ENDBRANCH   4  23
TORSDOF 6
