REMARK  4 active torsions:
REMARK  status: ('A' for Active; 'I' for Inactive)
REMARK    1  A    between atoms: C_3  and  C_1 
REMARK    2  A    between atoms: C_2  and  S_4 
REMARK    3  A    between atoms: C_8  and  C_2 
REMARK    4  A    between atoms: S_4  and  C_7 
ROOT
ATOM      1  C   UNL d   1       0.985   0.389  -1.468  0.00  0.00     0.063 A 
ATOM      2  N   UNL d   1       0.869   1.326  -3.694  0.00  0.00    -0.359 N 
ATOM      3  HN  UNL d   1       1.216   1.996  -4.380  1.00  0.00     0.166 HD
ATOM      4  C   UNL d   1      -0.133   0.466  -4.009  0.00  0.00     0.077 A 
ATOM      5  C   UNL d   1       1.398   1.273  -2.446  0.00  0.00     0.105 A 
ATOM      6  C   UNL d   1      -0.029  -0.505  -1.811  0.00  0.00     0.020 A 
ATOM      7  C   UNL d   1      -0.603  -0.457  -3.083  0.00  0.00     0.038 A 
ENDROOT
BRANCH   4   8
ATOM      8  S   UNL d   1      -0.869   0.768  -5.593  0.00  0.00    -0.030 SA
BRANCH   8   9
ATOM      9  C   UNL d   1      -1.308  -0.798  -6.247  0.00  0.00     0.225 C 
ATOM     10  O   UNL d   1      -1.515  -1.776  -5.540  0.00  0.00    -0.279 OA
BRANCH   9  11
ATOM     11  C   UNL d   1      -1.520  -0.900  -7.728  0.00  0.00     0.021 A 
ATOM     12  C   UNL d   1      -2.128  -2.071  -8.220  0.00  0.00     0.018 A 
ATOM     13  C   UNL d   1      -2.386  -2.227  -9.585  0.00  0.00     0.025 A 
ATOM     14  C   UNL d   1      -2.034  -1.216 -10.475  0.00  0.00     0.034 A 
ATOM     15  C   UNL d   1      -1.415  -0.058 -10.011  0.00  0.00     0.025 A 
ATOM     16 CL   UNL d   1      -2.369  -1.395 -12.152  0.00  0.00    -0.084 Cl
ATOM     17  C   UNL d   1      -1.156   0.100  -8.644  0.00  0.00     0.018 A 
ENDBRANCH   9  11
ENDBRANCH   8   9
ENDBRANCH   4   8
BRANCH   1  18
ATOM     18  C   UNL d   1       1.579   0.421  -0.095  0.00  0.00     0.418 C 
ATOM     19  F   UNL d   1       2.575   1.339   0.050  0.00  0.00    -0.166 F 
ATOM     20  F   UNL d   1       2.118  -0.775   0.272  0.00  0.00    -0.166 F 
ATOM     21  F   UNL d   1       0.656   0.721   0.861  0.00  0.00    -0.166 F 
ENDBRANCH   1  18
TORSDOF 4
