REMARK  3 active torsions:
REMARK  status: ('A' for Active; 'I' for Inactive)
REMARK    1  A    between atoms: C_2  and  N_1 
REMARK       I    between atoms: C_3  and  N_1 
REMARK    2  A    between atoms: C_7  and  C_3 
REMARK    3  A    between atoms: C_18  and  C_17 
ROOT
ATOM      1  N   UNL d   1       1.212   0.327  -0.272  0.00  0.00    -0.308 N 
ATOM      2  C   UNL d   1       2.557   0.175  -0.009  0.00  0.00     0.257 C 
ATOM      3  O   UNL d   1       3.209   0.758   0.853  0.00  0.00    -0.267 OA
ATOM      4  H   UNL d   1       0.753  -0.347  -0.869  0.00  0.00     0.170 HD
ENDROOT
BRANCH   1   5
ATOM      5  C   UNL d   1       0.359   1.239   0.379  0.00  0.00     0.125 A 
ATOM      6  N   UNL d   1       0.887   2.221   1.135  0.00  0.00    -0.351 N 
ATOM      7  C   UNL d   1       0.045   3.065   1.770  0.00  0.00     0.096 A 
ATOM      8  HN  UNL d   1       1.898   2.325   1.225  1.00  0.00     0.166 HD
ATOM      9  C   UNL d   1      -1.337   2.989   1.690  0.00  0.00    -0.045 A 
ATOM     10  C   UNL d   1      -1.877   1.982   0.889  0.00  0.00     0.031 A 
ATOM     11  C   UNL d   1      -2.197   3.958   2.437  0.00  0.00     0.049 C 
ATOM     12  C   UNL d   1      -1.023   1.103   0.220  0.00  0.00     0.055 A 
ATOM     13 BR   UNL d   1      -1.792  -0.264  -0.850  0.00  0.00    -0.047 Br
ENDBRANCH   1   5
BRANCH   2  14
ATOM     14  C   UNL d   1       3.249  -0.870  -0.816  0.00  0.00     0.032 A 
ATOM     15  C   UNL d   1       2.883  -1.173  -2.133  0.00  0.00     0.017 A 
ATOM     16  C   UNL d   1       3.588  -2.149  -2.849  0.00  0.00     0.008 A 
ATOM     17  C   UNL d   1       4.672  -2.820  -2.264  0.00  0.00    -0.059 A 
ATOM     18  C   UNL d   1       5.028  -2.515  -0.946  0.00  0.00     0.008 A 
ATOM     19  C   UNL d   1       4.327  -1.542  -0.230  0.00  0.00     0.017 A 
BRANCH  17  20
ATOM     20  C   UNL d   1       5.467  -3.840  -3.042  0.00  0.00     0.034 C 
ATOM     21  C   UNL d   1       4.941  -5.257  -2.873  0.00  0.00     0.010 C 
ENDBRANCH  17  20
ENDBRANCH   2  14
TORSDOF 3
