REMARK  5 active torsions:
REMARK  status: ('A' for Active; 'I' for Inactive)
REMARK    1  A    between atoms: S_11  and  C_1 
REMARK    2  A    between atoms: C_10  and  C_4 
REMARK    3  A    between atoms: C_7  and  N_9 
REMARK    4  A    between atoms: C_8  and  C_20 
REMARK       I    between atoms: N_9  and  C_8 
REMARK    5  A    between atoms: C_20  and  S_11 
ROOT
ATOM      1  S   UNL d   1      -0.463   2.571   1.241  0.00  0.00    -0.077 SA
ENDROOT
BRANCH   1   2
ATOM      2  C   UNL d   1      -0.843   3.267   2.785  0.00  0.00     0.187 A 
ATOM      3  N   UNL d   1      -2.065   3.627   3.130  0.00  0.00    -0.338 N 
ATOM      4  C   UNL d   1      -1.908   4.167   4.379  0.00  0.00     0.129 A 
ATOM      5  HN  UNL d   1      -2.925   3.527   2.592  1.00  0.00     0.168 HD
ATOM      6  C   UNL d   1      -0.579   4.181   4.729  0.00  0.00     0.104 A 
ATOM      7  O   UNL d   1       0.109   3.566   3.718  0.00  0.00    -0.286 OA
BRANCH   6   8
ATOM      8  C   UNL d   1       0.193   4.736   5.833  0.00  0.00    -0.001 A 
ATOM      9  C   UNL d   1       1.585   4.587   5.905  0.00  0.00     0.016 A 
ATOM     10  C   UNL d   1       2.320   5.212   6.918  0.00  0.00     0.024 A 
ATOM     11  C   UNL d   1       1.666   5.989   7.873  0.00  0.00     0.034 A 
ATOM     12  C   UNL d   1       0.283   6.127   7.832  0.00  0.00     0.024 A 
ATOM     13 CL   UNL d   1       2.570   6.792   9.093  0.00  0.00    -0.084 Cl
ATOM     14  C   UNL d   1      -0.450   5.501   6.822  0.00  0.00     0.016 A 
ENDBRANCH   6   8
ENDBRANCH   1   2
BRANCH   1  15
ATOM     15  C   UNL d   1      -1.784   3.304   0.231  0.00  0.00     0.186 C 
BRANCH  15  16
ATOM     16  C   UNL d   1      -1.558   4.799   0.061  0.00  0.00     0.231 C 
ATOM     17  N   UNL d   1      -2.216   5.581   1.001  0.00  0.00    -0.326 N 
ATOM     18  H   UNL d   1      -2.588   5.083   1.807  0.00  0.00     0.169 HD
ATOM     19  O   UNL d   1      -0.818   5.218  -0.824  0.00  0.00    -0.272 OA
BRANCH  17  20
ATOM     20  C   UNL d   1      -2.131   6.989   1.101  0.00  0.00     0.037 A 
ATOM     21  C   UNL d   1      -1.707   7.807   0.051  0.00  0.00     0.053 A 
ATOM     22  C   UNL d   1      -1.561   9.182   0.241  0.00  0.00     0.037 A 
ATOM     23 CL   UNL d   1      -1.012  10.169  -1.057  0.00  0.00    -0.084 Cl
ATOM     24  C   UNL d   1      -1.844   9.762   1.474  0.00  0.00     0.048 A 
ATOM     25  C   UNL d   1      -2.309   8.956   2.506  0.00  0.00     0.037 A 
ATOM     26  C   UNL d   1      -2.472   7.580   2.324  0.00  0.00     0.053 A 
ATOM     27 CL   UNL d   1      -2.663   9.655   4.039  0.00  0.00    -0.084 Cl
ENDBRANCH  17  20
ENDBRANCH  15  16
ENDBRANCH   1  15
TORSDOF 5
