REMARK  3 active torsions:
REMARK  status: ('A' for Active; 'I' for Inactive)
REMARK    1  A    between atoms: C_2  and  N_1 
REMARK    2  A    between atoms: O_4  and  C_3 
REMARK    3  A    between atoms: C_9  and  O_4 
ROOT
ATOM      1  C   UNL d   1      -0.714  -2.713  -0.309  0.00  0.00     0.154 A 
ATOM      2  C   UNL d   1      -0.514  -1.348  -0.415  0.00  0.00     0.181 A 
ATOM      3  N   UNL d   1       0.058  -0.628   0.587  0.00  0.00    -0.345 N 
ATOM      4  HN  UNL d   1       0.166   0.384   0.515  1.00  0.00     0.167 HD
ATOM      5  C   UNL d   1      -0.280  -3.397   0.830  0.00  0.00     0.042 A 
ATOM      6  C   UNL d   1       0.478  -1.302   1.682  0.00  0.00     0.090 A 
ATOM      7  C   UNL d   1       0.340  -2.672   1.844  0.00  0.00     0.020 A 
ENDROOT
BRANCH   2   8
ATOM      8  O   UNL d   1      -0.970  -0.669  -1.532  0.00  0.00    -0.291 OA
BRANCH   8   9
ATOM      9  C   UNL d   1      -0.242   0.415  -1.967  0.00  0.00     0.078 A 
ATOM     10  C   UNL d   1       1.157   0.466  -1.951  0.00  0.00     0.039 A 
ATOM     11  C   UNL d   1       1.823   1.598  -2.425  0.00  0.00     0.026 A 
ATOM     12  C   UNL d   1       1.090   2.663  -2.945  0.00  0.00     0.034 A 
ATOM     13  C   UNL d   1      -0.301   2.603  -3.003  0.00  0.00     0.026 A 
ATOM     14 CL   UNL d   1       1.912   4.060  -3.522  0.00  0.00    -0.084 Cl
ATOM     15  C   UNL d   1      -0.968   1.474  -2.519  0.00  0.00     0.039 A 
ENDBRANCH   8   9
ENDBRANCH   2   8
BRANCH   1  16
ATOM     16  N   UNL d   1      -1.356  -3.443  -1.370  0.00  0.00    -0.111 N 
ATOM     17  O   UNL d   1      -0.879  -3.341  -2.508  0.00  0.00    -0.532 OA
ATOM     18  O   UNL d   1      -2.308  -4.169  -1.053  0.00  0.00    -0.532 OA
ENDBRANCH   1  16
TORSDOF 3
