REMARK  5 active torsions:
REMARK  status: ('A' for Active; 'I' for Inactive)
REMARK    1  A    between atoms: C_2  and  S_1 
REMARK    2  A    between atoms: N_4  and  S_1 
REMARK    3  A    between atoms: C_19  and  N_14 
REMARK    4  A    between atoms: C_23  and  C_19 
REMARK    5  A    between atoms: C_24  and  C_23 
ROOT
ATOM      1  N   UNL d   1       0.591   0.875   1.355  0.00  0.00    -0.205 NA
ATOM      2  N   UNL d   1      -0.618   3.615   2.552  0.00  0.00     0.089 N 
ATOM      3  C   UNL d   1       0.841   2.287   0.884  0.00  0.00     0.138 C 
ATOM      4  C   UNL d   1       0.705   3.386   1.950  0.00  0.00     0.287 C 
ATOM      5  C   UNL d   1      -1.167   1.204   3.238  0.00  0.00     0.046 C 
ATOM      6  C   UNL d   1      -0.805   0.647   1.867  0.00  0.00     0.109 C 
ATOM      7  C   UNL d   1      -0.858   2.648   3.611  0.00  0.00     0.273 C 
ENDROOT
BRANCH   1   8
ATOM      8  S   UNL d   1       0.856  -0.257   0.029  0.00  0.00     0.246 S 
ATOM      9  O   UNL d   1       0.575  -1.601   0.494  0.00  0.00    -0.206 OA
ATOM     10  O   UNL d   1       0.134   0.275  -1.109  0.00  0.00    -0.206 OA
BRANCH   8  11
ATOM     11  C   UNL d   1       2.558  -0.206  -0.366  0.00  0.00     0.105 A 
ATOM     12  C   UNL d   1       3.561  -0.629   0.516  0.00  0.00     0.108 A 
ATOM     13  C   UNL d   1       4.960  -0.699   0.099  0.00  0.00     0.086 A 
ATOM     14  N   UNL d   1       3.499  -1.037   1.792  0.00  0.00    -0.238 N 
ATOM     15  N   UNL d   1       5.690  -1.140   1.129  0.00  0.00    -0.239 N 
ATOM     16  C   UNL d   1       5.386  -0.352  -1.200  0.00  0.00     0.034 A 
ATOM     17  O   UNL d   1       4.792  -1.362   2.157  0.00  0.00    -0.156 OA
ATOM     18  HN  UNL d   1       6.699  -1.282   1.153  1.00  0.00     0.197 HD
ATOM     19  C   UNL d   1       4.357   0.051  -2.070  0.00  0.00     0.004 A 
ATOM     20  C   UNL d   1       2.997   0.119  -1.674  0.00  0.00     0.027 A 
ATOM     21  HN  UNL d   1       2.665  -1.095   2.377  1.00  0.00     0.197 HD
ENDBRANCH   8  11
ENDBRANCH   1   8
BRANCH   2  22
ATOM     22  C   UNL d   1      -1.697   3.822   1.574  0.00  0.00     0.277 C 
BRANCH  22  23
ATOM     23  C   UNL d   1      -3.078   4.133   2.179  0.00  0.00     0.068 C 
BRANCH  23  24
ATOM     24  C   UNL d   1      -4.143   4.267   1.114  0.00  0.00    -0.057 A 
ATOM     25  C   UNL d   1      -4.889   3.151   0.707  0.00  0.00     0.007 A 
ATOM     26  C   UNL d   1      -5.883   3.278  -0.266  0.00  0.00     0.001 A 
ATOM     27  C   UNL d   1      -6.135   4.519  -0.847  0.00  0.00     0.000 A 
ATOM     28  C   UNL d   1      -5.387   5.631  -0.463  0.00  0.00     0.001 A 
ATOM     29  C   UNL d   1      -4.394   5.506   0.511  0.00  0.00     0.007 A 
ENDBRANCH  23  24
ENDBRANCH  22  23
ENDBRANCH   2  22
TORSDOF 5
