REMARK  3 active torsions:
REMARK  status: ('A' for Active; 'I' for Inactive)
REMARK       I    between atoms: C_4  and  N_1 
REMARK    1  A    between atoms: C_9  and  N_3 
REMARK    2  A    between atoms: C_7  and  C_4 
REMARK    3  A    between atoms: O_20  and  C_15 
ROOT
ATOM      1  N   UNL d   1       0.514   1.347  -0.391  0.00  0.00    -0.222 N 
ATOM      2  C   UNL d   1       1.372   0.271  -0.158  0.00  0.00     0.191 C 
ATOM      3  N   UNL d   1       0.770  -1.013  -0.204  0.00  0.00    -0.320 N 
ATOM      4  C   UNL d   1       0.824   2.235  -1.439  0.00  0.00     0.271 C 
ATOM      5  C   UNL d   1      -0.769   1.229   0.078  0.00  0.00     0.242 C 
ATOM      6  C   UNL d   1      -1.490  -0.034  -0.386  0.00  0.00     0.051 C 
ATOM      7  C   UNL d   1      -0.636  -1.154   0.190  0.00  0.00     0.150 C 
ATOM      8  S   UNL d   1       3.000   0.495   0.267  0.00  0.00    -0.040 SA
ATOM      9  O   UNL d   1       1.588   1.902  -2.351  0.00  0.00    -0.266 OA
ATOM     10  O   UNL d   1      -1.219   1.982   0.942  0.00  0.00    -0.272 OA
ATOM     11  C   UNL d   1      -1.570  -0.161  -1.920  0.00  0.00     0.027 C 
ATOM     12  C   UNL d   1      -2.908  -0.087   0.194  0.00  0.00     0.027 C 
ENDROOT
BRANCH   4  13
ATOM     13  C   UNL d   1       0.101   3.520  -1.682  0.00  0.00     0.093 A 
ATOM     14  C   UNL d   1      -1.296   3.607  -1.750  0.00  0.00     0.133 A 
ATOM     15  F   UNL d   1      -2.086   2.569  -1.475  0.00  0.00    -0.205 F 
ATOM     16  C   UNL d   1      -1.958   4.752  -2.189  0.00  0.00     0.043 A 
ATOM     17  C   UNL d   1      -1.232   5.842  -2.642  0.00  0.00     0.005 A 
ATOM     18  C   UNL d   1       0.157   5.787  -2.609  0.00  0.00     0.025 A 
ATOM     19  C   UNL d   1       0.822   4.650  -2.118  0.00  0.00     0.052 A 
ATOM     20 CL   UNL d   1       2.552   4.737  -2.083  0.00  0.00    -0.083 Cl
ENDBRANCH   4  13
BRANCH   3  21
ATOM     21  C   UNL d   1       1.359  -2.088  -0.976  0.00  0.00     0.070 A 
ATOM     22  C   UNL d   1       1.120  -3.461  -0.735  0.00  0.00     0.095 A 
ATOM     23  C   UNL d   1       1.635  -4.439  -1.589  0.00  0.00     0.039 A 
ATOM     24  C   UNL d   1       2.402  -4.085  -2.700  0.00  0.00     0.003 A 
ATOM     25  C   UNL d   1       2.649  -2.743  -2.956  0.00  0.00     0.002 A 
ATOM     26  C   UNL d   1       2.131  -1.759  -2.109  0.00  0.00     0.033 A 
BRANCH  22  27
ATOM     27  O   UNL d   1       0.345  -3.941   0.288  0.00  0.00    -0.354 OA
ATOM     28  C   UNL d   1       0.886  -3.699   1.587  0.00  0.00     0.210 C 
ENDBRANCH  22  27
ENDBRANCH   3  21
TORSDOF 3
