REMARK  11 active torsions:
REMARK  status: ('A' for Active; 'I' for Inactive)
REMARK    1  A    between atoms: C_9  and  C_1 
REMARK    2  A    between atoms: N_13  and  C_2 
REMARK    3  A    between atoms: C_14  and  N_4 
REMARK    4  A    between atoms: C_6  and  C_10 
REMARK    5  A    between atoms: C_7  and  C_11 
REMARK    6  A    between atoms: C_8  and  O_18 
REMARK    7  A    between atoms: C_12  and  C_8 
REMARK    8  A    between atoms: O_30  and  C_9 
REMARK    9  A    between atoms: C_28  and  N_13 
REMARK   10  A    between atoms: O_18  and  C_29 
REMARK   11  A    between atoms: C_38  and  O_30 
ROOT
ATOM      1  C   UNL d   1       1.494   2.970  -0.004  0.00  0.00     0.032 A 
ATOM      2  C   UNL d   1       4.196   3.673  -0.473  0.00  0.00     0.079 A 
ATOM      3  C   UNL d   1       2.270   2.285  -0.949  0.00  0.00     0.032 A 
ATOM      4  C   UNL d   1       2.078   4.058   0.656  0.00  0.00     0.032 A 
ATOM      5  C   UNL d   1       3.615   2.617  -1.169  0.00  0.00     0.039 A 
ATOM      6  C   UNL d   1       3.423   4.401   0.436  0.00  0.00     0.039 A 
ENDROOT
BRANCH   1   7
ATOM      7  N   UNL d   1       0.142   2.621   0.264  0.00  0.00    -0.351 N 
ATOM      8  H   UNL d   1      -0.505   3.267  -0.179  0.00  0.00     0.166 HD
BRANCH   7   9
ATOM      9  C   UNL d   1      -0.300   1.314   0.193  0.00  0.00     0.115 A 
ATOM     10  C   UNL d   1       0.094   0.194   0.808  0.00  0.00     0.067 A 
ATOM     11  C   UNL d   1      -0.633  -1.024   0.386  0.00  0.00     0.174 A 
ATOM     12  N   UNL d   1      -1.615  -0.483  -0.535  0.00  0.00    -0.334 N 
ATOM     13  C   UNL d   1      -1.437   0.895  -0.677  0.00  0.00     0.272 A 
ATOM     14  O   UNL d   1      -2.074   1.665  -1.375  0.00  0.00    -0.266 OA
BRANCH  10  15
ATOM     15  C   UNL d   1       1.150   0.187   1.822  0.00  0.00     0.293 C 
ATOM     16  O   UNL d   1       1.445   1.122   2.539  0.00  0.00    -0.259 OA
BRANCH  15  17
ATOM     17  O   UNL d   1       1.793  -1.006   1.768  0.00  0.00    -0.318 OA
BRANCH  17  18
ATOM     18  C   UNL d   1       3.140  -0.963   2.265  0.00  0.00     0.174 C 
ATOM     19  C   UNL d   1       4.039  -0.706   1.070  0.00  0.00     0.034 C 
ENDBRANCH  17  18
ENDBRANCH  15  17
ENDBRANCH  10  15
BRANCH  12  20
ATOM     20  C   UNL d   1      -2.665  -1.298  -1.200  0.00  0.00     0.025 C 
ATOM     21  C   UNL d   1      -2.611  -2.785  -0.780  0.00  0.00     0.037 C 
ATOM     22  C   UNL d   1      -4.059  -0.761  -0.820  0.00  0.00     0.037 C 
ATOM     23  C   UNL d   1      -2.516  -1.250  -2.733  0.00  0.00     0.037 C 
ENDBRANCH  12  20
ENDBRANCH   7   9
ENDBRANCH   1   7
BRANCH   2  24
ATOM     24  O   UNL d   1       5.538   4.118  -0.661  0.00  0.00    -0.275 OA
BRANCH  24  25
ATOM     25  C   UNL d   1       6.483   3.521  -1.499  0.00  0.00     0.298 C 
ATOM     26  O   UNL d   1       6.362   2.463  -2.103  0.00  0.00    -0.259 OA
BRANCH  25  27
ATOM     27  C   UNL d   1       7.702   4.372  -1.663  0.00  0.00     0.041 A 
ATOM     28  C   UNL d   1       8.701   3.928  -2.555  0.00  0.00     0.034 A 
ATOM     29  C   UNL d   1       9.811   4.732  -2.876  0.00  0.00     0.049 A 
ATOM     30  C   UNL d   1       9.911   6.000  -2.289  0.00  0.00     0.032 A 
ATOM     31  C   UNL d   1       8.923   6.470  -1.407  0.00  0.00     0.049 A 
ATOM     32  C   UNL d   1       7.842   5.632  -1.065  0.00  0.00     0.034 A 
BRANCH  29  33
ATOM     33  C   UNL d   1      10.834   4.269  -3.893  0.00  0.00     0.417 C 
ATOM     34  F   UNL d   1      11.792   5.201  -4.154  0.00  0.00    -0.166 F 
ATOM     35  F   UNL d   1      11.498   3.150  -3.499  0.00  0.00    -0.166 F 
ATOM     36  F   UNL d   1      10.268   3.973  -5.095  0.00  0.00    -0.166 F 
ENDBRANCH  29  33
BRANCH  31  37
ATOM     37  C   UNL d   1       8.960   7.900  -0.914  0.00  0.00     0.417 C 
ATOM     38  F   UNL d   1       9.955   8.639  -1.481  0.00  0.00    -0.166 F 
ATOM     39  F   UNL d   1       7.804   8.560  -1.199  0.00  0.00    -0.166 F 
ATOM     40  F   UNL d   1       9.133   7.996   0.429  0.00  0.00    -0.166 F 
ENDBRANCH  31  37
ENDBRANCH  25  27
ENDBRANCH  24  25
ENDBRANCH   2  24
TORSDOF 11
