REMARK  4 active torsions:
REMARK  status: ('A' for Active; 'I' for Inactive)
REMARK    1  A    between atoms: N_2  and  C_1 
REMARK       I    between atoms: N_3  and  C_5 
REMARK       I    between atoms: C_4  and  N_3 
REMARK       I    between atoms: N_8  and  C_4 
REMARK    2  A    between atoms: C_5  and  C_9 
REMARK    3  A    between atoms: O_11  and  C_6 
REMARK    4  A    between atoms: C_10  and  O_11 
ROOT
ATOM      1  C   UNL d   1       1.199  -0.962   0.639  0.00  0.00     0.137 A 
ATOM      2  C   UNL d   1       0.295  -1.956   0.270  0.00  0.00     0.109 A 
ATOM      3  C   UNL d   1       0.829   0.386   0.821  0.00  0.00     0.056 A 
ATOM      4  C   UNL d   1      -0.485   0.782   0.580  0.00  0.00     0.035 A 
ATOM      5  C   UNL d   1      -0.989  -1.542  -0.073  0.00  0.00     0.041 A 
ATOM      6  C   UNL d   1      -1.373  -0.207   0.099  0.00  0.00     0.020 A 
ENDROOT
BRANCH   4   7
ATOM      7  C   UNL d   1      -1.088   2.143   0.742  0.00  0.00     0.259 C 
ATOM      8  N   UNL d   1      -0.482   3.294   1.239  0.00  0.00    -0.275 N 
ATOM      9  C   UNL d   1       0.799   3.730   1.512  0.00  0.00     0.325 C 
ATOM     10  H   UNL d   1      -1.163   4.029   1.194  0.00  0.00     0.173 HD
ATOM     11  N   UNL d   1       0.976   5.098   1.421  0.00  0.00    -0.334 N 
ATOM     12  O   UNL d   1       1.719   3.000   1.851  0.00  0.00    -0.247 OA
ATOM     13  C   UNL d   1       0.029   6.163   1.136  0.00  0.00     0.127 C 
ATOM     14  C   UNL d   1       2.308   5.662   1.565  0.00  0.00     0.127 C 
ATOM     15  C   UNL d   1       0.842   7.118   0.283  0.00  0.00     0.022 C 
ATOM     16  C   UNL d   1       2.259   7.007   0.843  0.00  0.00     0.022 C 
ATOM     17  O   UNL d   1      -2.259   2.301   0.376  0.00  0.00    -0.267 OA
ENDBRANCH   4   7
BRANCH   1  18
ATOM     18  N   UNL d   1       2.603  -1.301   0.745  0.00  0.00    -0.113 N 
ATOM     19  O   UNL d   1       3.206  -1.526  -0.309  0.00  0.00    -0.532 OA
ATOM     20  O   UNL d   1       3.097  -1.308   1.881  0.00  0.00    -0.532 OA
ENDBRANCH   1  18
BRANCH   2  21
ATOM     21  O   UNL d   1       0.710  -3.271   0.242  0.00  0.00    -0.308 OA
BRANCH  21  22
ATOM     22  C   UNL d   1      -0.234  -4.267   0.388  0.00  0.00     0.079 A 
ATOM     23  C   UNL d   1      -0.122  -5.366  -0.463  0.00  0.00     0.061 A 
ATOM     24  C   UNL d   1      -1.115  -6.346  -0.451  0.00  0.00     0.038 A 
ATOM     25 CL   UNL d   1      -1.006  -7.682  -1.530  0.00  0.00    -0.084 Cl
ATOM     26  C   UNL d   1      -2.210  -6.242   0.404  0.00  0.00     0.048 A 
ATOM     27  C   UNL d   1      -2.274  -5.177   1.298  0.00  0.00     0.038 A 
ATOM     28  C   UNL d   1      -1.270  -4.212   1.327  0.00  0.00     0.061 A 
ATOM     29 CL   UNL d   1      -3.634  -5.018   2.341  0.00  0.00    -0.084 Cl
ENDBRANCH  21  22
ENDBRANCH   2  21
TORSDOF 4
