REMARK  2 active torsions:
REMARK  status: ('A' for Active; 'I' for Inactive)
REMARK    1  A    between atoms: C_3  and  C_1 
REMARK    2  A    between atoms: O_9  and  C_3 
ROOT
ATOM      1  C   UNL d   1       0.247   1.058  -0.015  0.00  0.00     0.100 A 
ATOM      2  C   UNL d   1      -0.630  -0.013  -0.008  0.00  0.00     0.058 A 
ATOM      3  S   UNL d   1       1.880   0.494  -0.004  0.00  0.00    -0.094 SA
ATOM      4  C   UNL d   1       0.034  -1.276  -0.001  0.00  0.00     0.032 A 
ATOM      5  C   UNL d   1       1.402  -1.143   0.003  0.00  0.00     0.052 A 
ATOM      6 CL   UNL d   1      -2.344   0.059  -0.010  0.00  0.00    -0.083 Cl
ENDROOT
BRANCH   1   7
ATOM      7  C   UNL d   1       0.038   2.498  -0.029  0.00  0.00     0.185 C 
ATOM      8  O   UNL d   1       0.913   3.353  -0.033  0.00  0.00    -0.646 OA
BRANCH   7   9
ATOM      9  O   UNL d   1      -1.271   2.862  -0.039  0.00  0.00    -0.772 OA
ATOM     10  H   UNL d   1      -1.902   2.119  -0.035  0.00  0.00     0.167 HD
ENDBRANCH   7   9
ENDBRANCH   1   7
TORSDOF 2
