REMARK  9 active torsions:
REMARK  status: ('A' for Active; 'I' for Inactive)
REMARK    1  A    between atoms: C_4  and  C_1 
REMARK    2  A    between atoms: C_5  and  C_1 
REMARK    3  A    between atoms: N_6  and  N_2 
REMARK    4  A    between atoms: C_7  and  C_4 
REMARK    5  A    between atoms: O_15  and  C_5 
REMARK    6  A    between atoms: C_12  and  N_6 
REMARK    7  A    between atoms: S_9  and  C_7 
REMARK    8  A    between atoms: C_13  and  S_9 
REMARK    9  A    between atoms: C_26  and  O_15 
ROOT
ATOM      1  C   UNL d   1       1.060   0.013   0.009  0.00  0.00     0.170 C 
ATOM      2  N   UNL d   1       0.297  -0.573   0.897  0.00  0.00    -0.292 N 
ATOM      3  HN  UNL d   1      -0.718  -0.475   0.876  1.00  0.00     0.187 HD
ENDROOT
BRANCH   1   4
ATOM      4  C   UNL d   1       0.387   0.835  -1.056  0.00  0.00     0.193 C 
ATOM      5  O   UNL d   1       0.969   0.985  -2.128  0.00  0.00    -0.290 OA
BRANCH   4   6
ATOM      6  C   UNL d   1      -1.000   1.356  -0.811  0.00  0.00     0.165 C 
BRANCH   6   7
ATOM      7  S   UNL d   1      -1.143   2.450   0.635  0.00  0.00    -0.122 SA
BRANCH   7   8
ATOM      8  C   UNL d   1      -0.113   3.857   0.258  0.00  0.00     0.001 A 
ATOM      9  C   UNL d   1       0.208   4.306  -1.026  0.00  0.00     0.020 A 
ATOM     10  C   UNL d   1       1.018   5.438  -1.200  0.00  0.00     0.025 A 
ATOM     11  C   UNL d   1       1.499   6.132  -0.091  0.00  0.00     0.034 A 
ATOM     12  C   UNL d   1       1.166   5.714   1.192  0.00  0.00     0.025 A 
ATOM     13 CL   UNL d   1       2.504   7.510  -0.307  0.00  0.00    -0.084 Cl
ATOM     14  C   UNL d   1       0.360   4.585   1.362  0.00  0.00     0.020 A 
ENDBRANCH   7   8
ENDBRANCH   6   7
ENDBRANCH   4   6
ENDBRANCH   1   4
BRANCH   1  15
ATOM     15  C   UNL d   1       2.568  -0.106   0.053  0.00  0.00     0.315 C 
ATOM     16  O   UNL d   1       3.128  -1.160   0.329  0.00  0.00    -0.257 OA
BRANCH  15  17
ATOM     17  O   UNL d   1       3.121   1.119  -0.035  0.00  0.00    -0.317 OA
BRANCH  17  18
ATOM     18  C   UNL d   1       4.444   1.228   0.507  0.00  0.00     0.175 C 
ATOM     19  C   UNL d   1       4.307   1.805   1.904  0.00  0.00     0.034 C 
ENDBRANCH  17  18
ENDBRANCH  15  17
ENDBRANCH   1  15
BRANCH   2  20
ATOM     20  N   UNL d   1       0.924  -1.318   1.848  0.00  0.00    -0.300 N 
ATOM     21  H   UNL d   1       1.848  -1.736   1.693  0.00  0.00     0.187 HD
BRANCH  20  22
ATOM     22  C   UNL d   1       0.306  -1.581   3.080  0.00  0.00     0.049 A 
ATOM     23  C   UNL d   1      -0.989  -1.142   3.376  0.00  0.00     0.054 A 
ATOM     24  C   UNL d   1      -1.548  -1.382   4.630  0.00  0.00     0.036 A 
ATOM     25 CL   UNL d   1      -3.144  -0.835   4.971  0.00  0.00    -0.084 Cl
ATOM     26  C   UNL d   1      -0.825  -2.055   5.613  0.00  0.00     0.024 A 
ATOM     27  C   UNL d   1       0.467  -2.495   5.336  0.00  0.00     0.004 A 
ATOM     28  C   UNL d   1       1.026  -2.258   4.077  0.00  0.00     0.031 A 
ENDBRANCH  20  22
ENDBRANCH   2  20
TORSDOF 9
