REMARK  4 active torsions:
REMARK  status: ('A' for Active; 'I' for Inactive)
REMARK    1  A    between atoms: C_8  and  C_1 
REMARK    2  A    between atoms: N_6  and  C_2 
REMARK    3  A    between atoms: C_10  and  C_4 
REMARK       I    between atoms: C_7  and  N_6 
REMARK    4  A    between atoms: C_9  and  C_7 
ROOT
ATOM      1  C   UNL d   1      -0.015   1.129  -0.134  0.00  0.00     0.077 A 
ATOM      2  C   UNL d   1       1.299   0.699  -0.262  0.00  0.00     0.057 A 
ATOM      3  S   UNL d   1      -1.094  -0.214   0.013  0.00  0.00    -0.084 SA
ATOM      4  C   UNL d   1       0.153  -1.372  -0.110  0.00  0.00     0.018 A 
ATOM      5  C   UNL d   1       1.365  -0.736  -0.281  0.00  0.00     0.051 A 
ENDROOT
BRANCH   2   6
ATOM      6  N   UNL d   1       2.499   1.399  -0.346  0.00  0.00    -0.323 N 
ATOM      7  C   UNL d   1       2.774   2.686   0.076  0.00  0.00     0.255 C 
ATOM      8  O   UNL d   1       1.938   3.467   0.523  0.00  0.00    -0.270 OA
ATOM      9  H   UNL d   1       3.319   0.819  -0.519  0.00  0.00     0.169 HD
BRANCH   7  10
ATOM     10  C   UNL d   1       4.243   3.104  -0.077  0.00  0.00     0.270 C 
ATOM     11 CL   UNL d   1       5.335   1.698   0.073  0.00  0.00    -0.098 Cl
ATOM     12 CL   UNL d   1       4.453   3.863  -1.667  0.00  0.00    -0.098 Cl
ENDBRANCH   7  10
ENDBRANCH   2   6
BRANCH   1  13
ATOM     13  C   UNL d   1      -0.660   2.437  -0.141  0.00  0.00     0.164 C 
ATOM     14  O   UNL d   1      -1.580   2.736   0.627  0.00  0.00    -0.292 OA
ATOM     15  C   UNL d   1      -0.300   3.404  -1.245  0.00  0.00     0.097 C 
ENDBRANCH   1  13
BRANCH   4  16
ATOM     16  C   UNL d   1      -0.111  -2.821  -0.037  0.00  0.00    -0.019 A 
ATOM     17  C   UNL d   1       0.724  -3.720  -0.723  0.00  0.00     0.013 A 
ATOM     18  C   UNL d   1       0.528  -5.102  -0.635  0.00  0.00     0.001 A 
ATOM     19  C   UNL d   1      -0.511  -5.609   0.137  0.00  0.00     0.000 A 
ATOM     20  C   UNL d   1      -1.353  -4.736   0.821  0.00  0.00     0.001 A 
ATOM     21  C   UNL d   1      -1.153  -3.354   0.737  0.00  0.00     0.013 A 
ENDBRANCH   4  16
TORSDOF 4
