REMARK  6 active torsions:
REMARK  status: ('A' for Active; 'I' for Inactive)
REMARK    1  A    between atoms: C_6  and  C_1 
REMARK    2  A    between atoms: O_7  and  C_2 
REMARK    3  A    between atoms: O_12  and  C_6 
REMARK    4  A    between atoms: C_11  and  O_7 
REMARK    5  A    between atoms: C_8  and  C_11 
REMARK    6  A    between atoms: O_13  and  C_8 
ROOT
ATOM      1  C   UNL d   1       2.111  -1.052   0.001  0.00  0.00     0.115 A 
ATOM      2  C   UNL d   1       0.946  -1.798   0.008  0.00  0.00     0.104 A 
ATOM      3  S   UNL d   1       1.786   0.621   0.002  0.00  0.00    -0.081 SA
ATOM      4  C   UNL d   1      -0.250  -0.976   0.009  0.00  0.00     0.016 A 
ATOM      5  C   UNL d   1       0.085   0.384   0.018  0.00  0.00     0.019 A 
ATOM      6  C   UNL d   1      -1.638  -1.291  -0.025  0.00  0.00     0.015 A 
ATOM      7  C   UNL d   1      -0.894   1.399   0.021  0.00  0.00     0.020 A 
ATOM      8  C   UNL d   1      -2.613  -0.288  -0.013  0.00  0.00     0.001 A 
ATOM      9  C   UNL d   1      -2.243   1.046   0.009  0.00  0.00     0.001 A 
ENDROOT
BRANCH   2  10
ATOM     10  O   UNL d   1       1.039  -3.152  -0.088  0.00  0.00    -0.339 OA
BRANCH  10  11
ATOM     11  C   UNL d   1       0.085  -3.892   0.652  0.00  0.00     0.286 C 
BRANCH  11  12
ATOM     12  C   UNL d   1       0.686  -5.181   1.196  0.00  0.00     0.282 C 
ATOM     13  O   UNL d   1       1.854  -5.532   1.114  0.00  0.00    -0.263 OA
BRANCH  12  14
ATOM     14  O   UNL d   1      -0.303  -5.906   1.806  0.00  0.00    -0.325 OA
ATOM     15  C   UNL d   1       0.142  -7.143   2.365  0.00  0.00     0.213 C 
ENDBRANCH  12  14
ENDBRANCH  11  12
ENDBRANCH  10  11
ENDBRANCH   2  10
BRANCH   1  16
ATOM     16  C   UNL d   1       3.495  -1.483  -0.007  0.00  0.00     0.302 C 
ATOM     17  O   UNL d   1       4.445  -0.850  -0.457  0.00  0.00    -0.259 OA
BRANCH  16  18
ATOM     18  O   UNL d   1       3.617  -2.692   0.611  0.00  0.00    -0.322 OA
ATOM     19  C   UNL d   1       4.938  -3.226   0.626  0.00  0.00     0.213 C 
ENDBRANCH  16  18
ENDBRANCH   1  16
TORSDOF 6
