REMARK  2 active torsions:
REMARK  status: ('A' for Active; 'I' for Inactive)
REMARK    1  A    between atoms: C_3  and  C_1 
REMARK       I    between atoms: N_6  and  C_3 
REMARK    2  A    between atoms: C_9  and  N_6 
ROOT
ATOM      1  C   UNL d   1      -3.741  -0.056  -0.042  0.00  0.00     0.280 C 
ATOM      2  N   UNL d   1      -4.397  -1.274  -0.001  0.00  0.00    -0.321 N 
ATOM      3  O   UNL d   1      -4.301   1.038  -0.020  0.00  0.00    -0.265 OA
ATOM      4  H   UNL d   1      -3.806  -2.086   0.140  0.00  0.00     0.169 HD
ENDROOT
BRANCH   1   5
ATOM      5  C   UNL d   1      -2.299  -0.151  -0.133  0.00  0.00     0.144 A 
ATOM      6  O   UNL d   1      -1.671  -1.371  -0.171  0.00  0.00    -0.304 OA
ATOM      7  C   UNL d   1      -0.340  -1.124  -0.365  0.00  0.00     0.086 A 
ATOM      8  C   UNL d   1       0.659  -2.086  -0.497  0.00  0.00     0.038 A 
ATOM      9  C   UNL d   1      -0.105   0.245  -0.435  0.00  0.00     0.001 A 
ATOM     10  C   UNL d   1       1.958  -1.613  -0.730  0.00  0.00     0.003 A 
ATOM     11  C   UNL d   1       2.227  -0.244  -0.816  0.00  0.00     0.001 A 
ATOM     12  C   UNL d   1       1.204   0.700  -0.665  0.00  0.00     0.014 A 
ATOM     13  C   UNL d   1      -1.365   0.860  -0.258  0.00  0.00     0.057 A 
ENDBRANCH   1   5
BRANCH   2  14
ATOM     14  C   UNL d   1      -5.780  -1.490  -0.179  0.00  0.00     0.035 A 
ATOM     15  C   UNL d   1      -6.659  -0.497  -0.631  0.00  0.00     0.031 A 
ATOM     16  C   UNL d   1      -8.008  -0.782  -0.861  0.00  0.00     0.026 A 
ATOM     17  C   UNL d   1      -8.492  -2.065  -0.629  0.00  0.00     0.034 A 
ATOM     18  C   UNL d   1      -7.636  -3.062  -0.167  0.00  0.00     0.026 A 
ATOM     19 CL   UNL d   1     -10.147  -2.421  -0.930  0.00  0.00    -0.084 Cl
ATOM     20  C   UNL d   1      -6.282  -2.776   0.051  0.00  0.00     0.031 A 
ENDBRANCH   2  14
TORSDOF 2
