REMARK  5 active torsions:
REMARK  status: ('A' for Active; 'I' for Inactive)
REMARK    1  A    between atoms: N_6  and  C_1 
REMARK    2  A    between atoms: C_5  and  C_11 
REMARK       I    between atoms: N_8  and  C_5 
REMARK    3  A    between atoms: C_16  and  N_8 
REMARK    4  A    between atoms: C_18  and  N_8 
REMARK    5  A    between atoms: C_11  and  N_10 
ROOT
ATOM      1  N   UNL d   1       5.870  -0.049  -0.330  0.00  0.00    -0.358 N 
ATOM      2  N   UNL d   1       5.799  -2.994   0.055  0.00  0.00     0.100 N 
ATOM      3  C   UNL d   1       6.264  -0.937  -1.424  0.00  0.00     0.155 C 
ATOM      4  C   UNL d   1       6.156  -0.594   0.998  0.00  0.00     0.155 C 
ATOM      5  C   UNL d   1       5.556  -2.020   1.151  0.00  0.00     0.293 C 
ATOM      6  C   UNL d   1       5.622  -2.333  -1.258  0.00  0.00     0.293 C 
ENDROOT
BRANCH   2   7
ATOM      7  C   UNL d   1       7.078  -3.713   0.232  0.00  0.00     0.375 C 
BRANCH   7   8
ATOM      8  C   UNL d   1       7.446  -4.671  -0.908  0.00  0.00     0.253 C 
ATOM      9  N   UNL d   1       6.723  -5.828  -1.220  0.00  0.00    -0.312 N 
ATOM     10  O   UNL d   1       8.436  -4.326  -1.583  0.00  0.00    -0.271 OA
BRANCH   9  11
ATOM     11  C   UNL d   1       7.277  -6.635  -2.292  0.00  0.00     0.037 A 
ATOM     12  C   UNL d   1       8.578  -7.153  -2.199  0.00  0.00     0.030 A 
ATOM     13  C   UNL d   1       9.046  -8.063  -3.152  0.00  0.00     0.002 A 
ATOM     14  C   UNL d   1       8.231  -8.441  -4.216  0.00  0.00     0.000 A 
ATOM     15  C   UNL d   1       6.950  -7.902  -4.337  0.00  0.00     0.002 A 
ATOM     16  C   UNL d   1       6.473  -7.008  -3.375  0.00  0.00     0.030 A 
ENDBRANCH   9  11
BRANCH   9  17
ATOM     17  C   UNL d   1       5.654  -6.598  -0.470  0.00  0.00     0.093 C 
ATOM     18  C   UNL d   1       4.616  -5.885   0.400  0.00  0.00     0.026 C 
ATOM     19  C   UNL d   1       4.948  -5.693   1.884  0.00  0.00     0.002 C 
ATOM     20  C   UNL d   1       6.002  -6.609   2.511  0.00  0.00     0.000 C 
ATOM     21  C   UNL d   1       6.968  -7.283   1.549  0.00  0.00     0.002 C 
ATOM     22  C   UNL d   1       6.234  -7.784   0.323  0.00  0.00     0.026 C 
ENDBRANCH   9  17
ENDBRANCH   7   8
ENDBRANCH   2   7
BRANCH   1  23
ATOM     23  C   UNL d   1       4.993   0.975  -0.553  0.00  0.00     0.148 A 
ATOM     24  N   UNL d   1       4.345   1.153  -1.689  0.00  0.00    -0.335 N 
ATOM     25  C   UNL d   1       3.607   2.335  -1.678  0.00  0.00     0.053 A 
ATOM     26  HN  UNL d   1       4.381   0.507  -2.477  1.00  0.00     0.168 HD
ATOM     27  C   UNL d   1       2.813   2.829  -2.733  0.00  0.00     0.054 A 
ATOM     28  C   UNL d   1       3.699   3.078  -0.504  0.00  0.00     0.035 A 
ATOM     29  C   UNL d   1       2.164   4.057  -2.588  0.00  0.00     0.036 A 
ATOM     30 CL   UNL d   1       1.201   4.669  -3.879  0.00  0.00    -0.084 Cl
ATOM     31  C   UNL d   1       2.283   4.799  -1.415  0.00  0.00     0.025 A 
ATOM     32  C   UNL d   1       3.048   4.317  -0.349  0.00  0.00     0.023 A 
ATOM     33  S   UNL d   1       4.691   2.230   0.611  0.00  0.00    -0.052 SA
ENDBRANCH   1  23
TORSDOF 5
