REMARK  6 active torsions:
REMARK  status: ('A' for Active; 'I' for Inactive)
REMARK    1  A    between atoms: C_8  and  N_1 
REMARK    2  A    between atoms: C_9  and  C_4 
REMARK    3  A    between atoms: C_15  and  C_5 
REMARK    4  A    between atoms: O_20  and  C_9 
REMARK    5  A    between atoms: O_11  and  C_10 
REMARK    6  A    between atoms: C_12  and  O_11 
ROOT
ATOM      1  N   UNL d   1      -0.357  -1.264  -0.238  0.00  0.00    -0.236 N 
ATOM      2  N   UNL d   1       0.728  -0.658   0.309  0.00  0.00    -0.234 N 
ATOM      3  HN  UNL d   1       1.482  -1.134   0.804  1.00  0.00     0.209 HD
ATOM      4  C   UNL d   1      -0.537   0.908  -0.519  0.00  0.00     0.152 A 
ATOM      5  C   UNL d   1      -1.213  -0.282  -0.785  0.00  0.00     0.103 A 
ATOM      6  N   UNL d   1       0.654   0.640   0.100  0.00  0.00    -0.278 N 
ATOM      7  HN  UNL d   1       1.362   1.328   0.356  1.00  0.00     0.189 HD
ENDROOT
BRANCH   1   8
ATOM      8  C   UNL d   1      -0.469  -2.686  -0.217  0.00  0.00     0.092 C 
ATOM      9  C   UNL d   1       0.035  -3.458   0.845  0.00  0.00     0.104 C 
ATOM     10  C   UNL d   1      -0.345  -4.808   0.957  0.00  0.00     0.040 C 
ATOM     11  C   UNL d   1      -1.077  -5.430  -0.052  0.00  0.00     0.003 C 
ATOM     12  C   UNL d   1      -1.441  -4.707  -1.179  0.00  0.00     0.002 C 
ATOM     13  C   UNL d   1      -1.143  -3.349  -1.263  0.00  0.00     0.034 C 
BRANCH   9  14
ATOM     14  O   UNL d   1       0.832  -2.900   1.826  0.00  0.00    -0.307 OA
BRANCH  14  15
ATOM     15  C   UNL d   1       1.929  -3.628   2.262  0.00  0.00     0.098 A 
ATOM     16  C   UNL d   1       2.289  -3.553   3.614  0.00  0.00     0.069 A 
ATOM     17  C   UNL d   1       3.354  -4.314   4.106  0.00  0.00     0.050 A 
ATOM     18 CL   UNL d   1       1.424  -2.548   4.720  0.00  0.00    -0.081 Cl
ATOM     19  C   UNL d   1       4.063  -5.148   3.244  0.00  0.00     0.035 A 
ATOM     20  C   UNL d   1       3.744  -5.201   1.889  0.00  0.00     0.026 A 
ATOM     21 CL   UNL d   1       5.343  -6.123   3.853  0.00  0.00    -0.084 Cl
ATOM     22  C   UNL d   1       2.693  -4.425   1.394  0.00  0.00     0.041 A 
ENDBRANCH  14  15
ENDBRANCH   9  14
ENDBRANCH   1   8
BRANCH   5  23
ATOM     23  C   UNL d   1      -2.518  -0.496  -1.443  0.00  0.00    -0.005 A 
ATOM     24  C   UNL d   1      -2.838   0.206  -2.617  0.00  0.00     0.014 A 
ATOM     25  C   UNL d   1      -4.040  -0.020  -3.294  0.00  0.00     0.001 A 
ATOM     26  C   UNL d   1      -4.930  -0.982  -2.830  0.00  0.00     0.000 A 
ATOM     27  C   UNL d   1      -4.644  -1.674  -1.657  0.00  0.00     0.001 A 
ATOM     28  C   UNL d   1      -3.467  -1.403  -0.948  0.00  0.00     0.014 A 
ENDBRANCH   5  23
BRANCH   4  29
ATOM     29  C   UNL d   1      -0.913   2.288  -0.797  0.00  0.00     0.197 C 
ATOM     30  O   UNL d   1      -2.035   2.671  -1.093  0.00  0.00    -0.645 OA
BRANCH  29  31
ATOM     31  O   UNL d   1       0.139   3.151  -0.720  0.00  0.00    -0.772 OA
ATOM     32  H   UNL d   1       0.952   2.665  -0.463  0.00  0.00     0.167 HD
ENDBRANCH  29  31
ENDBRANCH   4  29
TORSDOF 6
