REMARK  4 active torsions:
REMARK  status: ('A' for Active; 'I' for Inactive)
REMARK    1  A    between atoms: S_11  and  C_1 
REMARK    2  A    between atoms: C_8  and  C_2 
REMARK    3  A    between atoms: N_15  and  C_7 
REMARK    4  A    between atoms: C_16  and  S_11 
ROOT
ATOM      1  C   UNL d   1      -1.258   1.248  -0.166  0.00  0.00     0.097 C 
ATOM      2  C   UNL d   1      -0.323  -0.996  -0.220  0.00  0.00     0.023 C 
ATOM      3  C   UNL d   1      -1.440  -0.131  -0.053  0.00  0.00     0.091 C 
ATOM      4  C   UNL d   1       0.949  -0.383  -0.358  0.00  0.00     0.095 C 
ATOM      5  N   UNL d   1      -0.032   1.811  -0.257  0.00  0.00    -0.339 N 
ATOM      6  HN  UNL d   1       0.073   2.825  -0.290  1.00  0.00     0.167 HD
ATOM      7  C   UNL d   1       1.043   1.012  -0.304  0.00  0.00     0.100 C 
ATOM      8  C   UNL d   1      -2.731  -0.640   0.295  0.00  0.00     0.103 C 
ATOM      9  C   UNL d   1       2.148  -1.145  -0.524  0.00  0.00     0.103 C 
ATOM     10  N   UNL d   1      -3.767  -1.056   0.607  0.00  0.00    -0.191 NA
ATOM     11  N   UNL d   1       3.127  -1.767  -0.607  0.00  0.00    -0.191 NA
ENDROOT
BRANCH   2  12
ATOM     12  C   UNL d   1      -0.485  -2.486  -0.231  0.00  0.00    -0.001 A 
ATOM     13  C   UNL d   1      -1.347  -3.168  -1.123  0.00  0.00     0.045 A 
ATOM     14 CL   UNL d   1      -2.178  -2.354  -2.410  0.00  0.00    -0.083 Cl
ATOM     15  C   UNL d   1      -1.531  -4.554  -1.043  0.00  0.00     0.024 A 
ATOM     16  C   UNL d   1      -0.799  -5.309  -0.132  0.00  0.00     0.002 A 
ATOM     17  C   UNL d   1       0.107  -4.676   0.710  0.00  0.00     0.001 A 
ATOM     18  C   UNL d   1       0.241  -3.283   0.680  0.00  0.00     0.014 A 
ENDBRANCH   2  12
BRANCH   1  19
ATOM     19  S   UNL d   1      -2.611   2.417  -0.157  0.00  0.00    -0.071 SA
BRANCH  19  20
ATOM     20  C   UNL d   1      -2.808   2.773  -1.900  0.00  0.00     0.007 A 
ATOM     21  C   UNL d   1      -4.060   2.585  -2.500  0.00  0.00     0.020 A 
ATOM     22  C   UNL d   1      -4.272   2.939  -3.838  0.00  0.00     0.025 A 
ATOM     23  C   UNL d   1      -3.229   3.487  -4.582  0.00  0.00     0.034 A 
ATOM     24  C   UNL d   1      -1.976   3.672  -4.003  0.00  0.00     0.025 A 
ATOM     25 CL   UNL d   1      -3.496   3.954  -6.216  0.00  0.00    -0.084 Cl
ATOM     26  C   UNL d   1      -1.768   3.320  -2.664  0.00  0.00     0.020 A 
ENDBRANCH  19  20
ENDBRANCH   1  19
BRANCH   7  27
ATOM     27  N   UNL d   1       2.255   1.694  -0.335  0.00  0.00    -0.287 NA
ATOM     28  H   UNL d   1       2.918   1.380   0.368  0.00  0.00     0.125 HD
ATOM     29  H   UNL d   1       2.060   2.689  -0.234  0.00  0.00     0.125 HD
ENDBRANCH   7  27
TORSDOF 4
