REMARK  4 active torsions:
REMARK  status: ('A' for Active; 'I' for Inactive)
REMARK    1  A    between atoms: C_4  and  C_1 
REMARK    2  A    between atoms: N_3  and  C_2 
REMARK    3  A    between atoms: C_5  and  N_3 
REMARK    4  A    between atoms: O_15  and  C_4 
ROOT
ATOM      1  N   UNL d   1       2.243  -1.366  -0.185  0.00  0.00    -0.259 NA
ATOM      2  H   UNL d   1       2.926  -0.962  -0.838  0.00  0.00     0.133 HD
ENDROOT
BRANCH   1   3
ATOM      3  C   UNL d   1       1.113  -0.575  -0.062  0.00  0.00     0.012 A 
ATOM      4  C   UNL d   1       1.002   0.745  -0.309  0.00  0.00     0.044 A 
ATOM      5  C   UNL d   1      -0.327   1.378  -0.076  0.00  0.00     0.120 A 
ATOM      6  S   UNL d   1      -1.470   0.022   0.310  0.00  0.00    -0.159 SA
ATOM      7  C   UNL d   1      -0.185  -1.259   0.316  0.00  0.00     0.126 A 
BRANCH   4   8
ATOM      8  C   UNL d   1       2.071   1.663  -0.760  0.00  0.00     0.291 C 
ATOM      9  O   UNL d   1       1.956   2.879  -0.715  0.00  0.00    -0.260 OA
BRANCH   8  10
ATOM     10  O   UNL d   1       3.127   0.983  -1.272  0.00  0.00    -0.323 OA
ATOM     11  C   UNL d   1       4.167   1.806  -1.805  0.00  0.00     0.213 C 
ENDBRANCH   8  10
ENDBRANCH   4   8
ENDBRANCH   1   3
BRANCH   1  12
ATOM     12  C   UNL d   1       2.982  -1.866   0.927  0.00  0.00     0.051 A 
ATOM     13  C   UNL d   1       4.115  -2.665   0.684  0.00  0.00     0.140 A 
ATOM     14  C   UNL d   1       4.874  -3.200   1.719  0.00  0.00     0.086 A 
ATOM     15  F   UNL d   1       4.492  -2.909  -0.581  0.00  0.00    -0.204 F 
ATOM     16  C   UNL d   1       4.498  -2.936   3.027  0.00  0.00     0.119 A 
ATOM     17  C   UNL d   1       3.382  -2.156   3.308  0.00  0.00     0.044 A 
ATOM     18  F   UNL d   1       5.224  -3.434   4.036  0.00  0.00    -0.206 F 
ATOM     19  C   UNL d   1       2.620  -1.631   2.261  0.00  0.00     0.030 A 
ENDBRANCH   1  12
TORSDOF 4
