REMARK  5 active torsions:
REMARK  status: ('A' for Active; 'I' for Inactive)
REMARK    1  A    between atoms: C_7  and  C_1 
REMARK    2  A    between atoms: C_9  and  C_6 
REMARK    3  A    between atoms: C_8  and  C_13 
REMARK    4  A    between atoms: C_12  and  C_8 
REMARK    5  A    between atoms: C_14  and  C_12 
ROOT
ATOM      1  C   UNL d   1       5.760   5.176  -0.220  0.00  0.00     0.098 C 
ATOM      2  C   UNL d   1       6.090   6.561  -0.153  0.00  0.00     0.103 C 
ATOM      3  N   UNL d   1       6.384   7.684  -0.070  0.00  0.00    -0.191 NA
ENDROOT
BRANCH   1   4
ATOM      4  C   UNL d   1       5.289   4.481   0.842  0.00  0.00     0.045 C 
ATOM      5  C   UNL d   1       5.056   5.081   2.125  0.00  0.00     0.007 C 
ATOM      6  S   UNL d   1       3.716   4.577   3.101  0.00  0.00    -0.088 SA
ATOM      7  C   UNL d   1       5.761   6.072   2.790  0.00  0.00     0.020 C 
ATOM      8  C   UNL d   1       3.959   5.834   4.234  0.00  0.00     0.033 C 
ATOM      9  C   UNL d   1       5.094   6.555   3.947  0.00  0.00     0.023 C 
BRANCH   8  10
ATOM     10  C   UNL d   1       3.072   6.160   5.401  0.00  0.00     0.067 A 
ATOM     11  C   UNL d   1       2.006   5.398   5.915  0.00  0.00     0.068 A 
ATOM     12  C   UNL d   1       1.494   6.131   6.976  0.00  0.00     0.136 A 
ATOM     13  N   UNL d   1       2.223   7.289   7.000  0.00  0.00    -0.292 N 
ATOM     14  N   UNL d   1       3.228   7.291   6.100  0.00  0.00    -0.297 N 
ATOM     15  C   UNL d   1       2.048   8.501   7.769  0.00  0.00     0.178 C 
ATOM     16  HN  UNL d   1       3.950   8.001   5.978  1.00  0.00     0.187 HD
BRANCH  12  17
ATOM     17  C   UNL d   1       0.386   5.785   7.888  0.00  0.00     0.434 C 
ATOM     18  F   UNL d   1       0.165   6.687   8.873  0.00  0.00    -0.165 F 
ATOM     19  F   UNL d   1      -0.783   5.655   7.212  0.00  0.00    -0.165 F 
ATOM     20  F   UNL d   1       0.614   4.597   8.504  0.00  0.00    -0.165 F 
ENDBRANCH  12  17
ENDBRANCH   8  10
ENDBRANCH   1   4
BRANCH   1  21
ATOM     21  C   UNL d   1       5.984   4.465  -1.530  0.00  0.00     0.226 C 
ATOM     22  O   UNL d   1       6.150   3.245  -1.540  0.00  0.00    -0.284 OA
BRANCH  21  23
ATOM     23  C   UNL d   1       6.045   5.271  -2.741  0.00  0.00     0.126 A 
ATOM     24  O   UNL d   1       5.344   6.446  -2.787  0.00  0.00    -0.319 OA
ATOM     25  C   UNL d   1       5.608   7.040  -3.976  0.00  0.00     0.142 A 
ATOM     26  C   UNL d   1       6.441   6.248  -4.729  0.00  0.00     0.027 A 
ATOM     27  C   UNL d   1       6.698   5.091  -3.947  0.00  0.00     0.043 A 
ENDBRANCH  21  23
ENDBRANCH   1  21
TORSDOF 5
