REMARK  1 active torsions:
REMARK  status: ('A' for Active; 'I' for Inactive)
REMARK    1  A    between atoms: C_7  and  C_4 
ROOT
ATOM      1  C   UNL d   1      -1.116  -0.868  -0.004  0.00  0.00     0.045 A 
ATOM      2  C   UNL d   1       0.384  -0.983  -0.068  0.00  0.00     0.257 A 
ATOM      3  N   UNL d   1       0.837   0.320  -0.207  0.00  0.00    -0.322 N 
ATOM      4  C   UNL d   1      -1.879  -1.973   0.044  0.00  0.00     0.030 C 
ATOM      5  C   UNL d   1      -1.445   0.559  -0.065  0.00  0.00     0.006 A 
ATOM      6  C   UNL d   1      -0.223   1.226  -0.214  0.00  0.00     0.046 A 
ATOM      7  O   UNL d   1       1.054  -1.996  -0.011  0.00  0.00    -0.267 OA
ATOM      8  C   UNL d   1      -2.623   1.283   0.001  0.00  0.00     0.015 A 
ATOM      9  C   UNL d   1      -0.130   2.597  -0.338  0.00  0.00     0.030 A 
ATOM     10  C   UNL d   1      -2.554   2.676  -0.121  0.00  0.00     0.001 A 
ATOM     11  C   UNL d   1      -1.320   3.327  -0.299  0.00  0.00     0.002 A 
ATOM     12  H   UNL d   1       1.813   0.553  -0.283  0.00  0.00     0.169 HD
ENDROOT
BRANCH   4  13
ATOM     13  C   UNL d   1      -3.347  -1.973   0.044  0.00  0.00    -0.024 A 
ATOM     14  C   UNL d   1      -4.104  -1.939   1.244  0.00  0.00    -0.016 A 
ATOM     15  C   UNL d   1      -5.517  -1.860   1.152  0.00  0.00    -0.025 A 
ATOM     16  C   UNL d   1      -3.525  -1.982   2.533  0.00  0.00     0.013 A 
ATOM     17  C   UNL d   1      -6.290  -1.825   2.323  0.00  0.00     0.012 A 
ATOM     18  C   UNL d   1      -6.133  -1.817  -0.108  0.00  0.00     0.012 A 
ATOM     19  C   UNL d   1      -5.691  -1.877   3.583  0.00  0.00     0.001 A 
ATOM     20  C   UNL d   1      -4.309  -1.956   3.687  0.00  0.00     0.001 A 
ATOM     21  C   UNL d   1      -5.379  -1.881  -1.277  0.00  0.00     0.002 A 
ATOM     22  C   UNL d   1      -3.992  -1.964  -1.203  0.00  0.00     0.012 A 
ENDBRANCH   4  13
TORSDOF 1
