REMARK  5 active torsions:
REMARK  status: ('A' for Active; 'I' for Inactive)
REMARK    1  A    between atoms: C_2  and  S_1 
REMARK    2  A    between atoms: N_5  and  S_1 
REMARK    3  A    between atoms: C_8  and  C_4 
REMARK    4  A    between atoms: O_18  and  C_8 
REMARK    5  A    between atoms: O_19  and  C_17 
ROOT
ATOM      1  S   UNL d   1       0.891  -0.154  -0.086  0.00  0.00     0.276 S 
ATOM      2  O   UNL d   1       0.251   0.659   0.920  0.00  0.00    -0.199 OA
ATOM      3  O   UNL d   1       2.330  -0.197  -0.233  0.00  0.00    -0.199 OA
ENDROOT
BRANCH   1   4
ATOM      4  C   UNL d   1       0.331   0.457  -1.678  0.00  0.00     0.151 C 
ATOM      5  N   UNL d   1      -0.411   1.613  -1.900  0.00  0.00    -0.336 N 
ATOM      6  C   UNL d   1      -0.751   1.716  -3.249  0.00  0.00     0.111 C 
ATOM      7  C   UNL d   1      -0.747   2.620  -0.910  0.00  0.00     0.157 C 
ATOM      8  C   UNL d   1      -0.064   0.705  -3.901  0.00  0.00     0.039 C 
ATOM      9  C   UNL d   1       0.614  -0.058  -2.936  0.00  0.00     0.046 C 
BRANCH   6  10
ATOM     10  C   UNL d   1      -1.632   2.712  -3.839  0.00  0.00     0.309 C 
ATOM     11  O   UNL d   1      -2.261   3.568  -3.231  0.00  0.00    -0.258 OA
BRANCH  10  12
ATOM     12  O   UNL d   1      -1.673   2.541  -5.192  0.00  0.00    -0.321 OA
ATOM     13  C   UNL d   1      -2.515   3.461  -5.887  0.00  0.00     0.213 C 
ENDBRANCH  10  12
ENDBRANCH   6  10
ENDBRANCH   1   4
BRANCH   1  14
ATOM     14  N   UNL d   1       0.331  -1.742   0.096  0.00  0.00    -0.305 N 
ATOM     15  C   UNL d   1      -1.073  -1.934   0.506  0.00  0.00     0.138 C 
ATOM     16  C   UNL d   1      -1.159  -3.251   1.274  0.00  0.00     0.052 C 
ATOM     17  C   UNL d   1      -0.637  -4.428   0.451  0.00  0.00     0.121 C 
ATOM     18  C   UNL d   1       0.726  -4.146  -0.184  0.00  0.00     0.052 C 
ATOM     19  C   UNL d   1       0.802  -2.773  -0.850  0.00  0.00     0.138 C 
BRANCH  17  20
ATOM     20  O   UNL d   1      -1.587  -4.800  -0.547  0.00  0.00    -0.395 OA
ATOM     21  H   UNL d   1      -1.744  -4.052  -1.144  0.00  0.00     0.210 HD
ENDBRANCH  17  20
ENDBRANCH   1  14
TORSDOF 5
