REMARK  5 active torsions:
REMARK  status: ('A' for Active; 'I' for Inactive)
REMARK    1  A    between atoms: N_2  and  C_1 
REMARK    2  A    between atoms: N_3  and  C_4 
REMARK    3  A    between atoms: C_5  and  C_9 
REMARK    4  A    between atoms: O_10  and  C_6 
REMARK    5  A    between atoms: C_7  and  O_10 
ROOT
ATOM      1  C   UNL d   1       0.350  -4.768  -0.315  0.00  0.00     0.138 A 
ATOM      2  C   UNL d   1       0.395  -3.463  -0.833  0.00  0.00     0.109 A 
ATOM      3  N   UNL d   1      -2.355  -7.321  -3.447  0.00  0.00    -0.191 NA
ATOM      4  C   UNL d   1      -1.753  -6.500  -2.889  0.00  0.00     0.099 C 
ATOM      5  C   UNL d   1      -0.360  -5.775  -1.000  0.00  0.00     0.061 A 
ATOM      6  C   UNL d   1      -0.228  -3.198  -2.064  0.00  0.00     0.041 A 
ATOM      7  C   UNL d   1      -1.017  -5.482  -2.200  0.00  0.00     0.047 A 
ATOM      8  C   UNL d   1      -0.949  -4.192  -2.730  0.00  0.00     0.025 A 
ENDROOT
BRANCH   1   9
ATOM      9  N   UNL d   1       1.012  -5.133   0.949  0.00  0.00    -0.113 N 
ATOM     10  O   UNL d   1       1.532  -4.242   1.631  0.00  0.00    -0.532 OA
ATOM     11  O   UNL d   1       0.988  -6.329   1.274  0.00  0.00    -0.532 OA
ENDBRANCH   1   9
BRANCH   2  12
ATOM     12  O   UNL d   1       1.093  -2.465  -0.188  0.00  0.00    -0.306 OA
BRANCH  12  13
ATOM     13  C   UNL d   1       0.524  -1.214  -0.088  0.00  0.00     0.109 A 
ATOM     14  C   UNL d   1       1.341  -0.081  -0.143  0.00  0.00     0.137 A 
ATOM     15  C   UNL d   1       0.817   1.217  -0.021  0.00  0.00     0.055 A 
ATOM     16  C   UNL d   1      -0.561   1.393   0.166  0.00  0.00     0.050 A 
ATOM     17  C   UNL d   1      -1.383   0.256   0.241  0.00  0.00     0.019 A 
ATOM     18  C   UNL d   1      -0.845  -1.032   0.140  0.00  0.00     0.040 A 
BRANCH  14  19
ATOM     19  N   UNL d   1       2.770  -0.219  -0.360  0.00  0.00    -0.113 N 
ATOM     20  O   UNL d   1       3.135  -0.856  -1.358  0.00  0.00    -0.532 OA
ATOM     21  O   UNL d   1       3.516   0.367   0.435  0.00  0.00    -0.532 OA
ENDBRANCH  14  19
BRANCH  16  22
ATOM     22  C   UNL d   1      -1.174   2.769   0.292  0.00  0.00     0.417 C 
ATOM     23  F   UNL d   1      -0.256   3.772   0.299  0.00  0.00    -0.166 F 
ATOM     24  F   UNL d   1      -2.027   3.045  -0.732  0.00  0.00    -0.166 F 
ATOM     25  F   UNL d   1      -1.898   2.909   1.435  0.00  0.00    -0.166 F 
ENDBRANCH  16  22
ENDBRANCH  12  13
ENDBRANCH   2  12
TORSDOF 5
