REMARK  3 active torsions:
REMARK  status: ('A' for Active; 'I' for Inactive)
REMARK    1  A    between atoms: N_4  and  C_1 
REMARK       I    between atoms: C_3  and  N_4 
REMARK       I    between atoms: N_6  and  C_3 
REMARK    2  A    between atoms: C_10  and  C_5 
REMARK    3  A    between atoms: C_9  and  N_6 
ROOT
ATOM      1  C   UNL d   1       0.871   3.374  -0.302  0.00  0.00     0.325 C 
ATOM      2  N   UNL d   1      -0.080   2.404  -0.110  0.00  0.00    -0.303 N 
ATOM      3  N   UNL d   1       1.982   3.316   0.489  0.00  0.00    -0.307 N 
ATOM      4  O   UNL d   1       0.611   4.289  -1.084  0.00  0.00    -0.247 OA
ATOM      5  H   UNL d   1      -0.980   2.660  -0.496  0.00  0.00     0.171 HD
ATOM      6  H   UNL d   1       1.889   2.720   1.304  0.00  0.00     0.170 HD
ENDROOT
BRANCH   2   7
ATOM      7  C   UNL d   1       0.015   1.177   0.515  0.00  0.00     0.078 A 
ATOM      8  S   UNL d   1       1.516   0.446   0.785  0.00  0.00    -0.070 SA
ATOM      9  C   UNL d   1       0.830  -0.893   1.600  0.00  0.00     0.033 A 
ATOM     10  C   UNL d   1      -0.553  -0.822   1.549  0.00  0.00     0.024 A 
ATOM     11  C   UNL d   1      -1.024   0.365   0.903  0.00  0.00     0.039 A 
BRANCH   9  12
ATOM     12  C   UNL d   1       1.691  -1.924   2.197  0.00  0.00     0.049 A 
ATOM     13  N   UNL d   1       1.080  -3.115   2.405  0.00  0.00    -0.365 N 
ATOM     14  C   UNL d   1       1.828  -4.106   2.938  0.00  0.00     0.088 A 
ATOM     15  HN  UNL d   1       0.098  -3.257   2.170  1.00  0.00     0.165 HD
ATOM     16  C   UNL d   1       3.162  -3.971   3.286  0.00  0.00     0.017 A 
ATOM     17  C   UNL d   1       3.770  -2.741   3.082  0.00  0.00     0.004 A 
ATOM     18  C   UNL d   1       3.027  -1.701   2.534  0.00  0.00     0.031 A 
ENDBRANCH   9  12
ENDBRANCH   2   7
BRANCH   3  19
ATOM     19  C   UNL d   1       3.033   4.255   0.541  0.00  0.00     0.058 A 
ATOM     20  C   UNL d   1       3.733   4.426   1.748  0.00  0.00     0.060 A 
ATOM     21 CL   UNL d   1       3.363   3.466   3.140  0.00  0.00    -0.082 Cl
ATOM     22  C   UNL d   1       4.716   5.412   1.866  0.00  0.00     0.026 A 
ATOM     23  C   UNL d   1       5.042   6.200   0.764  0.00  0.00     0.002 A 
ATOM     24  C   UNL d   1       4.399   5.991  -0.456  0.00  0.00     0.002 A 
ATOM     25  C   UNL d   1       3.395   5.025  -0.567  0.00  0.00     0.031 A 
ENDBRANCH   3  19
TORSDOF 3
