REMARK  7 active torsions:
REMARK  status: ('A' for Active; 'I' for Inactive)
REMARK    1  A    between atoms: C_2  and  C_1 
REMARK    2  A    between atoms: O_19  and  C_2 
REMARK    3  A    between atoms: N_11  and  C_3 
REMARK    4  A    between atoms: O_12  and  C_8 
REMARK    5  A    between atoms: C_16  and  N_11 
REMARK    6  A    between atoms: C_14  and  O_12 
REMARK    7  A    between atoms: C_25  and  O_19 
ROOT
ATOM      1  C   UNL d   1       1.002  -0.282  -0.176  0.00  0.00     0.135 C 
ATOM      2  C   UNL d   1       0.288   0.617  -0.876  0.00  0.00     0.117 C 
ATOM      3  C   UNL d   1       0.418  -1.079   0.842  0.00  0.00     0.107 C 
ATOM      4  N   UNL d   1      -0.115  -1.708   1.656  0.00  0.00    -0.191 NA
ENDROOT
BRANCH   1   5
ATOM      5  C   UNL d   1       2.420  -0.465  -0.561  0.00  0.00     0.305 C 
ATOM      6  O   UNL d   1       2.978   0.159  -1.452  0.00  0.00    -0.258 OA
BRANCH   5   7
ATOM      7  O   UNL d   1       2.967  -1.481   0.151  0.00  0.00    -0.317 OA
BRANCH   7   8
ATOM      8  C   UNL d   1       4.176  -2.031  -0.389  0.00  0.00     0.174 C 
ATOM      9  C   UNL d   1       3.793  -3.110  -1.385  0.00  0.00     0.034 C 
ENDBRANCH   7   8
ENDBRANCH   5   7
ENDBRANCH   1   5
BRANCH   2  10
ATOM     10  N   UNL d   1      -1.036   0.959  -0.734  0.00  0.00    -0.363 N 
ATOM     11  H   UNL d   1      -1.550   0.524   0.032  0.00  0.00     0.165 HD
BRANCH  10  12
ATOM     12  C   UNL d   1      -1.753   1.920  -1.461  0.00  0.00     0.047 A 
ATOM     13  C   UNL d   1      -2.830   2.575  -0.862  0.00  0.00     0.119 A 
ATOM     14  N   UNL d   1      -3.558   3.555  -1.437  0.00  0.00    -0.344 N 
ATOM     15  C   UNL d   1      -3.215   3.902  -2.695  0.00  0.00     0.148 A 
ATOM     16  HN  UNL d   1      -4.328   4.010  -0.946  1.00  0.00     0.167 HD
ATOM     17  C   UNL d   1      -2.143   3.352  -3.376  0.00  0.00     0.059 A 
ATOM     18  C   UNL d   1      -1.403   2.351  -2.744  0.00  0.00     0.035 A 
BRANCH  15  19
ATOM     19  O   UNL d   1      -3.962   4.865  -3.359  0.00  0.00    -0.292 OA
BRANCH  19  20
ATOM     20  C   UNL d   1      -5.292   4.959  -3.030  0.00  0.00     0.094 A 
ATOM     21  C   UNL d   1      -6.116   3.857  -2.789  0.00  0.00     0.064 A 
ATOM     22  C   UNL d   1      -7.452   4.065  -2.474  0.00  0.00     0.052 A 
ATOM     23 CL   UNL d   1      -8.478   2.736  -2.118  0.00  0.00    -0.083 Cl
ATOM     24  C   UNL d   1      -7.932   5.366  -2.453  0.00  0.00     0.111 A 
ATOM     25  N   UNL d   1      -7.173   6.457  -2.722  0.00  0.00    -0.371 N 
ATOM     26  C   UNL d   1      -5.867   6.224  -3.002  0.00  0.00     0.124 A 
ATOM     27  HN  UNL d   1      -7.562   7.400  -2.713  1.00  0.00     0.164 HD
ENDBRANCH  19  20
ENDBRANCH  15  19
ENDBRANCH  10  12
ENDBRANCH   2  10
TORSDOF 7
