REMARK  7 active torsions:
REMARK  status: ('A' for Active; 'I' for Inactive)
REMARK    1  A    between atoms: C_2  and  C_1 
REMARK    2  A    between atoms: C_14  and  N_3 
REMARK    3  A    between atoms: C_22  and  N_6 
REMARK    4  A    between atoms: S_15  and  C_7 
REMARK    5  A    between atoms: C_17  and  S_15 
REMARK    6  A    between atoms: C_16  and  C_17 
REMARK    7  A    between atoms: C_19  and  C_16 
ROOT
ATOM      1  C   UNL d   1      -0.110  -1.245   0.268  0.00  0.00     0.158 A 
ATOM      2  N   UNL d   1       1.210  -0.764   0.229  0.00  0.00    -0.274 N 
ATOM      3  N   UNL d   1      -0.941  -0.223   0.360  0.00  0.00    -0.281 N 
ATOM      4  HN  UNL d   1      -1.954  -0.285   0.465  1.00  0.00     0.188 HD
ATOM      5  C   UNL d   1       1.058   0.617   0.174  0.00  0.00     0.168 A 
ATOM      6  N   UNL d   1      -0.212   0.941   0.288  0.00  0.00    -0.278 N 
ATOM      7  HN  UNL d   1      -0.589   1.888   0.319  1.00  0.00     0.189 HD
ENDROOT
BRANCH   5   8
ATOM      8  S   UNL d   1       2.361   1.751   0.014  0.00  0.00    -0.084 SA
BRANCH   8   9
ATOM      9  C   UNL d   1       1.767   3.246   0.819  0.00  0.00     0.166 C 
BRANCH   9  10
ATOM     10  C   UNL d   1       1.686   3.138   2.331  0.00  0.00     0.169 C 
ATOM     11  O   UNL d   1       1.859   2.093   2.953  0.00  0.00    -0.291 OA
BRANCH  10  12
ATOM     12  C   UNL d   1       1.391   4.397   3.088  0.00  0.00     0.010 A 
ATOM     13  C   UNL d   1       1.272   5.645   2.463  0.00  0.00     0.015 A 
ATOM     14  C   UNL d   1       0.997   6.792   3.212  0.00  0.00     0.001 A 
ATOM     15  C   UNL d   1       0.838   6.701   4.593  0.00  0.00     0.000 A 
ATOM     16  C   UNL d   1       0.961   5.467   5.228  0.00  0.00     0.001 A 
ATOM     17  C   UNL d   1       1.241   4.319   4.482  0.00  0.00     0.015 A 
ENDBRANCH  10  12
ENDBRANCH   9  10
ENDBRANCH   8   9
ENDBRANCH   5   8
BRANCH   2  18
ATOM     18  C   UNL d   1       2.406  -1.555   0.218  0.00  0.00     0.043 A 
ATOM     19  C   UNL d   1       3.521  -1.193  -0.548  0.00  0.00     0.032 A 
ATOM     20  C   UNL d   1       4.625  -2.047  -0.642  0.00  0.00     0.026 A 
ATOM     21  C   UNL d   1       4.608  -3.280   0.001  0.00  0.00     0.034 A 
ATOM     22  C   UNL d   1       3.523  -3.643   0.790  0.00  0.00     0.026 A 
ATOM     23 CL   UNL d   1       5.921  -4.370  -0.204  0.00  0.00    -0.084 Cl
ATOM     24  C   UNL d   1       2.442  -2.767   0.929  0.00  0.00     0.032 A 
ENDBRANCH   2  18
BRANCH   1  25
ATOM     25  C   UNL d   1      -0.541  -2.604   0.087  0.00  0.00     0.098 C 
ATOM     26  N   UNL d   1      -1.627  -3.199   0.686  0.00  0.00    -0.289 N 
ATOM     27  N   UNL d   1      -1.713  -4.528   0.435  0.00  0.00    -0.303 N 
ATOM     28  C   UNL d   1      -0.715  -4.772  -0.417  0.00  0.00     0.024 C 
ATOM     29  HN  UNL d   1      -2.388  -5.193   0.813  1.00  0.00     0.186 HD
ATOM     30  C   UNL d   1       0.007  -3.598  -0.706  0.00  0.00     0.061 C 
ATOM     31  C   UNL d   1      -0.464  -6.143  -0.924  0.00  0.00     0.070 C 
BRANCH  26  32
ATOM     32  C   UNL d   1      -2.614  -2.619   1.580  0.00  0.00     0.145 C 
ATOM     33  C   UNL d   1      -3.858  -2.162   0.839  0.00  0.00     0.028 C 
ENDBRANCH  26  32
ENDBRANCH   1  25
TORSDOF 7
