REMARK  6 active torsions:
REMARK  status: ('A' for Active; 'I' for Inactive)
REMARK    1  A    between atoms: C_4  and  S_1 
REMARK    2  A    between atoms: N_7  and  S_1 
REMARK    3  A    between atoms: C_2  and  C_5 
REMARK    4  A    between atoms: C_3  and  C_6 
REMARK    5  A    between atoms: C_19  and  N_7 
REMARK    6  A    between atoms: C_20  and  C_19 
ROOT
ATOM      1  C   UNL d   1       0.329  -0.833   1.490  0.00  0.00     0.076 A 
ATOM      2  C   UNL d   1      -1.263  -2.199   2.712  0.00  0.00     0.050 A 
ATOM      3  C   UNL d   1       0.955  -1.737   3.653  0.00  0.00     0.050 A 
ATOM      4  C   UNL d   1      -0.926  -1.445   1.578  0.00  0.00     0.041 A 
ATOM      5  C   UNL d   1       1.267  -0.973   2.518  0.00  0.00     0.041 A 
ATOM      6  C   UNL d   1      -0.315  -2.336   3.743  0.00  0.00     0.032 A 
ENDROOT
BRANCH   1   7
ATOM      7  S   UNL d   1       0.793  -0.013  -0.021  0.00  0.00     0.241 S 
ATOM      8  O   UNL d   1       0.027  -0.617  -1.087  0.00  0.00    -0.206 OA
ATOM      9  O   UNL d   1       2.234   0.065  -0.070  0.00  0.00    -0.206 OA
BRANCH   7  10
ATOM     10  N   UNL d   1       0.168   1.527   0.192  0.00  0.00    -0.211 NA
ATOM     11  H   UNL d   1      -0.397   1.814  -0.610  0.00  0.00     0.140 HD
BRANCH  10  12
ATOM     12  C   UNL d   1       1.077   2.544   0.726  0.00  0.00     0.143 C 
BRANCH  12  13
ATOM     13  C   UNL d   1       0.438   3.913   0.757  0.00  0.00    -0.044 A 
ATOM     14  C   UNL d   1      -0.775   4.127   1.427  0.00  0.00     0.008 A 
ATOM     15  C   UNL d   1      -1.339   5.403   1.479  0.00  0.00     0.001 A 
ATOM     16  C   UNL d   1      -0.697   6.478   0.867  0.00  0.00     0.000 A 
ATOM     17  C   UNL d   1       0.507   6.279   0.195  0.00  0.00     0.001 A 
ATOM     18  C   UNL d   1       1.072   5.003   0.140  0.00  0.00     0.008 A 
ENDBRANCH  12  13
ENDBRANCH  10  12
ENDBRANCH   7  10
ENDBRANCH   1   7
BRANCH   2  19
ATOM     19  C   UNL d   1      -2.607  -2.886   2.822  0.00  0.00     0.417 C 
ATOM     20  F   UNL d   1      -3.402  -2.702   1.732  0.00  0.00    -0.166 F 
ATOM     21  F   UNL d   1      -2.489  -4.232   2.979  0.00  0.00    -0.166 F 
ATOM     22  F   UNL d   1      -3.326  -2.443   3.889  0.00  0.00    -0.166 F 
ENDBRANCH   2  19
BRANCH   3  23
ATOM     23  C   UNL d   1       1.977  -1.965   4.746  0.00  0.00     0.417 C 
ATOM     24  F   UNL d   1       3.164  -1.338   4.519  0.00  0.00    -0.166 F 
ATOM     25  F   UNL d   1       1.547  -1.527   5.960  0.00  0.00    -0.166 F 
ATOM     26  F   UNL d   1       2.273  -3.284   4.904  0.00  0.00    -0.166 F 
ENDBRANCH   3  23
TORSDOF 6
