REMARK  5 active torsions:
REMARK  status: ('A' for Active; 'I' for Inactive)
REMARK    1  A    between atoms: N_6  and  S_1 
REMARK    2  A    between atoms: C_13  and  S_1 
REMARK    3  A    between atoms: C_3  and  S_8 
REMARK    4  A    between atoms: C_12  and  N_6 
REMARK    5  A    between atoms: S_8  and  C_14 
ROOT
ATOM      1  C   UNL d   1       0.859  -1.059  -2.277  0.00  0.00     0.040 A 
ATOM      2  C   UNL d   1       2.223  -0.959  -2.602  0.00  0.00     0.029 A 
ATOM      3  C   UNL d   1      -0.110  -1.090  -3.288  0.00  0.00     0.026 A 
ATOM      4  C   UNL d   1       2.586  -0.841  -3.950  0.00  0.00     0.021 A 
ATOM      5  C   UNL d   1       0.270  -0.996  -4.626  0.00  0.00     0.002 A 
ATOM      6  C   UNL d   1       1.616  -0.859  -4.955  0.00  0.00     0.001 A 
ENDROOT
BRANCH   2   7
ATOM      7  S   UNL d   1       3.500  -0.926  -1.358  0.00  0.00    -0.069 SA
BRANCH   7   8
ATOM      8  C   UNL d   1       4.127  -2.590  -1.335  0.00  0.00     0.095 A 
ATOM      9  C   UNL d   1       4.902  -3.042  -0.261  0.00  0.00     0.066 A 
ATOM     10  S   UNL d   1       5.294  -2.281   1.234  0.00  0.00    -0.096 SA
ATOM     11  C   UNL d   1       5.499  -4.300  -0.342  0.00  0.00     0.059 A 
ATOM     12  C   UNL d   1       6.283  -3.576   1.724  0.00  0.00     0.059 A 
ATOM     13  C   UNL d   1       6.334  -4.595   0.795  0.00  0.00    -0.027 A 
ATOM     14  C   UNL d   1       7.174  -5.816   0.970  0.00  0.00     0.051 C 
ATOM     15  N   UNL d   1       5.318  -5.118  -1.411  0.00  0.00    -0.351 N 
ATOM     16  C   UNL d   1       4.537  -4.612  -2.369  0.00  0.00     0.181 A 
ATOM     17  HN  UNL d   1       5.744  -6.042  -1.477  1.00  0.00     0.166 HD
ATOM     18  N   UNL d   1       3.952  -3.406  -2.400  0.00  0.00    -0.345 N 
ATOM     19  HN  UNL d   1       3.393  -3.113  -3.201  1.00  0.00     0.167 HD
ENDBRANCH   7   8
ENDBRANCH   2   7
BRANCH   1  20
ATOM     20  N   UNL d   1       0.402  -1.044  -0.917  0.00  0.00    -0.180 NA
ATOM     21  H   UNL d   1      -0.437  -1.614  -0.792  0.00  0.00     0.146 HD
BRANCH  20  22
ATOM     22  S   UNL d   1       0.066   0.453  -0.187  0.00  0.00     0.245 S 
ATOM     23  O   UNL d   1       0.983   0.629   0.916  0.00  0.00    -0.206 OA
ATOM     24  O   UNL d   1      -1.367   0.425   0.053  0.00  0.00    -0.206 OA
BRANCH  22  25
ATOM     25  C   UNL d   1       0.364   1.755  -1.365  0.00  0.00     0.074 A 
ATOM     26  C   UNL d   1      -0.675   2.205  -2.190  0.00  0.00     0.026 A 
ATOM     27  C   UNL d   1      -0.473   3.317  -3.013  0.00  0.00     0.025 A 
ATOM     28  C   UNL d   1       0.752   3.985  -2.995  0.00  0.00     0.034 A 
ATOM     29  C   UNL d   1       1.785   3.546  -2.166  0.00  0.00     0.025 A 
ATOM     30 CL   UNL d   1       0.980   5.379  -3.977  0.00  0.00    -0.084 Cl
ATOM     31  C   UNL d   1       1.589   2.434  -1.342  0.00  0.00     0.026 A 
ENDBRANCH  22  25
ENDBRANCH  20  22
ENDBRANCH   1  20
TORSDOF 5
