REMARK  5 active torsions:
REMARK  status: ('A' for Active; 'I' for Inactive)
REMARK    1  A    between atoms: N_2  and  C_1 
REMARK    2  A    between atoms: C_3  and  S_14 
REMARK    3  A    between atoms: N_5  and  C_13 
REMARK    4  A    between atoms: N_21  and  C_8 
REMARK    5  A    between atoms: S_14  and  C_12 
ROOT
ATOM      1  C   UNL d   1       1.446  -0.258   0.143  0.00  0.00     0.122 A 
ATOM      2  C   UNL d   1       0.530  -1.321   0.135  0.00  0.00     0.073 A 
ATOM      3  C   UNL d   1       1.048   1.080  -0.016  0.00  0.00     0.041 A 
ATOM      4  C   UNL d   1      -0.828  -1.033  -0.034  0.00  0.00     0.105 A 
ATOM      5  C   UNL d   1      -0.324   1.335  -0.184  0.00  0.00     0.024 A 
ATOM      6  C   UNL d   1      -1.259   0.291  -0.195  0.00  0.00     0.037 A 
ENDROOT
BRANCH   3   7
ATOM      7  S   UNL d   1       2.152   2.483   0.081  0.00  0.00    -0.050 SA
BRANCH   7   8
ATOM      8  C   UNL d   1       2.528   2.647  -1.593  0.00  0.00     0.179 A 
ATOM      9  N   UNL d   1       3.665   3.278  -1.989  0.00  0.00    -0.168 N 
ATOM     10  C   UNL d   1       3.653   3.246  -3.352  0.00  0.00     0.692 A 
ATOM     11  H   UNL d   1       4.364   3.693  -1.396  0.00  0.00     0.186 HD
ATOM     12  N   UNL d   1       2.560   2.641  -3.759  0.00  0.00    -0.130 N 
ATOM     13  N   UNL d   1       1.846   2.252  -2.640  0.00  0.00    -0.265 N 
ATOM     14  HN  UNL d   1       2.285   2.486  -4.729  1.00  0.00     0.205 HD
ATOM     15  HN  UNL d   1       0.957   1.752  -2.632  1.00  0.00     0.189 HD
BRANCH  10  16
ATOM     16  N   UNL d   1       4.646   3.785  -4.074  0.00  0.00    -0.233 N 
ATOM     17  H   UNL d   1       5.583   3.875  -3.698  0.00  0.00     0.174 HD
ATOM     18  H   UNL d   1       4.643   3.558  -5.066  0.00  0.00     0.174 HD
ENDBRANCH  10  16
ENDBRANCH   7   8
ENDBRANCH   3   7
BRANCH   1  19
ATOM     19  N   UNL d   1       2.837  -0.589   0.389  0.00  0.00    -0.114 N 
ATOM     20  O   UNL d   1       3.094  -1.115   1.479  0.00  0.00    -0.532 OA
ATOM     21  O   UNL d   1       3.653  -0.349  -0.508  0.00  0.00    -0.532 OA
ENDBRANCH   1  19
BRANCH   4  22
ATOM     22  N   UNL d   1      -1.812  -2.124  -0.021  0.00  0.00    -0.116 N 
ATOM     23  O   UNL d   1      -1.381  -3.282   0.064  0.00  0.00    -0.532 OA
ATOM     24  O   UNL d   1      -3.010  -1.819  -0.086  0.00  0.00    -0.532 OA
ENDBRANCH   4  22
TORSDOF 5
