REMARK  6 active torsions:
REMARK  status: ('A' for Active; 'I' for Inactive)
REMARK    1  A    between atoms: N_2  and  S_1 
REMARK    2  A    between atoms: C_13  and  S_1 
REMARK    3  A    between atoms: C_3  and  N_2 
REMARK    4  A    between atoms: C_12  and  N_2 
REMARK    5  A    between atoms: C_6  and  C_7 
REMARK    6  A    between atoms: C_19  and  C_12 
ROOT
ATOM      1  N   UNL d   1       0.683  -0.904  -1.404  0.00  0.00    -0.251 N 
ENDROOT
BRANCH   1   2
ATOM      2  S   UNL d   1       1.136   0.017  -0.063  0.00  0.00     0.266 S 
ATOM      3  O   UNL d   1       2.404   0.650  -0.365  0.00  0.00    -0.200 OA
ATOM      4  O   UNL d   1       0.992  -0.783   1.139  0.00  0.00    -0.200 OA
BRANCH   2   5
ATOM      5  C   UNL d   1      -0.068   1.336   0.047  0.00  0.00     0.080 A 
ATOM      6  C   UNL d   1      -1.240   1.161   0.789  0.00  0.00     0.025 A 
ATOM      7  C   UNL d   1      -2.118   2.234   0.954  0.00  0.00     0.002 A 
ATOM      8  C   UNL d   1      -1.820   3.480   0.397  0.00  0.00     0.000 A 
ATOM      9  C   UNL d   1      -0.640   3.659  -0.325  0.00  0.00     0.002 A 
ATOM     10  C   UNL d   1       0.242   2.591  -0.492  0.00  0.00     0.025 A 
ENDBRANCH   2   5
ENDBRANCH   1   2
BRANCH   1  11
ATOM     11  C   UNL d   1      -0.369  -1.830  -1.161  0.00  0.00     0.139 A 
ATOM     12  N   UNL d   1      -1.616  -1.335  -1.329  0.00  0.00    -0.349 N 
ATOM     13  C   UNL d   1      -2.647  -2.180  -1.082  0.00  0.00     0.106 A 
ATOM     14  HN  UNL d   1      -1.773  -0.372  -1.626  1.00  0.00     0.166 HD
ATOM     15  C   UNL d   1      -2.495  -3.503  -0.683  0.00  0.00     0.065 A 
ATOM     16  C   UNL d   1      -1.192  -3.985  -0.519  0.00  0.00     0.045 A 
ATOM     17  C   UNL d   1      -0.109  -3.140  -0.754  0.00  0.00     0.079 A 
ATOM     18 CL   UNL d   1       1.486  -3.771  -0.590  0.00  0.00    -0.080 Cl
BRANCH  15  19
ATOM     19  C   UNL d   1      -3.706  -4.353  -0.441  0.00  0.00     0.418 C 
ATOM     20  F   UNL d   1      -3.407  -5.643  -0.128  0.00  0.00    -0.166 F 
ATOM     21  F   UNL d   1      -4.471  -3.884   0.579  0.00  0.00    -0.166 F 
ATOM     22  F   UNL d   1      -4.521  -4.411  -1.528  0.00  0.00    -0.166 F 
ENDBRANCH  15  19
ENDBRANCH   1  11
BRANCH   1  23
ATOM     23  C   UNL d   1       0.711  -0.263  -2.728  0.00  0.00     0.182 C 
BRANCH  23  24
ATOM     24  C   UNL d   1       1.997  -0.512  -3.488  0.00  0.00    -0.039 A 
ATOM     25  C   UNL d   1       2.368  -1.813  -3.864  0.00  0.00     0.010 A 
ATOM     26  C   UNL d   1       3.525  -2.034  -4.616  0.00  0.00     0.024 A 
ATOM     27  C   UNL d   1       4.318  -0.956  -5.001  0.00  0.00     0.034 A 
ATOM     28  C   UNL d   1       3.974   0.340  -4.625  0.00  0.00     0.024 A 
ATOM     29 CL   UNL d   1       5.723  -1.225  -5.956  0.00  0.00    -0.084 Cl
ATOM     30  C   UNL d   1       2.819   0.561  -3.868  0.00  0.00     0.010 A 
ENDBRANCH  23  24
ENDBRANCH   1  23
TORSDOF 6
