REMARK  9 active torsions:
REMARK  status: ('A' for Active; 'I' for Inactive)
REMARK    1  A    between atoms: O_18  and  C_1 
REMARK    2  A    between atoms: O_19  and  C_2 
REMARK    3  A    between atoms: N_24  and  C_9 
REMARK    4  A    between atoms: C_16  and  O_18 
REMARK    5  A    between atoms: C_17  and  O_19 
REMARK    6  A    between atoms: C_33  and  N_24 
REMARK    7  A    between atoms: C_25  and  S_28 
REMARK    8  A    between atoms: S_28  and  C_37 
REMARK    9  A    between atoms: C_37  and  C_33 
ROOT
ATOM      1  C   UNL d   1       0.778  -1.009   0.162  0.00  0.00     0.246 A 
ATOM      2  C   UNL d   1      -1.279  -0.180   0.058  0.00  0.00     0.246 A 
ATOM      3  N   UNL d   1      -0.519  -1.270   0.148  0.00  0.00    -0.286 N 
ATOM      4  HN  UNL d   1      -0.900  -2.215   0.202  1.00  0.00     0.173 HD
ATOM      5  N   UNL d   1       1.323   0.204   0.166  0.00  0.00    -0.154 N 
ATOM      6  HN  UNL d   1       2.332   0.346   0.216  1.00  0.00     0.188 HD
ATOM      7  N   UNL d   1      -0.843   1.077   0.064  0.00  0.00    -0.154 N 
ATOM      8  HN  UNL d   1      -1.477   1.876   0.043  1.00  0.00     0.188 HD
ATOM      9  C   UNL d   1       0.473   1.215   0.100  0.00  0.00     0.684 A 
ENDROOT
BRANCH   1  10
ATOM     10  O   UNL d   1       1.611  -2.126   0.138  0.00  0.00    -0.279 OA
BRANCH  10  11
ATOM     11  C   UNL d   1       2.823  -2.008  -0.510  0.00  0.00     0.080 A 
ATOM     12  C   UNL d   1       3.900  -2.719   0.018  0.00  0.00     0.045 A 
ATOM     13  C   UNL d   1       5.173  -2.644  -0.579  0.00  0.00    -0.037 A 
ATOM     14  C   UNL d   1       6.313  -3.420   0.024  0.00  0.00     0.050 C 
ATOM     15  C   UNL d   1       5.348  -1.840  -1.726  0.00  0.00     0.046 A 
ATOM     16  C   UNL d   1       4.262  -1.149  -2.287  0.00  0.00    -0.037 A 
ATOM     17 CL   UNL d   1       6.926  -1.716  -2.440  0.00  0.00    -0.083 Cl
ATOM     18  C   UNL d   1       2.996  -1.273  -1.683  0.00  0.00     0.045 A 
ATOM     19  C   UNL d   1       4.351  -0.247  -3.487  0.00  0.00     0.050 C 
ENDBRANCH  10  11
ENDBRANCH   1  10
BRANCH   2  20
ATOM     20  O   UNL d   1      -2.658  -0.325  -0.067  0.00  0.00    -0.279 OA
BRANCH  20  21
ATOM     21  C   UNL d   1      -3.133  -1.359  -0.845  0.00  0.00     0.080 A 
ATOM     22  C   UNL d   1      -4.375  -1.890  -0.494  0.00  0.00     0.045 A 
ATOM     23  C   UNL d   1      -4.932  -2.958  -1.221  0.00  0.00    -0.037 A 
ATOM     24  C   UNL d   1      -6.268  -3.513  -0.801  0.00  0.00     0.050 C 
ATOM     25  C   UNL d   1      -4.221  -3.490  -2.318  0.00  0.00     0.046 A 
ATOM     26  C   UNL d   1      -2.987  -2.935  -2.703  0.00  0.00    -0.037 A 
ATOM     27 CL   UNL d   1      -4.885  -4.836  -3.188  0.00  0.00    -0.083 Cl
ATOM     28  C   UNL d   1      -2.474  -1.849  -1.974  0.00  0.00     0.045 A 
ATOM     29  C   UNL d   1      -2.144  -3.444  -3.841  0.00  0.00     0.050 C 
ENDBRANCH  20  21
ENDBRANCH   2  20
BRANCH   9  30
ATOM     30  N   UNL d   1       1.048   2.459  -0.007  0.00  0.00    -0.225 N 
ATOM     31  H   UNL d   1       2.054   2.405   0.115  0.00  0.00     0.177 HD
BRANCH  30  32
ATOM     32  C   UNL d   1       0.369   3.589   0.602  0.00  0.00     0.148 C 
BRANCH  32  33
ATOM     33  C   UNL d   1       1.370   4.612   1.169  0.00  0.00     0.095 C 
BRANCH  33  34
ATOM     34  S   UNL d   1       2.497   5.275  -0.116  0.00  0.00    -0.159 SA
BRANCH  34  35
ATOM     35  C   UNL d   1       3.482   6.528   0.827  0.00  0.00    -0.003 C 
ATOM     36  C   UNL d   1       4.327   5.852   1.912  0.00  0.00     0.026 C 
ATOM     37  C   UNL d   1       4.420   7.200  -0.191  0.00  0.00     0.026 C 
ATOM     38  C   UNL d   1       2.570   7.597   1.438  0.00  0.00     0.026 C 
ENDBRANCH  34  35
ENDBRANCH  33  34
ENDBRANCH  32  33
ENDBRANCH  30  32
ENDBRANCH   9  30
TORSDOF 9
