REMARK  5 active torsions:
REMARK  status: ('A' for Active; 'I' for Inactive)
REMARK    1  A    between atoms: C_4  and  C_1 
REMARK    2  A    between atoms: N_3  and  C_2 
REMARK    3  A    between atoms: C_7  and  N_3 
REMARK    4  A    between atoms: O_15  and  C_4 
REMARK       I    between atoms: C_5  and  N_6 
REMARK       I    between atoms: N_13  and  C_5 
REMARK    5  A    between atoms: N_6  and  C_8 
ROOT
ATOM      1  C   UNL d   1       3.549  -1.038  -0.436  0.00  0.00     0.039 A 
ATOM      2  C   UNL d   1       3.942  -0.136   0.579  0.00  0.00     0.058 A 
ATOM      3  C   UNL d   1       4.488  -1.410  -1.413  0.00  0.00     0.026 A 
ATOM      4  C   UNL d   1       5.257   0.337   0.620  0.00  0.00     0.031 A 
ATOM      5  C   UNL d   1       5.793  -0.917  -1.371  0.00  0.00     0.002 A 
ATOM      6  C   UNL d   1       6.177  -0.046  -0.357  0.00  0.00     0.002 A 
ENDROOT
BRANCH   1   7
ATOM      7  N   UNL d   1       2.144  -1.329  -0.596  0.00  0.00    -0.260 NA
ATOM      8  H   UNL d   1       1.823  -0.522  -1.154  0.00  0.00     0.133 HD
BRANCH   7   9
ATOM      9  C   UNL d   1       1.721  -2.492  -1.242  0.00  0.00     0.012 A 
ATOM     10  C   UNL d   1       1.343  -2.643  -2.527  0.00  0.00     0.044 A 
ATOM     11  C   UNL d   1       0.918  -4.006  -2.963  0.00  0.00     0.120 A 
ATOM     12  S   UNL d   1       1.052  -5.069  -1.500  0.00  0.00    -0.159 SA
ATOM     13  C   UNL d   1       1.634  -3.745  -0.405  0.00  0.00     0.126 A 
BRANCH  10  14
ATOM     14  C   UNL d   1       1.389  -1.625  -3.600  0.00  0.00     0.291 C 
ATOM     15  O   UNL d   1       1.273  -1.911  -4.783  0.00  0.00    -0.260 OA
BRANCH  14  16
ATOM     16  O   UNL d   1       1.603  -0.385  -3.098  0.00  0.00    -0.323 OA
ATOM     17  C   UNL d   1       1.841   0.646  -4.062  0.00  0.00     0.213 C 
ENDBRANCH  14  16
ENDBRANCH  10  14
ENDBRANCH   7   9
ENDBRANCH   1   7
BRANCH   2  18
ATOM     18  N   UNL d   1       2.981   0.227   1.549  0.00  0.00    -0.307 N 
ATOM     19  C   UNL d   1       3.017   1.347   2.345  0.00  0.00     0.320 C 
ATOM     20  O   UNL d   1       3.793   2.288   2.227  0.00  0.00    -0.247 OA
ATOM     21  N   UNL d   1       2.027   1.312   3.302  0.00  0.00    -0.347 N 
ATOM     22  C   UNL d   1       1.840   2.398   4.234  0.00  0.00     0.151 C 
ATOM     23  H   UNL d   1       1.701   0.397   3.577  0.00  0.00     0.163 HD
ATOM     24  H   UNL d   1       2.088  -0.244   1.461  0.00  0.00     0.170 HD
ENDBRANCH   2  18
TORSDOF 5
