REMARK  7 active torsions:
REMARK  status: ('A' for Active; 'I' for Inactive)
REMARK    1  A    between atoms: C_6  and  C_3 
REMARK    2  A    between atoms: C_9  and  C_17 
REMARK    3  A    between atoms: O_18  and  C_10 
REMARK       I    between atoms: C_11  and  N_19 
REMARK    4  A    between atoms: C_20  and  C_11 
REMARK    5  A    between atoms: C_14  and  C_26 
REMARK       I    between atoms: N_22  and  C_14 
REMARK    6  A    between atoms: C_26  and  O_18 
REMARK    7  A    between atoms: N_19  and  N_22 
ROOT
ATOM      1  C   UNL d   1       1.368  -2.857  -0.154  0.00  0.00    -0.006 A 
ATOM      2  C   UNL d   1       1.421  -5.695  -0.066  0.00  0.00     0.081 A 
ATOM      3  C   UNL d   1       0.838  -5.018  -1.159  0.00  0.00    -0.027 A 
ATOM      4  C   UNL d   1       2.034  -4.945   0.962  0.00  0.00    -0.027 A 
ATOM      5  C   UNL d   1       1.988  -3.533   0.901  0.00  0.00     0.023 A 
ATOM      6  C   UNL d   1       0.873  -3.611  -1.216  0.00  0.00     0.023 A 
ATOM      7  C   UNL d   1       2.724  -5.534   2.161  0.00  0.00     0.051 C 
ATOM      8  C   UNL d   1       0.118  -5.733  -2.270  0.00  0.00     0.051 C 
ENDROOT
BRANCH   2   9
ATOM      9  O   UNL d   1       1.226  -7.059  -0.044  0.00  0.00    -0.341 OA
BRANCH   9  10
ATOM     10  C   UNL d   1       2.366  -7.852   0.247  0.00  0.00     0.280 C 
BRANCH  10  11
ATOM     11  C   UNL d   1       2.239  -9.339  -0.086  0.00  0.00     0.260 C 
ATOM     12  N   UNL d   1       1.052  -9.761  -0.640  0.00  0.00    -0.265 N 
ATOM     13  H   UNL d   1       0.262  -9.148  -0.841  0.00  0.00     0.190 HD
ATOM     14  O   UNL d   1       3.150 -10.134   0.166  0.00  0.00    -0.269 OA
BRANCH  12  15
ATOM     15  N   UNL d   1       0.913 -11.135  -0.871  0.00  0.00    -0.263 N 
ATOM     16  C   UNL d   1      -0.235 -11.639  -1.443  0.00  0.00     0.270 C 
ATOM     17  O   UNL d   1      -1.196 -10.943  -1.756  0.00  0.00    -0.266 OA
ATOM     18  H   UNL d   1       1.650 -11.719  -0.478  0.00  0.00     0.190 HD
BRANCH  16  19
ATOM     19  C   UNL d   1      -0.262 -13.121  -1.639  0.00  0.00     0.034 A 
ATOM     20  C   UNL d   1      -1.499 -13.781  -1.658  0.00  0.00     0.033 A 
ATOM     21  C   UNL d   1      -1.566 -15.176  -1.828  0.00  0.00     0.048 A 
ATOM     22  C   UNL d   1      -0.373 -15.899  -1.992  0.00  0.00     0.016 A 
ATOM     23  C   UNL d   1       0.858 -15.244  -1.996  0.00  0.00     0.002 A 
ATOM     24  C   UNL d   1       0.915 -13.860  -1.824  0.00  0.00     0.017 A 
BRANCH  21  25
ATOM     25  C   UNL d   1      -2.886 -15.908  -1.834  0.00  0.00     0.417 C 
ATOM     26  F   UNL d   1      -3.965 -15.097  -1.658  0.00  0.00    -0.166 F 
ATOM     27  F   UNL d   1      -3.104 -16.575  -3.001  0.00  0.00    -0.166 F 
ATOM     28  F   UNL d   1      -2.960 -16.846  -0.850  0.00  0.00    -0.166 F 
ENDBRANCH  21  25
ENDBRANCH  16  19
ENDBRANCH  12  15
ENDBRANCH  10  11
ENDBRANCH   9  10
ENDBRANCH   2   9
BRANCH   1  29
ATOM     29  C   UNL d   1       1.284  -1.357  -0.099  0.00  0.00     0.070 C 
ATOM     30  N   UNL d   1       2.290  -0.743   0.458  0.00  0.00    -0.294 N 
ATOM     31  N   UNL d   1       2.310   0.623   0.519  0.00  0.00    -0.261 N 
ATOM     32  HN  UNL d   1       3.063  -1.282   0.848  1.00  0.00     0.187 HD
ATOM     33  C   UNL d   1       1.355   1.452  -0.053  0.00  0.00     0.272 C 
ATOM     34  C   UNL d   1       3.441   1.231   1.195  0.00  0.00     0.181 C 
ATOM     35  C   UNL d   1       0.203   0.781  -0.677  0.00  0.00     0.046 A 
ATOM     36  O   UNL d   1       1.410   2.679  -0.036  0.00  0.00    -0.266 OA
ATOM     37  C   UNL d   1      -0.817   1.556  -1.251  0.00  0.00     0.018 A 
ATOM     38  C   UNL d   1       0.107  -0.608  -0.631  0.00  0.00     0.009 A 
ATOM     39  C   UNL d   1      -1.955   0.941  -1.766  0.00  0.00     0.001 A 
ATOM     40  C   UNL d   1      -2.098  -0.438  -1.655  0.00  0.00     0.001 A 
ATOM     41  C   UNL d   1      -1.086  -1.205  -1.067  0.00  0.00     0.015 A 
ENDBRANCH   1  29
TORSDOF 7
