REMARK  5 active torsions:
REMARK  status: ('A' for Active; 'I' for Inactive)
REMARK    1  A    between atoms: S_14  and  C_3 
REMARK    2  A    between atoms: C_9  and  C_4 
REMARK    3  A    between atoms: O_15  and  N_7 
REMARK    4  A    between atoms: O_18  and  C_9 
REMARK    5  A    between atoms: C_13  and  O_15 
ROOT
ATOM      1  C   UNL d   1       0.149  -0.833   0.054  0.00  0.00     0.020 A 
ATOM      2  C   UNL d   1       0.458   0.591   0.047  0.00  0.00    -0.020 A 
ATOM      3  C   UNL d   1       1.290  -1.608  -0.050  0.00  0.00     0.054 A 
ATOM      4  C   UNL d   1       1.828   0.825   0.013  0.00  0.00     0.088 A 
ATOM      5  S   UNL d   1       2.700  -0.651   0.015  0.00  0.00    -0.076 SA
ATOM      6  C   UNL d   1      -1.239  -1.293   0.118  0.00  0.00     0.046 C 
ATOM      7  N   UNL d   1      -1.481  -2.471   0.602  0.00  0.00    -0.261 N 
ATOM      8  HN  UNL d   1      -0.754  -3.110   0.925  1.00  0.00     0.194 HD
ATOM      9  C   UNL d   1      -0.638   1.636   0.019  0.00  0.00     0.050 C 
ATOM     10  C   UNL d   1      -2.044   1.077   0.386  0.00  0.00    -0.038 C 
ATOM     11  C   UNL d   1      -2.285  -0.281  -0.318  0.00  0.00     0.069 C 
ATOM     12  C   UNL d   1      -3.128   2.067  -0.082  0.00  0.00     0.015 C 
ATOM     13  C   UNL d   1      -2.177   0.922   1.916  0.00  0.00     0.015 C 
ENDROOT
BRANCH   7  14
ATOM     14  O   UNL d   1      -2.852  -2.774   0.633  0.00  0.00    -0.200 OA
BRANCH  14  15
ATOM     15  C   UNL d   1      -3.065  -3.910   1.373  0.00  0.00     0.277 C 
ATOM     16  O   UNL d   1      -2.234  -4.548   2.011  0.00  0.00    -0.264 OA
ATOM     17  C   UNL d   1      -4.510  -4.307   1.287  0.00  0.00     0.128 C 
ENDBRANCH  14  15
ENDBRANCH   7  14
BRANCH   3  18
ATOM     18  S   UNL d   1       1.428  -3.339  -0.354  0.00  0.00    -0.126 SA
ATOM     19  C   UNL d   1       1.670  -3.971   1.319  0.00  0.00     0.096 C 
ENDBRANCH   3  18
BRANCH   4  20
ATOM     20  C   UNL d   1       2.528   2.105  -0.045  0.00  0.00     0.300 C 
ATOM     21  O   UNL d   1       1.985   3.205  -0.083  0.00  0.00    -0.259 OA
BRANCH  20  22
ATOM     22  O   UNL d   1       3.882   1.929  -0.069  0.00  0.00    -0.322 OA
ATOM     23  C   UNL d   1       4.654   3.125  -0.177  0.00  0.00     0.213 C 
ENDBRANCH  20  22
ENDBRANCH   4  20
TORSDOF 5
