REMARK  3 active torsions:
REMARK  status: ('A' for Active; 'I' for Inactive)
REMARK    1  A    between atoms: C_4  and  N_1 
REMARK    2  A    between atoms: C_14  and  C_12 
REMARK    3  A    between atoms: O_13  and  C_14 
ROOT
ATOM      1  C   UNL d   1      -0.689  -2.447   0.062  0.00  0.00     0.056 A 
ATOM      2  C   UNL d   1      -1.582  -2.913  -0.913  0.00  0.00     0.032 A 
ATOM      3  C   UNL d   1      -0.142  -3.354   0.976  0.00  0.00     0.032 A 
ATOM      4  C   UNL d   1      -0.498  -4.706   0.922  0.00  0.00     0.011 A 
ATOM      5  C   UNL d   1      -1.933  -4.266  -0.962  0.00  0.00     0.011 A 
ATOM      6  C   UNL d   1      -1.409  -5.175  -0.034  0.00  0.00    -0.035 A 
ENDROOT
BRANCH   1   7
ATOM      7  N   UNL d   1      -0.366  -1.062   0.115  0.00  0.00    -0.268 N 
ATOM      8  N   UNL d   1      -0.937  -0.173  -0.744  0.00  0.00    -0.305 N 
ATOM      9  C   UNL d   1      -0.446   1.012  -0.385  0.00  0.00     0.109 A 
ATOM     10  HN  UNL d   1      -1.596  -0.372  -1.497  1.00  0.00     0.186 HD
ATOM     11  C   UNL d   1       0.457   0.920   0.682  0.00  0.00     0.038 A 
ATOM     12  C   UNL d   1       0.499  -0.421   0.980  0.00  0.00     0.118 A 
ENDBRANCH   1   7
BRANCH   6  13
ATOM     13  C   UNL d   1      -1.781  -6.633  -0.112  0.00  0.00     0.202 C 
BRANCH  13  14
ATOM     14  O   UNL d   1      -1.749  -7.235   1.176  0.00  0.00    -0.396 OA
ATOM     15  H   UNL d   1      -2.022  -8.159   1.057  0.00  0.00     0.209 HD
ENDBRANCH  13  14
ENDBRANCH   6  13
TORSDOF 3
