REMARK  5 active torsions:
REMARK  status: ('A' for Active; 'I' for Inactive)
REMARK    1  A    between atoms: C_4  and  C_1 
REMARK    2  A    between atoms: N_14  and  C_4 
REMARK    3  A    between atoms: O_11  and  N_6 
REMARK    4  A    between atoms: C_9  and  O_11 
REMARK    5  A    between atoms: C_12  and  C_9 
ROOT
ATOM      1  C   UNL d   1      -2.718  -1.445   0.099  0.00  0.00     0.127 C 
ATOM      2  N   UNL d   1      -3.931  -1.029  -0.053  0.00  0.00    -0.244 N 
ATOM      3  HN  UNL d   1      -4.713  -1.626  -0.321  1.00  0.00     0.196 HD
ENDROOT
BRANCH   2   4
ATOM      4  O   UNL d   1      -4.040   0.353   0.200  0.00  0.00    -0.193 OA
BRANCH   4   5
ATOM      5  C   UNL d   1      -4.953   0.883  -0.660  0.00  0.00     0.315 C 
ATOM      6  O   UNL d   1      -5.058   0.623  -1.851  0.00  0.00    -0.257 OA
BRANCH   5   7
ATOM      7  C   UNL d   1      -5.860   1.825   0.050  0.00  0.00     0.041 A 
ATOM      8  C   UNL d   1      -6.863   2.458  -0.700  0.00  0.00     0.019 A 
ATOM      9  C   UNL d   1      -7.807   3.276  -0.072  0.00  0.00     0.025 A 
ATOM     10  C   UNL d   1      -7.749   3.466   1.306  0.00  0.00     0.034 A 
ATOM     11  C   UNL d   1      -6.748   2.855   2.062  0.00  0.00     0.025 A 
ATOM     12 CL   UNL d   1      -8.929   4.445   2.085  0.00  0.00    -0.084 Cl
ATOM     13  C   UNL d   1      -5.802   2.035   1.436  0.00  0.00     0.019 A 
ENDBRANCH   5   7
ENDBRANCH   4   5
ENDBRANCH   2   4
BRANCH   1  14
ATOM     14  C   UNL d   1      -2.477  -2.883  -0.017  0.00  0.00     0.097 A 
ATOM     15  N   UNL d   1      -1.233  -3.398   0.022  0.00  0.00    -0.258 N 
ATOM     16  O   UNL d   1      -1.388  -4.770  -0.079  0.00  0.00    -0.242 OA
ATOM     17  HN  UNL d   1      -0.357  -2.883   0.109  1.00  0.00     0.195 HD
ATOM     18  C   UNL d   1      -2.708  -5.074  -0.186  0.00  0.00     0.074 A 
ATOM     19  C   UNL d   1      -3.439  -3.915  -0.169  0.00  0.00     0.069 A 
ATOM     20  C   UNL d   1      -3.052  -6.503  -0.283  0.00  0.00     0.079 C 
ENDBRANCH   1  14
BRANCH   1  21
ATOM     21  N   UNL d   1      -1.592  -0.704   0.344  0.00  0.00    -0.285 NA
ATOM     22  H   UNL d   1      -0.727  -1.186   0.105  0.00  0.00     0.125 HD
ATOM     23  H   UNL d   1      -1.642   0.237  -0.024  0.00  0.00     0.125 HD
ENDBRANCH   1  21
TORSDOF 5
