REMARK  5 active torsions:
REMARK  status: ('A' for Active; 'I' for Inactive)
REMARK    1  A    between atoms: N_2  and  C_1 
REMARK    2  A    between atoms: N_3  and  C_4 
REMARK    3  A    between atoms: N_15  and  C_6 
REMARK    4  A    between atoms: N_10  and  N_15 
REMARK    5  A    between atoms: C_19  and  C_18 
ROOT
ATOM      1  C   UNL d   1      -1.825   0.062  -0.013  0.00  0.00     0.133 A 
ATOM      2  C   UNL d   1       0.268  -1.211   0.007  0.00  0.00     0.111 A 
ATOM      3  C   UNL d   1      -1.139  -1.170   0.003  0.00  0.00     0.075 A 
ATOM      4  C   UNL d   1      -1.121   1.281  -0.016  0.00  0.00     0.081 A 
ATOM      5  C   UNL d   1       1.004  -0.012   0.007  0.00  0.00    -0.027 A 
ATOM      6  C   UNL d   1       0.288   1.205   0.001  0.00  0.00     0.042 A 
ATOM      7  C   UNL d   1       2.507   0.075  -0.006  0.00  0.00     0.050 C 
ENDROOT
BRANCH   4   8
ATOM      8  N   UNL d   1      -1.747   2.540  -0.113  0.00  0.00    -0.299 N 
ATOM      9  H   UNL d   1      -2.772   2.564  -0.066  0.00  0.00     0.187 HD
BRANCH   8  10
ATOM     10  N   UNL d   1      -1.004   3.667  -0.068  0.00  0.00    -0.311 N 
ATOM     11  C   UNL d   1      -1.569   4.715  -0.578  0.00  0.00     0.118 C 
ATOM     12  HN  UNL d   1      -0.068   3.692   0.337  1.00  0.00     0.186 HD
BRANCH  11  13
ATOM     13  C   UNL d   1      -0.878   6.019  -0.605  0.00  0.00    -0.017 A 
ATOM     14  C   UNL d   1       0.378   6.165  -0.020  0.00  0.00     0.030 A 
ATOM     15  C   UNL d   1       0.967   7.414  -0.066  0.00  0.00     0.088 A 
ATOM     16  N   UNL d   1       0.393   8.491  -0.645  0.00  0.00    -0.375 N 
ATOM     17  C   UNL d   1      -0.822   8.313  -1.208  0.00  0.00     0.088 A 
ATOM     18  HN  UNL d   1       0.857   9.399  -0.657  1.00  0.00     0.164 HD
ATOM     19  C   UNL d   1      -1.496   7.105  -1.218  0.00  0.00     0.030 A 
ENDBRANCH  11  13
ENDBRANCH   8  10
ENDBRANCH   4   8
BRANCH   1  20
ATOM     20  N   UNL d   1      -3.298   0.028  -0.033  0.00  0.00    -0.113 N 
ATOM     21  O   UNL d   1      -3.847  -1.084  -0.026  0.00  0.00    -0.532 OA
ATOM     22  O   UNL d   1      -3.914   1.103  -0.055  0.00  0.00    -0.532 OA
ENDBRANCH   1  20
BRANCH   2  23
ATOM     23  N   UNL d   1       0.908  -2.546   0.004  0.00  0.00    -0.115 N 
ATOM     24  O   UNL d   1       0.161  -3.534  -0.003  0.00  0.00    -0.532 OA
ATOM     25  O   UNL d   1       2.143  -2.619   0.005  0.00  0.00    -0.532 OA
ENDBRANCH   2  23
TORSDOF 5
