REMARK  5 active torsions:
REMARK  status: ('A' for Active; 'I' for Inactive)
REMARK    1  A    between atoms: N_3  and  S_1 
REMARK    2  A    between atoms: C_4  and  S_1 
REMARK    3  A    between atoms: S_2  and  N_3 
REMARK    4  A    between atoms: C_5  and  S_2 
REMARK    5  A    between atoms: C_20  and  N_3 
ROOT
ATOM      1  N   UNL d   1       0.288  -0.557   1.389  0.00  0.00    -0.195 N 
ENDROOT
BRANCH   1   2
ATOM      2  S   UNL d   1      -1.384  -0.471   1.439  0.00  0.00     0.276 S 
ATOM      3  O   UNL d   1      -1.808   0.907   1.524  0.00  0.00    -0.199 OA
ATOM      4  O   UNL d   1      -1.927  -1.376   0.448  0.00  0.00    -0.199 OA
BRANCH   2   5
ATOM      5  C   UNL d   1      -2.006  -1.123   2.926  0.00  0.00     0.111 A 
ATOM      6  C   UNL d   1      -1.802  -0.592   4.176  0.00  0.00     0.099 A 
ATOM      7  S   UNL d   1      -2.645  -1.422   5.400  0.00  0.00    -0.064 SA
ATOM      8 CL   UNL d   1      -0.856   0.761   4.645  0.00  0.00    -0.075 Cl
ATOM      9  C   UNL d   1      -3.314  -2.486   4.268  0.00  0.00     0.077 A 
ATOM     10  C   UNL d   1      -2.894  -2.251   2.984  0.00  0.00     0.059 A 
ATOM     11 CL   UNL d   1      -4.414  -3.698   4.783  0.00  0.00    -0.076 Cl
ENDBRANCH   2   5
ENDBRANCH   1   2
BRANCH   1  12
ATOM     12  S   UNL d   1       0.962   0.145   0.015  0.00  0.00     0.276 S 
ATOM     13  O   UNL d   1       0.028   1.025  -0.648  0.00  0.00    -0.199 OA
ATOM     14  O   UNL d   1       1.677  -0.867  -0.735  0.00  0.00    -0.199 OA
BRANCH  12  15
ATOM     15  C   UNL d   1       2.244   1.249   0.380  0.00  0.00     0.111 A 
ATOM     16  C   UNL d   1       2.731   1.635   1.602  0.00  0.00     0.099 A 
ATOM     17  S   UNL d   1       3.984   2.787   1.483  0.00  0.00    -0.064 SA
ATOM     18 CL   UNL d   1       2.289   1.140   3.182  0.00  0.00    -0.075 Cl
ATOM     19  C   UNL d   1       3.896   2.772  -0.204  0.00  0.00     0.077 A 
ATOM     20  C   UNL d   1       2.946   1.913  -0.689  0.00  0.00     0.059 A 
ATOM     21 CL   UNL d   1       4.938   3.773  -1.128  0.00  0.00    -0.076 Cl
ENDBRANCH  12  15
ENDBRANCH   1  12
BRANCH   1  22
ATOM     22  C   UNL d   1       0.958  -1.780   1.891  0.00  0.00     0.150 C 
ATOM     23  C   UNL d   1       0.642  -3.056   1.126  0.00  0.00     0.028 C 
ENDBRANCH   1  22
TORSDOF 5
