REMARK  5 active torsions:
REMARK  status: ('A' for Active; 'I' for Inactive)
REMARK    1  A    between atoms: C_7  and  C_2 
REMARK    2  A    between atoms: S_16  and  C_10 
REMARK    3  A    between atoms: C_13  and  C_20 
REMARK       I    between atoms: N_17  and  C_13 
REMARK    4  A    between atoms: C_20  and  S_16 
REMARK    5  A    between atoms: C_24  and  N_17 
ROOT
ATOM      1  C   UNL d   1       3.808   0.411   0.246  0.00  0.00     0.053 A 
ATOM      2  N   UNL d   1       4.603  -0.364  -0.515  0.00  0.00    -0.336 N 
ATOM      3  HN  UNL d   1       4.215  -1.019  -1.194  1.00  0.00     0.168 HD
ATOM      4  C   UNL d   1       5.930  -0.236  -0.340  0.00  0.00     0.145 A 
ATOM      5  N   UNL d   1       6.522   0.615   0.503  0.00  0.00    -0.347 N 
ATOM      6  HN  UNL d   1       7.537   0.691   0.569  1.00  0.00     0.167 HD
ATOM      7  C   UNL d   1       4.336   1.285   1.179  0.00  0.00     0.048 A 
ATOM      8  C   UNL d   1       5.707   1.361   1.255  0.00  0.00     0.092 A 
ENDROOT
BRANCH   1   9
ATOM      9  C   UNL d   1       2.350   0.260  -0.006  0.00  0.00     0.039 A 
ATOM     10  S   UNL d   1       1.236   1.070   1.065  0.00  0.00    -0.079 SA
ATOM     11  C   UNL d   1      -0.057   0.595   0.146  0.00  0.00     0.057 A 
ATOM     12  C   UNL d   1       0.257  -0.177  -0.906  0.00  0.00     0.002 A 
ATOM     13  S   UNL d   1      -1.681   0.931   0.320  0.00  0.00    -0.093 SA
ATOM     14  C   UNL d   1       1.655  -0.459  -1.009  0.00  0.00    -0.030 A 
ATOM     15  C   UNL d   1      -0.877  -0.535  -1.692  0.00  0.00    -0.043 A 
ATOM     16  C   UNL d   1       2.342  -1.335  -2.008  0.00  0.00     0.050 C 
ATOM     17  C   UNL d   1      -0.998  -1.324  -2.950  0.00  0.00     0.049 C 
ATOM     18  C   UNL d   1      -2.015   0.022  -1.101  0.00  0.00     0.058 A 
ENDBRANCH   1   9
BRANCH   4  19
ATOM     19  S   UNL d   1       6.962  -1.418  -1.161  0.00  0.00    -0.085 SA
BRANCH  19  20
ATOM     20  C   UNL d   1       7.883  -1.975   0.306  0.00  0.00     0.185 C 
BRANCH  20  21
ATOM     21  C   UNL d   1       7.005  -2.573   1.401  0.00  0.00     0.227 C 
ATOM     22  N   UNL d   1       5.839  -3.186   0.991  0.00  0.00    -0.357 N 
ATOM     23  H   UNL d   1       5.625  -3.199  -0.001  0.00  0.00     0.162 HD
ATOM     24  O   UNL d   1       7.365  -2.566   2.577  0.00  0.00    -0.273 OA
BRANCH  22  25
ATOM     25  C   UNL d   1       4.943  -3.862   1.918  0.00  0.00     0.076 C 
ATOM     26  C   UNL d   1       3.503  -3.790   1.420  0.00  0.00     0.032 C 
ATOM     27  C   UNL d   1       5.373  -5.314   2.111  0.00  0.00     0.032 C 
ENDBRANCH  22  25
ENDBRANCH  20  21
ENDBRANCH  19  20
ENDBRANCH   4  19
TORSDOF 5
