REMARK  5 active torsions:
REMARK  status: ('A' for Active; 'I' for Inactive)
REMARK    1  A    between atoms: C_3  and  C_1 
REMARK    2  A    between atoms: N_9  and  C_2 
REMARK    3  A    between atoms: O_12  and  C_3 
REMARK    4  A    between atoms: N_7  and  N_9 
REMARK    5  A    between atoms: C_13  and  C_11 
ROOT
ATOM      1  N   UNL d   1       2.663   1.562   0.156  0.00  0.00    -0.300 N 
ATOM      2  H   UNL d   1       3.525   1.041  -0.015  0.00  0.00     0.187 HD
ENDROOT
BRANCH   1   3
ATOM      3  N   UNL d   1       2.712   2.908   0.365  0.00  0.00    -0.311 N 
ATOM      4  C   UNL d   1       3.873   3.469   0.450  0.00  0.00     0.118 C 
ATOM      5  HN  UNL d   1       1.856   3.457   0.452  1.00  0.00     0.186 HD
BRANCH   4   6
ATOM      6  C   UNL d   1       3.974   4.930   0.687  0.00  0.00    -0.019 A 
ATOM      7  C   UNL d   1       2.816   5.720   0.735  0.00  0.00     0.016 A 
ATOM      8  C   UNL d   1       2.911   7.089   0.988  0.00  0.00     0.043 A 
ATOM      9  C   UNL d   1       4.161   7.660   1.192  0.00  0.00     0.116 A 
ATOM     10  C   UNL d   1       5.320   6.887   1.137  0.00  0.00     0.043 A 
ATOM     11  F   UNL d   1       4.254   8.971   1.448  0.00  0.00    -0.206 F 
ATOM     12  C   UNL d   1       5.230   5.515   0.881  0.00  0.00     0.016 A 
ENDBRANCH   4   6
ENDBRANCH   1   3
BRANCH   1  13
ATOM     13  C   UNL d   1       1.461   0.917   0.087  0.00  0.00     0.071 A 
ATOM     14  C   UNL d   1       1.262  -0.421  -0.217  0.00  0.00     0.108 A 
ATOM     15  S   UNL d   1      -0.424  -0.805  -0.224  0.00  0.00    -0.094 SA
ATOM     16  C   UNL d   1      -0.872   0.780   0.202  0.00  0.00     0.053 A 
ATOM     17  C   UNL d   1       0.225   1.595   0.338  0.00  0.00     0.039 A 
BRANCH  14  18
ATOM     18  C   UNL d   1       2.175  -1.507  -0.520  0.00  0.00     0.302 C 
ATOM     19  O   UNL d   1       1.859  -2.657  -0.805  0.00  0.00    -0.259 OA
BRANCH  18  20
ATOM     20  O   UNL d   1       3.480  -1.095  -0.433  0.00  0.00    -0.322 OA
ATOM     21  C   UNL d   1       4.409  -2.157  -0.676  0.00  0.00     0.213 C 
ENDBRANCH  18  20
ENDBRANCH  14  18
ENDBRANCH   1  13
TORSDOF 5
