REMARK  3 active torsions:
REMARK  status: ('A' for Active; 'I' for Inactive)
REMARK    1  A    between atoms: O_5  and  C_2 
REMARK    2  A    between atoms: C_7  and  O_5 
REMARK    3  A    between atoms: O_15  and  C_9 
ROOT
ATOM      1  C   UNL d   1      -0.132   0.312   0.638  0.00  0.00     0.117 A 
ATOM      2  C   UNL d   1       0.438   1.570   0.393  0.00  0.00     0.100 A 
ATOM      3  C   UNL d   1      -1.473  -0.053   0.285  0.00  0.00     0.105 C 
ATOM      4  N   UNL d   1      -2.556  -0.375   0.028  0.00  0.00    -0.191 NA
ATOM      5  C   UNL d   1       0.660  -0.677   1.233  0.00  0.00     0.139 A 
ATOM      6  F   UNL d   1       0.134  -1.875   1.533  0.00  0.00    -0.204 F 
ATOM      7  C   UNL d   1       1.806   1.767   0.655  0.00  0.00     0.039 A 
ATOM      8  C   UNL d   1       2.590   0.755   1.210  0.00  0.00     0.006 A 
ATOM      9  C   UNL d   1       2.007  -0.467   1.520  0.00  0.00     0.044 A 
ENDROOT
BRANCH   2  10
ATOM     10  O   UNL d   1      -0.155   2.664  -0.198  0.00  0.00    -0.309 OA
BRANCH  10  11
ATOM     11  C   UNL d   1      -1.455   3.015   0.063  0.00  0.00     0.076 A 
ATOM     12  C   UNL d   1      -2.131   2.781   1.260  0.00  0.00     0.040 A 
ATOM     13  C   UNL d   1      -3.497   3.077   1.360  0.00  0.00     0.039 A 
ATOM     14  C   UNL d   1      -4.169   3.675   0.293  0.00  0.00     0.068 A 
ATOM     15  C   UNL d   1      -3.454   4.022  -0.854  0.00  0.00     0.039 A 
ATOM     16  C   UNL d   1      -2.104   3.691  -0.971  0.00  0.00     0.040 A 
BRANCH  14  17
ATOM     17  O   UNL d   1      -5.502   3.977   0.250  0.00  0.00    -0.356 OA
ATOM     18  C   UNL d   1      -6.306   3.453   1.300  0.00  0.00     0.210 C 
ENDBRANCH  14  17
ENDBRANCH  10  11
ENDBRANCH   2  10
TORSDOF 3
