REMARK  5 active torsions:
REMARK  status: ('A' for Active; 'I' for Inactive)
REMARK    1  A    between atoms: C_2  and  C_1 
REMARK       I    between atoms: N_4  and  C_2 
REMARK    2  A    between atoms: N_3  and  C_7 
REMARK       I    between atoms: C_6  and  N_4 
REMARK    3  A    between atoms: C_5  and  N_12 
REMARK       I    between atoms: N_12  and  C_6 
REMARK    4  A    between atoms: O_27  and  C_8 
REMARK    5  A    between atoms: O_26  and  C_9 
ROOT
ATOM      1  C   UNL d   1       1.112  -3.911   0.562  0.00  0.00     0.265 C 
ATOM      2  N   UNL d   1       0.218  -3.936   1.622  0.00  0.00    -0.275 N 
ATOM      3  C   UNL d   1      -0.329  -4.956   2.349  0.00  0.00     0.327 C 
ATOM      4  N   UNL d   1       0.100  -6.233   2.072  0.00  0.00    -0.305 N 
ATOM      5  O   UNL d   1       1.766  -4.876   0.183  0.00  0.00    -0.267 OA
ATOM      6  O   UNL d   1      -1.151  -4.658   3.212  0.00  0.00    -0.247 OA
ATOM      7  H   UNL d   1      -0.253  -3.070   1.851  0.00  0.00     0.173 HD
ATOM      8  H   UNL d   1       1.071  -6.253   1.763  0.00  0.00     0.171 HD
ENDROOT
BRANCH   1   9
ATOM      9  C   UNL d   1       1.232  -2.552  -0.061  0.00  0.00     0.102 A 
ATOM     10  C   UNL d   1       2.493  -1.933  -0.226  0.00  0.00     0.108 A 
ATOM     11  C   UNL d   1       2.520  -0.588  -0.649  0.00  0.00     0.069 A 
ATOM     12 CL   UNL d   1       3.950   0.380  -0.779  0.00  0.00    -0.081 Cl
ATOM     13  C   UNL d   1       1.329   0.108  -0.905  0.00  0.00     0.048 A 
ATOM     14  C   UNL d   1       0.098  -0.519  -0.762  0.00  0.00     0.047 A 
ATOM     15  C   UNL d   1       0.044  -1.858  -0.379  0.00  0.00     0.104 A 
ATOM     16 BR   UNL d   1      -1.473   0.512  -1.023  0.00  0.00    -0.048 Br
BRANCH  10  17
ATOM     17  O   UNL d   1       3.569  -2.678   0.179  0.00  0.00    -0.353 OA
ATOM     18  C   UNL d   1       4.822  -2.495  -0.469  0.00  0.00     0.210 C 
ENDBRANCH  10  17
BRANCH  15  19
ATOM     19  O   UNL d   1      -1.182  -2.450  -0.193  0.00  0.00    -0.353 OA
ATOM     20  C   UNL d   1      -1.561  -3.193  -1.356  0.00  0.00     0.210 C 
ENDBRANCH  15  19
ENDBRANCH   1   9
BRANCH   4  21
ATOM     21  C   UNL d   1      -0.319  -7.266   2.963  0.00  0.00     0.080 C 
ATOM     22  C   UNL d   1      -1.683  -7.539   3.203  0.00  0.00     0.065 C 
ATOM     23  C   UNL d   1      -2.073  -8.330   4.285  0.00  0.00     0.062 C 
ATOM     24 CL   UNL d   1      -2.933  -6.979   2.141  0.00  0.00    -0.082 Cl
ATOM     25  C   UNL d   1      -1.093  -8.882   5.115  0.00  0.00     0.106 C 
ATOM     26  C   UNL d   1       0.267  -8.729   4.818  0.00  0.00     0.062 C 
ATOM     27  C   UNL d   1       0.647  -7.935   3.732  0.00  0.00     0.065 C 
ATOM     28 CL   UNL d   1       2.335  -7.715   3.435  0.00  0.00    -0.082 Cl
BRANCH  25  29
ATOM     29  N   UNL d   1      -1.494  -9.605   6.326  0.00  0.00    -0.116 N 
ATOM     30  O   UNL d   1      -2.689  -9.901   6.450  0.00  0.00    -0.532 OA
ATOM     31  O   UNL d   1      -0.612  -9.863   7.156  0.00  0.00    -0.532 OA
ENDBRANCH  25  29
ENDBRANCH   4  21
TORSDOF 5
