REMARK  3 active torsions:
REMARK  status: ('A' for Active; 'I' for Inactive)
REMARK    1  A    between atoms: C_7  and  C_3 
REMARK    2  A    between atoms: O_16  and  C_9 
REMARK    3  A    between atoms: O_17  and  C_11 
ROOT
ATOM      1  N   UNL d   1      -0.741   1.765  -0.473  0.00  0.00    -0.308 N 
ATOM      2  HN  UNL d   1      -0.555   2.657  -0.932  1.00  0.00     0.170 HD
ATOM      3  C   UNL d   1      -1.912   1.526   0.037  0.00  0.00     0.119 A 
ATOM      4  C   UNL d   1       0.251   0.807  -0.392  0.00  0.00     0.259 A 
ATOM      5  N   UNL d   1      -2.261   0.351   0.662  0.00  0.00    -0.341 N 
ATOM      6  C   UNL d   1      -0.046  -0.496   0.255  0.00  0.00     0.059 A 
ATOM      7  C   UNL d   1      -1.341  -0.695   0.735  0.00  0.00     0.049 A 
ATOM      8  O   UNL d   1       1.377   0.993  -0.837  0.00  0.00    -0.267 OA
ATOM      9  C   UNL d   1       0.926  -1.495   0.373  0.00  0.00     0.019 A 
ATOM     10  C   UNL d   1      -1.662  -1.911   1.347  0.00  0.00     0.030 A 
ATOM     11  C   UNL d   1       0.597  -2.706   0.980  0.00  0.00     0.001 A 
ATOM     12  C   UNL d   1      -0.696  -2.915   1.462  0.00  0.00     0.002 A 
ATOM     13  H   UNL d   1      -3.229   0.143   0.874  0.00  0.00     0.167 HD
ENDROOT
BRANCH   3  14
ATOM     14  C   UNL d   1      -2.936   2.612  -0.064  0.00  0.00     0.012 A 
ATOM     15  C   UNL d   1      -2.885   3.512  -1.124  0.00  0.00     0.037 A 
ATOM     16  C   UNL d   1      -3.821   4.543  -1.194  0.00  0.00     0.047 A 
ATOM     17 BR   UNL d   1      -3.712   5.720  -2.688  0.00  0.00    -0.048 Br
ATOM     18  C   UNL d   1      -4.817   4.699  -0.207  0.00  0.00     0.116 A 
ATOM     19  C   UNL d   1      -4.879   3.791   0.858  0.00  0.00     0.103 A 
ATOM     20  C   UNL d   1      -3.928   2.754   0.913  0.00  0.00     0.055 A 
BRANCH  18  21
ATOM     21  O   UNL d   1      -5.648   5.772  -0.375  0.00  0.00    -0.357 OA
ATOM     22  H   UNL d   1      -6.431   5.709   0.177  0.00  0.00     0.218 HD
ENDBRANCH  18  21
BRANCH  19  23
ATOM     23  O   UNL d   1      -5.728   3.714   1.925  0.00  0.00    -0.353 OA
ATOM     24  C   UNL d   1      -6.749   4.665   2.147  0.00  0.00     0.210 C 
ENDBRANCH  19  23
ENDBRANCH   3  14
TORSDOF 3
