REMARK  4 active torsions:
REMARK  status: ('A' for Active; 'I' for Inactive)
REMARK       I    between atoms: N_3  and  C_1 
REMARK    1  A    between atoms: C_7  and  C_1 
REMARK    2  A    between atoms: O_4  and  C_2 
REMARK    3  A    between atoms: C_5  and  N_3 
REMARK    4  A    between atoms: C_6  and  O_4 
ROOT
ATOM      1  C   UNL d   1       0.591   3.549  -0.704  0.00  0.00     0.175 A 
ATOM      2  C   UNL d   1       0.875   2.228  -1.083  0.00  0.00     0.087 A 
ATOM      3  N   UNL d   1       1.395   4.609  -1.013  0.00  0.00    -0.345 N 
ATOM      4  HN  UNL d   1       1.189   5.546  -0.665  1.00  0.00     0.167 HD
ATOM      5  C   UNL d   1       2.038   2.037  -1.846  0.00  0.00     0.035 A 
ATOM      6  C   UNL d   1       2.468   4.377  -1.790  0.00  0.00     0.090 A 
ATOM      7  C   UNL d   1       2.831   3.119  -2.224  0.00  0.00     0.019 A 
ENDROOT
BRANCH   1   8
ATOM      8  O   UNL d   1      -0.461   3.817   0.147  0.00  0.00    -0.288 OA
BRANCH   8   9
ATOM      9  C   UNL d   1      -1.122   5.015  -0.002  0.00  0.00     0.116 A 
ATOM     10  C   UNL d   1      -1.391   5.633  -1.230  0.00  0.00     0.153 A 
ATOM     11  C   UNL d   1      -2.055   6.854  -1.283  0.00  0.00     0.087 A 
ATOM     12  F   UNL d   1      -1.036   5.061  -2.391  0.00  0.00    -0.203 F 
ATOM     13  C   UNL d   1      -2.492   7.435  -0.101  0.00  0.00     0.119 A 
ATOM     14  C   UNL d   1      -2.290   6.811   1.126  0.00  0.00     0.045 A 
ATOM     15  F   UNL d   1      -3.133   8.611  -0.143  0.00  0.00    -0.206 F 
ATOM     16  C   UNL d   1      -1.606   5.595   1.176  0.00  0.00     0.043 A 
ENDBRANCH   8   9
ENDBRANCH   1   8
BRANCH   2  17
ATOM     17  N   UNL d   1       0.144   1.046  -0.779  0.00  0.00    -0.320 N 
ATOM     18  C   UNL d   1      -1.153   0.940  -0.331  0.00  0.00     0.251 C 
ATOM     19  O   UNL d   1      -1.957   1.855  -0.217  0.00  0.00    -0.268 OA
ATOM     20  H   UNL d   1       0.592   0.187  -1.058  0.00  0.00     0.169 HD
BRANCH  18  21
ATOM     21  C   UNL d   1      -1.601  -0.472  -0.043  0.00  0.00    -0.003 C 
ATOM     22  C   UNL d   1      -2.926  -0.699  -0.083  0.00  0.00     0.024 C 
ATOM     23  C   UNL d   1      -0.660  -1.575   0.330  0.00  0.00     0.053 C 
ENDBRANCH  18  21
ENDBRANCH   2  17
TORSDOF 4
