REMARK  2 active torsions:
REMARK  status: ('A' for Active; 'I' for Inactive)
REMARK       I    between atoms: N_2  and  C_1 
REMARK    1  A    between atoms: C_3  and  C_1 
REMARK    2  A    between atoms: C_4  and  N_2 
ROOT
ATOM      1  C   UNL d   1       1.103   0.003   0.215  0.00  0.00     0.257 C 
ATOM      2  N   UNL d   1       0.552  -0.793  -0.771  0.00  0.00    -0.321 N 
ATOM      3  O   UNL d   1       2.240  -0.076   0.667  0.00  0.00    -0.267 OA
ATOM      4  H   UNL d   1      -0.254  -0.432  -1.274  0.00  0.00     0.169 HD
ENDROOT
BRANCH   2   5
ATOM      5  C   UNL d   1       1.190  -1.910  -1.363  0.00  0.00     0.057 A 
ATOM      6  C   UNL d   1       0.817  -2.309  -2.660  0.00  0.00     0.062 A 
ATOM      7  C   UNL d   1       1.454  -3.380  -3.292  0.00  0.00     0.050 A 
ATOM      8 CL   UNL d   1      -0.405  -1.452  -3.536  0.00  0.00    -0.082 Cl
ATOM      9  C   UNL d   1       2.444  -4.084  -2.612  0.00  0.00     0.035 A 
ATOM     10  C   UNL d   1       2.796  -3.731  -1.312  0.00  0.00     0.026 A 
ATOM     11 CL   UNL d   1       3.242  -5.398  -3.384  0.00  0.00    -0.084 Cl
ATOM     12  C   UNL d   1       2.172  -2.645  -0.691  0.00  0.00     0.033 A 
ENDBRANCH   2   5
BRANCH   1  13
ATOM     13  C   UNL d   1       0.240   1.095   0.694  0.00  0.00     0.047 A 
ATOM     14  C   UNL d   1      -1.057   0.846   1.120  0.00  0.00     0.104 A 
ATOM     15  N   UNL d   1      -1.878   1.804   1.608  0.00  0.00    -0.374 N 
ATOM     16  C   UNL d   1      -1.371   3.055   1.690  0.00  0.00     0.087 A 
ATOM     17  HN  UNL d   1      -2.832   1.592   1.901  1.00  0.00     0.164 HD
ATOM     18  C   UNL d   1      -0.085   3.397   1.297  0.00  0.00     0.018 A 
ATOM     19  C   UNL d   1       0.739   2.394   0.794  0.00  0.00     0.020 A 
ENDBRANCH   1  13
TORSDOF 2
