REMARK  6 active torsions:
REMARK  status: ('A' for Active; 'I' for Inactive)
REMARK    1  A    between atoms: C_5  and  C_1 
REMARK    2  A    between atoms: N_4  and  C_2 
REMARK       I    between atoms: C_3  and  N_6 
REMARK       I    between atoms: N_9  and  C_3 
REMARK    3  A    between atoms: C_7  and  N_4 
REMARK    4  A    between atoms: O_16  and  C_5 
REMARK    5  A    between atoms: N_6  and  C_8 
REMARK    6  A    between atoms: C_15  and  N_9 
ROOT
ATOM      1  C   UNL d   1       3.260  -0.282  -0.613  0.00  0.00     0.059 A 
ATOM      2  C   UNL d   1       3.802  -0.156   0.685  0.00  0.00     0.063 A 
ATOM      3  C   UNL d   1       4.131  -0.131  -1.704  0.00  0.00     0.032 A 
ATOM      4  C   UNL d   1       5.132   0.247   0.864  0.00  0.00     0.032 A 
ATOM      5  C   UNL d   1       5.973   0.407  -0.235  0.00  0.00     0.002 A 
ATOM      6  C   UNL d   1       5.476   0.201  -1.519  0.00  0.00     0.002 A 
ENDROOT
BRANCH   2   7
ATOM      7  N   UNL d   1       3.092  -0.471   1.855  0.00  0.00    -0.307 N 
ATOM      8  C   UNL d   1       2.499  -1.665   2.190  0.00  0.00     0.325 C 
ATOM      9  N   UNL d   1       2.690  -2.706   1.311  0.00  0.00    -0.309 N 
ATOM     10  O   UNL d   1       1.935  -1.732   3.276  0.00  0.00    -0.247 OA
ATOM     11  H   UNL d   1       3.308  -2.510   0.540  0.00  0.00     0.170 HD
ATOM     12  H   UNL d   1       3.304   0.058   2.692  0.00  0.00     0.170 HD
BRANCH   9  13
ATOM     13  C   UNL d   1       2.328  -4.056   1.495  0.00  0.00     0.036 A 
ATOM     14  C   UNL d   1       1.532  -4.509   2.550  0.00  0.00     0.031 A 
ATOM     15  C   UNL d   1       1.300  -5.877   2.729  0.00  0.00     0.026 A 
ATOM     16  C   UNL d   1       1.850  -6.797   1.843  0.00  0.00     0.034 A 
ATOM     17  C   UNL d   1       2.602  -6.358   0.756  0.00  0.00     0.026 A 
ATOM     18 CL   UNL d   1       1.615  -8.481   2.100  0.00  0.00    -0.084 Cl
ATOM     19  C   UNL d   1       2.833  -4.989   0.579  0.00  0.00     0.031 A 
ENDBRANCH   9  13
ENDBRANCH   2   7
BRANCH   1  20
ATOM     20  N   UNL d   1       1.907  -0.596  -0.905  0.00  0.00    -0.356 N 
ATOM     21  H   UNL d   1       1.826  -1.529  -1.299  0.00  0.00     0.166 HD
BRANCH  20  22
ATOM     22  C   UNL d   1       0.790  -0.184  -0.191  0.00  0.00     0.032 C 
ATOM     23  C   UNL d   1       0.455   1.045   0.253  0.00  0.00     0.050 C 
ATOM     24  C   UNL d   1      -0.826   1.175   1.010  0.00  0.00     0.121 C 
ATOM     25  S   UNL d   1      -1.722  -0.372   0.727  0.00  0.00    -0.158 SA
ATOM     26  C   UNL d   1      -0.268  -1.235   0.087  0.00  0.00     0.132 C 
BRANCH  23  27
ATOM     27  C   UNL d   1       1.183   2.296  -0.062  0.00  0.00     0.291 C 
ATOM     28  O   UNL d   1       1.790   2.514  -1.097  0.00  0.00    -0.260 OA
BRANCH  27  29
ATOM     29  O   UNL d   1       0.978   3.187   0.943  0.00  0.00    -0.323 OA
ATOM     30  C   UNL d   1       1.510   4.502   0.744  0.00  0.00     0.213 C 
ENDBRANCH  27  29
ENDBRANCH  23  27
ENDBRANCH  20  22
ENDBRANCH   1  20
TORSDOF 6
