REMARK  2 active torsions:
REMARK  status: ('A' for Active; 'I' for Inactive)
REMARK    1  A    between atoms: C_6  and  C_1 
REMARK    2  A    between atoms: N_7  and  C_6 
ROOT
ATOM      1  C   UNL d   1       0.943  -3.619  -0.982  0.00  0.00     0.001 A 
ATOM      2  C   UNL d   1       0.067  -3.399  -2.027  0.00  0.00     0.084 A 
ATOM      3  S   UNL d   1      -0.329  -4.795  -2.906  0.00  0.00    -0.065 SA
ATOM      4  C   UNL d   1       0.657  -5.739  -1.911  0.00  0.00     0.076 A 
ATOM      5  C   UNL d   1       1.287  -5.019  -0.928  0.00  0.00     0.042 A 
ATOM      6 CL   UNL d   1      -0.647  -1.905  -2.502  0.00  0.00    -0.076 Cl
ATOM      7 CL   UNL d   1       0.781  -7.428  -2.184  0.00  0.00    -0.076 Cl
ENDROOT
BRANCH   1   8
ATOM      8  C   UNL d   1       1.436  -2.589  -0.008  0.00  0.00     0.313 C 
BRANCH   8   9
ATOM      9  N   UNL d   1       2.915  -2.524  -0.008  0.00  0.00     0.094 N 
ATOM     10  C   UNL d   1       3.407  -1.863  -1.240  0.00  0.00     0.283 C 
ATOM     11  C   UNL d   1       4.934  -1.736  -1.335  0.00  0.00     0.104 C 
ATOM     12  S   UNL d   1       5.620  -0.725   0.008  0.00  0.00    -0.166 SA
ATOM     13  C   UNL d   1       4.867  -1.651   1.374  0.00  0.00     0.104 C 
ATOM     14  C   UNL d   1       3.349  -1.786   1.202  0.00  0.00     0.283 C 
ENDBRANCH   8   9
ENDBRANCH   1   8
TORSDOF 2
