REMARK  5 active torsions:
REMARK  status: ('A' for Active; 'I' for Inactive)
REMARK    1  A    between atoms: O_5  and  N_1 
REMARK    2  A    between atoms: C_6  and  C_3 
REMARK    3  A    between atoms: C_7  and  C_3 
REMARK    4  A    between atoms: C_4  and  O_5 
REMARK    5  A    between atoms: C_8  and  C_4 
ROOT
ATOM      1  N   UNL d   1       1.092   0.005  -0.034  0.00  0.00    -0.256 N 
ATOM      2  HN  UNL d   1       0.559  -0.258  -0.864  1.00  0.00     0.195 HD
ATOM      3  C   UNL d   1       0.518   0.376   1.078  0.00  0.00     0.075 C 
ENDROOT
BRANCH   3   4
ATOM      4  C   UNL d   1       1.231   0.795   2.333  0.00  0.00    -0.007 A 
ATOM      5  C   UNL d   1       0.743   1.884   3.079  0.00  0.00     0.017 A 
ATOM      6  C   UNL d   1       1.362   2.255   4.275  0.00  0.00     0.043 A 
ATOM      7  C   UNL d   1       2.494   1.571   4.700  0.00  0.00     0.116 A 
ATOM      8  C   UNL d   1       3.004   0.508   3.964  0.00  0.00     0.043 A 
ATOM      9  F   UNL d   1       3.098   1.936   5.837  0.00  0.00    -0.206 F 
ATOM     10  C   UNL d   1       2.356   0.103   2.795  0.00  0.00     0.017 A 
ENDBRANCH   3   4
BRANCH   3  11
ATOM     11  C   UNL d   1      -0.989   0.383   1.075  0.00  0.00    -0.007 A 
ATOM     12  C   UNL d   1      -1.729   0.111   2.237  0.00  0.00     0.017 A 
ATOM     13  C   UNL d   1      -3.125   0.169   2.214  0.00  0.00     0.043 A 
ATOM     14  C   UNL d   1      -3.780   0.465   1.024  0.00  0.00     0.116 A 
ATOM     15  C   UNL d   1      -3.068   0.697  -0.145  0.00  0.00     0.043 A 
ATOM     16  F   UNL d   1      -5.119   0.522   1.007  0.00  0.00    -0.206 F 
ATOM     17  C   UNL d   1      -1.671   0.655  -0.123  0.00  0.00     0.017 A 
ENDBRANCH   3  11
BRANCH   1  18
ATOM     18  O   UNL d   1       2.496  -0.006  -0.004  0.00  0.00    -0.194 OA
BRANCH  18  19
ATOM     19  C   UNL d   1       2.978  -0.457  -1.201  0.00  0.00     0.315 C 
ATOM     20  O   UNL d   1       2.374  -0.560  -2.261  0.00  0.00    -0.257 OA
BRANCH  19  21
ATOM     21  C   UNL d   1       4.379  -0.938  -1.033  0.00  0.00     0.041 A 
ATOM     22  C   UNL d   1       5.184  -0.590   0.062  0.00  0.00     0.019 A 
ATOM     23  C   UNL d   1       6.470  -1.131   0.191  0.00  0.00     0.025 A 
ATOM     24  C   UNL d   1       6.956  -2.012  -0.777  0.00  0.00     0.034 A 
ATOM     25  C   UNL d   1       6.173  -2.350  -1.877  0.00  0.00     0.025 A 
ATOM     26 CL   UNL d   1       8.528  -2.688  -0.606  0.00  0.00    -0.084 Cl
ATOM     27  C   UNL d   1       4.889  -1.812  -2.007  0.00  0.00     0.019 A 
ENDBRANCH  19  21
ENDBRANCH  18  19
ENDBRANCH   1  18
TORSDOF 5
