REMARK  8 active torsions:
REMARK  status: ('A' for Active; 'I' for Inactive)
REMARK    1  A    between atoms: O_3  and  C_1 
REMARK    2  A    between atoms: C_8  and  O_3 
REMARK    3  A    between atoms: O_6  and  C_5 
REMARK    4  A    between atoms: C_9  and  O_6 
REMARK    5  A    between atoms: C_16  and  C_7 
REMARK    6  A    between atoms: C_10  and  C_8 
REMARK    7  A    between atoms: C_11  and  C_9 
REMARK    8  A    between atoms: C_12  and  C_16 
ROOT
ATOM      1  N   UNL d   1       0.946   2.245  -3.652  0.00  0.00    -0.197 NA
ATOM      2  C   UNL d   1       1.671   2.139  -2.756  0.00  0.00     0.059 C 
ATOM      3  C   UNL d   1       2.608   2.024  -1.629  0.00  0.00     0.128 C 
ENDROOT
BRANCH   3   4
ATOM      4  C   UNL d   1       1.900   2.083  -0.272  0.00  0.00     0.055 C 
BRANCH   4   5
ATOM      5  C   UNL d   1       0.874   0.990  -0.031  0.00  0.00    -0.021 C 
ATOM      6  C   UNL d   1       1.222  -0.387  -0.004  0.00  0.00     0.108 C 
ATOM      7  C   UNL d   1       0.197  -1.349   0.057  0.00  0.00     0.103 C 
ATOM      8  C   UNL d   1      -1.114  -0.918   0.343  0.00  0.00     0.040 C 
ATOM      9  C   UNL d   1      -1.445   0.432   0.379  0.00  0.00     0.003 C 
ATOM     10  C   UNL d   1      -0.463   1.381   0.152  0.00  0.00     0.010 C 
BRANCH   6  11
ATOM     11  O   UNL d   1       2.569  -0.610  -0.100  0.00  0.00    -0.343 OA
BRANCH  11  12
ATOM     12  C   UNL d   1       3.160  -1.784   0.457  0.00  0.00     0.214 C 
BRANCH  12  13
ATOM     13  C   UNL d   1       3.412  -1.793   1.954  0.00  0.00    -0.034 A 
ATOM     14  C   UNL d   1       3.853  -2.990   2.546  0.00  0.00     0.009 A 
ATOM     15  C   UNL d   1       4.177  -3.052   3.903  0.00  0.00     0.001 A 
ATOM     16  C   UNL d   1       4.067  -1.913   4.694  0.00  0.00     0.000 A 
ATOM     17  C   UNL d   1       3.638  -0.715   4.125  0.00  0.00     0.001 A 
ATOM     18  C   UNL d   1       3.318  -0.651   2.763  0.00  0.00     0.009 A 
ENDBRANCH  12  13
ENDBRANCH  11  12
ENDBRANCH   6  11
BRANCH   7  19
ATOM     19  O   UNL d   1       0.465  -2.670  -0.265  0.00  0.00    -0.344 OA
BRANCH  19  20
ATOM     20  C   UNL d   1      -0.692  -3.390  -0.729  0.00  0.00     0.214 C 
BRANCH  20  21
ATOM     21  C   UNL d   1      -0.458  -4.634  -1.557  0.00  0.00    -0.034 A 
ATOM     22  C   UNL d   1       0.766  -5.296  -1.657  0.00  0.00     0.009 A 
ATOM     23  C   UNL d   1       0.868  -6.463  -2.426  0.00  0.00     0.001 A 
ATOM     24  C   UNL d   1      -0.247  -6.977  -3.093  0.00  0.00     0.000 A 
ATOM     25  C   UNL d   1      -1.472  -6.329  -2.996  0.00  0.00     0.001 A 
ATOM     26  C   UNL d   1      -1.575  -5.170  -2.231  0.00  0.00     0.009 A 
ENDBRANCH  20  21
ENDBRANCH  19  20
ENDBRANCH   7  19
ENDBRANCH   4   5
ENDBRANCH   3   4
TORSDOF 8
