REMARK  6 active torsions:
REMARK  status: ('A' for Active; 'I' for Inactive)
REMARK       I    between atoms: C_2  and  N_1 
REMARK    1  A    between atoms: C_5  and  C_2 
REMARK    2  A    between atoms: S_4  and  C_5 
REMARK    3  A    between atoms: C_10  and  S_4 
REMARK    4  A    between atoms: C_8  and  O_9 
REMARK    5  A    between atoms: O_9  and  C_11 
REMARK    6  A    between atoms: C_11  and  C_10 
ROOT
ATOM      1  S   UNL d   1      -5.012   1.375   1.201  0.00  0.00    -0.158 SA
ENDROOT
BRANCH   1   2
ATOM      2  C   UNL d   1      -3.601   0.344   0.695  0.00  0.00     0.176 C 
BRANCH   2   3
ATOM      3  C   UNL d   1      -2.345   1.185   0.531  0.00  0.00     0.229 C 
ATOM      4  N   UNL d   1      -2.070   1.717  -0.708  0.00  0.00    -0.351 N 
ATOM      5  C   UNL d   1      -2.893   1.692  -1.904  0.00  0.00     0.126 C 
ATOM      6  C   UNL d   1      -0.848   2.470  -0.931  0.00  0.00     0.126 C 
ATOM      7  C   UNL d   1      -1.889   1.915  -3.023  0.00  0.00     0.021 C 
ATOM      8  C   UNL d   1      -0.886   2.879  -2.398  0.00  0.00     0.021 C 
ATOM      9  O   UNL d   1      -1.576   1.343   1.484  0.00  0.00    -0.273 OA
ENDBRANCH   2   3
ENDBRANCH   1   2
BRANCH   1  10
ATOM     10  C   UNL d   1      -6.286   0.081   1.426  0.00  0.00     0.101 C 
BRANCH  10  11
ATOM     11  C   UNL d   1      -5.902  -0.976   2.458  0.00  0.00     0.186 C 
BRANCH  11  12
ATOM     12  O   UNL d   1      -6.989  -1.894   2.623  0.00  0.00    -0.350 OA
BRANCH  12  13
ATOM     13  C   UNL d   1      -6.763  -2.936   3.484  0.00  0.00     0.068 A 
ATOM     14  C   UNL d   1      -5.591  -3.156   4.213  0.00  0.00     0.037 A 
ATOM     15  C   UNL d   1      -5.485  -4.261   5.065  0.00  0.00     0.003 A 
ATOM     16  C   UNL d   1      -6.553  -5.145   5.200  0.00  0.00     0.000 A 
ATOM     17  C   UNL d   1      -7.723  -4.932   4.475  0.00  0.00     0.003 A 
ATOM     18  C   UNL d   1      -7.827  -3.833   3.621  0.00  0.00     0.037 A 
ENDBRANCH  12  13
ENDBRANCH  11  12
ENDBRANCH  10  11
ENDBRANCH   1  10
TORSDOF 6
