REMARK  6 active torsions:
REMARK  status: ('A' for Active; 'I' for Inactive)
REMARK    1  A    between atoms: N_7  and  S_1 
REMARK    2  A    between atoms: C_15  and  S_1 
REMARK    3  A    between atoms: C_2  and  C_6 
REMARK    4  A    between atoms: C_5  and  C_8 
REMARK       I    between atoms: C_6  and  N_11 
REMARK    5  A    between atoms: N_11  and  N_7 
REMARK    6  A    between atoms: C_9  and  C_17 
ROOT
ATOM      1  C   UNL d   1       0.536   2.790  -2.820  0.00  0.00     0.277 C 
ATOM      2  N   UNL d   1       0.961   2.139  -1.675  0.00  0.00    -0.256 N 
ATOM      3  O   UNL d   1      -0.203   2.218  -3.624  0.00  0.00    -0.265 OA
ATOM      4  H   UNL d   1       1.508   2.606  -0.956  0.00  0.00     0.191 HD
ENDROOT
BRANCH   2   5
ATOM      5  N   UNL d   1       0.430   0.798  -1.370  0.00  0.00    -0.220 N 
ATOM      6  H   UNL d   1      -0.313   0.465  -1.996  0.00  0.00     0.200 HD
BRANCH   5   7
ATOM      7  S   UNL d   1       0.328   0.396   0.271  0.00  0.00     0.276 S 
ATOM      8  O   UNL d   1      -0.750   1.186   0.828  0.00  0.00    -0.199 OA
ATOM      9  O   UNL d   1       1.665   0.481   0.818  0.00  0.00    -0.199 OA
BRANCH   7  10
ATOM     10  C   UNL d   1      -0.176  -1.308   0.276  0.00  0.00     0.081 A 
ATOM     11  C   UNL d   1       0.796  -2.318   0.275  0.00  0.00     0.041 A 
ATOM     12  C   UNL d   1       0.419  -3.660   0.464  0.00  0.00     0.049 A 
ATOM     13  C   UNL d   1      -0.941  -3.965   0.647  0.00  0.00     0.016 A 
ATOM     14  C   UNL d   1      -1.906  -2.955   0.642  0.00  0.00     0.002 A 
ATOM     15  C   UNL d   1      -1.525  -1.625   0.462  0.00  0.00     0.025 A 
BRANCH  12  16
ATOM     16  C   UNL d   1       1.444  -4.769   0.519  0.00  0.00     0.417 C 
ATOM     17  F   UNL d   1       2.721  -4.341   0.322  0.00  0.00    -0.166 F 
ATOM     18  F   UNL d   1       1.446  -5.414   1.718  0.00  0.00    -0.166 F 
ATOM     19  F   UNL d   1       1.222  -5.729  -0.421  0.00  0.00    -0.166 F 
ENDBRANCH  12  16
ENDBRANCH   7  10
ENDBRANCH   5   7
ENDBRANCH   2   5
BRANCH   1  20
ATOM     20  C   UNL d   1       0.991   4.164  -3.002  0.00  0.00     0.077 A 
ATOM     21  S   UNL d   1       1.906   5.008  -1.824  0.00  0.00    -0.083 SA
ATOM     22  C   UNL d   1       1.989   6.436  -2.780  0.00  0.00     0.033 A 
ATOM     23  C   UNL d   1       2.616   7.661  -2.494  0.00  0.00     0.038 A 
ATOM     24  C   UNL d   1       1.319   6.265  -3.990  0.00  0.00     0.050 A 
ATOM     25  C   UNL d   1       2.546   8.669  -3.465  0.00  0.00     0.064 A 
ATOM     26  C   UNL d   1       1.856   8.400  -4.636  0.00  0.00     0.104 A 
ATOM     27  N   UNL d   1       1.238   7.240  -4.934  0.00  0.00    -0.364 N 
ATOM     28  HN  UNL d   1       0.741   7.102  -5.813  1.00  0.00     0.165 HD
ATOM     29  C   UNL d   1       0.746   4.967  -4.101  0.00  0.00     0.055 A 
BRANCH  25  30
ATOM     30  C   UNL d   1       3.190  10.010  -3.286  0.00  0.00     0.418 C 
ATOM     31  F   UNL d   1       3.812  10.161  -2.085  0.00  0.00    -0.166 F 
ATOM     32  F   UNL d   1       4.139  10.258  -4.231  0.00  0.00    -0.166 F 
ATOM     33  F   UNL d   1       2.298  11.034  -3.377  0.00  0.00    -0.166 F 
ENDBRANCH  25  30
ENDBRANCH   1  20
TORSDOF 6
