REMARK  5 active torsions:
REMARK  status: ('A' for Active; 'I' for Inactive)
REMARK    1  A    between atoms: N_5  and  C_1 
REMARK    2  A    between atoms: C_3  and  C_2 
REMARK       I    between atoms: N_6  and  C_3 
REMARK    3  A    between atoms: O_20  and  C_4 
REMARK       I    between atoms: C_8  and  N_6 
REMARK       I    between atoms: N_11  and  C_8 
REMARK    4  A    between atoms: O_24  and  C_9 
REMARK    5  A    between atoms: C_17  and  N_11 
ROOT
ATOM      1  C   UNL d   1       2.243   2.607  -0.497  0.00  0.00     0.265 C 
ATOM      2  N   UNL d   1       3.061   2.210  -1.560  0.00  0.00    -0.275 N 
ATOM      3  C   UNL d   1       4.164   2.742  -2.186  0.00  0.00     0.327 C 
ATOM      4  N   UNL d   1       4.421   4.075  -2.043  0.00  0.00    -0.309 N 
ATOM      5  O   UNL d   1       2.162   3.757  -0.086  0.00  0.00    -0.267 OA
ATOM      6  O   UNL d   1       4.831   1.947  -2.849  0.00  0.00    -0.247 OA
ATOM      7  H   UNL d   1       3.069   1.226  -1.774  0.00  0.00     0.173 HD
ATOM      8  H   UNL d   1       3.648   4.639  -1.698  0.00  0.00     0.170 HD
ENDROOT
BRANCH   1   9
ATOM      9  C   UNL d   1       1.381   1.461   0.006  0.00  0.00     0.103 C 
ATOM     10  C   UNL d   1       2.001   0.202   0.141  0.00  0.00     0.119 C 
ATOM     11  C   UNL d   1       1.232  -0.958   0.125  0.00  0.00     0.139 C 
ATOM     12  C   UNL d   1      -0.147  -0.868   0.280  0.00  0.00     0.065 C 
ATOM     13  C   UNL d   1      -0.759   0.390   0.398  0.00  0.00     0.070 C 
ATOM     14  C   UNL d   1      -0.020   1.579   0.196  0.00  0.00     0.108 C 
ATOM     15 CL   UNL d   1      -2.447   0.288   0.773  0.00  0.00    -0.081 Cl
BRANCH  10  16
ATOM     16  O   UNL d   1       3.358   0.170   0.337  0.00  0.00    -0.352 OA
ATOM     17  C   UNL d   1       3.643  -0.202   1.698  0.00  0.00     0.210 C 
ENDBRANCH  10  16
BRANCH  11  18
ATOM     18  N   UNL d   1       1.833  -2.263  -0.140  0.00  0.00    -0.113 N 
ATOM     19  O   UNL d   1       2.874  -2.294  -0.814  0.00  0.00    -0.532 OA
ATOM     20  O   UNL d   1       1.238  -3.260   0.283  0.00  0.00    -0.532 OA
ENDBRANCH  11  18
BRANCH  14  21
ATOM     21  O   UNL d   1      -0.484   2.862   0.141  0.00  0.00    -0.353 OA
ATOM     22  C   UNL d   1      -1.853   3.171   0.350  0.00  0.00     0.210 C 
ENDBRANCH  14  21
ENDBRANCH   1   9
BRANCH   4  23
ATOM     23  C   UNL d   1       5.545   4.720  -2.623  0.00  0.00     0.038 A 
ATOM     24  C   UNL d   1       6.729   4.033  -2.928  0.00  0.00     0.055 A 
ATOM     25  C   UNL d   1       7.810   4.678  -3.544  0.00  0.00     0.058 A 
ATOM     26 CL   UNL d   1       9.224   3.742  -3.879  0.00  0.00    -0.082 Cl
ATOM     27  C   UNL d   1       7.715   6.032  -3.863  0.00  0.00     0.055 A 
ATOM     28  C   UNL d   1       6.550   6.735  -3.540  0.00  0.00     0.028 A 
ATOM     29 CL   UNL d   1       8.993   6.891  -4.646  0.00  0.00    -0.083 Cl
ATOM     30  C   UNL d   1       5.475   6.087  -2.909  0.00  0.00     0.031 A 
ENDBRANCH   4  23
TORSDOF 5
