REMARK  7 active torsions:
REMARK  status: ('A' for Active; 'I' for Inactive)
REMARK    1  A    between atoms: C_12  and  C_1 
REMARK    2  A    between atoms: S_13  and  C_2 
REMARK    3  A    between atoms: N_4  and  C_3 
REMARK    4  A    between atoms: C_9  and  C_14 
REMARK    5  A    between atoms: C_10  and  S_13 
REMARK    6  A    between atoms: O_23  and  C_12 
REMARK    7  A    between atoms: C_25  and  O_23 
ROOT
ATOM      1  C   UNL d   1       2.932   2.668  -2.245  0.00  0.00     0.120 A 
ATOM      2  C   UNL d   1       1.776   2.952  -1.505  0.00  0.00     0.040 A 
ATOM      3  C   UNL d   1       3.079   3.056  -3.589  0.00  0.00     0.053 A 
ATOM      4  C   UNL d   1       2.051   3.761  -4.228  0.00  0.00     0.050 A 
ATOM      5  C   UNL d   1       0.741   3.627  -2.170  0.00  0.00     0.022 A 
ATOM      6  C   UNL d   1       0.874   4.026  -3.509  0.00  0.00     0.017 A 
ENDROOT
BRANCH   2   7
ATOM      7  S   UNL d   1       1.583   2.628   0.243  0.00  0.00    -0.063 SA
BRANCH   7   8
ATOM      8  C   UNL d   1       0.662   1.147   0.155  0.00  0.00     0.118 A 
ATOM      9  S   UNL d   1       1.385  -0.394   0.271  0.00  0.00    -0.057 SA
ATOM     10  C   UNL d   1      -0.166  -1.129   0.148  0.00  0.00     0.104 A 
ATOM     11  C   UNL d   1      -1.139  -0.139   0.071  0.00  0.00     0.030 A 
ATOM     12  N   UNL d   1      -0.646   1.160   0.054  0.00  0.00    -0.347 N 
ATOM     13  C   UNL d   1      -2.615  -0.313  -0.018  0.00  0.00     0.070 C 
ATOM     14  HN  UNL d   1      -1.218   2.001  -0.026  1.00  0.00     0.167 HD
BRANCH  10  15
ATOM     15  C   UNL d   1      -0.254  -2.572   0.092  0.00  0.00     0.302 C 
ATOM     16  O   UNL d   1       0.688  -3.355   0.122  0.00  0.00    -0.259 OA
BRANCH  15  17
ATOM     17  O   UNL d   1      -1.548  -2.948  -0.114  0.00  0.00    -0.317 OA
BRANCH  17  18
ATOM     18  C   UNL d   1      -1.735  -4.250  -0.682  0.00  0.00     0.174 C 
ATOM     19  C   UNL d   1      -1.678  -4.108  -2.193  0.00  0.00     0.034 C 
ENDBRANCH  17  18
ENDBRANCH  15  17
ENDBRANCH  10  15
ENDBRANCH   7   8
ENDBRANCH   2   7
BRANCH   1  20
ATOM     20  N   UNL d   1       4.046   1.957  -1.649  0.00  0.00    -0.114 N 
ATOM     21  O   UNL d   1       4.668   2.527  -0.743  0.00  0.00    -0.532 OA
ATOM     22  O   UNL d   1       4.324   0.855  -2.137  0.00  0.00    -0.532 OA
ENDBRANCH   1  20
BRANCH   4  23
ATOM     23  C   UNL d   1       2.202   4.253  -5.650  0.00  0.00     0.417 C 
ATOM     24  F   UNL d   1       3.417   3.967  -6.193  0.00  0.00    -0.166 F 
ATOM     25  F   UNL d   1       1.277   3.716  -6.489  0.00  0.00    -0.166 F 
ATOM     26  F   UNL d   1       2.060   5.604  -5.745  0.00  0.00    -0.166 F 
ENDBRANCH   4  23
TORSDOF 7
