REMARK  2 active torsions:
REMARK  status: ('A' for Active; 'I' for Inactive)
REMARK    1  A    between atoms: C_3  and  C_1 
REMARK    2  A    between atoms: O_9  and  C_3 
ROOT
ATOM      1  C   UNL d   1      -0.383   2.079   0.046  0.00  0.00     0.049 A 
ATOM      2  C   UNL d   1       0.561   1.012   0.003  0.00  0.00    -0.006 A 
ATOM      3  C   UNL d   1       0.065  -0.317  -0.012  0.00  0.00     0.014 A 
ATOM      4  C   UNL d   1      -1.766   1.823   0.087  0.00  0.00     0.022 A 
ATOM      5  C   UNL d   1      -1.323  -0.536   0.007  0.00  0.00     0.127 A 
ATOM      6  C   UNL d   1      -2.233   0.514   0.055  0.00  0.00     0.044 A 
ATOM      7  F   UNL d   1      -1.807  -1.787  -0.014  0.00  0.00    -0.205 F 
ATOM      8  C   UNL d   1       1.968   1.177  -0.033  0.00  0.00     0.013 A 
ATOM      9  C   UNL d   1       0.954  -1.406  -0.036  0.00  0.00     0.015 A 
ATOM     10  C   UNL d   1       2.839   0.084  -0.056  0.00  0.00     0.001 A 
ATOM     11  C   UNL d   1       2.332  -1.208  -0.053  0.00  0.00     0.001 A 
ENDROOT
BRANCH   1  12
ATOM     12  C   UNL d   1       0.056   3.500   0.114  0.00  0.00     0.177 C 
ATOM     13  O   UNL d   1       0.946   3.906   0.837  0.00  0.00    -0.646 OA
BRANCH  12  14
ATOM     14  O   UNL d   1      -0.643   4.305  -0.719  0.00  0.00    -0.773 OA
ATOM     15  H   UNL d   1      -1.243   3.847  -1.337  0.00  0.00     0.167 HD
ENDBRANCH  12  14
ENDBRANCH   1  12
TORSDOF 2
