REMARK  3 active torsions:
REMARK  status: ('A' for Active; 'I' for Inactive)
REMARK    1  A    between atoms: C_8  and  C_1 
REMARK    2  A    between atoms: C_9  and  N_4 
REMARK    3  A    between atoms: N_21  and  C_12 
ROOT
ATOM      1  C   UNL d   1      -0.332  -1.135   0.021  0.00  0.00     0.100 A 
ATOM      2  N   UNL d   1       0.835   0.672  -0.321  0.00  0.00    -0.235 N 
ATOM      3  HN  UNL d   1       1.602   1.300  -0.561  1.00  0.00     0.209 HD
ATOM      4  N   UNL d   1      -0.447   1.046  -0.084  0.00  0.00    -0.244 N 
ATOM      5  N   UNL d   1       0.925  -0.637  -0.189  0.00  0.00    -0.282 N 
ATOM      6  HN  UNL d   1       1.784  -1.185  -0.236  1.00  0.00     0.188 HD
ATOM      7  C   UNL d   1      -1.243  -0.086   0.052  0.00  0.00     0.062 A 
ATOM      8  C   UNL d   1      -2.727  -0.113   0.068  0.00  0.00     0.073 C 
ENDROOT
BRANCH   1   9
ATOM      9  C   UNL d   1      -0.591  -2.567   0.112  0.00  0.00     0.066 A 
ATOM     10  N   UNL d   1      -1.869  -2.969   0.287  0.00  0.00    -0.331 N 
ATOM     11  C   UNL d   1      -2.084  -4.285   0.328  0.00  0.00     0.155 A 
ATOM     12  HN  UNL d   1      -2.632  -2.298   0.382  1.00  0.00     0.168 HD
ATOM     13  N   UNL d   1      -1.134  -5.221   0.258  0.00  0.00    -0.343 N 
ATOM     14  C   UNL d   1       0.126  -4.785   0.098  0.00  0.00     0.093 A 
ATOM     15  HN  UNL d   1      -1.354  -6.215   0.323  1.00  0.00     0.167 HD
ATOM     16  C   UNL d   1       0.459  -3.458   0.014  0.00  0.00     0.049 A 
BRANCH  11  17
ATOM     17  N   UNL d   1      -3.379  -4.724   0.502  0.00  0.00    -0.274 NA
ATOM     18  H   UNL d   1      -3.924  -4.021   0.981  0.00  0.00     0.127 HD
ATOM     19  H   UNL d   1      -3.367  -5.654   0.897  0.00  0.00     0.127 HD
ENDBRANCH  11  17
ENDBRANCH   1   9
BRANCH   4  20
ATOM     20  C   UNL d   1      -0.759   2.429  -0.014  0.00  0.00     0.059 A 
ATOM     21  C   UNL d   1       0.027   3.336  -0.747  0.00  0.00     0.057 A 
ATOM     22  C   UNL d   1      -0.247   4.707  -0.707  0.00  0.00     0.058 A 
ATOM     23 CL   UNL d   1       0.723   5.750  -1.685  0.00  0.00    -0.082 Cl
ATOM     24  C   UNL d   1      -1.284   5.186   0.099  0.00  0.00     0.055 A 
ATOM     25  C   UNL d   1      -2.046   4.288   0.855  0.00  0.00     0.028 A 
ATOM     26 CL   UNL d   1      -1.669   6.865   0.216  0.00  0.00    -0.083 Cl
ATOM     27  C   UNL d   1      -1.789   2.913   0.799  0.00  0.00     0.033 A 
ENDBRANCH   4  20
TORSDOF 3
