REMARK  3 active torsions:
REMARK  status: ('A' for Active; 'I' for Inactive)
REMARK    1  A    between atoms: C_8  and  C_7 
REMARK    2  A    between atoms: O_14  and  C_9 
REMARK    3  A    between atoms: O_15  and  C_13 
ROOT
ATOM      1  C   UNL d   1       1.510  -0.025   0.882  0.00  0.00     0.101 C 
ATOM      2  N   UNL d   1      -0.620   1.103   0.954  0.00  0.00    -0.299 N 
ATOM      3  N   UNL d   1      -0.512  -1.139   1.557  0.00  0.00    -0.299 N 
ATOM      4  C   UNL d   1       0.725   1.224   0.714  0.00  0.00     0.263 C 
ATOM      5  C   UNL d   1       0.848  -1.240   1.423  0.00  0.00     0.263 C 
ATOM      6  C   UNL d   1      -1.269  -0.027   1.345  0.00  0.00     0.181 C 
ATOM      7  C   UNL d   1       2.787   0.015   0.456  0.00  0.00     0.037 C 
ATOM      8  S   UNL d   1      -2.914  -0.044   1.567  0.00  0.00    -0.040 SA
ATOM      9  O   UNL d   1       1.208   2.292   0.351  0.00  0.00    -0.267 OA
ATOM     10  O   UNL d   1       1.430  -2.257   1.778  0.00  0.00    -0.267 OA
ATOM     11  H   UNL d   1      -1.171   1.938   0.805  0.00  0.00     0.171 HD
ATOM     12  H   UNL d   1      -0.974  -1.969   1.909  0.00  0.00     0.171 HD
ENDROOT
BRANCH   7  13
ATOM     13  C   UNL d   1       3.707  -1.124   0.348  0.00  0.00     0.001 A 
ATOM     14  C   UNL d   1       3.759  -1.980  -0.781  0.00  0.00     0.111 A 
ATOM     15  C   UNL d   1       4.638  -3.082  -0.761  0.00  0.00     0.102 A 
ATOM     16  C   UNL d   1       5.444  -3.303   0.366  0.00  0.00     0.040 A 
ATOM     17  C   UNL d   1       5.393  -2.459   1.470  0.00  0.00     0.004 A 
ATOM     18  C   UNL d   1       4.532  -1.368   1.458  0.00  0.00     0.014 A 
BRANCH  14  19
ATOM     19  O   UNL d   1       2.892  -1.861  -1.840  0.00  0.00    -0.352 OA
ATOM     20  C   UNL d   1       2.781  -0.575  -2.442  0.00  0.00     0.210 C 
ENDBRANCH  14  19
BRANCH  15  21
ATOM     21  O   UNL d   1       4.843  -4.041  -1.720  0.00  0.00    -0.353 OA
ATOM     22  C   UNL d   1       4.179  -3.930  -2.967  0.00  0.00     0.210 C 
ENDBRANCH  15  21
ENDBRANCH   7  13
TORSDOF 3
