REMARK  8 active torsions:
REMARK  status: ('A' for Active; 'I' for Inactive)
REMARK       I    between atoms: N_2  and  C_1 
REMARK    1  A    between atoms: C_4  and  C_1 
REMARK    2  A    between atoms: N_12  and  C_5 
REMARK    3  A    between atoms: S_13  and  C_5 
REMARK    4  A    between atoms: C_6  and  C_14 
REMARK    5  A    between atoms: C_26  and  N_12 
REMARK    6  A    between atoms: C_14  and  S_19 
REMARK    7  A    between atoms: S_19  and  C_27 
REMARK    8  A    between atoms: C_27  and  C_26 
ROOT
ATOM      1  C   UNL d   1       0.133  -2.887   3.130  0.00  0.00     0.261 C 
ATOM      2  N   UNL d   1      -0.113  -2.051   2.076  0.00  0.00    -0.303 N 
ATOM      3  HN  UNL d   1      -1.074  -1.876   1.782  1.00  0.00     0.171 HD
ATOM      4  C   UNL d   1       0.861  -1.481   1.448  0.00  0.00     0.142 C 
ATOM      5  O   UNL d   1       1.163  -3.509   3.354  0.00  0.00    -0.267 OA
ENDROOT
BRANCH   4   6
ATOM      6  N   UNL d   1       2.203  -1.663   1.653  0.00  0.00    -0.370 N 
ATOM      7  H   UNL d   1       2.428  -2.366   2.358  0.00  0.00     0.161 HD
BRANCH   6   8
ATOM      8  C   UNL d   1       3.294  -0.789   1.258  0.00  0.00     0.132 C 
BRANCH   8   9
ATOM      9  C   UNL d   1       4.275  -1.510   0.327  0.00  0.00     0.093 C 
BRANCH   9  10
ATOM     10  S   UNL d   1       5.373  -0.373  -0.607  0.00  0.00    -0.163 SA
BRANCH  10  11
ATOM     11  C   UNL d   1       6.131   0.556   0.764  0.00  0.00     0.116 C 
BRANCH  11  12
ATOM     12  C   UNL d   1       6.965   1.718   0.276  0.00  0.00    -0.005 A 
ATOM     13  C   UNL d   1       6.393   2.990   0.067  0.00  0.00     0.042 A 
ATOM     14 CL   UNL d   1       4.707   3.296   0.317  0.00  0.00    -0.084 Cl
ATOM     15  C   UNL d   1       7.173   4.079  -0.344  0.00  0.00     0.024 A 
ATOM     16  C   UNL d   1       8.536   3.920  -0.569  0.00  0.00     0.003 A 
ATOM     17  C   UNL d   1       9.117   2.668  -0.397  0.00  0.00     0.024 A 
ATOM     18  C   UNL d   1       8.341   1.576   0.015  0.00  0.00     0.042 A 
ATOM     19 CL   UNL d   1       9.162   0.064   0.198  0.00  0.00    -0.084 Cl
ENDBRANCH  11  12
ENDBRANCH  10  11
ENDBRANCH   9  10
ENDBRANCH   8   9
ENDBRANCH   6   8
ENDBRANCH   4   6
BRANCH   4  20
ATOM     20  S   UNL d   1       0.382  -0.344   0.179  0.00  0.00    -0.099 SA
ATOM     21  C   UNL d   1      -1.392  -0.199   0.481  0.00  0.00     0.099 C 
ENDBRANCH   4  20
BRANCH   1  22
ATOM     22  C   UNL d   1      -1.000  -2.963   4.074  0.00  0.00     0.075 A 
ATOM     23  C   UNL d   1      -1.317  -1.846   4.859  0.00  0.00     0.051 A 
ATOM     24 CL   UNL d   1      -0.348  -0.412   4.879  0.00  0.00    -0.083 Cl
ATOM     25  C   UNL d   1      -2.449  -1.868   5.683  0.00  0.00     0.025 A 
ATOM     26  C   UNL d   1      -3.255  -3.002   5.734  0.00  0.00     0.003 A 
ATOM     27  C   UNL d   1      -2.929  -4.122   4.970  0.00  0.00     0.025 A 
ATOM     28  C   UNL d   1      -1.802  -4.105   4.137  0.00  0.00     0.051 A 
ATOM     29 CL   UNL d   1      -1.492  -5.515   3.188  0.00  0.00    -0.083 Cl
ENDBRANCH   1  22
TORSDOF 8
