REMARK  4 active torsions:
REMARK  status: ('A' for Active; 'I' for Inactive)
REMARK    1  A    between atoms: C_10  and  N_1 
REMARK    2  A    between atoms: O_15  and  C_8 
REMARK    3  A    between atoms: O_16  and  C_13 
REMARK    4  A    between atoms: C_19  and  O_15 
ROOT
ATOM      1  N   UNL d   1      -2.401   0.594  -0.445  0.00  0.00    -0.244 N 
ATOM      2  C   UNL d   1      -2.527  -0.684   0.083  0.00  0.00     0.268 C 
ATOM      3  C   UNL d   1      -1.276  -1.489  -0.049  0.00  0.00     0.066 C 
ATOM      4  C   UNL d   1      -1.232   1.351  -0.400  0.00  0.00     0.266 C 
ATOM      5  C   UNL d   1       0.025   0.611  -0.090  0.00  0.00     0.046 A 
ATOM      6  C   UNL d   1       0.018  -0.788   0.001  0.00  0.00    -0.003 A 
ATOM      7  C   UNL d   1       1.248  -1.451   0.122  0.00  0.00     0.016 A 
ATOM      8  C   UNL d   1      -1.417  -2.793  -0.346  0.00  0.00     0.152 C 
ATOM      9  O   UNL d   1      -3.542  -1.113   0.632  0.00  0.00    -0.267 OA
ATOM     10  O   UNL d   1      -1.173   2.558  -0.627  0.00  0.00    -0.267 OA
ATOM     11  C   UNL d   1       1.231   1.325  -0.030  0.00  0.00     0.054 A 
ATOM     12  C   UNL d   1       2.449   0.653   0.080  0.00  0.00     0.069 A 
ATOM     13  C   UNL d   1       2.453  -0.738   0.144  0.00  0.00     0.037 A 
ENDROOT
BRANCH   1  14
ATOM     14  C   UNL d   1      -3.445   1.013  -1.300  0.00  0.00     0.045 A 
ATOM     15  C   UNL d   1      -4.520   1.770  -0.842  0.00  0.00     0.030 A 
ATOM     16  C   UNL d   1      -5.574   2.058  -1.715  0.00  0.00     0.002 A 
ATOM     17  C   UNL d   1      -5.548   1.591  -3.032  0.00  0.00     0.000 A 
ATOM     18  C   UNL d   1      -4.469   0.838  -3.490  0.00  0.00     0.002 A 
ATOM     19  C   UNL d   1      -3.420   0.550  -2.624  0.00  0.00     0.030 A 
ENDBRANCH   1  14
BRANCH   8  20
ATOM     20  O   UNL d   1      -2.627  -3.392  -0.580  0.00  0.00    -0.362 OA
BRANCH  20  21
ATOM     21  C   UNL d   1      -2.655  -4.771  -0.219  0.00  0.00     0.170 C 
ATOM     22  C   UNL d   1      -4.082  -5.266  -0.362  0.00  0.00     0.034 C 
ENDBRANCH  20  21
ENDBRANCH   8  20
BRANCH  12  23
ATOM     23  O   UNL d   1       3.552   1.459   0.098  0.00  0.00    -0.356 OA
ATOM     24  C   UNL d   1       4.821   0.816   0.106  0.00  0.00     0.210 C 
ENDBRANCH  12  23
TORSDOF 4
