REMARK  4 active torsions:
REMARK  status: ('A' for Active; 'I' for Inactive)
REMARK    1  A    between atoms: S_5  and  C_1 
REMARK    2  A    between atoms: C_7  and  C_2 
REMARK    3  A    between atoms: S_8  and  C_7 
REMARK    4  A    between atoms: C_9  and  S_8 
ROOT
ATOM      1  C   UNL d   1      -1.212   1.842  -0.095  0.00  0.00     0.111 A 
ATOM      2  C   UNL d   1      -1.610  -0.631  -0.094  0.00  0.00     0.070 A 
ATOM      3  S   UNL d   1      -2.565   0.802  -0.099  0.00  0.00    -0.072 SA
ATOM      4  C   UNL d   1      -0.042   1.111  -0.130  0.00  0.00    -0.000 A 
ATOM      5  C   UNL d   1      -0.253  -0.319  -0.152  0.00  0.00    -0.024 A 
ATOM      6  C   UNL d   1       1.277   1.658  -0.108  0.00  0.00     0.010 C 
ATOM      7  C   UNL d   1       2.368   0.879  -0.176  0.00  0.00    -0.025 C 
ATOM      8  C   UNL d   1       0.915  -1.275  -0.124  0.00  0.00     0.045 C 
ATOM      9  C   UNL d   1       2.304  -0.616  -0.299  0.00  0.00     0.032 C 
ENDROOT
BRANCH   2  10
ATOM     10  C   UNL d   1      -2.364  -1.879   0.002  0.00  0.00     0.231 C 
ATOM     11  O   UNL d   1      -3.401  -2.003   0.643  0.00  0.00    -0.279 OA
BRANCH  10  12
ATOM     12  S   UNL d   1      -1.734  -3.281  -0.851  0.00  0.00    -0.040 SA
BRANCH  12  13
ATOM     13  C   UNL d   1      -1.941  -2.792  -2.530  0.00  0.00     0.049 C 
ATOM     14  S   UNL d   1      -3.041  -1.608  -3.096  0.00  0.00    -0.095 SA
ATOM     15  C   UNL d   1      -2.408  -1.677  -4.681  0.00  0.00     0.051 C 
ATOM     16  C   UNL d   1      -1.476  -2.680  -4.814  0.00  0.00     0.009 C 
ATOM     17  C   UNL d   1      -1.240  -3.353  -3.580  0.00  0.00     0.027 C 
ENDBRANCH  12  13
ENDBRANCH  10  12
ENDBRANCH   2  10
BRANCH   1  18
ATOM     18  S   UNL d   1      -1.620   3.578  -0.023  0.00  0.00     0.179 S 
ATOM     19  O   UNL d   1      -0.366   4.285   0.133  0.00  0.00    -0.222 OA
ATOM     20  O   UNL d   1      -2.498   3.830  -1.148  0.00  0.00    -0.222 OA
ATOM     21  C   UNL d   1      -2.535   3.748   1.489  0.00  0.00     0.167 C 
ENDBRANCH   1  18
TORSDOF 4
