REMARK  3 active torsions:
REMARK  status: ('A' for Active; 'I' for Inactive)
REMARK    1  A    between atoms: N_3  and  C_1 
REMARK    2  A    between atoms: C_8  and  C_2 
REMARK    3  A    between atoms: O_12  and  C_8 
ROOT
ATOM      1  C   UNL d   1       0.158  -1.242  -0.004  0.00  0.00     0.208 A 
ATOM      2  C   UNL d   1       1.461  -0.785  -0.004  0.00  0.00     0.106 A 
ATOM      3  N   UNL d   1      -0.672  -0.161  -0.058  0.00  0.00    -0.276 N 
ATOM      4  N   UNL d   1       0.017   1.001  -0.096  0.00  0.00    -0.307 N 
ATOM      5  HN  UNL d   1      -0.355   1.951  -0.123  1.00  0.00     0.186 HD
ATOM      6  C   UNL d   1       1.297   0.619  -0.088  0.00  0.00     0.129 A 
ATOM      7  C   UNL d   1      -2.115  -0.074  -0.049  0.00  0.00     0.179 C 
ENDROOT
BRANCH   2   8
ATOM      8  C   UNL d   1       2.734  -1.480  -0.001  0.00  0.00     0.181 C 
ATOM      9  O   UNL d   1       3.756  -0.946  -0.407  0.00  0.00    -0.646 OA
BRANCH   8  10
ATOM     10  O   UNL d   1       2.757  -2.739   0.492  0.00  0.00    -0.773 OA
ATOM     11  H   UNL d   1       1.925  -3.079   0.885  0.00  0.00     0.167 HD
ENDBRANCH   8  10
ENDBRANCH   2   8
BRANCH   1  12
ATOM     12  N   UNL d   1      -0.333  -2.567   0.030  0.00  0.00    -0.095 N 
ATOM     13  O   UNL d   1       0.240  -3.323   0.824  0.00  0.00    -0.530 OA
ATOM     14  O   UNL d   1      -1.244  -2.861  -0.745  0.00  0.00    -0.530 OA
ENDBRANCH   1  12
TORSDOF 3
