REMARK  4 active torsions:
REMARK  status: ('A' for Active; 'I' for Inactive)
REMARK    1  A    between atoms: C_2  and  S_1 
REMARK    2  A    between atoms: N_4  and  S_1 
REMARK    3  A    between atoms: N_3  and  C_5 
REMARK    4  A    between atoms: C_8  and  N_6 
ROOT
ATOM      1  N   UNL d   1       0.354  -0.943  -0.877  0.00  0.00    -0.203 NA
ATOM      2  N   UNL d   1      -0.929  -3.098   0.553  0.00  0.00    -0.365 N 
ATOM      3  C   UNL d   1      -1.146  -1.012  -0.788  0.00  0.00     0.127 C 
ATOM      4  C   UNL d   1       0.947  -2.317  -0.799  0.00  0.00     0.127 C 
ATOM      5  C   UNL d   1       0.533  -3.034   0.499  0.00  0.00     0.140 C 
ATOM      6  C   UNL d   1      -1.632  -1.808   0.450  0.00  0.00     0.140 C 
ENDROOT
BRANCH   1   7
ATOM      7  S   UNL d   1       1.136   0.232   0.065  0.00  0.00     0.246 S 
ATOM      8  O   UNL d   1       0.299   0.501   1.217  0.00  0.00    -0.206 OA
ATOM      9  O   UNL d   1       2.521  -0.137   0.235  0.00  0.00    -0.206 OA
BRANCH   7  10
ATOM     10  C   UNL d   1       1.121   1.679  -0.948  0.00  0.00     0.113 A 
ATOM     11  C   UNL d   1       1.756   1.646  -2.187  0.00  0.00     0.142 A 
ATOM     12  C   UNL d   1       1.885   2.807  -2.943  0.00  0.00     0.086 A 
ATOM     13  F   UNL d   1       2.269   0.509  -2.674  0.00  0.00    -0.204 F 
ATOM     14  C   UNL d   1       1.381   4.002  -2.442  0.00  0.00     0.119 A 
ATOM     15  C   UNL d   1       0.734   4.048  -1.209  0.00  0.00     0.044 A 
ATOM     16  F   UNL d   1       1.531   5.128  -3.148  0.00  0.00    -0.206 F 
ATOM     17  C   UNL d   1       0.599   2.881  -0.454  0.00  0.00     0.031 A 
ENDBRANCH   7  10
ENDBRANCH   1   7
BRANCH   2  18
ATOM     18  C   UNL d   1      -1.605  -4.151   1.122  0.00  0.00     0.103 A 
ATOM     19  N   UNL d   1      -2.852  -4.402   0.659  0.00  0.00    -0.350 N 
ATOM     20  C   UNL d   1      -3.507  -5.507   1.100  0.00  0.00     0.125 A 
ATOM     21  HN  UNL d   1      -3.293  -3.772  -0.010  1.00  0.00     0.166 HD
ATOM     22  C   UNL d   1      -2.978  -6.375   2.035  0.00  0.00     0.118 A 
ATOM     23  C   UNL d   1      -1.716  -6.105   2.553  0.00  0.00     0.041 A 
ATOM     24  C   UNL d   1      -1.026  -4.985   2.080  0.00  0.00     0.051 A 
BRANCH  22  25
ATOM     25  N   UNL d   1      -3.731  -7.547   2.454  0.00  0.00    -0.114 N 
ATOM     26  O   UNL d   1      -4.833  -7.745   1.924  0.00  0.00    -0.532 OA
ATOM     27  O   UNL d   1      -3.222  -8.280   3.314  0.00  0.00    -0.532 OA
ENDBRANCH  22  25
ENDBRANCH   2  18
TORSDOF 4
