REMARK  2 active torsions:
REMARK  status: ('A' for Active; 'I' for Inactive)
REMARK    1  A    between atoms: N_2  and  S_1 
REMARK    2  A    between atoms: C_3  and  S_1 
ROOT
ATOM      1  S   UNL d   1       0.959  -0.051   0.071  0.00  0.00     0.268 S 
ATOM      2  O   UNL d   1       0.302  -0.920  -0.886  0.00  0.00    -0.200 OA
ATOM      3  O   UNL d   1       2.401   0.006   0.206  0.00  0.00    -0.200 OA
ENDROOT
BRANCH   1   4
ATOM      4  N   UNL d   1       0.362  -0.512   1.597  0.00  0.00    -0.258 N 
ATOM      5  C   UNL d   1       1.020  -0.313   2.783  0.00  0.00     0.108 A 
ATOM      6  C   UNL d   1       0.169  -0.711   3.793  0.00  0.00     0.020 A 
ATOM      7  C   UNL d   1      -1.050  -1.120   3.190  0.00  0.00     0.020 A 
ATOM      8  C   UNL d   1      -0.911  -0.966   1.826  0.00  0.00     0.108 A 
ENDBRANCH   1   4
BRANCH   1   9
ATOM      9  C   UNL d   1       0.340   1.598  -0.143  0.00  0.00     0.080 A 
ATOM     10  C   UNL d   1       1.117   2.688   0.263  0.00  0.00     0.027 A 
ATOM     11  C   UNL d   1       0.640   3.986   0.058  0.00  0.00     0.025 A 
ATOM     12  C   UNL d   1      -0.599   4.183  -0.555  0.00  0.00     0.034 A 
ATOM     13  C   UNL d   1      -1.366   3.094  -0.970  0.00  0.00     0.025 A 
ATOM     14 CL   UNL d   1      -1.180   5.782  -0.809  0.00  0.00    -0.084 Cl
ATOM     15  C   UNL d   1      -0.896   1.795  -0.769  0.00  0.00     0.027 A 
ENDBRANCH   1   9
TORSDOF 2
