REMARK  4 active torsions:
REMARK  status: ('A' for Active; 'I' for Inactive)
REMARK    1  A    between atoms: O_6  and  C_1 
REMARK    2  A    between atoms: O_16  and  C_4 
REMARK    3  A    between atoms: N_14  and  C_5 
REMARK    4  A    between atoms: C_10  and  O_6 
ROOT
ATOM      1  C   UNL d   1      -0.785   1.085  -0.103  0.00  0.00     0.149 A 
ATOM      2  N   UNL d   1      -0.633  -1.321  -0.262  0.00  0.00    -0.311 N 
ATOM      3  HN  UNL d   1      -1.080  -2.227  -0.407  1.00  0.00     0.170 HD
ATOM      4  C   UNL d   1      -1.316  -0.170  -0.311  0.00  0.00     0.179 A 
ATOM      5  C   UNL d   1       0.670  -1.201  -0.011  0.00  0.00     0.157 A 
ATOM      6  N   UNL d   1       1.321  -0.042   0.116  0.00  0.00    -0.334 N 
ATOM      7  HN  UNL d   1       2.332  -0.014   0.252  1.00  0.00     0.168 HD
ATOM      8  C   UNL d   1       0.587   1.098   0.055  0.00  0.00     0.046 A 
ATOM      9  C   UNL d   1       1.343   2.389   0.160  0.00  0.00     0.071 C 
ENDROOT
BRANCH   1  10
ATOM     10  O   UNL d   1      -1.467   2.266  -0.128  0.00  0.00    -0.303 OA
BRANCH  10  11
ATOM     11  C   UNL d   1      -2.652   2.388   0.570  0.00  0.00     0.098 A 
ATOM     12  C   UNL d   1      -3.581   3.331   0.103  0.00  0.00     0.069 A 
ATOM     13  C   UNL d   1      -4.804   3.509   0.753  0.00  0.00     0.050 A 
ATOM     14 CL   UNL d   1      -3.245   4.307  -1.284  0.00  0.00    -0.081 Cl
ATOM     15  C   UNL d   1      -5.099   2.748   1.880  0.00  0.00     0.035 A 
ATOM     16  C   UNL d   1      -4.172   1.836   2.381  0.00  0.00     0.026 A 
ATOM     17 CL   UNL d   1      -6.616   2.940   2.669  0.00  0.00    -0.084 Cl
ATOM     18  C   UNL d   1      -2.940   1.670   1.740  0.00  0.00     0.041 A 
ENDBRANCH  10  11
ENDBRANCH   1  10
BRANCH   4  19
ATOM     19  O   UNL d   1      -2.631  -0.355  -0.602  0.00  0.00    -0.344 OA
ATOM     20  H   UNL d   1      -2.661  -1.325  -0.687  0.00  0.00     0.219 HD
ENDBRANCH   4  19
BRANCH   5  21
ATOM     21  N   UNL d   1       1.413  -2.357   0.087  0.00  0.00    -0.274 NA
ATOM     22  H   UNL d   1       2.382  -2.163  -0.122  0.00  0.00     0.127 HD
ATOM     23  H   UNL d   1       0.970  -3.110  -0.419  0.00  0.00     0.127 HD
ENDBRANCH   5  21
TORSDOF 4
