REMARK  5 active torsions:
REMARK  status: ('A' for Active; 'I' for Inactive)
REMARK    1  A    between atoms: C_2  and  C_1 
REMARK    2  A    between atoms: C_11  and  C_5 
REMARK    3  A    between atoms: C_9  and  C_10 
REMARK    4  A    between atoms: O_18  and  C_11 
REMARK    5  A    between atoms: C_20  and  O_18 
ROOT
ATOM      1  C   UNL d   1       1.106  -1.704  -1.307  0.00  0.00     0.064 A 
ATOM      2  N   UNL d   1       1.105  -4.120  -1.395  0.00  0.00    -0.365 N 
ATOM      3  HN  UNL d   1       1.582  -4.989  -1.635  1.00  0.00     0.165 HD
ATOM      4  C   UNL d   1      -0.146  -4.136  -0.844  0.00  0.00     0.055 A 
ATOM      5  C   UNL d   1      -0.168  -1.732  -0.731  0.00  0.00     0.043 A 
ATOM      6  C   UNL d   1      -0.803  -2.955  -0.490  0.00  0.00     0.059 A 
ATOM      7  C   UNL d   1       1.694  -2.920  -1.613  0.00  0.00     0.104 A 
ATOM      8 CL   UNL d   1      -2.357  -2.930   0.253  0.00  0.00    -0.082 Cl
ENDROOT
BRANCH   4   9
ATOM      9  C   UNL d   1      -0.761  -5.506  -0.636  0.00  0.00     0.234 C 
BRANCH   9  10
ATOM     10  O   UNL d   1      -1.960  -5.618  -1.405  0.00  0.00    -0.345 OA
BRANCH  10  11
ATOM     11  C   UNL d   1      -2.660  -6.787  -1.299  0.00  0.00     0.069 A 
ATOM     12  C   UNL d   1      -4.033  -6.669  -1.520  0.00  0.00     0.038 A 
ATOM     13  C   UNL d   1      -4.857  -7.798  -1.506  0.00  0.00     0.018 A 
ATOM     14  C   UNL d   1      -4.309  -9.067  -1.296  0.00  0.00     0.009 A 
ATOM     15  C   UNL d   1      -2.934  -9.189  -1.062  0.00  0.00     0.018 A 
ATOM     16  C   UNL d   1      -2.112  -8.050  -1.062  0.00  0.00     0.038 A 
BRANCH  14  17
ATOM     17  C   UNL d   1      -5.233 -10.234  -1.333  0.00  0.00     0.155 C 
ATOM     18  O   UNL d   1      -6.406 -10.081  -0.991  0.00  0.00    -0.293 OA
ATOM     19  C   UNL d   1      -4.746 -11.565  -1.842  0.00  0.00     0.096 C 
ENDBRANCH  14  17
ENDBRANCH  10  11
ENDBRANCH   9  10
ENDBRANCH   4   9
BRANCH   1  20
ATOM     20  C   UNL d   1       1.840  -0.430  -1.592  0.00  0.00     0.418 C 
ATOM     21  F   UNL d   1       1.150   0.687  -1.234  0.00  0.00    -0.166 F 
ATOM     22  F   UNL d   1       2.132  -0.282  -2.913  0.00  0.00    -0.166 F 
ATOM     23  F   UNL d   1       3.031  -0.360  -0.937  0.00  0.00    -0.166 F 
ENDBRANCH   1  20
TORSDOF 5
