REMARK  4 active torsions:
REMARK  status: ('A' for Active; 'I' for Inactive)
REMARK    1  A    between atoms: S_5  and  C_1 
REMARK    2  A    between atoms: C_3  and  C_10 
REMARK       I    between atoms: N_4  and  C_3 
REMARK    3  A    between atoms: C_11  and  N_4 
REMARK    4  A    between atoms: C_10  and  S_5 
ROOT
ATOM      1  C   UNL d   1       0.982   5.310  -0.227  0.00  0.00     0.231 C 
ATOM      2  N   UNL d   1      -0.309   5.720   0.063  0.00  0.00    -0.327 N 
ATOM      3  O   UNL d   1       1.918   6.059  -0.504  0.00  0.00    -0.272 OA
ATOM      4  H   UNL d   1      -0.952   4.996   0.375  0.00  0.00     0.169 HD
ENDROOT
BRANCH   1   5
ATOM      5  C   UNL d   1       1.251   3.820  -0.066  0.00  0.00     0.183 C 
BRANCH   5   6
ATOM      6  S   UNL d   1      -0.088   2.783  -0.721  0.00  0.00    -0.113 SA
BRANCH   6   7
ATOM      7  C   UNL d   1       0.628   1.184  -0.544  0.00  0.00     0.041 A 
ATOM      8  S   UNL d   1       1.113   0.540   0.967  0.00  0.00    -0.095 SA
ATOM      9  C   UNL d   1       1.598  -0.939   0.257  0.00  0.00     0.051 A 
ATOM     10  C   UNL d   1       1.394  -0.947  -1.105  0.00  0.00     0.009 A 
ATOM     11  C   UNL d   1       0.834   0.282  -1.567  0.00  0.00     0.026 A 
ENDBRANCH   6   7
ENDBRANCH   5   6
ENDBRANCH   1   5
BRANCH   2  12
ATOM     12  C   UNL d   1      -0.835   7.026  -0.063  0.00  0.00     0.034 A 
ATOM     13  C   UNL d   1      -0.129   8.088  -0.636  0.00  0.00     0.031 A 
ATOM     14  C   UNL d   1      -0.716   9.350  -0.775  0.00  0.00     0.026 A 
ATOM     15  C   UNL d   1      -2.017   9.561  -0.332  0.00  0.00     0.034 A 
ATOM     16  C   UNL d   1      -2.733   8.519   0.250  0.00  0.00     0.026 A 
ATOM     17 CL   UNL d   1      -2.742  11.110  -0.518  0.00  0.00    -0.084 Cl
ATOM     18  C   UNL d   1      -2.145   7.255   0.380  0.00  0.00     0.031 A 
ENDBRANCH   2  12
TORSDOF 4
