REMARK  2 active torsions:
REMARK  status: ('A' for Active; 'I' for Inactive)
REMARK    1  A    between atoms: C_10  and  C_1 
REMARK    2  A    between atoms: C_11  and  C_8 
REMARK       I    between atoms: N_14  and  C_11 
ROOT
ATOM      1  C   UNL d   1       1.254   0.713   0.118  0.00  0.00     0.134 A 
ATOM      2  C   UNL d   1       0.115  -1.210  -0.091  0.00  0.00     0.069 A 
ATOM      3  N   UNL d   1       0.075   1.045  -0.438  0.00  0.00    -0.294 N 
ATOM      4  HN  UNL d   1      -0.243   1.974  -0.716  1.00  0.00     0.187 HD
ATOM      5  C   UNL d   1       1.315  -0.685   0.353  0.00  0.00     0.068 A 
ATOM      6  N   UNL d   1      -0.595  -0.122  -0.547  0.00  0.00    -0.295 N 
ATOM      7  C   UNL d   1      -0.329  -2.580  -0.076  0.00  0.00     0.034 A 
ATOM      8  C   UNL d   1      -0.758  -4.958   0.565  0.00  0.00     0.073 A 
ATOM      9  S   UNL d   1       0.249  -3.692   1.103  0.00  0.00    -0.083 SA
ATOM     10  C   UNL d   1      -1.173  -3.219  -0.960  0.00  0.00     0.023 A 
ATOM     11  C   UNL d   1      -1.417  -4.571  -0.593  0.00  0.00     0.026 A 
ATOM     12  C   UNL d   1      -1.944  -0.079  -1.065  0.00  0.00     0.178 C 
ENDROOT
BRANCH   1  13
ATOM     13  C   UNL d   1       2.337   1.709   0.432  0.00  0.00     0.434 C 
ATOM     14  F   UNL d   1       2.009   2.993   0.130  0.00  0.00    -0.165 F 
ATOM     15  F   UNL d   1       2.662   1.692   1.755  0.00  0.00    -0.165 F 
ATOM     16  F   UNL d   1       3.484   1.429  -0.244  0.00  0.00    -0.165 F 
ENDBRANCH   1  13
BRANCH   8  17
ATOM     17  C   UNL d   1      -0.798  -6.323   1.099  0.00  0.00     0.260 C 
ATOM     18  N   UNL d   1      -0.615  -6.638   2.458  0.00  0.00    -0.356 N 
ATOM     19  C   UNL d   1      -0.713  -8.042   2.841  0.00  0.00     0.152 C 
ATOM     20  C   UNL d   1      -0.441  -5.733   3.585  0.00  0.00     0.152 C 
ATOM     21  O   UNL d   1      -1.052  -7.240   0.315  0.00  0.00    -0.267 OA
ENDBRANCH   8  17
TORSDOF 2
