REMARK  3 active torsions:
REMARK  status: ('A' for Active; 'I' for Inactive)
REMARK    1  A    between atoms: N_14  and  C_10 
REMARK       I    between atoms: C_11  and  N_12 
REMARK    2  A    between atoms: C_15  and  C_11 
REMARK    3  A    between atoms: N_12  and  N_14 
ROOT
ATOM      1  C   UNL d   1       0.120  -0.612  -0.042  0.00  0.00     0.136 A 
ATOM      2  C   UNL d   1       0.177   0.783  -0.024  0.00  0.00     0.039 A 
ATOM      3  N   UNL d   1       1.416  -1.042  -0.002  0.00  0.00    -0.280 N 
ATOM      4  N   UNL d   1       2.322  -0.048   0.024  0.00  0.00    -0.301 N 
ATOM      5  HN  UNL d   1       3.338  -0.126   0.049  1.00  0.00     0.187 HD
ATOM      6  C   UNL d   1       1.579   1.069   0.008  0.00  0.00     0.036 A 
ATOM      7  N   UNL d   1      -0.975  -1.400  -0.082  0.00  0.00    -0.330 N 
ATOM      8  HN  UNL d   1      -0.926  -2.419  -0.082  1.00  0.00     0.168 HD
ATOM      9  C   UNL d   1      -1.054   1.477  -0.039  0.00  0.00    -0.043 A 
ATOM     10  C   UNL d   1      -2.143  -0.721  -0.123  0.00  0.00     0.100 A 
ATOM     11  C   UNL d   1      -2.213   0.674  -0.088  0.00  0.00     0.051 A 
ATOM     12  C   UNL d   1       1.879  -2.406   0.006  0.00  0.00     0.179 C 
ATOM     13  C   UNL d   1       2.310   2.362   0.018  0.00  0.00     0.070 C 
ATOM     14  C   UNL d   1      -1.250   2.966   0.008  0.00  0.00     0.049 C 
ENDROOT
BRANCH  10  15
ATOM     15  N   UNL d   1      -3.376  -1.428  -0.099  0.00  0.00    -0.187 NA
ATOM     16  H   UNL d   1      -4.037  -1.041  -0.776  0.00  0.00     0.154 HD
BRANCH  15  17
ATOM     17  N   UNL d   1      -3.220  -2.811  -0.294  0.00  0.00    -0.281 N 
ATOM     18  C   UNL d   1      -4.351  -3.545  -0.599  0.00  0.00     0.266 C 
ATOM     19  O   UNL d   1      -5.456  -3.050  -0.803  0.00  0.00    -0.266 OA
ATOM     20  H   UNL d   1      -2.346  -3.204   0.047  0.00  0.00     0.184 HD
BRANCH  18  21
ATOM     21  C   UNL d   1      -4.167  -5.017  -0.672  0.00  0.00     0.033 A 
ATOM     22  C   UNL d   1      -5.211  -5.853  -0.252  0.00  0.00     0.018 A 
ATOM     23  C   UNL d   1      -5.074  -7.242  -0.337  0.00  0.00     0.025 A 
ATOM     24  C   UNL d   1      -3.901  -7.791  -0.857  0.00  0.00     0.034 A 
ATOM     25  C   UNL d   1      -2.865  -6.964  -1.292  0.00  0.00     0.025 A 
ATOM     26 CL   UNL d   1      -3.735  -9.499  -0.975  0.00  0.00    -0.084 Cl
ATOM     27  C   UNL d   1      -2.995  -5.575  -1.199  0.00  0.00     0.018 A 
ENDBRANCH  18  21
ENDBRANCH  15  17
ENDBRANCH  10  15
TORSDOF 3
