REMARK  4 active torsions:
REMARK  status: ('A' for Active; 'I' for Inactive)
REMARK    1  A    between atoms: C_8  and  C_1 
REMARK    2  A    between atoms: C_5  and  C_4 
REMARK       I    between atoms: N_12  and  C_8 
REMARK    3  A    between atoms: C_21  and  N_12 
REMARK    4  A    between atoms: C_14  and  C_21 
ROOT
ATOM      1  C   UNL d   1       1.832   0.936   0.352  0.00  0.00     0.103 A 
ATOM      2  N   UNL d   1       2.241  -0.824   0.765  0.00  0.00    -0.369 N 
ATOM      3  HN  UNL d   1       3.077  -1.094   1.284  1.00  0.00     0.161 HD
ATOM      4  C   UNL d   1       1.135  -1.907   0.220  0.00  0.00     0.180 A 
ATOM      5  S   UNL d   1      -0.611  -0.859  -1.094  0.00  0.00    -0.111 SA
ATOM      6  C   UNL d   1       0.389   1.157  -0.601  0.00  0.00     0.082 A 
ENDROOT
BRANCH   1   7
ATOM      7  C   UNL d   1       2.791   1.980   0.662  0.00  0.00     0.268 C 
ATOM      8  N   UNL d   1       4.052   1.480   0.893  0.00  0.00    -0.351 N 
ATOM      9  H   UNL d   1       4.189   0.486   0.718  0.00  0.00     0.163 HD
ATOM     10  O   UNL d   1       2.523   3.173   0.611  0.00  0.00    -0.266 OA
BRANCH   8  11
ATOM     11  C   UNL d   1       5.175   2.378   0.947  0.00  0.00     0.169 C 
BRANCH  11  12
ATOM     12  C   UNL d   1       6.433   1.616   1.200  0.00  0.00     0.000 A 
ATOM     13  S   UNL d   1       7.470   1.192  -0.098  0.00  0.00    -0.105 SA
ATOM     14  C   UNL d   1       8.615   0.490   0.960  0.00  0.00     0.050 A 
ATOM     15  C   UNL d   1       8.210   0.554   2.275  0.00  0.00     0.008 A 
ATOM     16  C   UNL d   1       6.947   1.198   2.412  0.00  0.00     0.017 A 
ENDBRANCH  11  12
ENDBRANCH   8  11
ENDBRANCH   1   7
BRANCH   4  17
ATOM     17  C   UNL d   1       0.656  -3.168   0.365  0.00  0.00     0.186 C 
ATOM     18  O   UNL d   1       1.023  -3.320  -1.108  0.00  0.00    -0.338 OA
ATOM     19  C   UNL d   1       1.758  -2.228  -1.752  0.00  0.00     0.102 C 
ATOM     20  C   UNL d   1       2.659  -2.584  -2.735  0.00  0.00     0.039 C 
ATOM     21  C   UNL d   1       1.627  -0.712  -1.246  0.00  0.00     0.102 C 
ATOM     22  C   UNL d   1       3.429  -1.564  -3.303  0.00  0.00     0.003 C 
ATOM     23  C   UNL d   1       3.241  -0.194  -2.995  0.00  0.00     0.003 C 
ATOM     24  C   UNL d   1       2.337   0.265  -2.021  0.00  0.00     0.039 C 
ATOM     25  O   UNL d   1       0.527  -0.360   0.400  0.00  0.00    -0.346 OA
ATOM     26  C   UNL d   1      -0.040  -1.875   1.210  0.00  0.00     0.211 C 
ENDBRANCH   4  17
TORSDOF 4
