REMARK  3 active torsions:
REMARK  status: ('A' for Active; 'I' for Inactive)
REMARK    1  A    between atoms: S_2  and  C_1 
REMARK    2  A    between atoms: C_9  and  S_2 
REMARK    3  A    between atoms: S_10  and  C_3 
ROOT
ATOM      1  C   UNL d   1       0.125  -1.301   0.018  0.00  0.00     0.106 A 
ATOM      2  C   UNL d   1      -0.120  -0.202   0.834  0.00  0.00     0.065 A 
ATOM      3  C   UNL d   1       0.974  -0.947  -1.101  0.00  0.00     0.081 A 
ATOM      4  S   UNL d   1       0.626   1.223   0.219  0.00  0.00    -0.072 SA
ATOM      5  C   UNL d   1       1.314   0.386  -1.071  0.00  0.00     0.076 A 
ATOM      6 CL   UNL d   1       1.506  -2.031  -2.327  0.00  0.00    -0.081 Cl
ATOM      7 BR   UNL d   1       2.426   1.255  -2.316  0.00  0.00    -0.041 Br
ENDROOT
BRANCH   1   8
ATOM      8  S   UNL d   1      -0.534  -2.901   0.214  0.00  0.00     0.182 S 
ATOM      9  O   UNL d   1      -1.285  -2.901   1.454  0.00  0.00    -0.222 OA
ATOM     10  O   UNL d   1      -1.202  -3.133  -1.048  0.00  0.00    -0.222 OA
BRANCH   8  11
ATOM     11  C   UNL d   1       0.841  -4.046   0.389  0.00  0.00     0.105 C 
ATOM     12  C   UNL d   1       1.629  -3.807   1.670  0.00  0.00     0.026 C 
ATOM     13  C   UNL d   1       0.321  -5.483   0.339  0.00  0.00     0.026 C 
ENDBRANCH   8  11
ENDBRANCH   1   8
BRANCH   2  14
ATOM     14  S   UNL d   1      -0.974  -0.047   2.369  0.00  0.00    -0.126 SA
ATOM     15  C   UNL d   1      -2.692   0.098   1.823  0.00  0.00     0.096 C 
ENDBRANCH   2  14
TORSDOF 3
