REMARK  5 active torsions:
REMARK  status: ('A' for Active; 'I' for Inactive)
REMARK    1  A    between atoms: S_4  and  C_1 
REMARK    2  A    between atoms: C_3  and  C_2 
REMARK       I    between atoms: N_5  and  C_3 
REMARK    3  A    between atoms: C_10  and  S_4 
REMARK    4  A    between atoms: C_16  and  N_5 
REMARK    5  A    between atoms: C_15  and  C_16 
ROOT
ATOM      1  C   UNL d   1      -0.419   1.301  -0.837  0.00  0.00     0.090 A 
ATOM      2  C   UNL d   1       0.428   1.407   0.267  0.00  0.00     0.065 A 
ATOM      3  N   UNL d   1      -0.815   0.091  -1.321  0.00  0.00    -0.359 N 
ATOM      4  HN  UNL d   1      -1.485   0.030  -2.087  1.00  0.00     0.166 HD
ATOM      5  C   UNL d   1       0.981   0.230   0.795  0.00  0.00     0.021 A 
ATOM      6  C   UNL d   1      -0.299  -1.023  -0.763  0.00  0.00     0.089 A 
ATOM      7  C   UNL d   1       0.615  -1.006   0.270  0.00  0.00     0.018 A 
ENDROOT
BRANCH   2   8
ATOM      8  C   UNL d   1       0.751   2.668   0.983  0.00  0.00     0.254 C 
ATOM      9  N   UNL d   1      -0.304   3.524   1.202  0.00  0.00    -0.353 N 
ATOM     10  H   UNL d   1      -1.238   3.244   0.925  0.00  0.00     0.163 HD
ATOM     11  O   UNL d   1       1.876   2.851   1.431  0.00  0.00    -0.268 OA
BRANCH   9  12
ATOM     12  C   UNL d   1      -0.172   4.689   2.051  0.00  0.00     0.161 C 
BRANCH  12  13
ATOM     13  C   UNL d   1      -1.355   5.620   1.915  0.00  0.00    -0.039 A 
ATOM     14  C   UNL d   1      -1.883   5.945   0.655  0.00  0.00     0.034 A 
ATOM     15  C   UNL d   1      -2.983   6.801   0.532  0.00  0.00     0.056 A 
ATOM     16 CL   UNL d   1      -3.591   7.103  -1.057  0.00  0.00    -0.083 Cl
ATOM     17  C   UNL d   1      -3.550   7.372   1.675  0.00  0.00     0.055 A 
ATOM     18  C   UNL d   1      -3.011   7.084   2.931  0.00  0.00     0.026 A 
ATOM     19 CL   UNL d   1      -4.907   8.438   1.604  0.00  0.00    -0.083 Cl
ATOM     20  C   UNL d   1      -1.921   6.215   3.051  0.00  0.00     0.010 A 
ENDBRANCH  12  13
ENDBRANCH   9  12
ENDBRANCH   2   8
BRANCH   1  21
ATOM     21  S   UNL d   1      -1.095   2.702  -1.717  0.00  0.00    -0.072 SA
BRANCH  21  22
ATOM     22  C   UNL d   1      -0.326   2.598  -3.329  0.00  0.00     0.008 A 
ATOM     23  C   UNL d   1       0.239   3.753  -3.882  0.00  0.00     0.042 A 
ATOM     24  C   UNL d   1       0.783   3.722  -5.169  0.00  0.00     0.035 A 
ATOM     25 CL   UNL d   1       1.455   5.154  -5.850  0.00  0.00    -0.084 Cl
ATOM     26  C   UNL d   1       0.777   2.547  -5.917  0.00  0.00     0.024 A 
ATOM     27  C   UNL d   1       0.212   1.394  -5.377  0.00  0.00     0.003 A 
ATOM     28  C   UNL d   1      -0.346   1.427  -4.096  0.00  0.00     0.019 A 
ENDBRANCH  21  22
ENDBRANCH   1  21
TORSDOF 5
