REMARK  2 active torsions:
REMARK  status: ('A' for Active; 'I' for Inactive)
REMARK    1  A    between atoms: C_5  and  N_1 
REMARK    2  A    between atoms: C_4  and  C_8 
ROOT
ATOM      1  C   UNL d   1       0.193   0.966  -0.669  0.00  0.00     0.103 A 
ATOM      2  C   UNL d   1       0.524   1.325  -1.982  0.00  0.00     0.049 A 
ATOM      3  C   UNL d   1      -0.244   2.282  -2.661  0.00  0.00    -0.006 A 
ATOM      4  C   UNL d   1      -0.892   1.565  -0.015  0.00  0.00     0.036 A 
ATOM      5  C   UNL d   1      -1.323   2.886  -1.995  0.00  0.00     0.014 A 
ATOM      6  C   UNL d   1      -1.644   2.531  -0.682  0.00  0.00     0.003 A 
ENDROOT
BRANCH   3   7
ATOM      7  C   UNL d   1       0.064   2.625  -4.050  0.00  0.00     0.059 A 
ATOM      8  N   UNL d   1       1.302   2.487  -4.552  0.00  0.00    -0.300 N 
ATOM      9  N   UNL d   1       1.196   2.873  -5.832  0.00  0.00    -0.311 N 
ATOM     10  HN  UNL d   1       2.138   2.161  -4.067  1.00  0.00     0.187 HD
ATOM     11  C   UNL d   1      -0.065   3.243  -6.186  0.00  0.00     0.109 A 
ATOM     12  H   UNL d   1       2.029   2.850  -6.412  0.00  0.00     0.186 HD
ATOM     13  C   UNL d   1      -0.826   3.100  -5.052  0.00  0.00     0.050 A 
ENDBRANCH   3   7
BRANCH   1  14
ATOM     14  N   UNL d   1       0.978  -0.061   0.027  0.00  0.00    -0.116 N 
ATOM     15  O   UNL d   1       1.919  -0.587  -0.586  0.00  0.00    -0.532 OA
ATOM     16  O   UNL d   1       0.651  -0.348   1.187  0.00  0.00    -0.532 OA
ENDBRANCH   1  14
TORSDOF 2
