REMARK  4 active torsions:
REMARK  status: ('A' for Active; 'I' for Inactive)
REMARK    1  A    between atoms: C_6  and  C_1 
REMARK       I    between atoms: N_10  and  C_6 
REMARK    2  A    between atoms: C_8  and  C_12 
REMARK       I    between atoms: C_9  and  N_11 
REMARK    3  A    between atoms: C_13  and  C_9 
REMARK    4  A    between atoms: N_11  and  N_10 
ROOT
ATOM      1  C   UNL d   1      -5.041  -1.338   0.279  0.00  0.00     0.270 C 
ATOM      2  N   UNL d   1      -3.733  -1.582   0.659  0.00  0.00    -0.263 N 
ATOM      3  O   UNL d   1      -5.588  -1.926  -0.653  0.00  0.00    -0.266 OA
ATOM      4  H   UNL d   1      -3.196  -0.954   1.255  0.00  0.00     0.190 HD
ENDROOT
BRANCH   2   5
ATOM      5  N   UNL d   1      -2.994  -2.523  -0.067  0.00  0.00    -0.262 N 
ATOM      6  C   UNL d   1      -1.637  -2.691   0.184  0.00  0.00     0.279 C 
ATOM      7  O   UNL d   1      -1.095  -2.082   1.106  0.00  0.00    -0.265 OA
ATOM      8  H   UNL d   1      -3.482  -3.012  -0.816  0.00  0.00     0.190 HD
BRANCH   6   9
ATOM      9  C   UNL d   1      -0.944  -3.601  -0.718  0.00  0.00     0.098 A 
ATOM     10  C   UNL d   1       0.366  -4.069  -0.679  0.00  0.00     0.028 A 
ATOM     11  N   UNL d   1       0.718  -4.898  -1.739  0.00  0.00    -0.357 N 
ATOM     12  C   UNL d   1       1.428  -3.810   0.331  0.00  0.00     0.070 C 
ATOM     13  C   UNL d   1      -0.289  -5.042  -2.567  0.00  0.00     0.048 A 
ATOM     14  HN  UNL d   1       1.633  -5.333  -1.856  1.00  0.00     0.166 HD
ATOM     15  S   UNL d   1      -1.729  -4.245  -2.110  0.00  0.00    -0.070 SA
ATOM     16  C   UNL d   1      -0.221  -5.830  -3.827  0.00  0.00     0.076 C 
ENDBRANCH   6   9
ENDBRANCH   2   5
BRANCH   1  17
ATOM     17  C   UNL d   1      -5.762  -0.291   1.055  0.00  0.00     0.033 A 
ATOM     18  C   UNL d   1      -6.812   0.415   0.452  0.00  0.00     0.018 A 
ATOM     19  C   UNL d   1      -7.499   1.405   1.166  0.00  0.00     0.017 A 
ATOM     20  C   UNL d   1      -7.156   1.693   2.497  0.00  0.00     0.048 A 
ATOM     21  C   UNL d   1      -6.122   0.961   3.102  0.00  0.00     0.017 A 
ATOM     22  C   UNL d   1      -5.434  -0.025   2.390  0.00  0.00     0.018 A 
BRANCH  20  23
ATOM     23  C   UNL d   1      -7.874   2.761   3.290  0.00  0.00     0.417 C 
ATOM     24  F   UNL d   1      -8.848   3.403   2.590  0.00  0.00    -0.166 F 
ATOM     25  F   UNL d   1      -8.477   2.261   4.404  0.00  0.00    -0.166 F 
ATOM     26  F   UNL d   1      -7.026   3.732   3.730  0.00  0.00    -0.166 F 
ENDBRANCH  20  23
ENDBRANCH   1  17
TORSDOF 4
