REMARK  2 active torsions:
REMARK  status: ('A' for Active; 'I' for Inactive)
REMARK    1  A    between atoms: N_2  and  S_1 
REMARK    2  A    between atoms: C_6  and  S_1 
ROOT
ATOM      1  S   UNL d   1       0.817   0.106  -0.042  0.00  0.00     0.278 S 
ATOM      2  O   UNL d   1      -0.022   0.402   1.103  0.00  0.00    -0.199 OA
ATOM      3  O   UNL d   1       2.262   0.076   0.072  0.00  0.00    -0.199 OA
ENDROOT
BRANCH   1   4
ATOM      4  N   UNL d   1       0.404   1.123  -1.353  0.00  0.00    -0.213 N 
ATOM      5  N   UNL d   1      -0.038   2.479  -1.089  0.00  0.00    -0.278 N 
ATOM      6  C   UNL d   1       0.411   3.214  -2.055  0.00  0.00     0.091 A 
ATOM      7  HN  UNL d   1      -0.596   2.793  -0.295  1.00  0.00     0.189 HD
ATOM      8  N   UNL d   1       0.141   4.543  -2.194  0.00  0.00    -0.388 N 
ATOM      9  C   UNL d   1       1.301   2.507  -3.037  0.00  0.00     0.100 A 
ATOM     10  H   UNL d   1      -0.638   4.865  -1.627  0.00  0.00     0.157 HD
ATOM     11  H   UNL d   1       0.172   4.939  -3.124  0.00  0.00     0.157 HD
ATOM     12  C   UNL d   1       1.210   1.060  -2.581  0.00  0.00     0.169 A 
ENDBRANCH   1   4
BRANCH   1  13
ATOM     13  C   UNL d   1       0.287  -1.490  -0.636  0.00  0.00     0.081 A 
ATOM     14  C   UNL d   1       1.205  -2.533  -0.778  0.00  0.00     0.026 A 
ATOM     15  C   UNL d   1       0.751  -3.798  -1.162  0.00  0.00     0.008 A 
ATOM     16  C   UNL d   1      -0.612  -4.024  -1.404  0.00  0.00    -0.062 A 
ATOM     17  C   UNL d   1      -1.519  -2.966  -1.265  0.00  0.00     0.008 A 
ATOM     18  C   UNL d   1      -1.086  -5.401  -1.774  0.00  0.00     0.048 C 
ATOM     19  C   UNL d   1      -1.074  -1.700  -0.879  0.00  0.00     0.026 A 
ENDBRANCH   1  13
TORSDOF 2
