REMARK  7 active torsions:
REMARK  status: ('A' for Active; 'I' for Inactive)
REMARK       I    between atoms: C_3  and  N_8 
REMARK    1  A    between atoms: C_18  and  C_3 
REMARK    2  A    between atoms: C_6  and  C_19 
REMARK    3  A    between atoms: O_16  and  C_6 
REMARK    4  A    between atoms: N_8  and  C_15 
REMARK    5  A    between atoms: S_13  and  C_18 
REMARK    6  A    between atoms: C_19  and  S_13 
REMARK    7  A    between atoms: C_15  and  C_14 
ROOT
ATOM      1  C   UNL d   1       5.318  -0.104  -1.232  0.00  0.00     0.227 C 
ATOM      2  N   UNL d   1       4.710  -0.483  -0.054  0.00  0.00    -0.356 N 
ATOM      3  O   UNL d   1       4.915  -0.456  -2.338  0.00  0.00    -0.273 OA
ATOM      4  H   UNL d   1       4.942  -0.009   0.812  0.00  0.00     0.162 HD
ENDROOT
BRANCH   2   5
ATOM      5  C   UNL d   1       3.555  -1.352  -0.043  0.00  0.00     0.161 C 
BRANCH   5   6
ATOM      6  C   UNL d   1       2.264  -0.578   0.025  0.00  0.00    -0.038 A 
ATOM      7  C   UNL d   1       1.697  -0.249   1.267  0.00  0.00     0.048 A 
ATOM      8  C   UNL d   1       0.501   0.438   1.273  0.00  0.00     0.105 A 
ATOM      9  C   UNL d   1      -0.131   0.809   0.110  0.00  0.00     0.105 A 
ATOM     10  O   UNL d   1      -0.191   0.814   2.382  0.00  0.00    -0.323 OA
ATOM     11  O   UNL d   1      -1.298   1.468   0.340  0.00  0.00    -0.323 OA
ATOM     12  C   UNL d   1       0.402   0.520  -1.127  0.00  0.00     0.040 A 
ATOM     13  C   UNL d   1      -1.312   1.496   1.783  0.00  0.00     0.352 A 
ATOM     14  C   UNL d   1       1.615  -0.175  -1.166  0.00  0.00     0.012 A 
ENDBRANCH   5   6
ENDBRANCH   2   5
BRANCH   1  15
ATOM     15  C   UNL d   1       6.544   0.778  -1.050  0.00  0.00     0.177 C 
BRANCH  15  16
ATOM     16  S   UNL d   1       6.330   2.415  -1.837  0.00  0.00    -0.149 SA
BRANCH  16  17
ATOM     17  C   UNL d   1       4.906   3.027  -0.879  0.00  0.00     0.184 C 
BRANCH  17  18
ATOM     18  C   UNL d   1       5.281   3.160   0.578  0.00  0.00     0.149 C 
ATOM     19  O   UNL d   1       4.752   2.524   1.480  0.00  0.00    -0.649 OA
BRANCH  18  20
ATOM     20  O   UNL d   1       6.312   4.010   0.796  0.00  0.00    -0.776 OA
ATOM     21  H   UNL d   1       6.699   4.345  -0.041  0.00  0.00     0.167 HD
ENDBRANCH  18  20
ENDBRANCH  17  18
ENDBRANCH  16  17
ENDBRANCH  15  16
ENDBRANCH   1  15
TORSDOF 7
