REMARK  5 active torsions:
REMARK  status: ('A' for Active; 'I' for Inactive)
REMARK    1  A    between atoms: C_8  and  C_1 
REMARK    2  A    between atoms: C_9  and  C_2 
REMARK       I    between atoms: C_10  and  N_11 
REMARK    3  A    between atoms: C_14  and  C_10 
REMARK    4  A    between atoms: N_11  and  C_12 
REMARK    5  A    between atoms: O_28  and  C_20 
ROOT
ATOM      1  C   UNL d   1      -0.197  -2.897   0.377  0.00  0.00     0.043 A 
ATOM      2  C   UNL d   1      -1.079  -2.960  -0.724  0.00  0.00     0.049 A 
ATOM      3  C   UNL d   1      -0.130  -4.068   1.202  0.00  0.00     0.018 A 
ATOM      4  C   UNL d   1      -1.691  -4.220  -1.011  0.00  0.00     0.030 A 
ATOM      5  C   UNL d   1      -0.782  -5.266   0.922  0.00  0.00     0.001 A 
ATOM      6  C   UNL d   1      -1.547  -5.354  -0.213  0.00  0.00     0.002 A 
ENDROOT
BRANCH   1   7
ATOM      7  C   UNL d   1       0.764  -1.861   0.809  0.00  0.00     0.177 A 
ATOM      8  O   UNL d   1       1.930  -2.395   1.339  0.00  0.00    -0.272 OA
ATOM      9  C   UNL d   1       2.498  -1.358   2.018  0.00  0.00     0.176 A 
ATOM     10  N   UNL d   1       1.832  -0.238   1.813  0.00  0.00    -0.277 N 
ATOM     11  N   UNL d   1       0.703  -0.570   1.056  0.00  0.00    -0.277 N 
ATOM     12  HN  UNL d   1       2.090   0.691   2.143  1.00  0.00     0.189 HD
ATOM     13  HN  UNL d   1      -0.031   0.070   0.753  1.00  0.00     0.189 HD
BRANCH   9  14
ATOM     14  C   UNL d   1       3.624  -1.645   2.933  0.00  0.00     0.037 A 
ATOM     15  C   UNL d   1       4.171  -2.923   3.193  0.00  0.00     0.025 A 
ATOM     16  C   UNL d   1       5.199  -3.088   4.138  0.00  0.00     0.023 A 
ATOM     17 BR   UNL d   1       3.626  -4.549   2.364  0.00  0.00    -0.050 Br
ATOM     18  C   UNL d   1       5.707  -2.000   4.835  0.00  0.00     0.038 A 
ATOM     19  C   UNL d   1       5.191  -0.728   4.609  0.00  0.00     0.069 A 
ATOM     20  C   UNL d   1       4.166  -0.554   3.666  0.00  0.00     0.054 A 
BRANCH  19  21
ATOM     21  O   UNL d   1       5.782   0.244   5.366  0.00  0.00    -0.356 OA
ATOM     22  C   UNL d   1       5.184   1.532   5.368  0.00  0.00     0.210 C 
ENDBRANCH  19  21
ENDBRANCH   9  14
ENDBRANCH   1   7
BRANCH   2  23
ATOM     23  N   UNL d   1      -1.573  -1.987  -1.638  0.00  0.00    -0.322 N 
ATOM     24  C   UNL d   1      -1.621  -0.612  -1.604  0.00  0.00     0.256 C 
ATOM     25  O   UNL d   1      -0.951   0.112  -0.893  0.00  0.00    -0.267 OA
ATOM     26  H   UNL d   1      -2.203  -2.391  -2.310  0.00  0.00     0.169 HD
BRANCH  24  27
ATOM     27  C   UNL d   1      -2.684   0.018  -2.499  0.00  0.00     0.032 A 
ATOM     28  C   UNL d   1      -3.031   1.357  -2.250  0.00  0.00     0.018 A 
ATOM     29  C   UNL d   1      -4.072   1.982  -2.953  0.00  0.00     0.025 A 
ATOM     30  C   UNL d   1      -4.782   1.275  -3.917  0.00  0.00     0.034 A 
ATOM     31  C   UNL d   1      -4.444  -0.045  -4.200  0.00  0.00     0.025 A 
ATOM     32 CL   UNL d   1      -6.084   2.024  -4.757  0.00  0.00    -0.084 Cl
ATOM     33  C   UNL d   1      -3.396  -0.668  -3.505  0.00  0.00     0.018 A 
ENDBRANCH  24  27
ENDBRANCH   2  23
TORSDOF 5
