REMARK  1 active torsions:
REMARK  status: ('A' for Active; 'I' for Inactive)
REMARK    1  A    between atoms: C_9  and  C_3 
ROOT
ATOM      1  C   UNL d   1       0.159   0.668  -0.098  0.00  0.00     0.059 A 
ATOM      2  C   UNL d   1      -0.148  -0.641  -0.043  0.00  0.00     0.003 A 
ATOM      3  C   UNL d   1      -2.230   0.343  -0.032  0.00  0.00     0.041 A 
ATOM      4  C   UNL d   1      -1.556  -0.893  -0.034  0.00  0.00    -0.030 A 
ATOM      5  S   UNL d   1      -1.150   1.691  -0.129  0.00  0.00    -0.079 SA
ATOM      6  S   UNL d   1       1.792   1.003  -0.122  0.00  0.00    -0.074 SA
ATOM      7  C   UNL d   1       2.130  -0.668  -0.047  0.00  0.00     0.059 A 
ATOM      8  C   UNL d   1       1.002  -1.491  -0.004  0.00  0.00    -0.025 A 
ATOM      9 BR   UNL d   1       3.911  -1.283  -0.022  0.00  0.00    -0.042 Br
ATOM     10  C   UNL d   1      -2.268  -2.207  -0.024  0.00  0.00     0.050 C 
ATOM     11  C   UNL d   1       1.099  -2.978   0.074  0.00  0.00     0.051 C 
ENDROOT
BRANCH   3  12
ATOM     12  C   UNL d   1      -3.728   0.552   0.049  0.00  0.00     0.067 A 
ATOM     13  N   UNL d   1      -4.599  -0.450   0.230  0.00  0.00    -0.300 N 
ATOM     14  N   UNL d   1      -5.798   0.146   0.270  0.00  0.00    -0.311 N 
ATOM     15  HN  UNL d   1      -4.394  -1.446   0.317  1.00  0.00     0.187 HD
ATOM     16  C   UNL d   1      -5.738   1.497   0.113  0.00  0.00     0.109 A 
ATOM     17  H   UNL d   1      -6.618  -0.433   0.409  0.00  0.00     0.186 HD
ATOM     18  C   UNL d   1      -4.406   1.797  -0.030  0.00  0.00     0.051 A 
ENDBRANCH   3  12
TORSDOF 1
