REMARK  3 active torsions:
REMARK  status: ('A' for Active; 'I' for Inactive)
REMARK    1  A    between atoms: S_13  and  C_3 
REMARK    2  A    between atoms: O_14  and  N_7 
REMARK    3  A    between atoms: C_12  and  O_14 
ROOT
ATOM      1  C   UNL d   1       0.087  -0.831   0.015  0.00  0.00     0.020 A 
ATOM      2  C   UNL d   1       0.360   0.595   0.005  0.00  0.00    -0.019 A 
ATOM      3  C   UNL d   1       1.250  -1.579  -0.083  0.00  0.00     0.054 A 
ATOM      4  S   UNL d   1       2.646  -0.582  -0.033  0.00  0.00    -0.074 SA
ATOM      5  C   UNL d   1       1.717   0.831  -0.016  0.00  0.00     0.060 A 
ATOM      6  C   UNL d   1      -1.294  -1.312   0.080  0.00  0.00     0.046 C 
ATOM      7  N   UNL d   1      -1.520  -2.503   0.538  0.00  0.00    -0.261 N 
ATOM      8  HN  UNL d   1      -0.786  -3.141   0.843  1.00  0.00     0.194 HD
ATOM      9  C   UNL d   1      -0.739   1.629  -0.029  0.00  0.00     0.050 C 
ATOM     10  C   UNL d   1      -2.130   1.060   0.359  0.00  0.00    -0.038 C 
ATOM     11  C   UNL d   1      -2.363  -0.306  -0.334  0.00  0.00     0.069 C 
ATOM     12 BR   UNL d   1       2.506   2.535  -0.058  0.00  0.00    -0.042 Br
ATOM     13  C   UNL d   1      -3.223   2.042  -0.104  0.00  0.00     0.015 C 
ATOM     14  C   UNL d   1      -2.241   0.915   1.891  0.00  0.00     0.015 C 
ENDROOT
BRANCH   7  15
ATOM     15  O   UNL d   1      -2.889  -2.816   0.567  0.00  0.00    -0.200 OA
BRANCH  15  16
ATOM     16  C   UNL d   1      -3.100  -3.953   1.307  0.00  0.00     0.277 C 
ATOM     17  O   UNL d   1      -2.269  -4.598   1.935  0.00  0.00    -0.264 OA
ATOM     18  C   UNL d   1      -4.549  -4.339   1.225  0.00  0.00     0.128 C 
ENDBRANCH  15  16
ENDBRANCH   7  15
BRANCH   3  19
ATOM     19  S   UNL d   1       1.429  -3.308  -0.376  0.00  0.00    -0.126 SA
ATOM     20  C   UNL d   1       1.678  -3.928   1.301  0.00  0.00     0.096 C 
ENDBRANCH   3  19
TORSDOF 3
