REMARK  5 active torsions:
REMARK  status: ('A' for Active; 'I' for Inactive)
REMARK    1  A    between atoms: N_4  and  S_1 
REMARK    2  A    between atoms: C_8  and  S_1 
REMARK    3  A    between atoms: C_7  and  C_2 
REMARK    4  A    between atoms: C_3  and  N_4 
REMARK    5  A    between atoms: O_19  and  C_7 
ROOT
ATOM      1  S   UNL d   1       0.967   0.170  -0.036  0.00  0.00     0.245 S 
ATOM      2  O   UNL d   1      -0.279   0.822  -0.387  0.00  0.00    -0.206 OA
ATOM      3  O   UNL d   1       2.126   0.225  -0.896  0.00  0.00    -0.206 OA
ENDROOT
BRANCH   1   4
ATOM      4  N   UNL d   1       0.570  -1.470   0.318  0.00  0.00    -0.179 NA
ATOM      5  H   UNL d   1      -0.428  -1.411   0.570  0.00  0.00     0.146 HD
BRANCH   4   6
ATOM      6  C   UNL d   1       0.750  -2.395  -0.754  0.00  0.00     0.052 A 
ATOM      7  C   UNL d   1      -0.216  -2.703  -1.700  0.00  0.00     0.102 A 
ATOM      8  S   UNL d   1       0.367  -3.802  -2.873  0.00  0.00    -0.093 SA
ATOM      9  C   UNL d   1       1.871  -3.939  -2.088  0.00  0.00     0.059 A 
ATOM     10  C   UNL d   1       1.956  -3.158  -0.949  0.00  0.00    -0.032 A 
ATOM     11  C   UNL d   1       3.161  -3.150  -0.070  0.00  0.00     0.050 C 
BRANCH   7  12
ATOM     12  C   UNL d   1      -1.579  -2.212  -1.733  0.00  0.00     0.301 C 
ATOM     13  O   UNL d   1      -2.173  -1.787  -0.748  0.00  0.00    -0.259 OA
BRANCH  12  14
ATOM     14  O   UNL d   1      -2.101  -2.257  -2.992  0.00  0.00    -0.322 OA
ATOM     15  C   UNL d   1      -3.421  -1.726  -3.097  0.00  0.00     0.213 C 
ENDBRANCH  12  14
ENDBRANCH   7  12
ENDBRANCH   4   6
ENDBRANCH   1   4
BRANCH   1  16
ATOM     16  C   UNL d   1       1.479   0.788   1.555  0.00  0.00     0.075 A 
ATOM     17  C   UNL d   1       0.821   1.879   2.142  0.00  0.00     0.034 A 
ATOM     18  C   UNL d   1       1.291   2.331   3.365  0.00  0.00    -0.021 A 
ATOM     19  C   UNL d   1       0.790   3.417   4.239  0.00  0.00     0.068 C 
ATOM     20  C   UNL d   1       2.362   1.708   3.990  0.00  0.00     0.075 A 
ATOM     21  C   UNL d   1       1.951   3.495   5.234  0.00  0.00     0.180 C 
ATOM     22  O   UNL d   1       2.690   2.252   5.204  0.00  0.00    -0.350 OA
ATOM     23  C   UNL d   1       3.018   0.633   3.428  0.00  0.00     0.039 A 
ATOM     24  C   UNL d   1       2.578   0.175   2.186  0.00  0.00     0.027 A 
ENDBRANCH   1  16
TORSDOF 5
