REMARK  6 active torsions:
REMARK  status: ('A' for Active; 'I' for Inactive)
REMARK    1  A    between atoms: N_2  and  S_1 
REMARK    2  A    between atoms: C_9  and  S_1 
REMARK    3  A    between atoms: C_4  and  N_2 
REMARK    4  A    between atoms: N_5  and  C_4 
REMARK       I    between atoms: C_6  and  N_5 
REMARK    5  A    between atoms: O_10  and  C_6 
REMARK    6  A    between atoms: C_13  and  O_10 
ROOT
ATOM      1  C   UNL d   1       0.452   1.752  -2.782  0.00  0.00     0.187 C 
ATOM      2  S   UNL d   1      -0.775   2.238  -3.791  0.00  0.00    -0.040 SA
ENDROOT
BRANCH   1   3
ATOM      3  N   UNL d   1       0.422   0.487  -2.218  0.00  0.00    -0.289 N 
ATOM      4  HN  UNL d   1       0.510   0.509  -1.202  1.00  0.00     0.178 HD
BRANCH   3   5
ATOM      5  S   UNL d   1       0.287  -0.942  -2.770  0.00  0.00     0.054 S 
ATOM      6  O   UNL d   1       0.510  -2.087  -1.901  0.00  0.00    -0.245 OA
ATOM      7  C   UNL d   1      -1.341  -1.171  -3.449  0.00  0.00     0.142 C 
BRANCH   5   8
ATOM      8  C   UNL d   1       1.346  -1.251  -4.185  0.00  0.00     0.038 A 
ATOM      9  C   UNL d   1       1.450  -2.584  -4.618  0.00  0.00     0.022 A 
ATOM     10  C   UNL d   1       2.239  -2.911  -5.720  0.00  0.00     0.001 A 
ATOM     11  C   UNL d   1       2.934  -1.911  -6.394  0.00  0.00     0.000 A 
ATOM     12  C   UNL d   1       2.849  -0.590  -5.957  0.00  0.00     0.001 A 
ATOM     13  C   UNL d   1       2.063  -0.254  -4.847  0.00  0.00     0.022 A 
ENDBRANCH   5   8
ENDBRANCH   3   5
ENDBRANCH   1   3
BRANCH   1  14
ATOM     14  N   UNL d   1       1.489   2.503  -2.307  0.00  0.00    -0.278 N 
ATOM     15  C   UNL d   1       1.965   3.730  -2.692  0.00  0.00     0.372 C 
ATOM     16  O   UNL d   1       1.595   4.385  -3.655  0.00  0.00    -0.238 OA
ATOM     17  H   UNL d   1       2.002   2.042  -1.571  0.00  0.00     0.173 HD
BRANCH  15  18
ATOM     18  O   UNL d   1       3.027   4.062  -1.861  0.00  0.00    -0.261 OA
BRANCH  18  19
ATOM     19  C   UNL d   1       3.994   4.854  -2.488  0.00  0.00     0.081 A 
ATOM     20  C   UNL d   1       4.234   6.140  -2.014  0.00  0.00     0.037 A 
ATOM     21  C   UNL d   1       5.264   6.888  -2.588  0.00  0.00     0.003 A 
ATOM     22  C   UNL d   1       6.045   6.343  -3.608  0.00  0.00     0.000 A 
ATOM     23  C   UNL d   1       5.807   5.044  -4.061  0.00  0.00     0.003 A 
ATOM     24  C   UNL d   1       4.784   4.290  -3.493  0.00  0.00     0.037 A 
ENDBRANCH  18  19
ENDBRANCH  15  18
ENDBRANCH   1  14
TORSDOF 6
