REMARK  6 active torsions:
REMARK  status: ('A' for Active; 'I' for Inactive)
REMARK    1  A    between atoms: C_3  and  C_1 
REMARK    2  A    between atoms: C_2  and  C_4 
REMARK    3  A    between atoms: O_8  and  C_2 
REMARK    4  A    between atoms: C_4  and  S_5 
REMARK    5  A    between atoms: S_5  and  C_9 
REMARK    6  A    between atoms: C_13  and  O_8 
ROOT
ATOM      1  C   UNL d   1       1.556   8.111   2.859  0.00  0.00     0.063 A 
ATOM      2  N   UNL d   1       0.338   7.955   0.769  0.00  0.00    -0.360 N 
ATOM      3  HN  UNL d   1      -0.052   8.409  -0.057  1.00  0.00     0.166 HD
ATOM      4  C   UNL d   1       0.203   6.628   0.969  0.00  0.00     0.070 A 
ATOM      5  C   UNL d   1       1.011   8.664   1.709  0.00  0.00     0.105 A 
ATOM      6  C   UNL d   1       1.402   6.734   3.041  0.00  0.00     0.020 A 
ATOM      7  C   UNL d   1       0.728   5.980   2.081  0.00  0.00     0.038 A 
ENDROOT
BRANCH   4   8
ATOM      8  S   UNL d   1      -0.639   5.691  -0.284  0.00  0.00    -0.092 SA
BRANCH   8   9
ATOM      9  C   UNL d   1      -2.420   6.030   0.124  0.00  0.00     0.095 C 
ATOM     10  C   UNL d   1      -2.721   5.630   1.578  0.00  0.00     0.038 C 
ATOM     11  C   UNL d   1      -2.794   7.501  -0.097  0.00  0.00     0.038 C 
BRANCH   9  12
ATOM     12  C   UNL d   1      -3.279   5.157  -0.814  0.00  0.00     0.278 C 
ATOM     13  O   UNL d   1      -4.038   4.277  -0.427  0.00  0.00    -0.263 OA
BRANCH  12  14
ATOM     14  O   UNL d   1      -3.116   5.520  -2.118  0.00  0.00    -0.310 OA
BRANCH  14  15
ATOM     15  C   UNL d   1      -3.920   4.927  -3.170  0.00  0.00     0.060 C 
ATOM     16  C   UNL d   1      -5.406   5.249  -2.962  0.00  0.00     0.045 C 
ATOM     17  C   UNL d   1      -3.442   5.614  -4.458  0.00  0.00     0.045 C 
ATOM     18  C   UNL d   1      -3.676   3.420  -3.300  0.00  0.00     0.045 C 
ENDBRANCH  14  15
ENDBRANCH  12  14
ENDBRANCH   9  12
ENDBRANCH   8   9
ENDBRANCH   4   8
BRANCH   1  19
ATOM     19  C   UNL d   1       2.271   8.960   3.864  0.00  0.00     0.418 C 
ATOM     20  F   UNL d   1       2.416  10.259   3.479  0.00  0.00    -0.166 F 
ATOM     21  F   UNL d   1       3.526   8.508   4.130  0.00  0.00    -0.166 F 
ATOM     22  F   UNL d   1       1.625   8.997   5.061  0.00  0.00    -0.166 F 
ENDBRANCH   1  19
TORSDOF 6
