REMARK  4 active torsions:
REMARK  status: ('A' for Active; 'I' for Inactive)
REMARK    1  A    between atoms: C_3  and  C_1 
REMARK    2  A    between atoms: O_11  and  C_2 
REMARK       I    between atoms: N_6  and  C_3 
REMARK    3  A    between atoms: C_13  and  N_6 
REMARK    4  A    between atoms: C_9  and  O_11 
ROOT
ATOM      1  C   UNL d   1      -0.043   1.141  -0.073  0.00  0.00     0.146 A 
ATOM      2  C   UNL d   1      -0.121  -1.054  -0.079  0.00  0.00     0.191 A 
ATOM      3  O   UNL d   1      -0.901   0.071  -0.078  0.00  0.00    -0.282 OA
ATOM      4  C   UNL d   1       1.264   0.691  -0.025  0.00  0.00     0.048 A 
ATOM      5  C   UNL d   1       1.214  -0.715  -0.005  0.00  0.00     0.067 A 
ENDROOT
BRANCH   1   6
ATOM      6  C   UNL d   1      -0.516   2.510  -0.137  0.00  0.00     0.280 C 
ATOM      7  N   UNL d   1      -1.892   2.679  -0.059  0.00  0.00    -0.321 N 
ATOM      8  H   UNL d   1      -2.432   1.846   0.141  0.00  0.00     0.169 HD
ATOM      9  O   UNL d   1       0.295   3.430  -0.219  0.00  0.00    -0.265 OA
BRANCH   7  10
ATOM     10  C   UNL d   1      -2.568   3.925  -0.071  0.00  0.00     0.037 A 
ATOM     11  C   UNL d   1      -1.954   5.120  -0.464  0.00  0.00     0.069 A 
ATOM     12  C   UNL d   1      -2.624   6.338  -0.362  0.00  0.00     0.104 A 
ATOM     13  O   UNL d   1      -1.912   7.457  -0.712  0.00  0.00    -0.346 OA
ATOM     14  C   UNL d   1      -3.943   6.379   0.085  0.00  0.00     0.102 A 
ATOM     15  C   UNL d   1      -2.494   8.628  -0.137  0.00  0.00     0.202 C 
ATOM     16  C   UNL d   1      -3.991   8.655  -0.399  0.00  0.00     0.202 C 
ATOM     17  O   UNL d   1      -4.653   7.544   0.224  0.00  0.00    -0.346 OA
ATOM     18  C   UNL d   1      -4.585   5.193   0.436  0.00  0.00     0.042 A 
ATOM     19  C   UNL d   1      -3.904   3.968   0.350  0.00  0.00     0.032 A 
ENDBRANCH   7  10
ENDBRANCH   1   6
BRANCH   2  20
ATOM     20  O   UNL d   1      -0.799  -2.198  -0.160  0.00  0.00    -0.288 OA
BRANCH  20  21
ATOM     21  C   UNL d   1      -0.204  -3.323  -0.690  0.00  0.00     0.081 A 
ATOM     22  C   UNL d   1      -0.484  -4.547  -0.082  0.00  0.00     0.061 A 
ATOM     23  C   UNL d   1       0.045  -5.722  -0.620  0.00  0.00     0.038 A 
ATOM     24 CL   UNL d   1      -0.307  -7.235   0.121  0.00  0.00    -0.084 Cl
ATOM     25  C   UNL d   1       0.849  -5.688  -1.758  0.00  0.00     0.048 A 
ATOM     26  C   UNL d   1       1.115  -4.463  -2.364  0.00  0.00     0.038 A 
ATOM     27  C   UNL d   1       0.583  -3.283  -1.846  0.00  0.00     0.061 A 
ATOM     28 CL   UNL d   1       2.100  -4.404  -3.774  0.00  0.00    -0.084 Cl
ENDBRANCH  20  21
ENDBRANCH   2  20
TORSDOF 4
