REMARK  7 active torsions:
REMARK  status: ('A' for Active; 'I' for Inactive)
REMARK    1  A    between atoms: C_8  and  N_1 
REMARK    2  A    between atoms: C_10  and  C_2 
REMARK    3  A    between atoms: S_9  and  C_5 
REMARK    4  A    between atoms: C_14  and  S_9 
REMARK    5  A    between atoms: C_11  and  C_14 
REMARK    6  A    between atoms: C_12  and  C_13 
REMARK    7  A    between atoms: C_26  and  C_15 
ROOT
ATOM      1  N   UNL d   1      -0.358  -1.247  -0.029  0.00  0.00    -0.275 N 
ATOM      2  C   UNL d   1       0.900  -0.618  -0.015  0.00  0.00     0.139 A 
ATOM      3  N   UNL d   1       0.717   0.693   0.052  0.00  0.00    -0.282 N 
ATOM      4  HN  UNL d   1       1.455   1.390   0.146  1.00  0.00     0.188 HD
ATOM      5  C   UNL d   1      -1.259  -0.185  -0.103  0.00  0.00     0.168 A 
ATOM      6  N   UNL d   1      -0.619   0.958  -0.023  0.00  0.00    -0.278 N 
ATOM      7  HN  UNL d   1      -1.047   1.884  -0.019  1.00  0.00     0.189 HD
ENDROOT
BRANCH   2   8
ATOM      8  C   UNL d   1       2.238  -1.239  -0.105  0.00  0.00     0.010 A 
ATOM      9  C   UNL d   1       2.509  -2.356  -0.905  0.00  0.00     0.016 A 
ATOM     10  C   UNL d   1       3.772  -2.967  -0.897  0.00  0.00     0.009 A 
ATOM     11  C   UNL d   1       4.837  -2.453  -0.139  0.00  0.00    -0.051 A 
ATOM     12  C   UNL d   1       4.578  -1.288   0.602  0.00  0.00     0.009 A 
ATOM     13  C   UNL d   1       3.304  -0.695   0.619  0.00  0.00     0.016 A 
BRANCH  11  14
ATOM     14  C   UNL d   1       6.208  -3.155  -0.140  0.00  0.00    -0.024 C 
ATOM     15  C   UNL d   1       7.280  -2.421   0.698  0.00  0.00     0.019 C 
ATOM     16  C   UNL d   1       6.067  -4.578   0.446  0.00  0.00     0.019 C 
ATOM     17  C   UNL d   1       6.755  -3.264  -1.580  0.00  0.00     0.019 C 
ENDBRANCH  11  14
ENDBRANCH   2   8
BRANCH   1  18
ATOM     18  C   UNL d   1      -0.610  -2.653   0.036  0.00  0.00     0.043 A 
ATOM     19  C   UNL d   1       0.217  -3.476   0.814  0.00  0.00     0.031 A 
ATOM     20  C   UNL d   1       0.078  -4.868   0.785  0.00  0.00     0.010 A 
ATOM     21  C   UNL d   1      -0.931  -5.472   0.026  0.00  0.00    -0.055 A 
ATOM     22  C   UNL d   1      -1.780  -4.639  -0.719  0.00  0.00     0.010 A 
ATOM     23  C   UNL d   1      -1.623  -3.245  -0.720  0.00  0.00     0.031 A 
BRANCH  21  24
ATOM     24  C   UNL d   1      -1.115  -6.981  -0.038  0.00  0.00     0.010 C 
ATOM     25  C   UNL d   1      -0.336  -7.578  -1.215  0.00  0.00     0.015 C 
ATOM     26  C   UNL d   1      -0.750  -7.711   1.260  0.00  0.00     0.015 C 
ENDBRANCH  21  24
ENDBRANCH   1  18
BRANCH   5  27
ATOM     27  S   UNL d   1      -3.001  -0.302  -0.108  0.00  0.00    -0.087 SA
BRANCH  27  28
ATOM     28  C   UNL d   1      -3.483   1.456  -0.218  0.00  0.00     0.122 C 
BRANCH  28  29
ATOM     29  C   UNL d   1      -4.983   1.643  -0.369  0.00  0.00    -0.027 A 
ATOM     30  C   UNL d   1      -5.628   1.678  -1.615  0.00  0.00     0.041 A 
ATOM     31 CL   UNL d   1      -4.762   1.492  -3.100  0.00  0.00    -0.084 Cl
ATOM     32  C   UNL d   1      -7.013   1.879  -1.705  0.00  0.00     0.024 A 
ATOM     33  C   UNL d   1      -7.777   2.043  -0.548  0.00  0.00     0.002 A 
ATOM     34  C   UNL d   1      -7.156   2.003   0.695  0.00  0.00     0.001 A 
ATOM     35  C   UNL d   1      -5.775   1.803   0.787  0.00  0.00     0.009 A 
ENDBRANCH  28  29
ENDBRANCH  27  28
ENDBRANCH   5  27
TORSDOF 7
