REMARK  7 active torsions:
REMARK  status: ('A' for Active; 'I' for Inactive)
REMARK    1  A    between atoms: C_14  and  N_2 
REMARK       I    between atoms: C_4  and  N_9 
REMARK    2  A    between atoms: C_10  and  C_4 
REMARK    3  A    between atoms: C_5  and  C_11 
REMARK    4  A    between atoms: O_13  and  C_5 
REMARK    5  A    between atoms: N_9  and  C_16 
REMARK    6  A    between atoms: C_11  and  C_10 
REMARK    7  A    between atoms: C_16  and  C_14 
ROOT
ATOM      1  C   UNL d   1      -3.454  -4.358  -0.371  0.00  0.00     0.218 C 
ATOM      2  O   UNL d   1      -3.969  -3.847   0.615  0.00  0.00    -0.274 OA
ATOM      3  N   UNL d   1      -2.471  -3.749  -1.114  0.00  0.00    -0.359 N 
ATOM      4  H   UNL d   1      -1.942  -4.321  -1.772  0.00  0.00     0.162 HD
ENDROOT
BRANCH   3   5
ATOM      5  C   UNL d   1      -1.940  -2.435  -0.795  0.00  0.00     0.142 C 
BRANCH   5   6
ATOM      6  C   UNL d   1      -0.441  -2.455  -0.473  0.00  0.00     0.147 C 
BRANCH   6   7
ATOM      7  N   UNL d   1       0.417  -2.768  -1.608  0.00  0.00    -0.331 N 
ATOM      8  C   UNL d   1       0.483  -3.989  -2.265  0.00  0.00     0.318 C 
ATOM      9  N   UNL d   1       1.432  -3.877  -3.268  0.00  0.00    -0.341 N 
ATOM     10  O   UNL d   1      -0.174  -4.989  -2.033  0.00  0.00    -0.247 OA
ATOM     11  C   UNL d   1       2.167  -2.650  -3.125  0.00  0.00     0.144 C 
ATOM     12  H   UNL d   1       1.757  -4.714  -3.734  0.00  0.00     0.164 HD
ATOM     13  C   UNL d   1       1.238  -1.784  -2.284  0.00  0.00     0.147 C 
ENDBRANCH   6   7
ENDBRANCH   5   6
ENDBRANCH   3   5
BRANCH   1  14
ATOM     14  C   UNL d   1      -3.849  -5.726  -0.884  0.00  0.00     0.113 C 
BRANCH  14  15
ATOM     15  C   UNL d   1      -5.291  -6.019  -0.484  0.00  0.00     0.119 C 
BRANCH  15  16
ATOM     16  C   UNL d   1      -5.764  -7.354  -0.989  0.00  0.00     0.139 C 
ATOM     17  O   UNL d   1      -5.096  -8.144  -1.637  0.00  0.00    -0.650 OA
BRANCH  16  18
ATOM     18  O   UNL d   1      -7.050  -7.601  -0.648  0.00  0.00    -0.776 OA
ATOM     19  H   UNL d   1      -7.458  -6.883  -0.124  0.00  0.00     0.167 HD
ENDBRANCH  16  18
ENDBRANCH  15  16
ENDBRANCH  14  15
ENDBRANCH   1  14
TORSDOF 7
