REMARK  7 active torsions:
REMARK  status: ('A' for Active; 'I' for Inactive)
REMARK    1  A    between atoms: C_12  and  C_1 
REMARK    2  A    between atoms: C_11  and  C_2 
REMARK    3  A    between atoms: C_7  and  C_13 
REMARK    4  A    between atoms: S_18  and  C_10 
REMARK    5  A    between atoms: C_14  and  C_26 
REMARK       I    between atoms: N_17  and  C_14 
REMARK    6  A    between atoms: C_27  and  N_17 
REMARK    7  A    between atoms: C_26  and  S_18 
ROOT
ATOM      1  N   UNL d   1      -1.116   3.265  -0.601  0.00  0.00    -0.334 N 
ATOM      2  HN  UNL d   1      -0.349   3.141  -1.262  1.00  0.00     0.168 HD
ATOM      3  C   UNL d   1      -1.718   4.448  -0.434  0.00  0.00     0.145 A 
ATOM      4  C   UNL d   1      -1.577   2.246   0.152  0.00  0.00     0.071 A 
ATOM      5  N   UNL d   1      -2.723   4.693   0.415  0.00  0.00    -0.347 N 
ATOM      6  HN  UNL d   1      -3.143   5.618   0.501  1.00  0.00     0.167 HD
ATOM      7  C   UNL d   1      -2.602   2.391   1.062  0.00  0.00     0.049 A 
ATOM      8  C   UNL d   1      -3.148   3.648   1.148  0.00  0.00     0.092 A 
ENDROOT
BRANCH   3   9
ATOM      9  S   UNL d   1      -0.983   5.805  -1.304  0.00  0.00    -0.085 SA
BRANCH   9  10
ATOM     10  C   UNL d   1      -0.851   6.978   0.071  0.00  0.00     0.185 C 
BRANCH  10  11
ATOM     11  C   UNL d   1       0.015   6.538   1.248  0.00  0.00     0.231 C 
ATOM     12  N   UNL d   1       0.808   5.420   1.061  0.00  0.00    -0.327 N 
ATOM     13  H   UNL d   1       0.830   5.035   0.121  0.00  0.00     0.169 HD
ATOM     14  O   UNL d   1      -0.012   7.215   2.279  0.00  0.00    -0.272 OA
BRANCH  12  15
ATOM     15  C   UNL d   1       1.536   4.712   2.041  0.00  0.00     0.034 A 
ATOM     16  C   UNL d   1       1.529   5.041   3.397  0.00  0.00     0.030 A 
ATOM     17  C   UNL d   1       2.234   4.269   4.326  0.00  0.00     0.018 A 
ATOM     18  C   UNL d   1       2.964   3.145   3.916  0.00  0.00     0.048 A 
ATOM     19  C   UNL d   1       2.979   2.820   2.553  0.00  0.00     0.018 A 
ATOM     20  C   UNL d   1       2.270   3.595   1.625  0.00  0.00     0.030 A 
BRANCH  18  21
ATOM     21  C   UNL d   1       3.708   2.297   4.919  0.00  0.00     0.417 C 
ATOM     22  F   UNL d   1       3.573   2.726   6.205  0.00  0.00    -0.166 F 
ATOM     23  F   UNL d   1       3.289   1.001   4.916  0.00  0.00    -0.166 F 
ATOM     24  F   UNL d   1       5.048   2.258   4.679  0.00  0.00    -0.166 F 
ENDBRANCH  18  21
ENDBRANCH  12  15
ENDBRANCH  10  11
ENDBRANCH   9  10
ENDBRANCH   3   9
BRANCH   4  25
ATOM     25  C   UNL d   1      -0.893   0.989  -0.086  0.00  0.00     0.127 A 
ATOM     26  C   UNL d   1       0.064   0.579  -0.982  0.00  0.00     0.074 A 
ATOM     27  C   UNL d   1       0.301  -0.787  -0.679  0.00  0.00     0.069 A 
ATOM     28  N   UNL d   1      -0.493  -1.175   0.335  0.00  0.00    -0.260 N 
ATOM     29  O   UNL d   1      -1.227  -0.065   0.706  0.00  0.00    -0.235 OA
ATOM     30  HN  UNL d   1      -0.544  -2.105   0.749  1.00  0.00     0.195 HD
BRANCH  27  31
ATOM     31  C   UNL d   1       1.195  -1.730  -1.352  0.00  0.00     0.014 A 
ATOM     32  C   UNL d   1       2.480  -1.394  -1.812  0.00  0.00     0.046 A 
ATOM     33 CL   UNL d   1       3.220   0.146  -1.528  0.00  0.00    -0.083 Cl
ATOM     34  C   UNL d   1       3.254  -2.337  -2.502  0.00  0.00     0.025 A 
ATOM     35  C   UNL d   1       2.770  -3.626  -2.724  0.00  0.00     0.002 A 
ATOM     36  C   UNL d   1       1.513  -3.982  -2.249  0.00  0.00     0.001 A 
ATOM     37  C   UNL d   1       0.733  -3.043  -1.570  0.00  0.00     0.015 A 
ENDBRANCH  27  31
ENDBRANCH   4  25
TORSDOF 7
