REMARK  5 active torsions:
REMARK  status: ('A' for Active; 'I' for Inactive)
REMARK    1  A    between atoms: C_2  and  C_1 
REMARK    2  A    between atoms: N_8  and  C_12 
REMARK    3  A    between atoms: C_14  and  C_9 
REMARK    4  A    between atoms: O_13  and  C_11 
REMARK    5  A    between atoms: C_19  and  O_13 
ROOT
ATOM      1  C   UNL d   1      -0.713  -2.454  -0.139  0.00  0.00     0.053 A 
ATOM      2  C   UNL d   1      -1.477  -2.956  -1.212  0.00  0.00     0.054 A 
ATOM      3  C   UNL d   1      -0.353  -3.338   0.901  0.00  0.00     0.090 A 
ATOM      4  C   UNL d   1      -1.821  -4.316  -1.266  0.00  0.00     0.104 A 
ATOM      5  C   UNL d   1      -0.641  -4.711   0.795  0.00  0.00     0.041 A 
ATOM      6  C   UNL d   1      -1.387  -5.200  -0.277  0.00  0.00     0.039 A 
ENDROOT
BRANCH   1   7
ATOM      7  C   UNL d   1      -0.257  -1.066  -0.159  0.00  0.00     0.177 A 
ATOM      8  O   UNL d   1      -0.966  -0.177  -0.933  0.00  0.00    -0.273 OA
ATOM      9  C   UNL d   1      -0.241   0.979  -0.774  0.00  0.00     0.174 A 
ATOM     10  N   UNL d   1       0.808   0.809   0.006  0.00  0.00    -0.277 N 
ATOM     11  N   UNL d   1       0.793  -0.508   0.408  0.00  0.00    -0.277 N 
ATOM     12  HN  UNL d   1       1.497   1.516   0.262  1.00  0.00     0.189 HD
ATOM     13  HN  UNL d   1       1.465  -0.964   1.025  1.00  0.00     0.189 HD
BRANCH   9  14
ATOM     14  C   UNL d   1      -0.723   2.191  -1.430  0.00  0.00     0.017 A 
ATOM     15  C   UNL d   1      -1.919   2.223  -2.164  0.00  0.00     0.017 A 
ATOM     16  C   UNL d   1      -2.379   3.420  -2.728  0.00  0.00     0.025 A 
ATOM     17  C   UNL d   1      -1.646   4.593  -2.567  0.00  0.00     0.034 A 
ATOM     18  C   UNL d   1      -0.446   4.578  -1.862  0.00  0.00     0.025 A 
ATOM     19 CL   UNL d   1      -2.231   6.068  -3.228  0.00  0.00    -0.084 Cl
ATOM     20  C   UNL d   1       0.012   3.382  -1.298  0.00  0.00     0.017 A 
ENDBRANCH   9  14
ENDBRANCH   1   7
BRANCH   3  21
ATOM     21  O   UNL d   1       0.323  -2.824   1.994  0.00  0.00    -0.308 OA
BRANCH  21  22
ATOM     22  C   UNL d   1       0.144  -3.404   3.226  0.00  0.00     0.093 A 
ATOM     23  C   UNL d   1      -1.090  -3.820   3.729  0.00  0.00     0.064 A 
ATOM     24  C   UNL d   1      -1.136  -4.452   4.968  0.00  0.00     0.052 A 
ATOM     25 CL   UNL d   1      -2.620  -5.063   5.579  0.00  0.00    -0.083 Cl
ATOM     26  C   UNL d   1       0.043  -4.603   5.684  0.00  0.00     0.111 A 
ATOM     27  N   UNL d   1       1.246  -4.156   5.250  0.00  0.00    -0.371 N 
ATOM     28  C   UNL d   1       1.266  -3.558   4.033  0.00  0.00     0.124 A 
ATOM     29  HN  UNL d   1       2.092  -4.263   5.809  1.00  0.00     0.164 HD
ENDBRANCH  21  22
ENDBRANCH   3  21
BRANCH   4  30
ATOM     30  N   UNL d   1      -2.628  -4.823  -2.384  0.00  0.00    -0.116 N 
ATOM     31  O   UNL d   1      -2.988  -4.007  -3.246  0.00  0.00    -0.532 OA
ATOM     32  O   UNL d   1      -2.905  -6.029  -2.394  0.00  0.00    -0.532 OA
ENDBRANCH   4  30
TORSDOF 5
