REMARK  8 active torsions:
REMARK  status: ('A' for Active; 'I' for Inactive)
REMARK    1  A    between atoms: C_30  and  N_5 
REMARK    2  A    between atoms: C_29  and  N_6 
REMARK    3  A    between atoms: C_28  and  N_7 
REMARK    4  A    between atoms: N_8  and  C_27 
REMARK    5  A    between atoms: C_19  and  C_29 
REMARK    6  A    between atoms: C_20  and  C_30 
REMARK    7  A    between atoms: C_27  and  C_21 
REMARK    8  A    between atoms: C_22  and  C_28 
ROOT
ATOM      1  N   UNL d   1       7.504   0.393  -3.733  0.00  0.00    -0.197 NA
ATOM      2  C   UNL d   1       6.389   0.082  -3.848  0.00  0.00     0.060 C 
ATOM      3  C   UNL d   1       4.984  -0.320  -3.987  0.00  0.00     0.154 C 
ENDROOT
BRANCH   3   4
ATOM      4  C   UNL d   1       4.441  -0.953  -2.697  0.00  0.00     0.286 C 
BRANCH   4   5
ATOM      5  N   UNL d   1       3.674  -0.147  -1.738  0.00  0.00     0.091 NA
ATOM      6  C   UNL d   1       4.136   1.228  -1.502  0.00  0.00     0.274 C 
ATOM      7  C   UNL d   1       5.502   1.474  -0.836  0.00  0.00     0.060 C 
ATOM      8  C   UNL d   1       6.093   0.391   0.076  0.00  0.00     0.274 C 
ATOM      9  N   UNL d   1       5.203  -0.266   1.053  0.00  0.00     0.090 N 
ATOM     10  C   UNL d   1       5.966  -1.321   1.766  0.00  0.00     0.291 C 
ATOM     11  C   UNL d   1       5.172  -2.572   2.248  0.00  0.00     0.147 C 
ATOM     12  N   UNL d   1       4.034  -2.937   1.414  0.00  0.00    -0.410 N 
ATOM     13  C   UNL d   1       2.889  -3.536   2.081  0.00  0.00     0.118 C 
ATOM     14  C   UNL d   1       1.481  -3.186   1.522  0.00  0.00     0.050 C 
ATOM     15  C   UNL d   1       1.316  -2.179   0.354  0.00  0.00     0.274 C 
ATOM     16  N   UNL d   1       1.552  -2.652  -1.034  0.00  0.00     0.091 NA
ATOM     17  C   UNL d   1       1.418  -1.534  -2.015  0.00  0.00     0.302 C 
ATOM     18  C   UNL d   1       2.205  -0.187  -1.864  0.00  0.00     0.302 C 
BRANCH   9  19
ATOM     19  C   UNL d   1       4.544   0.712   1.937  0.00  0.00     0.286 C 
BRANCH  19  20
ATOM     20  C   UNL d   1       3.413   0.193   2.832  0.00  0.00     0.154 C 
ATOM     21  C   UNL d   1       3.819   0.160   4.239  0.00  0.00     0.060 C 
ATOM     22  N   UNL d   1       4.143   0.134   5.352  0.00  0.00    -0.197 NA
ENDBRANCH  19  20
ENDBRANCH   9  19
BRANCH  12  23
ATOM     23  C   UNL d   1       4.271  -3.408   0.055  0.00  0.00     0.131 C 
BRANCH  23  24
ATOM     24  C   UNL d   1       5.558  -4.121  -0.361  0.00  0.00     0.143 C 
ATOM     25  C   UNL d   1       5.482  -4.430  -1.803  0.00  0.00     0.060 C 
ATOM     26  N   UNL d   1       5.383  -4.637  -2.943  0.00  0.00    -0.197 NA
ENDBRANCH  23  24
ENDBRANCH  12  23
BRANCH  16  27
ATOM     27  C   UNL d   1       0.630  -3.758  -1.421  0.00  0.00     0.286 C 
BRANCH  27  28
ATOM     28  C   UNL d   1       1.322  -5.101  -1.704  0.00  0.00     0.154 C 
ATOM     29  C   UNL d   1       1.472  -5.953  -0.512  0.00  0.00     0.060 C 
ATOM     30  N   UNL d   1       1.590  -6.644   0.408  0.00  0.00    -0.197 NA
ENDBRANCH  27  28
ENDBRANCH  16  27
ENDBRANCH   4   5
ENDBRANCH   3   4
TORSDOF 8
