REMARK  3 active torsions:
REMARK  status: ('A' for Active; 'I' for Inactive)
REMARK    1  A    between atoms: C_5  and  C_1 
REMARK    2  A    between atoms: C_13  and  C_4 
REMARK    3  A    between atoms: N_15  and  C_10 
ROOT
ATOM      1  C   UNL d   1       0.003  -1.318  -0.024  0.00  0.00     0.051 A 
ATOM      2  N   UNL d   1      -1.316   0.537   0.103  0.00  0.00    -0.259 N 
ATOM      3  HN  UNL d   1      -2.124   1.157   0.158  1.00  0.00     0.195 HD
ATOM      4  C   UNL d   1      -1.338  -0.805   0.050  0.00  0.00     0.080 A 
ATOM      5  O   UNL d   1       0.002   0.913   0.067  0.00  0.00    -0.241 OA
ATOM      6  C   UNL d   1       0.794  -0.185  -0.013  0.00  0.00     0.087 A 
ATOM      7  C   UNL d   1       2.243   0.097  -0.085  0.00  0.00     0.080 C 
ENDROOT
BRANCH   1   8
ATOM      8  C   UNL d   1       0.493  -2.681  -0.150  0.00  0.00     0.051 A 
ATOM      9  N   UNL d   1      -0.271  -3.503  -0.896  0.00  0.00    -0.332 N 
ATOM     10  C   UNL d   1       0.123  -4.771  -1.009  0.00  0.00     0.155 A 
ATOM     11  HN  UNL d   1      -1.117  -3.167  -1.356  1.00  0.00     0.168 HD
ATOM     12  N   UNL d   1       1.210  -5.283  -0.429  0.00  0.00    -0.343 N 
ATOM     13  C   UNL d   1       1.956  -4.437   0.298  0.00  0.00     0.093 A 
ATOM     14  HN  UNL d   1       1.461  -6.266  -0.534  1.00  0.00     0.167 HD
ATOM     15  C   UNL d   1       1.637  -3.114   0.484  0.00  0.00     0.047 A 
BRANCH  10  16
ATOM     16  N   UNL d   1      -0.694  -5.633  -1.708  0.00  0.00    -0.274 NA
ATOM     17  H   UNL d   1      -1.640  -5.273  -1.711  0.00  0.00     0.127 HD
ATOM     18  H   UNL d   1      -0.558  -6.577  -1.375  0.00  0.00     0.127 HD
ENDBRANCH  10  16
ENDBRANCH   1   8
BRANCH   4  19
ATOM     19  C   UNL d   1      -2.622  -1.513   0.098  0.00  0.00    -0.007 A 
ATOM     20  C   UNL d   1      -3.746  -0.972  -0.550  0.00  0.00     0.014 A 
ATOM     21  C   UNL d   1      -4.981  -1.626  -0.499  0.00  0.00     0.001 A 
ATOM     22  C   UNL d   1      -5.109  -2.824   0.198  0.00  0.00     0.000 A 
ATOM     23  C   UNL d   1      -4.006  -3.366   0.854  0.00  0.00     0.001 A 
ATOM     24  C   UNL d   1      -2.772  -2.709   0.811  0.00  0.00     0.014 A 
ENDBRANCH   4  19
TORSDOF 3
