REMARK  4 active torsions:
REMARK  status: ('A' for Active; 'I' for Inactive)
REMARK    1  A    between atoms: N_2  and  C_1 
REMARK    2  A    between atoms: C_3  and  C_6 
REMARK    3  A    between atoms: S_7  and  C_4 
REMARK    4  A    between atoms: C_15  and  S_7 
ROOT
ATOM      1  C   UNL d   1       1.433  -0.144  -0.103  0.00  0.00     0.120 A 
ATOM      2  C   UNL d   1       0.660  -1.310  -0.034  0.00  0.00     0.038 A 
ATOM      3  C   UNL d   1       0.864   1.139  -0.003  0.00  0.00     0.053 A 
ATOM      4  C   UNL d   1      -0.520   1.279   0.159  0.00  0.00     0.050 A 
ATOM      5  C   UNL d   1      -0.729  -1.153   0.097  0.00  0.00     0.022 A 
ATOM      6  C   UNL d   1      -1.310   0.120   0.194  0.00  0.00     0.017 A 
ENDROOT
BRANCH   2   7
ATOM      7  S   UNL d   1       1.295  -2.977  -0.181  0.00  0.00    -0.088 SA
BRANCH   7   8
ATOM      8  C   UNL d   1       1.448  -3.437   1.538  0.00  0.00     0.005 A 
ATOM      9  C   UNL d   1       0.349  -3.933   2.252  0.00  0.00     0.020 A 
ATOM     10  C   UNL d   1       0.484  -4.291   3.597  0.00  0.00     0.025 A 
ATOM     11  C   UNL d   1       1.720  -4.164   4.228  0.00  0.00     0.034 A 
ATOM     12  C   UNL d   1       2.825  -3.693   3.525  0.00  0.00     0.025 A 
ATOM     13 CL   UNL d   1       1.885  -4.597   5.884  0.00  0.00    -0.084 Cl
ATOM     14  C   UNL d   1       2.689  -3.341   2.177  0.00  0.00     0.020 A 
ENDBRANCH   7   8
ENDBRANCH   2   7
BRANCH   1  15
ATOM     15  N   UNL d   1       2.865  -0.200  -0.328  0.00  0.00    -0.114 N 
ATOM     16  O   UNL d   1       3.567  -0.666   0.576  0.00  0.00    -0.532 OA
ATOM     17  O   UNL d   1       3.279   0.294  -1.384  0.00  0.00    -0.532 OA
ENDBRANCH   1  15
BRANCH   4  18
ATOM     18  C   UNL d   1      -1.164   2.641   0.281  0.00  0.00     0.417 C 
ATOM     19  F   UNL d   1      -0.265   3.662   0.298  0.00  0.00    -0.166 F 
ATOM     20  F   UNL d   1      -2.016   2.904  -0.747  0.00  0.00    -0.166 F 
ATOM     21  F   UNL d   1      -1.896   2.766   1.421  0.00  0.00    -0.166 F 
ENDBRANCH   4  18
TORSDOF 4
