REMARK  4 active torsions:
REMARK  status: ('A' for Active; 'I' for Inactive)
REMARK       I    between atoms: N_2  and  C_1 
REMARK    1  A    between atoms: C_3  and  C_1 
REMARK    2  A    between atoms: C_12  and  N_2 
REMARK    3  A    between atoms: O_7  and  C_6 
REMARK    4  A    between atoms: C_8  and  O_7 
ROOT
ATOM      1  N   UNL d   1       1.216   2.764   3.991  0.00  0.00    -0.344 N 
ATOM      2  HN  UNL d   1       0.891   2.906   4.947  1.00  0.00     0.167 HD
ATOM      3  C   UNL d   1       2.259   3.457   3.492  0.00  0.00     0.148 A 
ATOM      4  C   UNL d   1       1.027   1.616   1.861  0.00  0.00     0.050 A 
ATOM      5  C   UNL d   1       0.619   1.872   3.167  0.00  0.00     0.119 A 
ATOM      6  C   UNL d   1       2.798   3.222   2.238  0.00  0.00     0.059 A 
ATOM      7  C   UNL d   1       2.172   2.282   1.413  0.00  0.00     0.035 A 
ENDROOT
BRANCH   3   8
ATOM      8  O   UNL d   1       2.811   4.485   4.245  0.00  0.00    -0.291 OA
BRANCH   8   9
ATOM      9  C   UNL d   1       1.960   5.122   5.125  0.00  0.00     0.116 A 
ATOM     10  C   UNL d   1       2.429   5.394   6.408  0.00  0.00     0.150 A 
ATOM     11  F   UNL d   1       3.673   5.043   6.764  0.00  0.00    -0.203 F 
ATOM     12  C   UNL d   1       1.613   6.025   7.345  0.00  0.00     0.045 A 
ATOM     13  C   UNL d   1       0.315   6.401   6.995  0.00  0.00     0.003 A 
ATOM     14  C   UNL d   1      -0.152   6.165   5.701  0.00  0.00     0.003 A 
ATOM     15  C   UNL d   1       0.674   5.544   4.762  0.00  0.00     0.040 A 
ENDBRANCH   8   9
ENDBRANCH   3   8
BRANCH   4  16
ATOM     16  N   UNL d   1       0.354   0.748   0.973  0.00  0.00    -0.322 N 
ATOM     17  C   UNL d   1      -0.905   0.220   1.184  0.00  0.00     0.251 C 
ATOM     18  O   UNL d   1      -1.634   0.468   2.138  0.00  0.00    -0.268 OA
ATOM     19  H   UNL d   1       0.780   0.604   0.068  0.00  0.00     0.169 HD
BRANCH  17  20
ATOM     20  C   UNL d   1      -1.383  -0.695   0.100  0.00  0.00    -0.003 C 
ATOM     21  C   UNL d   1      -2.711  -0.726  -0.123  0.00  0.00     0.024 C 
ATOM     22  C   UNL d   1      -0.444  -1.603  -0.623  0.00  0.00     0.053 C 
ENDBRANCH  17  20
ENDBRANCH   4  16
TORSDOF 4
