REMARK  2 active torsions:
REMARK  status: ('A' for Active; 'I' for Inactive)
REMARK    1  A    between atoms: C_9  and  C_1 
REMARK    2  A    between atoms: C_3  and  C_2 
REMARK       I    between atoms: N_7  and  C_3 
REMARK       I    between atoms: C_6  and  N_7 
REMARK       I    between atoms: N_8  and  C_6 
ROOT
ATOM      1  C   UNL d   1       0.005  -3.078   0.292  0.00  0.00     0.274 C 
ATOM      2  C   UNL d   1      -2.293  -3.882  -0.114  0.00  0.00     0.676 C 
ATOM      3  N   UNL d   1      -0.957  -4.080   0.177  0.00  0.00    -0.156 N 
ATOM      4  N   UNL d   1      -3.209  -4.916  -0.077  0.00  0.00    -0.213 N 
ATOM      5  O   UNL d   1      -5.387  -6.773   0.228  0.00  0.00    -0.378 OA
ATOM      6  N   UNL d   1      -2.703  -2.692  -0.413  0.00  0.00    -0.234 N 
ATOM      7  HN  UNL d   1      -3.669  -2.445  -0.628  1.00  0.00     0.174 HD
ATOM      8  C   UNL d   1      -4.535  -4.697  -0.718  0.00  0.00     0.172 C 
ATOM      9  C   UNL d   1      -2.948  -6.340   0.176  0.00  0.00     0.172 C 
ATOM     10  O   UNL d   1      -0.207  -1.930  -0.098  0.00  0.00    -0.267 OA
ATOM     11  C   UNL d   1      -5.648  -5.366   0.102  0.00  0.00     0.136 C 
ATOM     12  C   UNL d   1      -4.145  -6.991   0.919  0.00  0.00     0.136 C 
ATOM     13  C   UNL d   1      -3.985  -8.501   1.044  0.00  0.00     0.041 C 
ATOM     14  C   UNL d   1      -7.002  -5.201  -0.573  0.00  0.00     0.041 C 
ATOM     15  H   UNL d   1      -0.682  -5.021   0.384  0.00  0.00     0.187 HD
ATOM     16  H   UNL d   1      -1.917  -2.030  -0.404  0.00  0.00     0.174 HD
ENDROOT
BRANCH   1  17
ATOM     17  C   UNL d   1       1.310  -3.429   0.854  0.00  0.00     0.093 A 
ATOM     18  C   UNL d   1       1.778  -4.540   1.638  0.00  0.00     0.088 A 
ATOM     19  N   UNL d   1       3.083  -4.406   1.922  0.00  0.00    -0.259 N 
ATOM     20  O   UNL d   1       3.478  -3.210   1.395  0.00  0.00    -0.241 OA
ATOM     21  HN  UNL d   1       3.667  -5.069   2.432  1.00  0.00     0.195 HD
ATOM     22  C   UNL d   1       2.429  -2.609   0.782  0.00  0.00     0.090 A 
ATOM     23  C   UNL d   1       2.731  -1.265   0.244  0.00  0.00     0.080 C 
BRANCH  18  24
ATOM     24  C   UNL d   1       1.077  -5.701   2.175  0.00  0.00     0.054 A 
ATOM     25  C   UNL d   1       1.584  -6.983   1.911  0.00  0.00     0.130 A 
ATOM     26  F   UNL d   1       2.670  -7.144   1.142  0.00  0.00    -0.205 F 
ATOM     27  C   UNL d   1       0.974  -8.128   2.417  0.00  0.00     0.043 A 
ATOM     28  C   UNL d   1      -0.175  -8.015   3.191  0.00  0.00     0.005 A 
ATOM     29  C   UNL d   1      -0.690  -6.751   3.481  0.00  0.00     0.025 A 
ATOM     30  C   UNL d   1      -0.054  -5.599   3.001  0.00  0.00     0.049 A 
ATOM     31 CL   UNL d   1      -0.718  -4.082   3.500  0.00  0.00    -0.083 Cl
ENDBRANCH  18  24
ENDBRANCH   1  17
TORSDOF 2
