REMARK  5 active torsions:
REMARK  status: ('A' for Active; 'I' for Inactive)
REMARK    1  A    between atoms: C_4  and  C_1 
REMARK    2  A    between atoms: C_7  and  CA_2 
REMARK    3  A    between atoms: C_3  and  C_15 
REMARK       I    between atoms: N_10  and  C_4 
REMARK    4  A    between atoms: OXT_21  and  C_7 
REMARK    5  A    between atoms: C_15  and  N_10 
ROOT
ATOM      1  C   UNL d   1       2.095  -3.112   1.122  0.00  0.00     0.271 C 
ATOM      2  N   UNL d   1       2.716  -2.621  -0.013  0.00  0.00    -0.351 N 
ATOM      3  O   UNL d   1       2.229  -2.581   2.212  0.00  0.00    -0.266 OA
ATOM      4  H   UNL d   1       2.533  -3.100  -0.889  0.00  0.00     0.163 HD
ENDROOT
BRANCH   1   5
ATOM      5  C   UNL d   1       1.199  -4.288   0.870  0.00  0.00     0.134 A 
ATOM      6  CA  UNL d   1       0.561  -5.059   1.833  0.00  0.00     0.139 A 
ATOM      7  N   UNL d   1      -0.328  -6.063   1.485  0.00  0.00    -0.357 N 
ATOM      8  C   UNL d   1      -0.527  -6.262   0.162  0.00  0.00     0.105 A 
ATOM      9  HN  UNL d   1      -0.808  -6.623   2.189  1.00  0.00     0.165 HD
ATOM     10  C   UNL d   1       0.122  -5.513  -0.796  0.00  0.00     0.105 A 
ATOM     11  N   UNL d   1       0.988  -4.524  -0.479  0.00  0.00    -0.358 N 
ATOM     12  HN  UNL d   1       1.462  -3.977  -1.197  1.00  0.00     0.165 HD
BRANCH   6  13
ATOM     13  C   UNL d   1       0.747  -4.978   3.320  0.00  0.00     0.196 C 
ATOM     14  O   UNL d   1       1.540  -4.325   3.961  0.00  0.00    -0.645 OA
BRANCH  13  15
ATOM     15  OXT UNL d   1      -0.119  -5.848   3.920  0.00  0.00    -0.772 OA
ATOM     16  HXT UNL d   1      -0.622  -6.338   3.229  0.00  0.00     0.167 HD
ENDBRANCH  13  15
ENDBRANCH   6  13
ENDBRANCH   1   5
BRANCH   2  17
ATOM     17  C   UNL d   1       3.590  -1.476   0.016  0.00  0.00     0.162 C 
BRANCH  17  18
ATOM     18  C   UNL d   1       5.009  -1.952  -0.024  0.00  0.00    -0.022 A 
ATOM     19  C   UNL d   1       5.779  -2.188  -1.230  0.00  0.00    -0.009 A 
ATOM     20  C   UNL d   1       7.080  -2.609  -0.937  0.00  0.00     0.015 A 
ATOM     21  C   UNL d   1       5.420  -2.058  -2.596  0.00  0.00     0.037 A 
ATOM     22  C   UNL d   1       8.015  -2.896  -1.952  0.00  0.00     0.021 A 
ATOM     23  S   UNL d   1       7.343  -2.712   0.760  0.00  0.00    -0.101 SA
ATOM     24  C   UNL d   1       7.631  -2.760  -3.287  0.00  0.00     0.025 A 
ATOM     25  C   UNL d   1       6.347  -2.345  -3.602  0.00  0.00     0.035 A 
ATOM     26 CL   UNL d   1       5.882  -2.181  -5.252  0.00  0.00    -0.084 Cl
ATOM     27  C   UNL d   1       5.757  -2.210   1.110  0.00  0.00     0.060 A 
ENDBRANCH  17  18
ENDBRANCH   2  17
TORSDOF 5
