REMARK  5 active torsions:
REMARK  status: ('A' for Active; 'I' for Inactive)
REMARK    1  A    between atoms: C_7  and  C_1 
REMARK    2  A    between atoms: C_8  and  N_2 
REMARK    3  A    between atoms: C_15  and  C_6 
REMARK       I    between atoms: N_10  and  C_7 
REMARK    4  A    between atoms: C_9  and  C_8 
REMARK    5  A    between atoms: C_18  and  N_10 
ROOT
ATOM      1  C   UNL d   1      -0.947  -1.044   0.431  0.00  0.00     0.121 C 
ATOM      2  N   UNL d   1       0.278  -0.545  -0.042  0.00  0.00    -0.282 N 
ATOM      3  N   UNL d   1       0.338   0.800  -0.053  0.00  0.00    -0.301 N 
ATOM      4  HN  UNL d   1       1.160   1.383  -0.211  1.00  0.00     0.187 HD
ATOM      5  C   UNL d   1      -1.731   0.097   0.506  0.00  0.00     0.064 C 
ATOM      6  C   UNL d   1      -0.906   1.205   0.185  0.00  0.00     0.036 C 
ENDROOT
BRANCH   1   7
ATOM      7  C   UNL d   1      -1.160  -2.454   0.696  0.00  0.00     0.274 C 
ATOM      8  N   UNL d   1      -2.223  -3.117   1.246  0.00  0.00    -0.322 N 
ATOM      9  H   UNL d   1      -1.876  -4.070   1.299  0.00  0.00     0.169 HD
ATOM     10  O   UNL d   1      -0.262  -3.277   0.456  0.00  0.00    -0.266 OA
BRANCH   8  11
ATOM     11  C   UNL d   1      -3.528  -3.021   1.741  0.00  0.00     0.037 A 
ATOM     12  C   UNL d   1      -4.381  -1.928   1.717  0.00  0.00     0.069 A 
ATOM     13  C   UNL d   1      -5.662  -2.079   2.239  0.00  0.00     0.107 A 
ATOM     14  O   UNL d   1      -6.623  -1.111   2.278  0.00  0.00    -0.323 OA
ATOM     15  C   UNL d   1      -6.112  -3.263   2.773  0.00  0.00     0.105 A 
ATOM     16  C   UNL d   1      -7.723  -1.835   2.870  0.00  0.00     0.352 A 
ATOM     17  O   UNL d   1      -7.393  -3.197   3.214  0.00  0.00    -0.323 OA
ATOM     18  C   UNL d   1      -5.307  -4.370   2.820  0.00  0.00     0.042 A 
ATOM     19  C   UNL d   1      -4.017  -4.237   2.299  0.00  0.00     0.032 A 
ENDBRANCH   8  11
ENDBRANCH   1   7
BRANCH   2  20
ATOM     20  C   UNL d   1       1.512  -1.262  -0.394  0.00  0.00     0.189 C 
BRANCH  20  21
ATOM     21  C   UNL d   1       2.192  -0.794  -1.681  0.00  0.00    -0.026 A 
ATOM     22  C   UNL d   1       3.511  -0.262  -1.667  0.00  0.00    -0.053 A 
ATOM     23  C   UNL d   1       4.148   0.064  -2.883  0.00  0.00     0.014 A 
ATOM     24  C   UNL d   1       4.289   0.055  -0.415  0.00  0.00     0.049 C 
ATOM     25  C   UNL d   1       3.530  -0.147  -4.115  0.00  0.00    -0.061 A 
ATOM     26  C   UNL d   1       2.232  -0.645  -4.130  0.00  0.00     0.014 A 
ATOM     27  C   UNL d   1       4.245   0.190  -5.390  0.00  0.00     0.048 C 
ATOM     28  C   UNL d   1       1.557  -0.981  -2.939  0.00  0.00    -0.053 A 
ATOM     29  C   UNL d   1       0.167  -1.536  -3.118  0.00  0.00     0.049 C 
ENDBRANCH  20  21
ENDBRANCH   2  20
BRANCH   6  30
ATOM     30  C   UNL d   1      -1.220   2.691   0.111  0.00  0.00    -0.007 C 
ATOM     31  C   UNL d   1      -2.727   2.975   0.245  0.00  0.00     0.021 C 
ATOM     32  C   UNL d   1      -0.483   3.438   1.242  0.00  0.00     0.021 C 
ATOM     33  C   UNL d   1      -0.751   3.262  -1.247  0.00  0.00     0.021 C 
ENDBRANCH   6  30
TORSDOF 5
