REMARK  4 active torsions:
REMARK  status: ('A' for Active; 'I' for Inactive)
REMARK    1  A    between atoms: C_5  and  C_3 
REMARK    2  A    between atoms: C_12  and  C_6 
REMARK    3  A    between atoms: C_13  and  C_7 
REMARK    4  A    between atoms: O_21  and  C_18 
ROOT
ATOM      1  N   UNL d   1       1.400  -0.635  -0.076  0.00  0.00    -0.348 N 
ATOM      2  HN  UNL d   1       2.287  -1.136  -0.114  1.00  0.00     0.166 HD
ATOM      3  C   UNL d   1       0.210  -1.209  -0.060  0.00  0.00     0.091 A 
ATOM      4  C   UNL d   1       1.272   0.746  -0.034  0.00  0.00     0.050 A 
ATOM      5  S   UNL d   1      -1.118  -0.115  -0.026  0.00  0.00    -0.081 SA
ATOM      6  C   UNL d   1      -0.030   1.205  -0.014  0.00  0.00     0.082 A 
ENDROOT
BRANCH   3   7
ATOM      7  C   UNL d   1       0.068  -2.650  -0.050  0.00  0.00     0.039 A 
ATOM      8  S   UNL d   1      -1.448  -3.453  -0.109  0.00  0.00    -0.085 SA
ATOM      9  C   UNL d   1      -0.744  -5.008   0.038  0.00  0.00     0.032 A 
ATOM     10  C   UNL d   1       0.637  -4.916   0.046  0.00  0.00     0.023 A 
ATOM     11  C   UNL d   1       1.098  -3.569   0.013  0.00  0.00     0.023 A 
BRANCH   9  12
ATOM     12  C   UNL d   1      -1.571  -6.217   0.129  0.00  0.00     0.049 A 
ATOM     13  N   UNL d   1      -0.997  -7.330  -0.395  0.00  0.00    -0.365 N 
ATOM     14  C   UNL d   1      -1.679  -8.491  -0.280  0.00  0.00     0.088 A 
ATOM     15  HN  UNL d   1      -0.088  -7.291  -0.856  1.00  0.00     0.165 HD
ATOM     16  C   UNL d   1      -2.905  -8.607   0.351  0.00  0.00     0.017 A 
ATOM     17  C   UNL d   1      -3.479  -7.460   0.884  0.00  0.00     0.004 A 
ATOM     18  C   UNL d   1      -2.809  -6.245   0.768  0.00  0.00     0.031 A 
ENDBRANCH   9  12
ENDBRANCH   3   7
BRANCH   4  19
ATOM     19  C   UNL d   1       2.436   1.624  -0.058  0.00  0.00    -0.009 A 
ATOM     20  C   UNL d   1       3.604   1.211  -0.712  0.00  0.00     0.016 A 
ATOM     21  C   UNL d   1       4.719   2.057  -0.792  0.00  0.00     0.037 A 
ATOM     22  C   UNL d   1       4.680   3.321  -0.206  0.00  0.00     0.068 A 
ATOM     23  C   UNL d   1       3.524   3.734   0.456  0.00  0.00     0.037 A 
ATOM     24  C   UNL d   1       2.413   2.890   0.541  0.00  0.00     0.016 A 
BRANCH  22  25
ATOM     25  O   UNL d   1       5.684   4.249  -0.250  0.00  0.00    -0.356 OA
ATOM     26  C   UNL d   1       7.002   3.728  -0.377  0.00  0.00     0.210 C 
ENDBRANCH  22  25
ENDBRANCH   4  19
TORSDOF 4
