REMARK  7 active torsions:
REMARK  status: ('A' for Active; 'I' for Inactive)
REMARK    1  A    between atoms: C_4  and  C_1 
REMARK    2  A    between atoms: N_3  and  C_2 
REMARK       I    between atoms: N_5  and  C_4 
REMARK    3  A    between atoms: C_7  and  N_5 
REMARK    4  A    between atoms: N_11  and  C_7 
REMARK    5  A    between atoms: C_10  and  C_12 
REMARK    6  A    between atoms: O_20  and  C_10 
REMARK    7  A    between atoms: C_18  and  N_11 
ROOT
ATOM      1  C   UNL d   1       1.504  -3.478  -0.088  0.00  0.00     0.179 C 
ATOM      2  S   UNL d   1       1.667  -4.993   0.585  0.00  0.00    -0.040 SA
ENDROOT
BRANCH   1   3
ATOM      3  N   UNL d   1       2.401  -2.821  -0.914  0.00  0.00    -0.299 N 
ATOM      4  C   UNL d   1       3.719  -3.139  -1.208  0.00  0.00     0.258 C 
ATOM      5  O   UNL d   1       4.466  -3.743  -0.446  0.00  0.00    -0.267 OA
ATOM      6  H   UNL d   1       1.934  -2.174  -1.529  0.00  0.00     0.171 HD
BRANCH   4   7
ATOM      7  C   UNL d   1       4.243  -2.597  -2.476  0.00  0.00     0.041 A 
ATOM      8  C   UNL d   1       5.597  -2.826  -2.934  0.00  0.00     0.061 A 
ATOM      9  C   UNL d   1       5.851  -2.255  -4.162  0.00  0.00     0.144 A 
ATOM     10  S   UNL d   1       4.515  -1.406  -4.769  0.00  0.00    -0.077 SA
ATOM     11  C   UNL d   1       3.563  -1.820  -3.402  0.00  0.00     0.069 A 
BRANCH   9  12
ATOM     12  N   UNL d   1       7.079  -2.327  -4.910  0.00  0.00    -0.108 N 
ATOM     13  O   UNL d   1       8.011  -2.946  -4.380  0.00  0.00    -0.531 OA
ATOM     14  O   UNL d   1       7.122  -1.784  -6.022  0.00  0.00    -0.531 OA
ENDBRANCH   9  12
ENDBRANCH   4   7
ENDBRANCH   1   3
BRANCH   1  15
ATOM     15  N   UNL d   1       0.307  -2.813   0.080  0.00  0.00    -0.333 N 
ATOM     16  H   UNL d   1      -0.467  -3.403   0.378  0.00  0.00     0.168 HD
BRANCH  15  17
ATOM     17  C   UNL d   1       0.110  -1.426   0.265  0.00  0.00     0.035 A 
ATOM     18  C   UNL d   1       1.151  -0.565   0.632  0.00  0.00     0.047 A 
ATOM     19  C   UNL d   1       0.883   0.784   0.914  0.00  0.00     0.041 A 
ATOM     20  C   UNL d   1      -0.421   1.275   0.776  0.00  0.00     0.018 A 
ATOM     21  C   UNL d   1      -1.455   0.420   0.410  0.00  0.00     0.003 A 
ATOM     22  C   UNL d   1      -1.196  -0.933   0.177  0.00  0.00     0.029 A 
BRANCH  19  23
ATOM     23  C   UNL d   1       1.928   1.710   1.426  0.00  0.00     0.293 C 
ATOM     24  O   UNL d   1       1.784   2.920   1.482  0.00  0.00    -0.259 OA
BRANCH  23  25
ATOM     25  O   UNL d   1       2.995   1.010   1.884  0.00  0.00    -0.323 OA
ATOM     26  C   UNL d   1       3.958   1.806   2.577  0.00  0.00     0.213 C 
ENDBRANCH  23  25
ENDBRANCH  19  23
ENDBRANCH  15  17
ENDBRANCH   1  15
TORSDOF 7
