REMARK  5 active torsions:
REMARK  status: ('A' for Active; 'I' for Inactive)
REMARK    1  A    between atoms: N_2  and  S_1 
REMARK    2  A    between atoms: C_3  and  S_1 
REMARK    3  A    between atoms: C_6  and  N_2 
REMARK    4  A    between atoms: C_4  and  C_9 
REMARK    5  A    between atoms: C_5  and  C_8 
ROOT
ATOM      1  C   UNL d   1       0.695  -0.794   1.511  0.00  0.00     0.076 A 
ATOM      2  C   UNL d   1       0.153  -0.732   3.875  0.00  0.00     0.050 A 
ATOM      3  C   UNL d   1       0.457  -2.881   2.728  0.00  0.00     0.050 A 
ATOM      4  C   UNL d   1       0.725  -2.193   1.535  0.00  0.00     0.041 A 
ATOM      5  C   UNL d   1       0.411  -0.064   2.669  0.00  0.00     0.041 A 
ATOM      6  C   UNL d   1       0.170  -2.139   3.890  0.00  0.00     0.032 A 
ENDROOT
BRANCH   1   7
ATOM      7  S   UNL d   1       1.126   0.086   0.023  0.00  0.00     0.242 S 
ATOM      8  O   UNL d   1       2.011   1.160   0.413  0.00  0.00    -0.206 OA
ATOM      9  O   UNL d   1       1.480  -0.877  -0.994  0.00  0.00    -0.206 OA
BRANCH   7  10
ATOM     10  N   UNL d   1      -0.329   0.796  -0.407  0.00  0.00    -0.203 NA
ATOM     11  H   UNL d   1      -0.234   1.814  -0.515  0.00  0.00     0.140 HD
BRANCH  10  12
ATOM     12  C   UNL d   1      -1.142   0.144  -1.455  0.00  0.00     0.153 C 
ATOM     13  C   UNL d   1      -2.308   1.030  -1.849  0.00  0.00     0.204 C 
ATOM     14  S   UNL d   1      -3.727   0.067  -2.254  0.00  0.00    -0.091 SA
ATOM     15  O   UNL d   1      -2.285   2.250  -1.909  0.00  0.00    -0.284 OA
ATOM     16  C   UNL d   1      -2.879  -1.504  -1.941  0.00  0.00     0.084 C 
ATOM     17  C   UNL d   1      -1.784  -1.141  -0.955  0.00  0.00     0.040 C 
ENDBRANCH  10  12
ENDBRANCH   7  10
ENDBRANCH   1   7
BRANCH   3  18
ATOM     18  C   UNL d   1       0.504  -4.391   2.793  0.00  0.00     0.417 C 
ATOM     19  F   UNL d   1       0.797  -4.976   1.599  0.00  0.00    -0.166 F 
ATOM     20  F   UNL d   1       1.437  -4.843   3.674  0.00  0.00    -0.166 F 
ATOM     21  F   UNL d   1      -0.682  -4.927   3.190  0.00  0.00    -0.166 F 
ENDBRANCH   3  18
BRANCH   2  22
ATOM     22  C   UNL d   1      -0.099   0.033   5.155  0.00  0.00     0.417 C 
ATOM     23  F   UNL d   1      -0.072   1.384   4.995  0.00  0.00    -0.166 F 
ATOM     24  F   UNL d   1      -1.310  -0.258   5.702  0.00  0.00    -0.166 F 
ATOM     25  F   UNL d   1       0.825  -0.252   6.113  0.00  0.00    -0.166 F 
ENDBRANCH   2  22
TORSDOF 5
