REMARK  3 active torsions:
REMARK  status: ('A' for Active; 'I' for Inactive)
REMARK       I    between atoms: N_7  and  C_1 
REMARK       I    between atoms: N_10  and  C_1 
REMARK    1  A    between atoms: C_2  and  N_8 
REMARK    2  A    between atoms: C_3  and  C_4 
REMARK    3  A    between atoms: C_19  and  N_10 
ROOT
ATOM      1  C   UNL d   1       0.671   0.296   0.005  0.00  0.00     0.322 C 
ATOM      2  N   UNL d   1       0.188   0.076   1.295  0.00  0.00    -0.332 N 
ATOM      3  N   UNL d   1      -1.902   0.330   3.347  0.00  0.00    -0.364 N 
ATOM      4  N   UNL d   1       1.618   1.293  -0.100  0.00  0.00    -0.309 N 
ATOM      5  O   UNL d   1       0.262  -0.367  -0.945  0.00  0.00    -0.247 OA
ATOM      6  C   UNL d   1      -0.846  -0.960   1.494  0.00  0.00     0.147 C 
ATOM      7  C   UNL d   1      -2.167  -0.479   2.140  0.00  0.00     0.144 C 
ATOM      8  C   UNL d   1      -0.144   1.995   2.836  0.00  0.00     0.040 C 
ATOM      9  C   UNL d   1       0.656   0.735   2.517  0.00  0.00     0.129 C 
ATOM     10  C   UNL d   1      -1.638   1.748   3.074  0.00  0.00     0.126 C 
ATOM     11  H   UNL d   1       1.890   1.757   0.747  0.00  0.00     0.170 HD
ENDROOT
BRANCH   3  12
ATOM     12  C   UNL d   1      -2.622   0.037   4.503  0.00  0.00     0.125 A 
ATOM     13  N   UNL d   1      -3.825  -0.580   4.370  0.00  0.00    -0.350 N 
ATOM     14  C   UNL d   1      -4.521  -0.912   5.485  0.00  0.00     0.106 A 
ATOM     15  HN  UNL d   1      -4.199  -0.789   3.444  1.00  0.00     0.166 HD
ATOM     16  C   UNL d   1      -4.088  -0.668   6.777  0.00  0.00     0.065 A 
ATOM     17  C   UNL d   1      -2.855  -0.037   6.923  0.00  0.00     0.045 A 
ATOM     18  C   UNL d   1      -2.116   0.314   5.790  0.00  0.00     0.078 A 
ATOM     19 CL   UNL d   1      -0.550   0.990   6.082  0.00  0.00    -0.080 Cl
BRANCH  16  20
ATOM     20  C   UNL d   1      -4.915  -1.092   7.948  0.00  0.00     0.418 C 
ATOM     21  F   UNL d   1      -4.348  -0.788   9.147  0.00  0.00    -0.166 F 
ATOM     22  F   UNL d   1      -6.143  -0.506   7.957  0.00  0.00    -0.166 F 
ATOM     23  F   UNL d   1      -5.137  -2.434   7.970  0.00  0.00    -0.166 F 
ENDBRANCH  16  20
ENDBRANCH   3  12
BRANCH   4  24
ATOM     24  C   UNL d   1       2.265   1.762  -1.262  0.00  0.00     0.036 A 
ATOM     25  C   UNL d   1       1.959   1.339  -2.556  0.00  0.00     0.031 A 
ATOM     26  C   UNL d   1       2.614   1.897  -3.660  0.00  0.00     0.026 A 
ATOM     27  C   UNL d   1       3.587   2.874  -3.472  0.00  0.00     0.034 A 
ATOM     28  C   UNL d   1       3.923   3.288  -2.187  0.00  0.00     0.026 A 
ATOM     29 CL   UNL d   1       4.369   3.580  -4.831  0.00  0.00    -0.084 Cl
ATOM     30  C   UNL d   1       3.262   2.735  -1.086  0.00  0.00     0.031 A 
ENDBRANCH   4  24
TORSDOF 3
