REMARK  2 active torsions:
REMARK  status: ('A' for Active; 'I' for Inactive)
REMARK    1  A    between atoms: C_6  and  N_1 
REMARK    2  A    between atoms: C_2  and  C_8 
ROOT
ATOM      1  C   UNL d   1       0.248   4.522   1.712  0.00  0.00     0.087 A 
ATOM      2  O   UNL d   1      -0.575   5.343   2.437  0.00  0.00    -0.299 OA
ATOM      3  C   UNL d   1       1.288   5.269   1.186  0.00  0.00     0.041 A 
ATOM      4  C   UNL d   1      -0.061   6.599   2.357  0.00  0.00     0.155 A 
ATOM      5  N   UNL d   1      -1.312   8.507   3.561  0.00  0.00    -0.189 NA
ATOM      6  C   UNL d   1      -0.756   7.639   3.025  0.00  0.00     0.125 C 
ATOM      7  C   UNL d   1       1.084   6.610   1.597  0.00  0.00     0.051 A 
ENDROOT
BRANCH   1   8
ATOM      8  C   UNL d   1      -0.139   3.115   1.631  0.00  0.00     0.000 A 
ATOM      9  C   UNL d   1       0.661   2.205   0.925  0.00  0.00     0.050 A 
ATOM     10  C   UNL d   1       0.267   0.865   0.799  0.00  0.00     0.103 A 
ATOM     11  C   UNL d   1      -0.918   0.408   1.384  0.00  0.00     0.036 A 
ATOM     12  C   UNL d   1      -1.710   1.303   2.102  0.00  0.00     0.003 A 
ATOM     13  C   UNL d   1      -1.323   2.643   2.223  0.00  0.00     0.014 A 
BRANCH  10  14
ATOM     14  N   UNL d   1       1.104  -0.063   0.028  0.00  0.00    -0.116 N 
ATOM     15  O   UNL d   1       2.136   0.388  -0.491  0.00  0.00    -0.532 OA
ATOM     16  O   UNL d   1       0.730  -1.240  -0.062  0.00  0.00    -0.532 OA
ENDBRANCH  10  14
ENDBRANCH   1   8
TORSDOF 2
