REMARK  5 active torsions:
REMARK  status: ('A' for Active; 'I' for Inactive)
REMARK    1  A    between atoms: C_3  and  C_1 
REMARK    2  A    between atoms: C_7  and  C_2 
REMARK    3  A    between atoms: O_5  and  C_3 
REMARK    4  A    between atoms: C_4  and  O_5 
REMARK    5  A    between atoms: O_21  and  C_16 
ROOT
ATOM      1  C   UNL d   1       1.390   1.252   0.456  0.00  0.00     0.129 C 
ATOM      2  C   UNL d   1       1.931  -0.098  -0.011  0.00  0.00     0.181 C 
ATOM      3  O   UNL d   1       0.812  -0.749  -0.598  0.00  0.00    -0.310 OA
ATOM      4  C   UNL d   1      -0.079   0.189  -1.008  0.00  0.00     0.260 C 
ATOM      5  C   UNL d   1       0.364   1.560  -0.620  0.00  0.00     0.128 C 
ATOM      6  O   UNL d   1      -1.093  -0.057  -1.625  0.00  0.00    -0.265 OA
ENDROOT
BRANCH   1   7
ATOM      7  C   UNL d   1       0.743   1.268   1.835  0.00  0.00     0.271 C 
ATOM      8  O   UNL d   1       0.770   0.376   2.659  0.00  0.00    -0.264 OA
BRANCH   7   9
ATOM      9  O   UNL d   1       0.213   2.557   2.041  0.00  0.00    -0.275 OA
BRANCH   9  10
ATOM     10  C   UNL d   1      -0.329   3.226   3.182  0.00  0.00     0.122 A 
ATOM     11  C   UNL d   1      -1.070   2.639   4.212  0.00  0.00     0.072 A 
ATOM     12  C   UNL d   1      -1.549   3.441   5.256  0.00  0.00     0.069 A 
ATOM     13 CL   UNL d   1      -1.549   0.987   4.249  0.00  0.00    -0.081 Cl
ATOM     14  C   UNL d   1      -1.327   4.814   5.242  0.00  0.00     0.119 A 
ATOM     15  C   UNL d   1      -0.631   5.416   4.207  0.00  0.00     0.069 A 
ATOM     16  F   UNL d   1      -1.817   5.569   6.233  0.00  0.00    -0.206 F 
ATOM     17  C   UNL d   1      -0.129   4.622   3.180  0.00  0.00     0.072 A 
ATOM     18 CL   UNL d   1       0.725   5.403   1.894  0.00  0.00    -0.081 Cl
ENDBRANCH   9  10
ENDBRANCH   7   9
ENDBRANCH   1   7
BRANCH   2  19
ATOM     19  C   UNL d   1       2.801  -0.862   0.973  0.00  0.00     0.005 A 
ATOM     20  C   UNL d   1       2.621  -2.126   1.558  0.00  0.00     0.077 A 
ATOM     21  C   UNL d   1       3.574  -2.581   2.498  0.00  0.00     0.037 A 
ATOM     22  C   UNL d   1       4.712  -1.852   2.834  0.00  0.00     0.003 A 
ATOM     23  C   UNL d   1       4.939  -0.642   2.212  0.00  0.00     0.001 A 
ATOM     24  C   UNL d   1       3.999  -0.159   1.305  0.00  0.00     0.012 A 
BRANCH  20  25
ATOM     25  O   UNL d   1       1.727  -3.128   1.327  0.00  0.00    -0.355 OA
ATOM     26  C   UNL d   1       0.389  -2.911   0.942  0.00  0.00     0.210 C 
ENDBRANCH  20  25
ENDBRANCH   2  19
TORSDOF 5
