REMARK  4 active torsions:
REMARK  status: ('A' for Active; 'I' for Inactive)
REMARK    1  A    between atoms: C_9  and  C_1 
REMARK    2  A    between atoms: N_5  and  C_10 
REMARK    3  A    between atoms: C_11  and  C_8 
REMARK    4  A    between atoms: O_18  and  C_15 
ROOT
ATOM      1  C   UNL d   1      -0.229  -1.051  -0.046  0.00  0.00     0.177 A 
ATOM      2  O   UNL d   1      -1.074   0.017   0.075  0.00  0.00    -0.273 OA
ATOM      3  N   UNL d   1       1.030  -0.688  -0.184  0.00  0.00    -0.277 N 
ATOM      4  HN  UNL d   1       1.832  -1.305  -0.314  1.00  0.00     0.189 HD
ATOM      5  N   UNL d   1       1.049   0.689  -0.118  0.00  0.00    -0.277 N 
ATOM      6  HN  UNL d   1       1.870   1.291  -0.174  1.00  0.00     0.189 HD
ATOM      7  C   UNL d   1      -0.203   1.076   0.033  0.00  0.00     0.174 A 
ENDROOT
BRANCH   1   8
ATOM      8  C   UNL d   1      -0.833  -2.370  -0.149  0.00  0.00     0.050 A 
ATOM      9  C   UNL d   1      -2.007  -2.765   0.507  0.00  0.00     0.117 A 
ATOM     10  C   UNL d   1      -2.584  -4.030   0.308  0.00  0.00     0.037 A 
ATOM     11  C   UNL d   1      -1.970  -4.931  -0.559  0.00  0.00     0.002 A 
ATOM     12  C   UNL d   1      -0.788  -4.574  -1.207  0.00  0.00     0.001 A 
ATOM     13  C   UNL d   1      -0.225  -3.310  -1.001  0.00  0.00     0.018 A 
BRANCH   9  14
ATOM     14  N   UNL d   1      -2.653  -1.889   1.465  0.00  0.00    -0.115 N 
ATOM     15  O   UNL d   1      -1.994  -1.549   2.456  0.00  0.00    -0.532 OA
ATOM     16  O   UNL d   1      -3.828  -1.571   1.233  0.00  0.00    -0.532 OA
ENDBRANCH   9  14
ENDBRANCH   1   8
BRANCH   7  17
ATOM     17  C   UNL d   1      -0.767   2.415   0.135  0.00  0.00     0.019 A 
ATOM     18  C   UNL d   1      -2.146   2.623   0.317  0.00  0.00     0.052 A 
ATOM     19  C   UNL d   1      -2.664   3.916   0.432  0.00  0.00     0.069 A 
ATOM     20  C   UNL d   1      -1.801   5.010   0.352  0.00  0.00     0.037 A 
ATOM     21  C   UNL d   1      -0.433   4.822   0.161  0.00  0.00     0.004 A 
ATOM     22  C   UNL d   1       0.081   3.530   0.054  0.00  0.00     0.016 A 
BRANCH  19  23
ATOM     23  O   UNL d   1      -3.979   4.239   0.625  0.00  0.00    -0.356 OA
ATOM     24  C   UNL d   1      -4.899   3.159   0.737  0.00  0.00     0.210 C 
ENDBRANCH  19  23
ENDBRANCH   7  17
TORSDOF 4
