REMARK  7 active torsions:
REMARK  status: ('A' for Active; 'I' for Inactive)
REMARK    1  A    between atoms: C_10  and  C_1 
REMARK    2  A    between atoms: O_15  and  C_3 
REMARK    3  A    between atoms: O_19  and  C_5 
REMARK    4  A    between atoms: O_20  and  C_8 
REMARK    5  A    between atoms: C_21  and  N_11 
REMARK    6  A    between atoms: C_16  and  C_22 
REMARK    7  A    between atoms: C_22  and  C_21 
ROOT
ATOM      1  C   UNL d   1      -0.204   3.434  -0.018  0.00  0.00     0.097 C 
ATOM      2  N   UNL d   1       0.818   4.223   0.011  0.00  0.00    -0.398 N 
ATOM      3  HN  UNL d   1       1.779   3.884   0.036  1.00  0.00     0.158 HD
ENDROOT
BRANCH   2   4
ATOM      4  C   UNL d   1       0.474   5.651   0.005  0.00  0.00     0.123 C 
BRANCH   4   5
ATOM      5  C   UNL d   1       1.782   6.449   0.008  0.00  0.00     0.058 C 
BRANCH   5   6
ATOM      6  C   UNL d   1       1.565   7.941   0.071  0.00  0.00    -0.054 A 
ATOM      7  C   UNL d   1       1.480   8.594   1.312  0.00  0.00     0.046 A 
ATOM      8  C   UNL d   1       1.286   9.982   1.399  0.00  0.00     0.102 A 
ATOM      9  C   UNL d   1       1.193  10.727   0.210  0.00  0.00     0.101 A 
ATOM     10  C   UNL d   1       1.249  10.070  -1.027  0.00  0.00     0.040 A 
ATOM     11  C   UNL d   1       1.435   8.690  -1.099  0.00  0.00     0.010 A 
BRANCH   8  12
ATOM     12  O   UNL d   1       1.153  10.653   2.586  0.00  0.00    -0.353 OA
ATOM     13  C   UNL d   1       1.210   9.900   3.789  0.00  0.00     0.210 C 
ENDBRANCH   8  12
BRANCH   9  14
ATOM     14  O   UNL d   1       0.992  12.079   0.092  0.00  0.00    -0.353 OA
ATOM     15  C   UNL d   1       1.574  12.899   1.099  0.00  0.00     0.210 C 
ENDBRANCH   9  14
ENDBRANCH   5   6
ENDBRANCH   4   5
ENDBRANCH   2   4
BRANCH   1  16
ATOM     16  C   UNL d   1      -0.033   1.965  -0.008  0.00  0.00     0.015 A 
ATOM     17  C   UNL d   1      -1.144   1.119  -0.038  0.00  0.00     0.099 A 
ATOM     18  C   UNL d   1      -0.958  -0.269  -0.021  0.00  0.00     0.069 A 
ATOM     19 CL   UNL d   1      -2.319  -1.330  -0.054  0.00  0.00    -0.081 Cl
ATOM     20  C   UNL d   1       0.325  -0.815   0.026  0.00  0.00     0.050 A 
ATOM     21  C   UNL d   1       1.426   0.037   0.054  0.00  0.00     0.036 A 
ATOM     22  C   UNL d   1       1.257   1.420   0.037  0.00  0.00     0.039 A 
ATOM     23 CL   UNL d   1       3.012  -0.629   0.113  0.00  0.00    -0.084 Cl
BRANCH  17  24
ATOM     24  O   UNL d   1      -2.406   1.652  -0.082  0.00  0.00    -0.358 OA
ATOM     25  H   UNL d   1      -3.043   0.910  -0.100  0.00  0.00     0.217 HD
ENDBRANCH  17  24
ENDBRANCH   1  16
TORSDOF 7
