REMARK  5 active torsions:
REMARK  status: ('A' for Active; 'I' for Inactive)
REMARK    1  A    between atoms: C_9  and  N_1 
REMARK    2  A    between atoms: C_2  and  C_3 
REMARK    3  A    between atoms: C_6  and  S_10 
REMARK    4  A    between atoms: S_10  and  C_19 
REMARK    5  A    between atoms: C_19  and  C_21 
ROOT
ATOM      1  C   UNL d   1      -3.246   3.938  -9.037  0.00  0.00     0.065 A 
ATOM      2  N   UNL d   1      -2.968   2.953  -6.846  0.00  0.00    -0.358 N 
ATOM      3  HN  UNL d   1      -3.278   2.866  -5.878  1.00  0.00     0.166 HD
ATOM      4  C   UNL d   1      -1.897   2.251  -7.302  0.00  0.00     0.091 A 
ATOM      5  C   UNL d   1      -2.167   3.183  -9.505  0.00  0.00     0.044 A 
ATOM      6  C   UNL d   1      -1.482   2.327  -8.637  0.00  0.00     0.068 A 
ATOM      7  C   UNL d   1      -3.612   3.770  -7.712  0.00  0.00     0.105 A 
ATOM      8 CL   UNL d   1      -0.149   1.438  -9.279  0.00  0.00    -0.081 Cl
ENDROOT
BRANCH   4   9
ATOM      9  S   UNL d   1      -1.035   1.250  -6.095  0.00  0.00    -0.106 SA
BRANCH   9  10
ATOM     10  C   UNL d   1      -1.807   1.839  -4.554  0.00  0.00     0.119 C 
BRANCH  10  11
ATOM     11  C   UNL d   1      -1.080   1.309  -3.338  0.00  0.00    -0.048 A 
ATOM     12  C   UNL d   1      -0.069   2.070  -2.728  0.00  0.00     0.010 A 
ATOM     13  C   UNL d   1       0.620   1.579  -1.617  0.00  0.00     0.036 A 
ATOM     14  C   UNL d   1       0.302   0.312  -1.113  0.00  0.00     0.102 A 
ATOM     15  C   UNL d   1      -0.701  -0.461  -1.711  0.00  0.00     0.036 A 
ATOM     16  C   UNL d   1      -1.386   0.040  -2.822  0.00  0.00     0.010 A 
BRANCH  14  17
ATOM     17  N   UNL d   1       1.030  -0.213   0.049  0.00  0.00    -0.116 N 
ATOM     18  O   UNL d   1       0.724  -1.340   0.461  0.00  0.00    -0.532 OA
ATOM     19  O   UNL d   1       1.908   0.504   0.552  0.00  0.00    -0.532 OA
ENDBRANCH  14  17
ENDBRANCH  10  11
ENDBRANCH   9  10
ENDBRANCH   4   9
BRANCH   1  20
ATOM     20  C   UNL d   1      -3.987   4.918  -9.893  0.00  0.00     0.418 C 
ATOM     21  F   UNL d   1      -3.492   5.016 -11.157  0.00  0.00    -0.166 F 
ATOM     22  F   UNL d   1      -5.303   4.602 -10.027  0.00  0.00    -0.166 F 
ATOM     23  F   UNL d   1      -3.953   6.177  -9.379  0.00  0.00    -0.166 F 
ENDBRANCH   1  20
TORSDOF 5
