REMARK  2 active torsions:
REMARK  status: ('A' for Active; 'I' for Inactive)
REMARK    1  A    between atoms: C_6  and  N_1 
REMARK    2  A    between atoms: O_12  and  C_2 
ROOT
ATOM      1  N   UNL d   1       0.847  -0.777   0.049  0.00  0.00    -0.234 N 
ATOM      2  C   UNL d   1      -0.453  -1.179  -0.258  0.00  0.00     0.163 C 
ATOM      3  N   UNL d   1       0.887   0.542   0.377  0.00  0.00    -0.296 N 
ATOM      4  HN  UNL d   1       1.669   1.060   0.778  1.00  0.00     0.187 HD
ATOM      5  C   UNL d   1      -1.195  -0.025  -0.340  0.00  0.00     0.083 C 
ATOM      6  C   UNL d   1      -0.324   1.009   0.056  0.00  0.00     0.026 C 
ATOM      7  C   UNL d   1      -0.633   2.455   0.174  0.00  0.00     0.070 C 
ENDROOT
BRANCH   1   8
ATOM      8  C   UNL d   1       2.048  -1.542   0.031  0.00  0.00     0.060 A 
ATOM      9  C   UNL d   1       2.152  -2.707  -0.742  0.00  0.00     0.057 A 
ATOM     10  C   UNL d   1       3.345  -3.440  -0.751  0.00  0.00     0.058 A 
ATOM     11 CL   UNL d   1       3.404  -4.856  -1.741  0.00  0.00    -0.082 Cl
ATOM     12  C   UNL d   1       4.438  -3.015   0.013  0.00  0.00     0.055 A 
ATOM     13  C   UNL d   1       4.342  -1.842   0.766  0.00  0.00     0.028 A 
ATOM     14 CL   UNL d   1       5.929  -3.886   0.063  0.00  0.00    -0.083 Cl
ATOM     15  C   UNL d   1       3.158  -1.099   0.764  0.00  0.00     0.033 A 
ENDBRANCH   1   8
BRANCH   2  16
ATOM     16  O   UNL d   1      -0.864  -2.439  -0.404  0.00  0.00    -0.345 OA
ATOM     17  H   UNL d   1      -0.291  -3.022   0.127  0.00  0.00     0.219 HD
ENDBRANCH   2  16
TORSDOF 2
