REMARK  2 active torsions:
REMARK  status: ('A' for Active; 'I' for Inactive)
REMARK    1  A    between atoms: C_13  and  N_3 
REMARK    2  A    between atoms: C_10  and  C_14 
ROOT
ATOM      1  C   UNL d   1      -0.344   0.562   0.084  0.00  0.00     0.139 A 
ATOM      2  C   UNL d   1       0.673   1.595   0.071  0.00  0.00     0.296 A 
ATOM      3  N   UNL d   1       1.989   1.057  -0.029  0.00  0.00    -0.218 N 
ATOM      4  C   UNL d   1      -0.024  -0.799   0.013  0.00  0.00     0.053 A 
ATOM      5  N   UNL d   1       2.281  -0.320  -0.121  0.00  0.00    -0.294 N 
ATOM      6  HN  UNL d   1       3.251  -0.617  -0.223  1.00  0.00     0.187 HD
ATOM      7  N   UNL d   1      -1.665   0.760   0.159  0.00  0.00    -0.255 N 
ATOM      8  HN  UNL d   1      -2.155   1.652   0.220  1.00  0.00     0.195 HD
ATOM      9  C   UNL d   1       1.341  -1.220  -0.078  0.00  0.00     0.037 A 
ATOM     10  O   UNL d   1      -2.223  -0.508   0.135  0.00  0.00    -0.241 OA
ATOM     11  C   UNL d   1      -1.234  -1.447   0.050  0.00  0.00     0.087 A 
ATOM     12  O   UNL d   1       0.385   2.786   0.115  0.00  0.00    -0.264 OA
ATOM     13  C   UNL d   1       1.722  -2.672  -0.105  0.00  0.00     0.070 C 
ATOM     14  C   UNL d   1      -1.708  -2.842   0.015  0.00  0.00     0.080 C 
ENDROOT
BRANCH   3  15
ATOM     15  C   UNL d   1       3.163   1.881   0.021  0.00  0.00     0.061 A 
ATOM     16  C   UNL d   1       3.161   3.131   0.656  0.00  0.00     0.047 A 
ATOM     17  C   UNL d   1       4.320   3.923   0.734  0.00  0.00     0.050 A 
ATOM     18  C   UNL d   1       5.498   3.464   0.133  0.00  0.00     0.016 A 
ATOM     19  C   UNL d   1       5.522   2.225  -0.504  0.00  0.00     0.003 A 
ATOM     20  C   UNL d   1       4.370   1.435  -0.542  0.00  0.00     0.031 A 
BRANCH  17  21
ATOM     21  C   UNL d   1       4.306   5.233   1.483  0.00  0.00     0.417 C 
ATOM     22  F   UNL d   1       3.100   5.537   2.038  0.00  0.00    -0.166 F 
ATOM     23  F   UNL d   1       5.198   5.246   2.513  0.00  0.00    -0.166 F 
ATOM     24  F   UNL d   1       4.633   6.293   0.693  0.00  0.00    -0.166 F 
ENDBRANCH  17  21
ENDBRANCH   3  15
TORSDOF 2
