REMARK  3 active torsions:
REMARK  status: ('A' for Active; 'I' for Inactive)
REMARK    1  A    between atoms: O_4  and  C_1 
REMARK    2  A    between atoms: C_3  and  O_4 
REMARK    3  A    between atoms: N_12  and  C_9 
ROOT
ATOM      1  O   UNL d   1       0.863  -2.372  -0.216  0.00  0.00    -0.291 OA
ENDROOT
BRANCH   1   2
ATOM      2  C   UNL d   1       2.191  -2.620   0.005  0.00  0.00     0.084 A 
ATOM      3  C   UNL d   1       2.898  -3.181  -1.050  0.00  0.00    -0.017 A 
ATOM      4  C   UNL d   1       4.286  -3.334  -0.994  0.00  0.00    -0.043 A 
ATOM      5  C   UNL d   1       2.350  -3.621  -2.372  0.00  0.00     0.042 C 
ATOM      6  C   UNL d   1       4.816  -3.867  -2.289  0.00  0.00     0.040 C 
ATOM      7  C   UNL d   1       5.006  -2.942   0.136  0.00  0.00    -0.055 A 
ATOM      8  C   UNL d   1       3.546  -4.345  -3.004  0.00  0.00     0.009 C 
ATOM      9  C   UNL d   1       4.278  -2.487   1.243  0.00  0.00     0.010 A 
ATOM     10  C   UNL d   1       6.500  -3.010   0.164  0.00  0.00     0.049 C 
ATOM     11  C   UNL d   1       2.880  -2.345   1.189  0.00  0.00     0.038 A 
ENDBRANCH   1   2
BRANCH   1  12
ATOM     12  C   UNL d   1       0.210  -1.354   0.444  0.00  0.00     0.169 A 
ATOM     13  N   UNL d   1      -1.034  -1.725   0.842  0.00  0.00    -0.345 N 
ATOM     14  C   UNL d   1      -1.815  -0.787   1.414  0.00  0.00     0.090 A 
ATOM     15  HN  UNL d   1      -1.366  -2.681   0.713  1.00  0.00     0.167 HD
ATOM     16  C   UNL d   1      -1.414   0.516   1.627  0.00  0.00     0.019 A 
ATOM     17  C   UNL d   1      -0.140   0.885   1.208  0.00  0.00     0.029 A 
ATOM     18  C   UNL d   1       0.717  -0.045   0.605  0.00  0.00     0.058 A 
BRANCH  18  19
ATOM     19  N   UNL d   1       1.885   0.456  -0.001  0.00  0.00    -0.299 NA
ATOM     20  H   UNL d   1       2.571  -0.251  -0.252  0.00  0.00     0.124 HD
ATOM     21  H   UNL d   1       2.308   1.228   0.503  0.00  0.00     0.124 HD
ENDBRANCH  18  19
ENDBRANCH   1  12
TORSDOF 3
