REMARK  4 active torsions:
REMARK  status: ('A' for Active; 'I' for Inactive)
REMARK    1  A    between atoms: C_4  and  C_1 
REMARK    2  A    between atoms: C_5  and  C_2 
REMARK    3  A    between atoms: O_10  and  C_4 
REMARK    4  A    between atoms: O_9  and  C_5 
ROOT
ATOM      1  C   UNL d   1       0.218   1.217  -0.010  0.00  0.00     0.077 A 
ATOM      2  C   UNL d   1       0.201  -1.218   0.001  0.00  0.00     0.077 A 
ATOM      3  C   UNL d   1       0.897  -0.005  -0.005  0.00  0.00     0.150 A 
ATOM      4  F   UNL d   1       2.242  -0.015  -0.007  0.00  0.00    -0.204 F 
ATOM      5  C   UNL d   1      -1.185   1.217  -0.006  0.00  0.00     0.021 A 
ATOM      6  C   UNL d   1      -1.202  -1.197   0.002  0.00  0.00     0.021 A 
ATOM      7  C   UNL d   1      -1.892   0.015  -0.000  0.00  0.00     0.002 A 
ENDROOT
BRANCH   1   8
ATOM      8  C   UNL d   1       0.910   2.533  -0.019  0.00  0.00     0.179 C 
ATOM      9  O   UNL d   1       0.289   3.584  -0.023  0.00  0.00    -0.646 OA
BRANCH   8  10
ATOM     10  O   UNL d   1       2.257   2.502  -0.026  0.00  0.00    -0.773 OA
ATOM     11  H   UNL d   1       2.680   1.622  -0.023  0.00  0.00     0.167 HD
ENDBRANCH   8  10
ENDBRANCH   1   8
BRANCH   2  12
ATOM     12  C   UNL d   1       0.874  -2.543   0.007  0.00  0.00     0.179 C 
ATOM     13  O   UNL d   1       0.238  -3.586   0.010  0.00  0.00    -0.646 OA
BRANCH  12  14
ATOM     14  O   UNL d   1       2.221  -2.531   0.011  0.00  0.00    -0.773 OA
ATOM     15  H   UNL d   1       2.656  -1.658   0.009  0.00  0.00     0.167 HD
ENDBRANCH  12  14
ENDBRANCH   2  12
TORSDOF 4
