REMARK  2 active torsions:
REMARK  status: ('A' for Active; 'I' for Inactive)
REMARK    1  A    between atoms: C_7  and  C_3 
REMARK    2  A    between atoms: N_11  and  C_5 
ROOT
ATOM      1  N   UNL d   1       1.300   0.647   0.172  0.00  0.00    -0.296 N 
ATOM      2  HN  UNL d   1       1.926   1.430   0.359  1.00  0.00     0.187 HD
ATOM      3  C   UNL d   1       1.622  -0.639  -0.016  0.00  0.00     0.069 A 
ATOM      4  C   UNL d   1       0.472  -1.440  -0.209  0.00  0.00     0.081 A 
ATOM      5  C   UNL d   1      -0.595  -0.578  -0.128  0.00  0.00     0.117 A 
ATOM      6  N   UNL d   1      -0.046   0.669   0.055  0.00  0.00    -0.281 N 
ATOM      7  C   UNL d   1      -0.711   1.948   0.075  0.00  0.00     0.179 C 
ENDROOT
BRANCH   3   8
ATOM      8  C   UNL d   1       3.047  -1.110  -0.021  0.00  0.00     0.033 A 
ATOM      9  S   UNL d   1       3.537  -2.710  -0.367  0.00  0.00    -0.100 SA
ATOM     10  C   UNL d   1       5.191  -2.312  -0.189  0.00  0.00     0.050 A 
ATOM     11  C   UNL d   1       5.369  -0.990   0.152  0.00  0.00     0.008 A 
ATOM     12  C   UNL d   1       4.128  -0.293   0.247  0.00  0.00     0.021 A 
ENDBRANCH   3   8
BRANCH   5  13
ATOM     13  N   UNL d   1      -1.918  -0.830  -0.224  0.00  0.00    -0.384 N 
ATOM     14  H   UNL d   1      -2.619  -0.179   0.119  0.00  0.00     0.157 HD
ATOM     15  H   UNL d   1      -2.245  -1.794  -0.205  0.00  0.00     0.157 HD
ENDBRANCH   5  13
TORSDOF 2
