REMARK  5 active torsions:
REMARK  status: ('A' for Active; 'I' for Inactive)
REMARK    1  A    between atoms: S_13  and  C_5 
REMARK    2  A    between atoms: C_12  and  C_7 
REMARK    3  A    between atoms: O_19  and  C_12 
REMARK    4  A    between atoms: C_14  and  S_13 
REMARK    5  A    between atoms: C_25  and  O_19 
ROOT
ATOM      1  C   UNL d   1       0.156  -0.780  -0.047  0.00  0.00     0.051 A 
ATOM      2  C   UNL d   1       0.143   0.612  -0.063  0.00  0.00     0.135 A 
ATOM      3  N   UNL d   1       2.325  -0.007  -0.162  0.00  0.00    -0.301 N 
ATOM      4  HN  UNL d   1       3.342   0.041  -0.218  1.00  0.00     0.187 HD
ATOM      5  C   UNL d   1      -1.096  -1.445   0.052  0.00  0.00     0.039 A 
ATOM      6  N   UNL d   1       1.448   1.013  -0.123  0.00  0.00    -0.280 N 
ATOM      7  C   UNL d   1      -2.240  -0.636   0.197  0.00  0.00     0.073 A 
ATOM      8  C   UNL d   1       1.551  -1.102  -0.110  0.00  0.00     0.037 A 
ATOM      9  N   UNL d   1      -0.929   1.423  -0.006  0.00  0.00    -0.349 N 
ATOM     10  HN  UNL d   1      -0.870   2.439  -0.067  1.00  0.00     0.167 HD
ATOM     11  C   UNL d   1      -2.092   0.750   0.142  0.00  0.00     0.108 A 
ATOM     12  C   UNL d   1       1.938   2.367  -0.083  0.00  0.00     0.179 C 
ATOM     13  C   UNL d   1       2.215  -2.432  -0.076  0.00  0.00     0.070 C 
ENDROOT
BRANCH   5  14
ATOM     14  S   UNL d   1      -1.089  -3.214  -0.039  0.00  0.00    -0.088 SA
BRANCH  14  15
ATOM     15  C   UNL d   1      -0.817  -3.780   1.631  0.00  0.00     0.007 A 
ATOM     16  C   UNL d   1      -0.776  -2.948   2.750  0.00  0.00     0.042 A 
ATOM     17  C   UNL d   1      -0.513  -3.484   4.012  0.00  0.00     0.035 A 
ATOM     18 CL   UNL d   1      -0.450  -2.442   5.380  0.00  0.00    -0.084 Cl
ATOM     19  C   UNL d   1      -0.295  -4.850   4.176  0.00  0.00     0.024 A 
ATOM     20  C   UNL d   1      -0.352  -5.692   3.069  0.00  0.00     0.003 A 
ATOM     21  C   UNL d   1      -0.613  -5.158   1.806  0.00  0.00     0.019 A 
ENDBRANCH  14  15
ENDBRANCH   5  14
BRANCH   7  22
ATOM     22  C   UNL d   1      -3.611  -1.090   0.532  0.00  0.00     0.296 C 
ATOM     23  O   UNL d   1      -4.393  -0.365   1.140  0.00  0.00    -0.259 OA
BRANCH  22  24
ATOM     24  O   UNL d   1      -3.876  -2.342   0.112  0.00  0.00    -0.318 OA
BRANCH  24  25
ATOM     25  C   UNL d   1      -5.141  -2.881   0.528  0.00  0.00     0.174 C 
ATOM     26  C   UNL d   1      -6.242  -2.435  -0.414  0.00  0.00     0.034 C 
ENDBRANCH  24  25
ENDBRANCH  22  24
ENDBRANCH   7  22
TORSDOF 5
