REMARK  7 active torsions:
REMARK  status: ('A' for Active; 'I' for Inactive)
REMARK       I    between atoms: C_2  and  N_1 
REMARK    1  A    between atoms: C_3  and  N_1 
REMARK    2  A    between atoms: C_4  and  C_2 
REMARK    3  A    between atoms: O_13  and  C_5 
REMARK    4  A    between atoms: O_14  and  C_6 
REMARK    5  A    between atoms: O_15  and  C_7 
REMARK    6  A    between atoms: C_20  and  C_11 
REMARK    7  A    between atoms: C_19  and  C_12 
ROOT
ATOM      1  N   UNL d   1       1.019   0.581   0.378  0.00  0.00    -0.322 N 
ATOM      2  C   UNL d   1       0.154   1.637   0.226  0.00  0.00     0.256 C 
ATOM      3  O   UNL d   1      -1.058   1.366   0.236  0.00  0.00    -0.267 OA
ATOM      4  H   UNL d   1       0.511  -0.242   0.691  0.00  0.00     0.169 HD
ENDROOT
BRANCH   2   5
ATOM      5  C   UNL d   1       0.556   3.072   0.134  0.00  0.00     0.037 C 
ATOM      6  C   UNL d   1       1.877   3.517   0.156  0.00  0.00     0.057 C 
ATOM      7  C   UNL d   1       2.191   4.869   0.368  0.00  0.00     0.105 C 
ATOM      8  C   UNL d   1       1.158   5.817   0.459  0.00  0.00     0.135 C 
ATOM      9  C   UNL d   1      -0.164   5.400   0.214  0.00  0.00     0.105 C 
ATOM     10  C   UNL d   1      -0.464   4.036   0.110  0.00  0.00     0.057 C 
BRANCH   7  11
ATOM     11  O   UNL d   1       3.482   5.306   0.510  0.00  0.00    -0.353 OA
ATOM     12  C   UNL d   1       4.550   4.392   0.317  0.00  0.00     0.210 C 
ENDBRANCH   7  11
BRANCH   8  13
ATOM     13  O   UNL d   1       1.298   7.145   0.773  0.00  0.00    -0.351 OA
ATOM     14  C   UNL d   1       2.500   7.615   1.357  0.00  0.00     0.210 C 
ENDBRANCH   8  13
BRANCH   9  15
ATOM     15  O   UNL d   1      -1.260   6.225   0.113  0.00  0.00    -0.353 OA
ATOM     16  C   UNL d   1      -1.019   7.493  -0.497  0.00  0.00     0.210 C 
ENDBRANCH   9  15
ENDBRANCH   2   5
BRANCH   1  17
ATOM     17  C   UNL d   1       2.416   0.462   0.489  0.00  0.00     0.047 C 
ATOM     18  C   UNL d   1       3.013   0.427   1.768  0.00  0.00    -0.031 C 
ATOM     19  C   UNL d   1       4.250  -0.220   1.931  0.00  0.00     0.009 C 
ATOM     20  C   UNL d   1       4.942  -0.709   0.829  0.00  0.00     0.001 C 
ATOM     21  C   UNL d   1       4.426  -0.516  -0.451  0.00  0.00     0.009 C 
ATOM     22  C   UNL d   1       3.153   0.050  -0.642  0.00  0.00    -0.031 C 
BRANCH  18  23
ATOM     23  C   UNL d   1       2.529   1.329   2.884  0.00  0.00     0.036 C 
ATOM     24  C   UNL d   1       2.144   0.674   4.192  0.00  0.00     0.010 C 
ENDBRANCH  18  23
BRANCH  22  25
ATOM     25  C   UNL d   1       2.695   0.366  -2.053  0.00  0.00     0.036 C 
ATOM     26  C   UNL d   1       2.758  -0.789  -3.040  0.00  0.00     0.010 C 
ENDBRANCH  22  25
ENDBRANCH   1  17
TORSDOF 7
