REMARK  10 active torsions:
REMARK  status: ('A' for Active; 'I' for Inactive)
REMARK    1  A    between atoms: C_3  and  C_1 
REMARK    2  A    between atoms: N_4  and  C_2 
REMARK    3  A    between atoms: O_15  and  C_3 
REMARK       I    between atoms: C_7  and  N_8 
REMARK    4  A    between atoms: C_20  and  C_7 
REMARK    5  A    between atoms: N_8  and  C_10 
REMARK    6  A    between atoms: C_9  and  C_21 
REMARK    7  A    between atoms: O_17  and  C_9 
REMARK    8  A    between atoms: C_22  and  O_15 
REMARK    9  A    between atoms: O_16  and  C_20 
REMARK   10  A    between atoms: C_21  and  O_16 
ROOT
ATOM      1  C   UNL d   1       1.446  -0.263   0.049  0.00  0.00     0.068 A 
ATOM      2  C   UNL d   1       0.606  -1.397   0.040  0.00  0.00     0.046 A 
ATOM      3  C   UNL d   1       0.894   1.039   0.030  0.00  0.00     0.049 A 
ATOM      4  C   UNL d   1      -0.781  -1.151  -0.069  0.00  0.00     0.032 A 
ATOM      5  C   UNL d   1      -0.482   1.249   0.003  0.00  0.00     0.035 A 
ATOM      6  C   UNL d   1      -1.320   0.141  -0.075  0.00  0.00     0.032 A 
ENDROOT
BRANCH   5   7
ATOM      7  N   UNL d   1      -1.075   2.525   0.100  0.00  0.00    -0.325 N 
ATOM      8  C   UNL d   1      -0.426   3.746   0.058  0.00  0.00     0.245 C 
ATOM      9  O   UNL d   1       0.749   3.938  -0.255  0.00  0.00    -0.271 OA
ATOM     10  H   UNL d   1      -2.078   2.547   0.238  0.00  0.00     0.169 HD
BRANCH   8  11
ATOM     11  C   UNL d   1      -1.340   4.922   0.392  0.00  0.00     0.271 C 
BRANCH  11  12
ATOM     12  O   UNL d   1      -1.958   4.763   1.674  0.00  0.00    -0.372 OA
BRANCH  12  13
ATOM     13  C   UNL d   1      -2.562   5.987   2.105  0.00  0.00     0.277 C 
BRANCH  13  14
ATOM     14  C   UNL d   1      -3.895   6.182   1.403  0.00  0.00     0.164 C 
ATOM     15  O   UNL d   1      -4.261   7.220   0.875  0.00  0.00    -0.648 OA
BRANCH  14  16
ATOM     16  O   UNL d   1      -4.638   5.046   1.407  0.00  0.00    -0.775 OA
ATOM     17  H   UNL d   1      -4.154   4.326   1.864  0.00  0.00     0.167 HD
ENDBRANCH  14  16
ENDBRANCH  13  14
ENDBRANCH  12  13
ENDBRANCH  11  12
ENDBRANCH   8  11
ENDBRANCH   5   7
BRANCH   1  18
ATOM     18  C   UNL d   1       2.933  -0.343  -0.011  0.00  0.00     0.295 C 
ATOM     19  O   UNL d   1       3.568  -1.161  -0.656  0.00  0.00    -0.259 OA
BRANCH  18  20
ATOM     20  O   UNL d   1       3.468   0.643   0.759  0.00  0.00    -0.318 OA
BRANCH  20  21
ATOM     21  C   UNL d   1       4.899   0.717   0.822  0.00  0.00     0.174 C 
ATOM     22  C   UNL d   1       5.507   1.253  -0.463  0.00  0.00     0.034 C 
ENDBRANCH  20  21
ENDBRANCH  18  20
ENDBRANCH   1  18
BRANCH   2  23
ATOM     23  N   UNL d   1       0.976  -2.726   0.244  0.00  0.00    -0.380 N 
ATOM     24  C   UNL d   1       2.099  -3.062   1.121  0.00  0.00     0.123 C 
ATOM     25  C   UNL d   1       1.830  -4.425   1.761  0.00  0.00     0.020 C 
ATOM     26  C   UNL d   1       1.598  -5.489   0.689  0.00  0.00     0.003 C 
ATOM     27  C   UNL d   1       0.487  -5.063  -0.271  0.00  0.00     0.020 C 
ATOM     28  C   UNL d   1       0.747  -3.671  -0.857  0.00  0.00     0.123 C 
ENDBRANCH   2  23
TORSDOF 10
