REMARK  4 active torsions:
REMARK  status: ('A' for Active; 'I' for Inactive)
REMARK    1  A    between atoms: O_4  and  C_1 
REMARK    2  A    between atoms: C_5  and  O_4 
REMARK    3  A    between atoms: C_6  and  C_5 
REMARK    4  A    between atoms: C_12  and  C_7 
ROOT
ATOM      1  C   UNL d   1       1.263   3.015   0.015  0.00  0.00     0.288 C 
ATOM      2  O   UNL d   1       1.007   4.154   0.376  0.00  0.00    -0.260 OA
ENDROOT
BRANCH   1   3
ATOM      3  O   UNL d   1       0.407   2.050  -0.405  0.00  0.00    -0.272 OA
BRANCH   3   4
ATOM      4  C   UNL d   1      -0.945   2.095  -0.097  0.00  0.00     0.127 A 
ATOM      5  C   UNL d   1      -1.862   3.073  -0.019  0.00  0.00    -0.046 A 
ATOM      6  C   UNL d   1      -3.216   2.582   0.421  0.00  0.00     0.044 A 
ATOM      7  C   UNL d   1      -1.721   4.527  -0.317  0.00  0.00     0.046 C 
ATOM      8  C   UNL d   1      -3.109   1.064   0.464  0.00  0.00     0.090 A 
ATOM      9  C   UNL d   1      -1.653   0.830   0.213  0.00  0.00     0.183 A 
ATOM     10  O   UNL d   1      -1.106  -0.263   0.240  0.00  0.00    -0.290 OA
ENDBRANCH   3   4
ENDBRANCH   1   3
BRANCH   1  11
ATOM     11  C   UNL d   1       2.650   2.497   0.089  0.00  0.00     0.083 C 
ATOM     12  C   UNL d   1       2.949   1.188   0.141  0.00  0.00     0.017 C 
BRANCH  12  13
ATOM     13  C   UNL d   1       4.284   0.654   0.456  0.00  0.00    -0.036 A 
ATOM     14  C   UNL d   1       5.162   1.314   1.328  0.00  0.00     0.011 A 
ATOM     15  C   UNL d   1       6.370   0.723   1.708  0.00  0.00     0.001 A 
ATOM     16  C   UNL d   1       6.711  -0.538   1.227  0.00  0.00     0.000 A 
ATOM     17  C   UNL d   1       5.847  -1.207   0.361  0.00  0.00     0.001 A 
ATOM     18  C   UNL d   1       4.639  -0.616  -0.019  0.00  0.00     0.011 A 
ENDBRANCH  12  13
ENDBRANCH   1  11
TORSDOF 4
