REMARK  2 active torsions:
REMARK  status: ('A' for Active; 'I' for Inactive)
REMARK    1  A    between atoms: C_13  and  C_4 
REMARK    2  A    between atoms: S_18  and  C_12 
ROOT
ATOM      1  C   UNL d   1      -0.156  -1.125  -0.015  0.00  0.00     0.057 A 
ATOM      2  C   UNL d   1      -0.319  -2.549  -0.038  0.00  0.00     0.070 A 
ATOM      3  S   UNL d   1       1.405  -0.412  -0.035  0.00  0.00    -0.067 SA
ATOM      4  C   UNL d   1       0.710   1.157   0.007  0.00  0.00     0.092 A 
ATOM      5  N   UNL d   1      -0.607   1.172   0.035  0.00  0.00    -0.352 N 
ATOM      6  HN  UNL d   1      -1.177   2.018   0.063  1.00  0.00     0.166 HD
ATOM      7  C   UNL d   1      -1.115  -0.123   0.021  0.00  0.00     0.025 A 
ATOM      8  C   UNL d   1      -1.323  -3.367   0.432  0.00  0.00     0.070 A 
ATOM      9  N   UNL d   1       0.607  -3.403  -0.585  0.00  0.00    -0.298 N 
ATOM     10  N   UNL d   1       0.267  -4.700  -0.507  0.00  0.00    -0.294 N 
ATOM     11  HN  UNL d   1       0.785  -5.510  -0.848  1.00  0.00     0.187 HD
ATOM     12  C   UNL d   1      -0.907  -4.676   0.122  0.00  0.00     0.086 A 
ATOM     13  C   UNL d   1      -2.595  -0.283   0.011  0.00  0.00     0.070 C 
ATOM     14  H   UNL d   1       1.485  -3.158  -1.028  0.00  0.00     0.187 HD
ENDROOT
BRANCH   4  15
ATOM     15  C   UNL d   1       1.486   2.379  -0.003  0.00  0.00     0.038 A 
ATOM     16  S   UNL d   1       3.206   2.415  -0.058  0.00  0.00    -0.099 SA
ATOM     17  C   UNL d   1       3.253   4.120  -0.054  0.00  0.00     0.050 A 
ATOM     18  C   UNL d   1       1.993   4.669  -0.008  0.00  0.00     0.008 A 
ATOM     19  C   UNL d   1       0.978   3.668   0.024  0.00  0.00     0.022 A 
ENDBRANCH   4  15
BRANCH  12  20
ATOM     20  S   UNL d   1      -1.810  -6.113   0.517  0.00  0.00    -0.115 SA
ATOM     21  C   UNL d   1      -0.723  -7.403  -0.126  0.00  0.00     0.097 C 
ENDBRANCH  12  20
TORSDOF 2
