REMARK  1 active torsions:
REMARK  status: ('A' for Active; 'I' for Inactive)
REMARK    1  A    between atoms: C_5  and  C_1 
ROOT
ATOM      1  C   UNL d   1       0.696   1.165  -0.374  0.00  0.00     0.032 C 
ATOM      2  C   UNL d   1      -1.473  -0.061  -0.017  0.00  0.00     0.134 C 
ATOM      3  C   UNL d   1       0.702  -1.310   0.083  0.00  0.00     0.134 C 
ATOM      4  C   UNL d   1      -0.773  -1.332   0.372  0.00  0.00     0.156 C 
ATOM      5  C   UNL d   1       1.435  -0.003   0.295  0.00  0.00     0.088 C 
ATOM      6  C   UNL d   1      -0.729   1.236   0.204  0.00  0.00     0.088 C 
ATOM      7  O   UNL d   1      -2.660  -0.060  -0.345  0.00  0.00    -0.298 OA
ATOM      8  O   UNL d   1       1.318  -2.340  -0.189  0.00  0.00    -0.298 OA
ENDROOT
BRANCH   1   9
ATOM      9  C   UNL d   1       0.728   1.199  -1.902  0.00  0.00    -0.053 A 
ATOM     10  C   UNL d   1       1.410   0.247  -2.681  0.00  0.00     0.010 A 
ATOM     11  C   UNL d   1       1.435   0.339  -4.076  0.00  0.00     0.043 A 
ATOM     12  C   UNL d   1       0.789   1.389  -4.710  0.00  0.00     0.116 A 
ATOM     13  C   UNL d   1       0.122   2.355  -3.972  0.00  0.00     0.043 A 
ATOM     14  F   UNL d   1       0.819   1.478  -6.045  0.00  0.00    -0.206 F 
ATOM     15  C   UNL d   1       0.100   2.265  -2.578  0.00  0.00     0.010 A 
ENDBRANCH   1   9
TORSDOF 1
