REMARK  4 active torsions:
REMARK  status: ('A' for Active; 'I' for Inactive)
REMARK    1  A    between atoms: C_15  and  N_10 
REMARK    2  A    between atoms: C_17  and  C_15 
REMARK    3  A    between atoms: C_20  and  C_17 
REMARK    4  A    between atoms: O_19  and  C_20 
ROOT
ATOM      1  C   UNL d   1      -1.093  -0.704   0.020  0.00  0.00     0.200 A 
ATOM      2  N   UNL d   1      -1.172   0.678   0.027  0.00  0.00    -0.197 N 
ATOM      3  N   UNL d   1       0.019  -1.373   0.011  0.00  0.00    -0.336 N 
ATOM      4  HN  UNL d   1       0.018  -2.393   0.005  1.00  0.00     0.168 HD
ATOM      5  C   UNL d   1      -0.023   1.472   0.019  0.00  0.00     0.281 A 
ATOM      6  C   UNL d   1      -2.409  -1.460   0.019  0.00  0.00     0.294 A 
ATOM      7  N   UNL d   1      -2.372   1.351   0.041  0.00  0.00    -0.285 N 
ATOM      8  HN  UNL d   1      -2.395   2.371   0.066  1.00  0.00     0.188 HD
ATOM      9  C   UNL d   1       1.259   0.740   0.010  0.00  0.00     0.060 A 
ATOM     10  N   UNL d   1      -3.552  -0.686  -0.008  0.00  0.00    -0.306 N 
ATOM     11  C   UNL d   1       1.219  -0.654   0.008  0.00  0.00     0.049 A 
ATOM     12  C   UNL d   1      -3.465   0.673   0.023  0.00  0.00     0.203 A 
ATOM     13  O   UNL d   1      -0.007   2.703   0.019  0.00  0.00    -0.265 OA
ATOM     14  O   UNL d   1      -2.404  -2.686   0.040  0.00  0.00    -0.264 OA
ATOM     15  C   UNL d   1       2.481   1.425   0.005  0.00  0.00     0.019 A 
ATOM     16  C   UNL d   1       2.422  -1.363   0.003  0.00  0.00     0.030 A 
ATOM     17  C   UNL d   1       3.675   0.706  -0.000  0.00  0.00     0.001 A 
ATOM     18  C   UNL d   1       3.646  -0.688  -0.001  0.00  0.00     0.002 A 
ENDROOT
BRANCH  10  19
ATOM     19  C   UNL d   1      -4.853  -1.344  -0.050  0.00  0.00     0.135 C 
BRANCH  19  20
ATOM     20  C   UNL d   1      -5.395  -1.642   1.351  0.00  0.00     0.046 C 
BRANCH  20  21
ATOM     21  C   UNL d   1      -6.734  -2.369   1.281  0.00  0.00     0.168 C 
BRANCH  21  22
ATOM     22  O   UNL d   1      -6.551  -3.590   0.573  0.00  0.00    -0.396 OA
ATOM     23  C   UNL d   1      -7.757  -4.330   0.449  0.00  0.00     0.201 C 
ENDBRANCH  21  22
ENDBRANCH  20  21
ENDBRANCH  19  20
ENDBRANCH  10  19
TORSDOF 4
